MODEL 1
REMARK VINA RESULT:      -9.0      0.000      0.000
REMARK SMILES Cc1cc(C[N@@H+]2CC[C@@H](C(=O)OCCOC(=O)c3ccc(-c4c5nc(c(-c6c(F)cccc6F)c6ccc([nH]6)c(-c6c(F)cccc6F)c6nc(c(-c7c(F)cccc7F)c7ccc4[nH]7)C=C6)C=C5)cc3)C2)ccc1Br
REMARK SMILES IDX 13 1 12 2 10 3 11 4 9 5 6 6 7 7 72 8 8 10 5 11 4 12 1 13
REMARK SMILES IDX 2 14 3 15 75 16 74 17 76 18 73 19 14 20 15 21 16 22 17 23
REMARK SMILES IDX 18 24 19 25 71 26 20 27 70 28 21 29 22 30 23 31 64 32 24 33
REMARK SMILES IDX 69 34 63 35 65 36 25 37 68 38 62 39 61 40 26 42 52 43 35 44
REMARK SMILES IDX 51 45 36 46 39 47 50 48 66 49 37 50 38 51 49 53 67 54 40 55
REMARK SMILES IDX 27 56 28 57 33 58 29 59 30 60 32 61 34 62 31 63 53 64 54 65
REMARK SMILES IDX 59 66 55 67 56 68 58 69 60 70 57 71 41 72 42 73 47 74 43 75
REMARK SMILES IDX 44 76 46 77 48 78 45 79
REMARK H PARENT 6 9 65 41 39 52
REMARK Flexibility Score: inf
ROOT
ATOM      1  C   UNL A   1      46.034  22.812  24.536  1.00  0.00     0.274 C 
ENDROOT
BRANCH   1   2
ATOM      2  O   UNL A   1      46.314  24.104  25.109  1.00  0.00    -0.462 OA
BRANCH   2   3
ATOM      3  C   UNL A   1      46.432  24.156  26.462  1.00  0.00     0.315 C 
ATOM      4  O   UNL A   1      46.070  23.273  27.231  1.00  0.00    -0.252 OA
BRANCH   3   5
ATOM      5  C   UNL A   1      47.032  25.458  26.938  1.00  0.00     0.159 C 
ATOM      6  N   UNL A   1      47.464  26.528  29.031  1.00  0.00    -0.330 N 
ATOM      7  C   UNL A   1      48.645  25.735  28.715  1.00  0.00     0.263 C 
ATOM      8  C   UNL A   1      46.378  26.001  28.204  1.00  0.00     0.278 C 
ATOM      9  H   UNL A   1      47.233  26.414  30.018  1.00  0.00     0.348 HD
ATOM     10  C   UNL A   1      48.515  25.315  27.260  1.00  0.00     0.082 C 
BRANCH   6  11
ATOM     11  C   UNL A   1      47.628  27.983  29.046  1.00  0.00     0.299 C 
BRANCH  11  12
ATOM     12  C   UNL A   1      46.406  28.840  29.304  1.00  0.00     0.007 A 
ATOM     13  C   UNL A   1      43.418  30.165  27.333  1.00  0.00     0.045 C 
ATOM     14  C   UNL A   1      44.361  29.918  28.477  1.00  0.00    -0.036 A 
ATOM     15  C   UNL A   1      45.510  29.134  28.262  1.00  0.00     0.014 A 
ATOM     16  C   UNL A   1      44.148  30.453  29.755  1.00  0.00     0.020 A 
ATOM     17  C   UNL A   1      45.017  30.148  30.804  1.00  0.00     0.016 A 
ATOM     18  Br  UNL A   1      42.691  31.609  30.135  1.00  0.00    -0.051 Br
ATOM     19  C   UNL A   1      46.119  29.323  30.585  1.00  0.00     0.011 A 
ENDBRANCH  11  12
ENDBRANCH   6  11
ENDBRANCH   3   5
ENDBRANCH   2   3
ENDBRANCH   1   2
BRANCH   1  20
ATOM     20  C   UNL A   1      44.646  22.756  23.895  1.00  0.00     0.275 C 
BRANCH  20  21
ATOM     21  O   UNL A   1      43.769  23.749  24.452  1.00  0.00    -0.458 OA
BRANCH  21  22
ATOM     22  C   UNL A   1      42.830  23.277  25.301  1.00  0.00     0.338 C 
ATOM     23  O   UNL A   1      42.395  22.142  25.376  1.00  0.00    -0.246 OA
BRANCH  22  24
ATOM     24  C   UNL A   1      42.460  24.337  26.248  1.00  0.00     0.060 A 
ATOM     25  C   UNL A   1      43.171  25.543  26.215  1.00  0.00     0.016 A 
ATOM     26  C   UNL A   1      41.463  24.117  27.197  1.00  0.00     0.016 A 
ATOM     27  C   UNL A   1      42.885  26.542  27.139  1.00  0.00     0.010 A 
ATOM     28  C   UNL A   1      41.180  25.117  28.125  1.00  0.00     0.010 A 
ATOM     29  C   UNL A   1      41.896  26.328  28.106  1.00  0.00    -0.014 A 
BRANCH  29  30
ATOM     30  C   UNL A   1      41.627  27.335  29.153  1.00  0.00     0.031 A 
ATOM     31  C   UNL A   1      42.415  27.295  30.425  1.00  0.00     0.074 A 
ATOM     32  C   UNL A   1      40.649  28.240  28.978  1.00  0.00     0.049 A 
ATOM     33  N   UNL A   1      42.214  27.940  31.544  1.00  0.00    -0.248 NA
ATOM     34  C   UNL A   1      43.583  26.401  30.440  1.00  0.00     0.031 C 
ATOM     35  C   UNL A   1      39.862  28.410  27.757  1.00  0.00     0.029 A 
ATOM     36  N   UNL A   1      40.137  29.171  29.845  1.00  0.00    -0.354 N 
ATOM     37  C   UNL A   1      43.214  27.512  32.407  1.00  0.00     0.074 A 
ATOM     38  C   UNL A   1      44.015  26.547  31.684  1.00  0.00     0.031 C 
ATOM     39  C   UNL A   1      38.952  29.379  27.959  1.00  0.00     0.029 A 
ATOM     40  C   UNL A   1      39.060  29.852  29.336  1.00  0.00     0.049 A 
ATOM     41  H   UNL A   1      40.506  29.333  30.743  1.00  0.00     0.167 HD
ATOM     42  C   UNL A   1      43.434  27.888  33.688  1.00  0.00     0.037 A 
ATOM     43  C   UNL A   1      38.230  30.727  29.934  1.00  0.00     0.037 A 
ATOM     44  C   UNL A   1      42.629  28.850  34.395  1.00  0.00     0.049 A 
ATOM     45  C   UNL A   1      38.437  31.059  31.385  1.00  0.00     0.074 A 
ATOM     46  C   UNL A   1      42.769  29.308  35.693  1.00  0.00     0.029 A 
ATOM     47  N   UNL A   1      41.526  29.496  33.858  1.00  0.00    -0.354 N 
ATOM     48  N   UNL A   1      39.370  30.639  32.205  1.00  0.00    -0.248 NA
ATOM     49  C   UNL A   1      37.464  31.973  32.000  1.00  0.00     0.031 C 
ATOM     50  C   UNL A   1      41.728  30.207  35.952  1.00  0.00     0.029 A 
ATOM     51  C   UNL A   1      40.962  30.335  34.803  1.00  0.00     0.049 A 
ATOM     52  H   UNL A   1      41.193  29.377  32.939  1.00  0.00     0.167 HD
ATOM     53  C   UNL A   1      39.115  31.257  33.422  1.00  0.00     0.074 A 
ATOM     54  C   UNL A   1      37.938  32.080  33.234  1.00  0.00     0.031 C 
ATOM     55  C   UNL A   1      39.799  31.157  34.588  1.00  0.00     0.037 A 
BRANCH  42  56
ATOM     56  C   UNL A   1      44.566  27.224  34.410  1.00  0.00     0.057 A 
ATOM     57  C   UNL A   1      44.414  25.990  35.052  1.00  0.00     0.134 A 
ATOM     58  C   UNL A   1      45.828  27.832  34.465  1.00  0.00     0.134 A 
ATOM     59  F   UNL A   1      43.226  25.365  35.052  1.00  0.00    -0.206 F 
ATOM     60  C   UNL A   1      45.469  25.392  35.745  1.00  0.00     0.040 A 
ATOM     61  C   UNL A   1      46.896  27.234  35.135  1.00  0.00     0.040 A 
ATOM     62  F   UNL A   1      46.041  29.015  33.871  1.00  0.00    -0.206 F 
ATOM     63  C   UNL A   1      46.716  26.014  35.784  1.00  0.00     0.006 A 
ENDBRANCH  42  56
BRANCH  43  64
ATOM     64  C   UNL A   1      37.117  31.332  29.166  1.00  0.00     0.057 A 
ATOM     65  C   UNL A   1      35.959  30.599  28.885  1.00  0.00     0.134 A 
ATOM     66  C   UNL A   1      37.175  32.652  28.704  1.00  0.00     0.134 A 
ATOM     67  F   UNL A   1      35.856  29.322  29.284  1.00  0.00    -0.206 F 
ATOM     68  C   UNL A   1      34.900  31.154  28.167  1.00  0.00     0.040 A 
ATOM     69  C   UNL A   1      36.115  33.227  28.001  1.00  0.00     0.040 A 
ATOM     70  F   UNL A   1      38.259  33.406  28.940  1.00  0.00    -0.206 F 
ATOM     71  C   UNL A   1      34.974  32.474  27.728  1.00  0.00     0.006 A 
ENDBRANCH  43  64
BRANCH  55  72
ATOM     72  C   UNL A   1      39.320  31.993  35.735  1.00  0.00     0.057 A 
ATOM     73  C   UNL A   1      39.822  33.278  35.974  1.00  0.00     0.134 A 
ATOM     74  C   UNL A   1      38.307  31.523  36.581  1.00  0.00     0.134 A 
ATOM     75  F   UNL A   1      40.803  33.777  35.206  1.00  0.00    -0.206 F 
ATOM     76  C   UNL A   1      39.340  34.064  37.021  1.00  0.00     0.040 A 
ATOM     77  C   UNL A   1      37.803  32.307  37.619  1.00  0.00     0.040 A 
ATOM     78  F   UNL A   1      37.782  30.302  36.400  1.00  0.00    -0.206 F 
ATOM     79  C   UNL A   1      38.321  33.580  37.842  1.00  0.00     0.006 A 
ENDBRANCH  55  72
ENDBRANCH  29  30
ENDBRANCH  22  24
ENDBRANCH  21  22
ENDBRANCH  20  21
ENDBRANCH   1  20
TORSDOF 13
ENDMDL
MODEL 2
REMARK VINA RESULT:      -8.9      4.644     10.474
REMARK SMILES Cc1cc(C[N@@H+]2CC[C@@H](C(=O)OCCOC(=O)c3ccc(-c4c5nc(c(-c6c(F)cccc6F)c6ccc([nH]6)c(-c6c(F)cccc6F)c6nc(c(-c7c(F)cccc7F)c7ccc4[nH]7)C=C6)C=C5)cc3)C2)ccc1Br
REMARK SMILES IDX 13 1 12 2 10 3 11 4 9 5 6 6 7 7 72 8 8 10 5 11 4 12 1 13
REMARK SMILES IDX 2 14 3 15 75 16 74 17 76 18 73 19 14 20 15 21 16 22 17 23
REMARK SMILES IDX 18 24 19 25 71 26 20 27 70 28 21 29 22 30 23 31 64 32 24 33
REMARK SMILES IDX 69 34 63 35 65 36 25 37 68 38 62 39 61 40 26 42 52 43 35 44
REMARK SMILES IDX 51 45 36 46 39 47 50 48 66 49 37 50 38 51 49 53 67 54 40 55
REMARK SMILES IDX 27 56 28 57 33 58 29 59 30 60 32 61 34 62 31 63 53 64 54 65
REMARK SMILES IDX 59 66 55 67 56 68 58 69 60 70 57 71 41 72 42 73 47 74 43 75
REMARK SMILES IDX 44 76 46 77 48 78 45 79
REMARK H PARENT 6 9 65 41 39 52
REMARK Flexibility Score: inf
ROOT
ATOM      1  C   UNL A   1      35.869  33.900  34.392  1.00  0.00     0.274 C 
ENDROOT
BRANCH   1   2
ATOM      2  O   UNL A   1      36.676  34.953  33.832  1.00  0.00    -0.462 OA
BRANCH   2   3
ATOM      3  C   UNL A   1      37.750  34.569  33.093  1.00  0.00     0.315 C 
ATOM      4  O   UNL A   1      37.829  34.660  31.873  1.00  0.00    -0.252 OA
BRANCH   3   5
ATOM      5  C   UNL A   1      38.848  33.970  33.941  1.00  0.00     0.159 C 
ATOM      6  N   UNL A   1      41.238  33.952  33.957  1.00  0.00    -0.330 N 
ATOM      7  C   UNL A   1      40.823  35.103  34.749  1.00  0.00     0.263 C 
ATOM      8  C   UNL A   1      40.084  33.573  33.141  1.00  0.00     0.278 C 
ATOM      9  H   UNL A   1      42.016  34.218  33.354  1.00  0.00     0.348 HD
ATOM     10  C   UNL A   1      39.334  34.942  35.009  1.00  0.00     0.082 C 
BRANCH   6  11
ATOM     11  C   UNL A   1      41.919  32.870  34.670  1.00  0.00     0.299 C 
BRANCH  11  12
ATOM     12  C   UNL A   1      42.389  31.671  33.873  1.00  0.00     0.007 A 
ATOM     13  C   UNL A   1      41.088  28.201  32.958  1.00  0.00     0.045 C 
ATOM     14  C   UNL A   1      42.001  29.392  33.046  1.00  0.00    -0.036 A 
ATOM     15  C   UNL A   1      41.593  30.516  33.789  1.00  0.00     0.014 A 
ATOM     16  C   UNL A   1      43.256  29.423  32.424  1.00  0.00     0.020 A 
ATOM     17  C   UNL A   1      44.045  30.574  32.479  1.00  0.00     0.016 A 
ATOM     18  Br  UNL A   1      43.956  27.929  31.483  1.00  0.00    -0.051 Br
ATOM     19  C   UNL A   1      43.600  31.697  33.173  1.00  0.00     0.011 A 
ENDBRANCH  11  12
ENDBRANCH   6  11
ENDBRANCH   3   5
ENDBRANCH   2   3
ENDBRANCH   1   2
BRANCH   1  20
ATOM     20  C   UNL A   1      34.837  33.372  33.393  1.00  0.00     0.275 C 
BRANCH  20  21
ATOM     21  O   UNL A   1      35.224  32.093  32.865  1.00  0.00    -0.458 OA
BRANCH  21  22
ATOM     22  C   UNL A   1      35.259  32.015  31.515  1.00  0.00     0.338 C 
ATOM     23  O   UNL A   1      34.385  32.329  30.727  1.00  0.00    -0.246 OA
BRANCH  22  24
ATOM     24  C   UNL A   1      36.597  31.581  31.093  1.00  0.00     0.060 A 
ATOM     25  C   UNL A   1      36.969  31.764  29.755  1.00  0.00     0.016 A 
ATOM     26  C   UNL A   1      37.448  30.944  31.995  1.00  0.00     0.016 A 
ATOM     27  C   UNL A   1      38.206  31.307  29.311  1.00  0.00     0.010 A 
ATOM     28  C   UNL A   1      38.685  30.484  31.548  1.00  0.00     0.010 A 
ATOM     29  C   UNL A   1      39.063  30.654  30.204  1.00  0.00    -0.014 A 
BRANCH  29  30
ATOM     30  C   UNL A   1      40.346  30.084  29.743  1.00  0.00     0.031 A 
ATOM     31  C   UNL A   1      41.536  30.981  29.603  1.00  0.00     0.074 A 
ATOM     32  C   UNL A   1      40.421  28.785  29.405  1.00  0.00     0.049 A 
ATOM     33  N   UNL A   1      42.688  30.747  29.033  1.00  0.00    -0.248 NA
ATOM     34  C   UNL A   1      41.406  32.329  30.178  1.00  0.00     0.031 C 
ATOM     35  C   UNL A   1      39.345  27.807  29.559  1.00  0.00     0.029 A 
ATOM     36  N   UNL A   1      41.448  28.075  28.837  1.00  0.00    -0.354 N 
ATOM     37  C   UNL A   1      43.414  31.924  29.156  1.00  0.00     0.074 A 
ATOM     38  C   UNL A   1      42.568  32.873  29.849  1.00  0.00     0.031 C 
ATOM     39  C   UNL A   1      39.764  26.623  29.081  1.00  0.00     0.029 A 
ATOM     40  C   UNL A   1      41.111  26.778  28.540  1.00  0.00     0.049 A 
ATOM     41  H   UNL A   1      42.337  28.458  28.661  1.00  0.00     0.167 HD
ATOM     42  C   UNL A   1      44.668  32.185  28.721  1.00  0.00     0.037 A 
ATOM     43  C   UNL A   1      41.801  25.839  27.866  1.00  0.00     0.037 A 
ATOM     44  C   UNL A   1      45.498  31.232  28.034  1.00  0.00     0.049 A 
ATOM     45  C   UNL A   1      43.154  26.182  27.310  1.00  0.00     0.074 A 
ATOM     46  C   UNL A   1      46.787  31.391  27.556  1.00  0.00     0.029 A 
ATOM     47  N   UNL A   1      45.111  29.937  27.721  1.00  0.00    -0.354 N 
ATOM     48  N   UNL A   1      43.831  27.301  27.410  1.00  0.00    -0.248 NA
ATOM     49  C   UNL A   1      43.834  25.137  26.532  1.00  0.00     0.031 C 
ATOM     50  C   UNL A   1      47.167  30.202  26.923  1.00  0.00     0.029 A 
ATOM     51  C   UNL A   1      46.128  29.291  27.039  1.00  0.00     0.049 A 
ATOM     52  H   UNL A   1      44.242  29.535  27.950  1.00  0.00     0.167 HD
ATOM     53  C   UNL A   1      45.025  27.087  26.734  1.00  0.00     0.074 A 
ATOM     54  C   UNL A   1      44.980  25.731  26.227  1.00  0.00     0.031 C 
ATOM     55  C   UNL A   1      46.066  27.936  26.556  1.00  0.00     0.037 A 
BRANCH  42  56
ATOM     56  C   UNL A   1      45.194  33.571  28.946  1.00  0.00     0.057 A 
ATOM     57  C   UNL A   1      45.884  33.922  30.113  1.00  0.00     0.134 A 
ATOM     58  C   UNL A   1      45.006  34.568  27.980  1.00  0.00     0.134 A 
ATOM     59  F   UNL A   1      46.081  33.017  31.084  1.00  0.00    -0.206 F 
ATOM     60  C   UNL A   1      46.347  35.222  30.323  1.00  0.00     0.040 A 
ATOM     61  C   UNL A   1      45.484  35.865  28.169  1.00  0.00     0.040 A 
ATOM     62  F   UNL A   1      44.355  34.297  26.839  1.00  0.00    -0.206 F 
ATOM     63  C   UNL A   1      46.150  36.197  29.347  1.00  0.00     0.006 A 
ENDBRANCH  42  56
BRANCH  43  64
ATOM     64  C   UNL A   1      41.212  24.495  27.662  1.00  0.00     0.057 A 
ATOM     65  C   UNL A   1      40.180  24.297  26.739  1.00  0.00     0.134 A 
ATOM     66  C   UNL A   1      41.668  23.378  28.372  1.00  0.00     0.134 A 
ATOM     67  F   UNL A   1      39.688  25.334  26.045  1.00  0.00    -0.206 F 
ATOM     68  C   UNL A   1      39.618  23.038  26.531  1.00  0.00     0.040 A 
ATOM     69  C   UNL A   1      41.129  22.108  28.161  1.00  0.00     0.040 A 
ATOM     70  F   UNL A   1      42.655  23.503  29.272  1.00  0.00    -0.206 F 
ATOM     71  C   UNL A   1      40.097  21.937  27.239  1.00  0.00     0.006 A 
ENDBRANCH  43  64
BRANCH  55  72
ATOM     72  C   UNL A   1      47.261  27.406  25.823  1.00  0.00     0.057 A 
ATOM     73  C   UNL A   1      48.288  26.720  26.482  1.00  0.00     0.134 A 
ATOM     74  C   UNL A   1      47.358  27.544  24.433  1.00  0.00     0.134 A 
ATOM     75  F   UNL A   1      48.259  26.569  27.815  1.00  0.00    -0.206 F 
ATOM     76  C   UNL A   1      49.377  26.196  25.784  1.00  0.00     0.040 A 
ATOM     77  C   UNL A   1      48.431  27.007  23.721  1.00  0.00     0.040 A 
ATOM     78  F   UNL A   1      46.403  28.186  23.745  1.00  0.00    -0.206 F 
ATOM     79  C   UNL A   1      49.445  26.333  24.397  1.00  0.00     0.006 A 
ENDBRANCH  55  72
ENDBRANCH  29  30
ENDBRANCH  22  24
ENDBRANCH  21  22
ENDBRANCH  20  21
ENDBRANCH   1  20
TORSDOF 13
ENDMDL
MODEL 3
REMARK VINA RESULT:      -8.8      4.594      9.624
REMARK SMILES Cc1cc(C[N@@H+]2CC[C@@H](C(=O)OCCOC(=O)c3ccc(-c4c5nc(c(-c6c(F)cccc6F)c6ccc([nH]6)c(-c6c(F)cccc6F)c6nc(c(-c7c(F)cccc7F)c7ccc4[nH]7)C=C6)C=C5)cc3)C2)ccc1Br
REMARK SMILES IDX 13 1 12 2 10 3 11 4 9 5 6 6 7 7 72 8 8 10 5 11 4 12 1 13
REMARK SMILES IDX 2 14 3 15 75 16 74 17 76 18 73 19 14 20 15 21 16 22 17 23
REMARK SMILES IDX 18 24 19 25 71 26 20 27 70 28 21 29 22 30 23 31 64 32 24 33
REMARK SMILES IDX 69 34 63 35 65 36 25 37 68 38 62 39 61 40 26 42 52 43 35 44
REMARK SMILES IDX 51 45 36 46 39 47 50 48 66 49 37 50 38 51 49 53 67 54 40 55
REMARK SMILES IDX 27 56 28 57 33 58 29 59 30 60 32 61 34 62 31 63 53 64 54 65
REMARK SMILES IDX 59 66 55 67 56 68 58 69 60 70 57 71 41 72 42 73 47 74 43 75
REMARK SMILES IDX 44 76 46 77 48 78 45 79
REMARK H PARENT 6 9 65 41 39 52
REMARK Flexibility Score: inf
ROOT
ATOM      1  C   UNL A   1      31.734  28.572  24.327  1.00  0.00     0.274 C 
ENDROOT
BRANCH   1   2
ATOM      2  O   UNL A   1      30.703  27.587  24.538  1.00  0.00    -0.462 OA
BRANCH   2   3
ATOM      3  C   UNL A   1      30.969  26.616  25.452  1.00  0.00     0.315 C 
ATOM      4  O   UNL A   1      30.654  26.662  26.635  1.00  0.00    -0.252 OA
BRANCH   3   5
ATOM      5  C   UNL A   1      31.742  25.463  24.857  1.00  0.00     0.159 C 
ATOM      6  N   UNL A   1      33.348  23.858  25.604  1.00  0.00    -0.330 N 
ATOM      7  C   UNL A   1      32.034  23.270  25.830  1.00  0.00     0.263 C 
ATOM      8  C   UNL A   1      33.137  25.297  25.449  1.00  0.00     0.278 C 
ATOM      9  H   UNL A   1      33.943  23.680  26.413  1.00  0.00     0.348 HD
ATOM     10  C   UNL A   1      31.033  24.131  25.075  1.00  0.00     0.082 C 
BRANCH   6  11
ATOM     11  C   UNL A   1      34.199  23.210  24.604  1.00  0.00     0.299 C 
BRANCH  11  12
ATOM     12  C   UNL A   1      35.601  22.804  25.010  1.00  0.00     0.007 A 
ATOM     13  C   UNL A   1      38.573  24.354  26.836  1.00  0.00     0.045 C 
ATOM     14  C   UNL A   1      37.740  23.356  26.082  1.00  0.00    -0.036 A 
ATOM     15  C   UNL A   1      36.437  23.711  25.683  1.00  0.00     0.014 A 
ATOM     16  C   UNL A   1      38.216  22.081  25.746  1.00  0.00     0.020 A 
ATOM     17  C   UNL A   1      37.386  21.163  25.099  1.00  0.00     0.016 A 
ATOM     18  Br  UNL A   1      39.990  21.530  26.139  1.00  0.00    -0.051 Br
ATOM     19  C   UNL A   1      36.080  21.514  24.762  1.00  0.00     0.011 A 
ENDBRANCH  11  12
ENDBRANCH   6  11
ENDBRANCH   3   5
ENDBRANCH   2   3
ENDBRANCH   1   2
BRANCH   1  20
ATOM     20  C   UNL A   1      31.704  29.674  25.389  1.00  0.00     0.275 C 
BRANCH  20  21
ATOM     21  O   UNL A   1      33.027  30.001  25.843  1.00  0.00    -0.458 OA
BRANCH  21  22
ATOM     22  C   UNL A   1      33.096  31.024  26.724  1.00  0.00     0.338 C 
ATOM     23  O   UNL A   1      32.292  31.923  26.888  1.00  0.00    -0.246 OA
BRANCH  22  24
ATOM     24  C   UNL A   1      34.275  30.842  27.581  1.00  0.00     0.060 A 
ATOM     25  C   UNL A   1      35.053  31.963  27.898  1.00  0.00     0.016 A 
ATOM     26  C   UNL A   1      34.642  29.568  28.013  1.00  0.00     0.016 A 
ATOM     27  C   UNL A   1      36.210  31.812  28.655  1.00  0.00     0.010 A 
ATOM     28  C   UNL A   1      35.803  29.418  28.768  1.00  0.00     0.010 A 
ATOM     29  C   UNL A   1      36.596  30.537  29.082  1.00  0.00    -0.014 A 
BRANCH  29  30
ATOM     30  C   UNL A   1      37.863  30.334  29.816  1.00  0.00     0.031 A 
ATOM     31  C   UNL A   1      38.922  29.461  29.217  1.00  0.00     0.074 A 
ATOM     32  C   UNL A   1      38.031  30.885  31.030  1.00  0.00     0.049 A 
ATOM     33  N   UNL A   1      40.009  28.985  29.764  1.00  0.00    -0.248 NA
ATOM     34  C   UNL A   1      38.724  29.067  27.814  1.00  0.00     0.031 C 
ATOM     35  C   UNL A   1      37.095  31.800  31.681  1.00  0.00     0.029 A 
ATOM     36  N   UNL A   1      39.046  30.733  31.939  1.00  0.00    -0.354 N 
ATOM     37  C   UNL A   1      40.615  28.213  28.782  1.00  0.00     0.074 A 
ATOM     38  C   UNL A   1      39.769  28.279  27.608  1.00  0.00     0.031 C 
ATOM     39  C   UNL A   1      37.572  32.117  32.897  1.00  0.00     0.029 A 
ATOM     40  C   UNL A   1      38.814  31.383  33.125  1.00  0.00     0.049 A 
ATOM     41  H   UNL A   1      39.859  30.209  31.759  1.00  0.00     0.167 HD
ATOM     42  C   UNL A   1      41.768  27.509  28.860  1.00  0.00     0.037 A 
ATOM     43  C   UNL A   1      39.507  31.352  34.278  1.00  0.00     0.037 A 
ATOM     44  C   UNL A   1      42.598  27.453  30.034  1.00  0.00     0.049 A 
ATOM     45  C   UNL A   1      40.733  30.488  34.372  1.00  0.00     0.074 A 
ATOM     46  C   UNL A   1      43.791  26.775  30.218  1.00  0.00     0.029 A 
ATOM     47  N   UNL A   1      42.315  28.098  31.228  1.00  0.00    -0.354 N 
ATOM     48  N   UNL A   1      41.294  29.743  33.450  1.00  0.00    -0.248 NA
ATOM     49  C   UNL A   1      41.415  30.445  35.674  1.00  0.00     0.031 C 
ATOM     50  C   UNL A   1      44.211  26.983  31.537  1.00  0.00     0.029 A 
ATOM     51  C   UNL A   1      43.298  27.821  32.161  1.00  0.00     0.049 A 
ATOM     52  H   UNL A   1      41.531  28.671  31.389  1.00  0.00     0.167 HD
ATOM     53  C   UNL A   1      42.407  29.167  34.048  1.00  0.00     0.074 A 
ATOM     54  C   UNL A   1      42.441  29.647  35.414  1.00  0.00     0.031 C 
ATOM     55  C   UNL A   1      43.320  28.322  33.511  1.00  0.00     0.037 A 
BRANCH  42  56
ATOM     56  C   UNL A   1      42.167  26.716  27.653  1.00  0.00     0.057 A 
ATOM     57  C   UNL A   1      41.959  25.334  27.572  1.00  0.00     0.134 A 
ATOM     58  C   UNL A   1      42.772  27.346  26.557  1.00  0.00     0.134 A 
ATOM     59  F   UNL A   1      41.401  24.669  28.596  1.00  0.00    -0.206 F 
ATOM     60  C   UNL A   1      42.359  24.601  26.453  1.00  0.00     0.040 A 
ATOM     61  C   UNL A   1      43.156  26.626  25.425  1.00  0.00     0.040 A 
ATOM     62  F   UNL A   1      42.999  28.667  26.571  1.00  0.00    -0.206 F 
ATOM     63  C   UNL A   1      42.956  25.249  25.374  1.00  0.00     0.006 A 
ENDBRANCH  42  56
BRANCH  43  64
ATOM     64  C   UNL A   1      39.044  32.145  35.441  1.00  0.00     0.057 A 
ATOM     65  C   UNL A   1      39.401  33.491  35.577  1.00  0.00     0.134 A 
ATOM     66  C   UNL A   1      38.232  31.587  36.435  1.00  0.00     0.134 A 
ATOM     67  F   UNL A   1      40.195  34.073  34.667  1.00  0.00    -0.206 F 
ATOM     68  C   UNL A   1      38.971  34.253  36.663  1.00  0.00     0.040 A 
ATOM     69  C   UNL A   1      37.778  32.342  37.517  1.00  0.00     0.040 A 
ATOM     70  F   UNL A   1      37.857  30.301  36.361  1.00  0.00    -0.206 F 
ATOM     71  C   UNL A   1      38.152  33.681  37.634  1.00  0.00     0.006 A 
ENDBRANCH  43  64
BRANCH  55  72
ATOM     72  C   UNL A   1      44.460  27.901  34.388  1.00  0.00     0.057 A 
ATOM     73  C   UNL A   1      45.631  28.661  34.492  1.00  0.00     0.134 A 
ATOM     74  C   UNL A   1      44.361  26.748  35.175  1.00  0.00     0.134 A 
ATOM     75  F   UNL A   1      45.791  29.769  33.753  1.00  0.00    -0.206 F 
ATOM     76  C   UNL A   1      46.670  28.281  35.343  1.00  0.00     0.040 A 
ATOM     77  C   UNL A   1      45.385  26.368  36.044  1.00  0.00     0.040 A 
ATOM     78  F   UNL A   1      43.261  25.981  35.123  1.00  0.00    -0.206 F 
ATOM     79  C   UNL A   1      46.544  27.135  36.128  1.00  0.00     0.006 A 
ENDBRANCH  55  72
ENDBRANCH  29  30
ENDBRANCH  22  24
ENDBRANCH  21  22
ENDBRANCH  20  21
ENDBRANCH   1  20
TORSDOF 13
ENDMDL
