MODEL 1
REMARK VINA RESULT:     -11.4      0.000      0.000
REMARK SMILES CCCCCCNC(=O)Oc1cccc(-c2ccc([C@@H](C)C(=O)OCCOC(=O)c3ccc(-c4c5nc(c(-c6c(F)cccc6F)c6ccc([nH]6)c(-c6c(F)cccc6F)c6nc(c(-c7c(F)cccc7F)c7ccc4[nH]7)C=C6)C=C5)cc3)cc2Cl)c1
REMARK SMILES IDX 20 1 21 2 19 3 16 4 17 5 85 6 18 7 84 8 86 9 15 10 11 11
REMARK SMILES IDX 12 12 87 13 13 14 14 15 10 16 8 17 7 18 9 20 6 21 5 22 4 23
REMARK SMILES IDX 3 24 2 25 1 26 22 27 23 28 24 29 25 30 26 31 27 32 28 33
REMARK SMILES IDX 29 34 30 35 31 36 83 37 32 38 82 39 33 40 34 41 35 42 76 43
REMARK SMILES IDX 36 44 81 45 75 46 77 47 37 48 80 49 74 50 73 51 38 53 64 54
REMARK SMILES IDX 47 55 63 56 48 57 51 58 62 59 78 60 49 61 50 62 61 64 79 65
REMARK SMILES IDX 52 66 39 67 40 68 45 69 41 70 42 71 44 72 46 73 43 74 65 75
REMARK SMILES IDX 66 76 71 77 67 78 68 79 70 80 72 81 69 82 53 83 54 84 59 85
REMARK SMILES IDX 55 86 56 87 58 88 60 89 57 90
REMARK H PARENT 7 19 77 52 51 63
REMARK Flexibility Score: inf
ROOT
ATOM      1  C   UNL A   1      41.986  20.031  26.756  1.00  0.00     0.126 C 
ATOM      2  C   UNL A   1      41.908  19.063  27.933  1.00  0.00     0.025 C 
ENDROOT
BRANCH   1   3
ATOM      3  C   UNL A   1      40.614  20.514  26.306  1.00  0.00    -0.033 A 
ATOM      4  C   UNL A   1      38.041  21.474  25.515  1.00  0.00     0.000 A 
ATOM      5  C   UNL A   1      38.440  20.143  25.281  1.00  0.00     0.010 A 
ATOM      6  C   UNL A   1      38.968  22.318  26.153  1.00  0.00     0.049 A 
ATOM      7  C   UNL A   1      39.695  19.669  25.675  1.00  0.00     0.005 A 
ATOM      8  C   UNL A   1      40.230  21.843  26.540  1.00  0.00     0.025 A 
ATOM      9  Cl  UNL A   1      38.602  23.964  26.563  1.00  0.00    -0.084 Cl
BRANCH   4  10
ATOM     10  C   UNL A   1      36.680  21.893  25.126  1.00  0.00    -0.013 A 
ATOM     11  C   UNL A   1      34.292  22.044  25.534  1.00  0.00     0.133 A 
ATOM     12  C   UNL A   1      34.093  22.668  24.304  1.00  0.00     0.047 A 
ATOM     13  C   UNL A   1      35.568  21.660  25.952  1.00  0.00     0.056 A 
ATOM     14  C   UNL A   1      35.188  22.925  23.485  1.00  0.00     0.004 A 
ATOM     15  C   UNL A   1      36.467  22.537  23.892  1.00  0.00     0.009 A 
BRANCH  11  16
ATOM     16  O   UNL A   1      33.138  21.695  26.254  1.00  0.00    -0.410 OA
BRANCH  16  17
ATOM     17  C   UNL A   1      32.035  21.211  25.567  1.00  0.00     0.412 C 
ATOM     18  N   UNL A   1      30.921  21.991  25.730  1.00  0.00    -0.321 N 
ATOM     19  H   UNL A   1      30.105  21.694  25.266  1.00  0.00     0.167 HD
ATOM     20  O   UNL A   1      31.996  20.192  24.890  1.00  0.00    -0.224 OA
BRANCH  18  21
ATOM     21  C   UNL A   1      30.817  23.208  26.509  1.00  0.00     0.119 C 
BRANCH  21  22
ATOM     22  C   UNL A   1      31.030  24.459  25.658  1.00  0.00     0.021 C 
BRANCH  22  23
ATOM     23  C   UNL A   1      31.835  25.575  26.336  1.00  0.00     0.002 C 
BRANCH  23  24
ATOM     24  C   UNL A   1      33.223  25.844  25.744  1.00  0.00    -0.000 C 
BRANCH  24  25
ATOM     25  C   UNL A   1      33.517  27.304  25.388  1.00  0.00    -0.003 C 
ATOM     26  C   UNL A   1      34.017  28.123  26.568  1.00  0.00     0.004 C 
ENDBRANCH  24  25
ENDBRANCH  23  24
ENDBRANCH  22  23
ENDBRANCH  21  22
ENDBRANCH  18  21
ENDBRANCH  16  17
ENDBRANCH  11  16
ENDBRANCH   4  10
ENDBRANCH   1   3
BRANCH   1  27
ATOM     27  C   UNL A   1      42.886  19.459  25.666  1.00  0.00     0.313 C 
ATOM     28  O   UNL A   1      42.928  18.256  25.424  1.00  0.00    -0.252 OA
BRANCH  27  29
ATOM     29  O   UNL A   1      43.583  20.401  24.981  1.00  0.00    -0.462 OA
BRANCH  29  30
ATOM     30  C   UNL A   1      44.968  20.577  25.339  1.00  0.00     0.274 C 
BRANCH  30  31
ATOM     31  C   UNL A   1      45.338  22.059  25.444  1.00  0.00     0.275 C 
BRANCH  31  32
ATOM     32  O   UNL A   1      44.199  22.863  25.808  1.00  0.00    -0.458 OA
BRANCH  32  33
ATOM     33  C   UNL A   1      44.276  24.158  25.429  1.00  0.00     0.338 C 
ATOM     34  O   UNL A   1      44.788  24.605  24.417  1.00  0.00    -0.246 OA
BRANCH  33  35
ATOM     35  C   UNL A   1      43.520  25.003  26.363  1.00  0.00     0.060 A 
ATOM     36  C   UNL A   1      43.864  26.355  26.436  1.00  0.00     0.016 A 
ATOM     37  C   UNL A   1      42.578  24.461  27.239  1.00  0.00     0.016 A 
ATOM     38  C   UNL A   1      43.299  27.169  27.410  1.00  0.00     0.010 A 
ATOM     39  C   UNL A   1      42.001  25.285  28.213  1.00  0.00     0.010 A 
ATOM     40  C   UNL A   1      42.379  26.635  28.321  1.00  0.00    -0.014 A 
BRANCH  40  41
ATOM     41  C   UNL A   1      41.893  27.482  29.436  1.00  0.00     0.031 A 
ATOM     42  C   UNL A   1      42.610  27.456  30.755  1.00  0.00     0.074 A 
ATOM     43  C   UNL A   1      40.850  28.311  29.248  1.00  0.00     0.049 A 
ATOM     44  N   UNL A   1      42.325  28.089  31.866  1.00  0.00    -0.248 NA
ATOM     45  C   UNL A   1      43.809  26.606  30.837  1.00  0.00     0.031 C 
ATOM     46  C   UNL A   1      40.104  28.462  27.999  1.00  0.00     0.029 A 
ATOM     47  N   UNL A   1      40.244  29.191  30.110  1.00  0.00    -0.354 N 
ATOM     48  C   UNL A   1      43.293  27.697  32.781  1.00  0.00     0.074 A 
ATOM     49  C   UNL A   1      44.165  26.762  32.104  1.00  0.00     0.031 C 
ATOM     50  C   UNL A   1      39.142  29.383  28.175  1.00  0.00     0.029 A 
ATOM     51  C   UNL A   1      39.181  29.857  29.555  1.00  0.00     0.049 A 
ATOM     52  H   UNL A   1      40.543  29.328  31.038  1.00  0.00     0.167 HD
ATOM     53  C   UNL A   1      43.443  28.088  34.070  1.00  0.00     0.037 A 
ATOM     54  C   UNL A   1      38.323  30.738  30.105  1.00  0.00     0.037 A 
ATOM     55  C   UNL A   1      42.592  29.039  34.735  1.00  0.00     0.049 A 
ATOM     56  C   UNL A   1      38.491  31.126  31.549  1.00  0.00     0.074 A 
ATOM     57  C   UNL A   1      42.669  29.504  36.037  1.00  0.00     0.029 A 
ATOM     58  N   UNL A   1      41.510  29.675  34.147  1.00  0.00    -0.354 N 
ATOM     59  N   UNL A   1      39.403  30.742  32.408  1.00  0.00    -0.248 NA
ATOM     60  C   UNL A   1      37.507  32.070  32.099  1.00  0.00     0.031 C 
ATOM     61  C   UNL A   1      41.615  30.400  36.244  1.00  0.00     0.029 A 
ATOM     62  C   UNL A   1      40.904  30.519  35.061  1.00  0.00     0.049 A 
ATOM     63  H   UNL A   1      41.216  29.546  33.215  1.00  0.00     0.167 HD
ATOM     64  C   UNL A   1      39.115  31.408  33.592  1.00  0.00     0.074 A 
ATOM     65  C   UNL A   1      37.955  32.235  33.336  1.00  0.00     0.031 C 
ATOM     66  C   UNL A   1      39.754  31.340  34.786  1.00  0.00     0.037 A 
BRANCH  53  67
ATOM     67  C   UNL A   1      44.560  27.467  34.853  1.00  0.00     0.057 A 
ATOM     68  C   UNL A   1      44.394  26.263  35.549  1.00  0.00     0.134 A 
ATOM     69  C   UNL A   1      45.826  28.064  34.881  1.00  0.00     0.134 A 
ATOM     70  F   UNL A   1      43.201  25.650  35.572  1.00  0.00    -0.206 F 
ATOM     71  C   UNL A   1      45.446  25.682  36.260  1.00  0.00     0.040 A 
ATOM     72  C   UNL A   1      46.891  27.482  35.571  1.00  0.00     0.040 A 
ATOM     73  F   UNL A   1      46.051  29.216  34.232  1.00  0.00    -0.206 F 
ATOM     74  C   UNL A   1      46.701  26.290  36.266  1.00  0.00     0.006 A 
ENDBRANCH  53  67
BRANCH  54  75
ATOM     75  C   UNL A   1      37.215  31.301  29.297  1.00  0.00     0.057 A 
ATOM     76  C   UNL A   1      37.279  32.600  28.781  1.00  0.00     0.134 A 
ATOM     77  C   UNL A   1      36.054  30.561  29.043  1.00  0.00     0.134 A 
ATOM     78  F   UNL A   1      38.355  33.366  29.012  1.00  0.00    -0.206 F 
ATOM     79  C   UNL A   1      36.222  33.151  28.055  1.00  0.00     0.040 A 
ATOM     80  C   UNL A   1      34.999  31.089  28.298  1.00  0.00     0.040 A 
ATOM     81  F   UNL A   1      35.931  29.310  29.512  1.00  0.00    -0.206 F 
ATOM     82  C   UNL A   1      35.079  32.391  27.808  1.00  0.00     0.006 A 
ENDBRANCH  54  75
BRANCH  66  83
ATOM     83  C   UNL A   1      39.225  32.203  35.892  1.00  0.00     0.057 A 
ATOM     84  C   UNL A   1      38.293  31.722  36.819  1.00  0.00     0.134 A 
ATOM     85  C   UNL A   1      39.676  33.520  36.046  1.00  0.00     0.134 A 
ATOM     86  F   UNL A   1      37.813  30.474  36.716  1.00  0.00    -0.206 F 
ATOM     87  C   UNL A   1      37.811  32.529  37.851  1.00  0.00     0.040 A 
ATOM     88  C   UNL A   1      39.218  34.329  37.087  1.00  0.00     0.040 A 
ATOM     89  F   UNL A   1      40.574  34.037  35.195  1.00  0.00    -0.206 F 
ATOM     90  C   UNL A   1      38.278  33.835  37.990  1.00  0.00     0.006 A 
ENDBRANCH  66  83
ENDBRANCH  40  41
ENDBRANCH  33  35
ENDBRANCH  32  33
ENDBRANCH  31  32
ENDBRANCH  30  31
ENDBRANCH  29  30
ENDBRANCH  27  29
ENDBRANCH   1  27
TORSDOF 20
ENDMDL
MODEL 2
REMARK VINA RESULT:     -11.0      5.443     10.999
REMARK SMILES CCCCCCNC(=O)Oc1cccc(-c2ccc([C@@H](C)C(=O)OCCOC(=O)c3ccc(-c4c5nc(c(-c6c(F)cccc6F)c6ccc([nH]6)c(-c6c(F)cccc6F)c6nc(c(-c7c(F)cccc7F)c7ccc4[nH]7)C=C6)C=C5)cc3)cc2Cl)c1
REMARK SMILES IDX 20 1 21 2 19 3 16 4 17 5 85 6 18 7 84 8 86 9 15 10 11 11
REMARK SMILES IDX 12 12 87 13 13 14 14 15 10 16 8 17 7 18 9 20 6 21 5 22 4 23
REMARK SMILES IDX 3 24 2 25 1 26 22 27 23 28 24 29 25 30 26 31 27 32 28 33
REMARK SMILES IDX 29 34 30 35 31 36 83 37 32 38 82 39 33 40 34 41 35 42 76 43
REMARK SMILES IDX 36 44 81 45 75 46 77 47 37 48 80 49 74 50 73 51 38 53 64 54
REMARK SMILES IDX 47 55 63 56 48 57 51 58 62 59 78 60 49 61 50 62 61 64 79 65
REMARK SMILES IDX 52 66 39 67 40 68 45 69 41 70 42 71 44 72 46 73 43 74 65 75
REMARK SMILES IDX 66 76 71 77 67 78 68 79 70 80 72 81 69 82 53 83 54 84 59 85
REMARK SMILES IDX 55 86 56 87 58 88 60 89 57 90
REMARK H PARENT 7 19 77 52 51 63
REMARK Flexibility Score: inf
ROOT
ATOM      1  C   UNL A   1      34.220  34.842  29.002  1.00  0.00     0.126 C 
ATOM      2  C   UNL A   1      34.394  35.907  27.923  1.00  0.00     0.025 C 
ENDROOT
BRANCH   1   3
ATOM      3  C   UNL A   1      33.871  33.477  28.424  1.00  0.00    -0.033 A 
ATOM      4  C   UNL A   1      33.142  30.938  27.335  1.00  0.00     0.000 A 
ATOM      5  C   UNL A   1      34.290  31.100  28.135  1.00  0.00     0.010 A 
ATOM      6  C   UNL A   1      32.367  32.085  27.086  1.00  0.00     0.049 A 
ATOM      7  C   UNL A   1      34.644  32.340  28.677  1.00  0.00     0.005 A 
ATOM      8  C   UNL A   1      32.728  33.330  27.623  1.00  0.00     0.025 A 
ATOM      9  Cl  UNL A   1      30.896  32.036  26.169  1.00  0.00    -0.084 Cl
BRANCH   4  10
ATOM     10  C   UNL A   1      32.795  29.590  26.843  1.00  0.00    -0.013 A 
ATOM     11  C   UNL A   1      32.889  27.838  25.166  1.00  0.00     0.133 A 
ATOM     12  C   UNL A   1      32.054  27.024  25.929  1.00  0.00     0.047 A 
ATOM     13  C   UNL A   1      33.265  29.107  25.610  1.00  0.00     0.056 A 
ATOM     14  C   UNL A   1      31.600  27.480  27.162  1.00  0.00     0.004 A 
ATOM     15  C   UNL A   1      31.964  28.751  27.611  1.00  0.00     0.009 A 
BRANCH  11  16
ATOM     16  O   UNL A   1      33.207  27.377  23.877  1.00  0.00    -0.410 OA
BRANCH  16  17
ATOM     17  C   UNL A   1      33.114  28.253  22.806  1.00  0.00     0.412 C 
ATOM     18  N   UNL A   1      31.873  28.259  22.229  1.00  0.00    -0.321 N 
ATOM     19  H   UNL A   1      31.749  28.861  21.460  1.00  0.00     0.167 HD
ATOM     20  O   UNL A   1      34.016  28.954  22.366  1.00  0.00    -0.224 OA
BRANCH  18  21
ATOM     21  C   UNL A   1      30.722  27.476  22.631  1.00  0.00     0.119 C 
BRANCH  21  22
ATOM     22  C   UNL A   1      29.446  28.316  22.694  1.00  0.00     0.021 C 
BRANCH  22  23
ATOM     23  C   UNL A   1      29.665  29.808  22.974  1.00  0.00     0.002 C 
BRANCH  23  24
ATOM     24  C   UNL A   1      28.517  30.736  22.560  1.00  0.00    -0.000 C 
BRANCH  24  25
ATOM     25  C   UNL A   1      28.249  31.913  23.502  1.00  0.00    -0.003 C 
ATOM     26  C   UNL A   1      29.014  33.172  23.125  1.00  0.00     0.004 C 
ENDBRANCH  24  25
ENDBRANCH  23  24
ENDBRANCH  22  23
ENDBRANCH  21  22
ENDBRANCH  18  21
ENDBRANCH  16  17
ENDBRANCH  11  16
ENDBRANCH   4  10
ENDBRANCH   1   3
BRANCH   1  27
ATOM     27  C   UNL A   1      33.302  35.358  30.104  1.00  0.00     0.313 C 
ATOM     28  O   UNL A   1      32.554  36.316  29.930  1.00  0.00    -0.252 OA
BRANCH  27  29
ATOM     29  O   UNL A   1      33.363  34.636  31.252  1.00  0.00    -0.462 OA
BRANCH  29  30
ATOM     30  C   UNL A   1      33.983  35.270  32.389  1.00  0.00     0.274 C 
BRANCH  30  31
ATOM     31  C   UNL A   1      35.384  34.711  32.652  1.00  0.00     0.275 C 
BRANCH  31  32
ATOM     32  O   UNL A   1      35.522  33.372  32.140  1.00  0.00    -0.458 OA
BRANCH  32  33
ATOM     33  C   UNL A   1      36.269  32.547  32.907  1.00  0.00     0.338 C 
ATOM     34  O   UNL A   1      36.136  32.320  34.097  1.00  0.00    -0.246 OA
BRANCH  33  35
ATOM     35  C   UNL A   1      37.233  31.817  32.073  1.00  0.00     0.060 A 
ATOM     36  C   UNL A   1      38.200  31.049  32.724  1.00  0.00     0.016 A 
ATOM     37  C   UNL A   1      37.268  31.978  30.687  1.00  0.00     0.016 A 
ATOM     38  C   UNL A   1      39.234  30.466  32.001  1.00  0.00     0.010 A 
ATOM     39  C   UNL A   1      38.304  31.382  29.957  1.00  0.00     0.010 A 
ATOM     40  C   UNL A   1      39.307  30.646  30.614  1.00  0.00    -0.014 A 
BRANCH  40  41
ATOM     41  C   UNL A   1      40.488  30.135  29.881  1.00  0.00     0.031 A 
ATOM     42  C   UNL A   1      41.671  31.034  29.659  1.00  0.00     0.074 A 
ATOM     43  C   UNL A   1      40.524  28.855  29.466  1.00  0.00     0.049 A 
ATOM     44  N   UNL A   1      42.783  30.795  29.012  1.00  0.00    -0.248 NA
ATOM     45  C   UNL A   1      41.593  32.382  30.245  1.00  0.00     0.031 C 
ATOM     46  C   UNL A   1      39.459  27.873  29.666  1.00  0.00     0.029 A 
ATOM     47  N   UNL A   1      41.501  28.161  28.797  1.00  0.00    -0.354 N 
ATOM     48  C   UNL A   1      43.526  31.966  29.093  1.00  0.00     0.074 A 
ATOM     49  C   UNL A   1      42.734  32.920  29.840  1.00  0.00     0.031 C 
ATOM     50  C   UNL A   1      39.843  26.700  29.134  1.00  0.00     0.029 A 
ATOM     51  C   UNL A   1      41.161  26.860  28.526  1.00  0.00     0.049 A 
ATOM     52  H   UNL A   1      42.362  28.561  28.537  1.00  0.00     0.167 HD
ATOM     53  C   UNL A   1      44.760  32.219  28.595  1.00  0.00     0.037 A 
ATOM     54  C   UNL A   1      41.831  25.910  27.846  1.00  0.00     0.037 A 
ATOM     55  C   UNL A   1      45.558  31.262  27.876  1.00  0.00     0.049 A 
ATOM     56  C   UNL A   1      43.184  26.231  27.271  1.00  0.00     0.074 A 
ATOM     57  C   UNL A   1      46.824  31.424  27.339  1.00  0.00     0.029 A 
ATOM     58  N   UNL A   1      45.170  29.961  27.600  1.00  0.00    -0.354 N 
ATOM     59  N   UNL A   1      43.871  27.344  27.345  1.00  0.00    -0.248 NA
ATOM     60  C   UNL A   1      43.852  25.161  26.516  1.00  0.00     0.031 C 
ATOM     61  C   UNL A   1      47.189  30.227  26.712  1.00  0.00     0.029 A 
ATOM     62  C   UNL A   1      46.165  29.311  26.889  1.00  0.00     0.049 A 
ATOM     63  H   UNL A   1      44.312  29.558  27.869  1.00  0.00     0.167 HD
ATOM     64  C   UNL A   1      45.057  27.104  26.664  1.00  0.00     0.074 A 
ATOM     65  C   UNL A   1      45.004  25.735  26.199  1.00  0.00     0.031 C 
ATOM     66  C   UNL A   1      46.097  27.945  26.441  1.00  0.00     0.037 A 
BRANCH  53  67
ATOM     67  C   UNL A   1      45.313  33.599  28.791  1.00  0.00     0.057 A 
ATOM     68  C   UNL A   1      45.057  34.634  27.883  1.00  0.00     0.134 A 
ATOM     69  C   UNL A   1      46.081  33.903  29.922  1.00  0.00     0.134 A 
ATOM     70  F   UNL A   1      44.339  34.402  26.773  1.00  0.00    -0.206 F 
ATOM     71  C   UNL A   1      45.560  35.920  28.084  1.00  0.00     0.040 A 
ATOM     72  C   UNL A   1      46.572  35.190  30.145  1.00  0.00     0.040 A 
ATOM     73  F   UNL A   1      46.359  32.957  30.831  1.00  0.00    -0.206 F 
ATOM     74  C   UNL A   1      46.315  36.202  29.223  1.00  0.00     0.006 A 
ENDBRANCH  53  67
BRANCH  54  75
ATOM     75  C   UNL A   1      41.227  24.570  27.651  1.00  0.00     0.057 A 
ATOM     76  C   UNL A   1      41.677  23.459  28.374  1.00  0.00     0.134 A 
ATOM     77  C   UNL A   1      40.203  24.364  26.721  1.00  0.00     0.134 A 
ATOM     78  F   UNL A   1      42.673  23.589  29.262  1.00  0.00    -0.206 F 
ATOM     79  C   UNL A   1      41.142  22.187  28.166  1.00  0.00     0.040 A 
ATOM     80  C   UNL A   1      39.641  23.102  26.519  1.00  0.00     0.040 A 
ATOM     81  F   UNL A   1      39.728  25.388  25.996  1.00  0.00    -0.206 F 
ATOM     82  C   UNL A   1      40.116  22.008  27.239  1.00  0.00     0.006 A 
ENDBRANCH  54  75
BRANCH  66  83
ATOM     83  C   UNL A   1      47.269  27.394  25.686  1.00  0.00     0.057 A 
ATOM     84  C   UNL A   1      48.297  26.695  26.330  1.00  0.00     0.134 A 
ATOM     85  C   UNL A   1      47.354  27.539  24.296  1.00  0.00     0.134 A 
ATOM     86  F   UNL A   1      48.280  26.535  27.662  1.00  0.00    -0.206 F 
ATOM     87  C   UNL A   1      49.381  26.177  25.619  1.00  0.00     0.040 A 
ATOM     88  C   UNL A   1      48.421  27.007  23.571  1.00  0.00     0.040 A 
ATOM     89  F   UNL A   1      46.396  28.191  23.619  1.00  0.00    -0.206 F 
ATOM     90  C   UNL A   1      49.442  26.329  24.235  1.00  0.00     0.006 A 
ENDBRANCH  66  83
ENDBRANCH  40  41
ENDBRANCH  33  35
ENDBRANCH  32  33
ENDBRANCH  31  32
ENDBRANCH  30  31
ENDBRANCH  29  30
ENDBRANCH  27  29
ENDBRANCH   1  27
TORSDOF 20
ENDMDL
MODEL 3
REMARK VINA RESULT:     -11.0      1.095      6.045
REMARK SMILES CCCCCCNC(=O)Oc1cccc(-c2ccc([C@@H](C)C(=O)OCCOC(=O)c3ccc(-c4c5nc(c(-c6c(F)cccc6F)c6ccc([nH]6)c(-c6c(F)cccc6F)c6nc(c(-c7c(F)cccc7F)c7ccc4[nH]7)C=C6)C=C5)cc3)cc2Cl)c1
REMARK SMILES IDX 20 1 21 2 19 3 16 4 17 5 85 6 18 7 84 8 86 9 15 10 11 11
REMARK SMILES IDX 12 12 87 13 13 14 14 15 10 16 8 17 7 18 9 20 6 21 5 22 4 23
REMARK SMILES IDX 3 24 2 25 1 26 22 27 23 28 24 29 25 30 26 31 27 32 28 33
REMARK SMILES IDX 29 34 30 35 31 36 83 37 32 38 82 39 33 40 34 41 35 42 76 43
REMARK SMILES IDX 36 44 81 45 75 46 77 47 37 48 80 49 74 50 73 51 38 53 64 54
REMARK SMILES IDX 47 55 63 56 48 57 51 58 62 59 78 60 49 61 50 62 61 64 79 65
REMARK SMILES IDX 52 66 39 67 40 68 45 69 41 70 42 71 44 72 46 73 43 74 65 75
REMARK SMILES IDX 66 76 71 77 67 78 68 79 70 80 72 81 69 82 53 83 54 84 59 85
REMARK SMILES IDX 55 86 56 87 58 88 60 89 57 90
REMARK H PARENT 7 19 77 52 51 63
REMARK Flexibility Score: inf
ROOT
ATOM      1  C   UNL A   1      41.325  22.120  27.004  1.00  0.00     0.126 C 
ATOM      2  C   UNL A   1      41.424  22.173  28.526  1.00  0.00     0.025 C 
ENDROOT
BRANCH   1   3
ATOM      3  C   UNL A   1      39.899  22.308  26.506  1.00  0.00    -0.033 A 
ATOM      4  C   UNL A   1      37.232  22.603  25.523  1.00  0.00     0.000 A 
ATOM      5  C   UNL A   1      37.923  23.673  26.125  1.00  0.00     0.010 A 
ATOM      6  C   UNL A   1      37.910  21.374  25.429  1.00  0.00     0.049 A 
ATOM      7  C   UNL A   1      39.231  23.533  26.599  1.00  0.00     0.005 A 
ATOM      8  C   UNL A   1      39.218  21.233  25.913  1.00  0.00     0.025 A 
ATOM      9  Cl  UNL A   1      37.214  19.982  24.663  1.00  0.00    -0.084 Cl
BRANCH   4  10
ATOM     10  C   UNL A   1      35.875  22.835  24.991  1.00  0.00    -0.013 A 
ATOM     11  C   UNL A   1      33.458  22.810  25.219  1.00  0.00     0.133 A 
ATOM     12  C   UNL A   1      33.302  23.245  23.904  1.00  0.00     0.047 A 
ATOM     13  C   UNL A   1      34.726  22.608  25.768  1.00  0.00     0.056 A 
ATOM     14  C   UNL A   1      34.430  23.496  23.131  1.00  0.00     0.004 A 
ATOM     15  C   UNL A   1      35.702  23.289  23.669  1.00  0.00     0.009 A 
BRANCH  11  16
ATOM     16  O   UNL A   1      32.286  22.450  25.904  1.00  0.00    -0.410 OA
BRANCH  16  17
ATOM     17  C   UNL A   1      32.038  23.000  27.152  1.00  0.00     0.412 C 
ATOM     18  N   UNL A   1      31.242  24.113  27.096  1.00  0.00    -0.321 N 
ATOM     19  H   UNL A   1      31.035  24.549  27.954  1.00  0.00     0.167 HD
ATOM     20  O   UNL A   1      32.472  22.591  28.221  1.00  0.00    -0.224 OA
BRANCH  18  21
ATOM     21  C   UNL A   1      30.672  24.716  25.908  1.00  0.00     0.119 C 
BRANCH  21  22
ATOM     22  C   UNL A   1      30.915  26.224  25.853  1.00  0.00     0.021 C 
BRANCH  22  23
ATOM     23  C   UNL A   1      30.946  26.824  24.442  1.00  0.00     0.002 C 
BRANCH  23  24
ATOM     24  C   UNL A   1      32.330  27.231  23.925  1.00  0.00    -0.000 C 
BRANCH  24  25
ATOM     25  C   UNL A   1      33.352  27.608  25.001  1.00  0.00    -0.003 C 
ATOM     26  C   UNL A   1      34.108  26.412  25.560  1.00  0.00     0.004 C 
ENDBRANCH  24  25
ENDBRANCH  23  24
ENDBRANCH  22  23
ENDBRANCH  21  22
ENDBRANCH  18  21
ENDBRANCH  16  17
ENDBRANCH  11  16
ENDBRANCH   4  10
ENDBRANCH   1   3
BRANCH   1  27
ATOM     27  C   UNL A   1      42.064  20.896  26.474  1.00  0.00     0.313 C 
ATOM     28  O   UNL A   1      41.982  19.800  27.021  1.00  0.00    -0.252 OA
BRANCH  27  29
ATOM     29  O   UNL A   1      42.768  21.132  25.336  1.00  0.00    -0.462 OA
BRANCH  29  30
ATOM     30  C   UNL A   1      44.026  21.820  25.478  1.00  0.00     0.274 C 
BRANCH  30  31
ATOM     31  C   UNL A   1      44.217  22.876  24.385  1.00  0.00     0.275 C 
BRANCH  31  32
ATOM     32  O   UNL A   1      43.488  24.082  24.684  1.00  0.00    -0.458 OA
BRANCH  32  33
ATOM     33  C   UNL A   1      44.244  25.096  25.163  1.00  0.00     0.338 C 
ATOM     34  O   UNL A   1      45.346  25.445  24.776  1.00  0.00    -0.246 OA
BRANCH  33  35
ATOM     35  C   UNL A   1      43.492  25.851  26.174  1.00  0.00     0.060 A 
ATOM     36  C   UNL A   1      43.855  27.182  26.389  1.00  0.00     0.016 A 
ATOM     37  C   UNL A   1      42.534  25.237  26.982  1.00  0.00     0.016 A 
ATOM     38  C   UNL A   1      43.293  27.901  27.438  1.00  0.00     0.010 A 
ATOM     39  C   UNL A   1      41.960  25.964  28.032  1.00  0.00     0.010 A 
ATOM     40  C   UNL A   1      42.357  27.290  28.282  1.00  0.00    -0.014 A 
BRANCH  40  41
ATOM     41  C   UNL A   1      41.874  28.025  29.474  1.00  0.00     0.031 A 
ATOM     42  C   UNL A   1      40.622  28.850  29.380  1.00  0.00     0.074 A 
ATOM     43  C   UNL A   1      42.521  27.908  30.648  1.00  0.00     0.049 A 
ATOM     44  N   UNL A   1      40.052  29.598  30.291  1.00  0.00    -0.248 NA
ATOM     45  C   UNL A   1      39.915  28.830  28.089  1.00  0.00     0.031 C 
ATOM     46  C   UNL A   1      43.718  27.099  30.876  1.00  0.00     0.029 A 
ATOM     47  N   UNL A   1      42.254  28.467  31.872  1.00  0.00    -0.354 N 
ATOM     48  C   UNL A   1      38.937  30.153  29.679  1.00  0.00     0.074 A 
ATOM     49  C   UNL A   1      38.915  29.669  28.315  1.00  0.00     0.031 C 
ATOM     50  C   UNL A   1      44.080  27.210  32.165  1.00  0.00     0.029 A 
ATOM     51  C   UNL A   1      43.165  28.126  32.840  1.00  0.00     0.049 A 
ATOM     52  H   UNL A   1      41.485  29.057  32.038  1.00  0.00     0.167 HD
ATOM     53  C   UNL A   1      38.010  30.987  30.210  1.00  0.00     0.037 A 
ATOM     54  C   UNL A   1      43.260  28.523  34.124  1.00  0.00     0.037 A 
ATOM     55  C   UNL A   1      38.017  31.446  31.573  1.00  0.00     0.049 A 
ATOM     56  C   UNL A   1      42.238  29.479  34.677  1.00  0.00     0.074 A 
ATOM     57  C   UNL A   1      37.116  32.288  32.206  1.00  0.00     0.029 A 
ATOM     58  N   UNL A   1      38.969  31.098  32.518  1.00  0.00    -0.354 N 
ATOM     59  N   UNL A   1      41.194  30.006  34.086  1.00  0.00    -0.248 NA
ATOM     60  C   UNL A   1      42.412  29.897  36.075  1.00  0.00     0.031 C 
ATOM     61  C   UNL A   1      37.542  32.470  33.526  1.00  0.00     0.029 A 
ATOM     62  C   UNL A   1      38.686  31.716  33.724  1.00  0.00     0.049 A 
ATOM     63  H   UNL A   1      39.734  30.499  32.355  1.00  0.00     0.167 HD
ATOM     64  C   UNL A   1      40.577  30.801  35.043  1.00  0.00     0.074 A 
ATOM     65  C   UNL A   1      41.353  30.674  36.258  1.00  0.00     0.031 C 
ATOM     66  C   UNL A   1      39.467  31.571  34.925  1.00  0.00     0.037 A 
BRANCH  53  67
ATOM     67  C   UNL A   1      36.922  31.477  29.302  1.00  0.00     0.057 A 
ATOM     68  C   UNL A   1      35.832  30.670  28.953  1.00  0.00     0.134 A 
ATOM     69  C   UNL A   1      36.949  32.784  28.802  1.00  0.00     0.134 A 
ATOM     70  F   UNL A   1      35.756  29.404  29.389  1.00  0.00    -0.206 F 
ATOM     71  C   UNL A   1      34.813  31.142  28.123  1.00  0.00     0.040 A 
ATOM     72  C   UNL A   1      35.926  33.274  27.988  1.00  0.00     0.040 A 
ATOM     73  F   UNL A   1      37.964  33.608  29.102  1.00  0.00    -0.206 F 
ATOM     74  C   UNL A   1      34.857  32.451  27.644  1.00  0.00     0.006 A 
ENDBRANCH  53  67
BRANCH  54  75
ATOM     75  C   UNL A   1      44.374  28.036  34.973  1.00  0.00     0.057 A 
ATOM     76  C   UNL A   1      45.631  28.650  34.943  1.00  0.00     0.134 A 
ATOM     77  C   UNL A   1      44.214  26.930  35.816  1.00  0.00     0.134 A 
ATOM     78  F   UNL A   1      45.852  29.698  34.136  1.00  0.00    -0.206 F 
ATOM     79  C   UNL A   1      46.696  28.171  35.708  1.00  0.00     0.040 A 
ATOM     80  C   UNL A   1      45.262  26.455  36.605  1.00  0.00     0.040 A 
ATOM     81  F   UNL A   1      43.033  26.298  35.888  1.00  0.00    -0.206 F 
ATOM     82  C   UNL A   1      46.510  27.073  36.546  1.00  0.00     0.006 A 
ENDBRANCH  54  75
BRANCH  66  83
ATOM     83  C   UNL A   1      39.016  32.308  36.150  1.00  0.00     0.057 A 
ATOM     84  C   UNL A   1      38.186  31.709  37.106  1.00  0.00     0.134 A 
ATOM     85  C   UNL A   1      39.441  33.621  36.389  1.00  0.00     0.134 A 
ATOM     86  F   UNL A   1      37.735  30.459  36.927  1.00  0.00    -0.206 F 
ATOM     87  C   UNL A   1      37.777  32.399  38.248  1.00  0.00     0.040 A 
ATOM     88  C   UNL A   1      39.057  34.313  37.538  1.00  0.00     0.040 A 
ATOM     89  F   UNL A   1      40.243  34.247  35.515  1.00  0.00    -0.206 F 
ATOM     90  C   UNL A   1      38.217  33.703  38.469  1.00  0.00     0.006 A 
ENDBRANCH  66  83
ENDBRANCH  40  41
ENDBRANCH  33  35
ENDBRANCH  32  33
ENDBRANCH  31  32
ENDBRANCH  30  31
ENDBRANCH  29  30
ENDBRANCH  27  29
ENDBRANCH   1  27
TORSDOF 20
ENDMDL
