MODEL 1
REMARK VINA RESULT:     -11.8      0.000      0.000
REMARK SMILES O=C(Nc1cccc(F)c1C(=O)OCCOC(=O)c1ccc(-c2c3nc(c(-c4c(F)cccc4F)c4ccc([nH]4)c(-c4c(F)cccc4F)c4nc(c(-c5c(F)cccc5F)c5ccc2[nH]5)C=C4)C=C3)cc1)c1ccc(Cl)nc1
REMARK SMILES IDX 14 1 13 2 11 3 12 4 10 5 4 6 5 7 6 8 8 9 7 10 9 11 3 12 1 13
REMARK SMILES IDX 2 14 73 16 74 17 79 18 75 19 78 20 76 21 77 22 15 23 16 24
REMARK SMILES IDX 17 25 18 26 19 27 20 28 72 29 21 30 71 31 22 32 23 33 24 34
REMARK SMILES IDX 65 35 25 36 70 37 64 38 66 39 26 40 69 41 63 42 62 43 27 45
REMARK SMILES IDX 53 46 36 47 52 48 37 49 40 50 51 51 67 52 38 53 39 54 50 56
REMARK SMILES IDX 68 57 41 58 28 59 29 60 34 61 30 62 31 63 33 64 35 65 32 66
REMARK SMILES IDX 54 67 55 68 60 69 56 70 57 71 59 72 61 73 58 74 42 75 43 76
REMARK SMILES IDX 48 77 44 78 45 79 47 80 49 81 46 82
REMARK H PARENT 3 15 66 44 40 55
REMARK Flexibility Score: inf
ROOT
ATOM      1  C   UNL A   1      31.721  29.542  24.994  1.00  0.00     0.275 C 
ENDROOT
BRANCH   1   2
ATOM      2  O   UNL A   1      31.681  28.265  25.667  1.00  0.00    -0.458 OA
BRANCH   2   3
ATOM      3  C   UNL A   1      32.739  27.454  25.447  1.00  0.00     0.343 C 
ATOM      4  O   UNL A   1      33.663  27.269  26.230  1.00  0.00    -0.246 OA
BRANCH   3   5
ATOM      5  C   UNL A   1      32.633  26.697  24.176  1.00  0.00     0.119 A 
ATOM      6  C   UNL A   1      31.932  25.467  24.141  1.00  0.00     0.059 A 
ATOM      7  C   UNL A   1      31.879  24.730  22.954  1.00  0.00     0.027 A 
ATOM      8  C   UNL A   1      32.581  25.167  21.829  1.00  0.00     0.005 A 
ATOM      9  C   UNL A   1      33.355  27.099  23.056  1.00  0.00     0.139 A 
ATOM     10  C   UNL A   1      33.336  26.339  21.888  1.00  0.00     0.040 A 
ATOM     11  F   UNL A   1      34.142  28.185  23.092  1.00  0.00    -0.206 F 
BRANCH   6  12
ATOM     12  N   UNL A   1      31.307  25.029  25.319  1.00  0.00    -0.321 N 
ATOM     13  O   UNL A   1      30.934  23.922  27.251  1.00  0.00    -0.269 OA
ATOM     14  C   UNL A   1      31.594  24.046  26.222  1.00  0.00     0.257 C 
ATOM     15  H   UNL A   1      30.492  25.534  25.540  1.00  0.00     0.170 HD
BRANCH  14  16
ATOM     16  C   UNL A   1      32.765  23.203  26.099  1.00  0.00     0.058 A 
ATOM     17  C   UNL A   1      34.005  23.705  26.484  1.00  0.00     0.018 A 
ATOM     18  C   UNL A   1      32.688  21.987  25.437  1.00  0.00     0.126 A 
ATOM     19  C   UNL A   1      35.132  22.937  26.232  1.00  0.00     0.042 A 
ATOM     20  N   UNL A   1      33.768  21.215  25.196  1.00  0.00    -0.244 NA
ATOM     21  C   UNL A   1      34.958  21.715  25.597  1.00  0.00     0.129 A 
ATOM     22  Cl  UNL A   1      36.302  20.713  25.246  1.00  0.00    -0.062 Cl
ENDBRANCH  14  16
ENDBRANCH   6  12
ENDBRANCH   3   5
ENDBRANCH   2   3
ENDBRANCH   1   2
BRANCH   1  23
ATOM     23  C   UNL A   1      31.492  30.695  25.970  1.00  0.00     0.275 C 
BRANCH  23  24
ATOM     24  O   UNL A   1      32.416  30.615  27.074  1.00  0.00    -0.458 OA
BRANCH  24  25
ATOM     25  C   UNL A   1      33.126  31.738  27.330  1.00  0.00     0.338 C 
ATOM     26  O   UNL A   1      32.700  32.874  27.439  1.00  0.00    -0.246 OA
BRANCH  25  27
ATOM     27  C   UNL A   1      34.534  31.409  27.621  1.00  0.00     0.060 A 
ATOM     28  C   UNL A   1      34.821  30.083  27.878  1.00  0.00     0.016 A 
ATOM     29  C   UNL A   1      35.484  32.385  27.919  1.00  0.00     0.016 A 
ATOM     30  C   UNL A   1      35.937  29.767  28.643  1.00  0.00     0.010 A 
ATOM     31  C   UNL A   1      36.713  32.016  28.504  1.00  0.00     0.010 A 
ATOM     32  C   UNL A   1      36.935  30.701  28.943  1.00  0.00    -0.014 A 
BRANCH  32  33
ATOM     33  C   UNL A   1      38.126  30.269  29.758  1.00  0.00     0.031 A 
ATOM     34  C   UNL A   1      39.234  29.449  29.134  1.00  0.00     0.074 A 
ATOM     35  C   UNL A   1      38.305  30.693  31.032  1.00  0.00     0.049 A 
ATOM     36  N   UNL A   1      40.246  28.845  29.710  1.00  0.00    -0.248 NA
ATOM     37  C   UNL A   1      39.200  29.283  27.674  1.00  0.00     0.031 C 
ATOM     38  C   UNL A   1      37.405  31.583  31.769  1.00  0.00     0.029 A 
ATOM     39  N   UNL A   1      39.334  30.477  31.924  1.00  0.00    -0.354 N 
ATOM     40  C   UNL A   1      40.918  28.169  28.697  1.00  0.00     0.074 A 
ATOM     41  C   UNL A   1      40.205  28.442  27.469  1.00  0.00     0.031 C 
ATOM     42  C   UNL A   1      37.969  31.930  32.932  1.00  0.00     0.029 A 
ATOM     43  C   UNL A   1      39.186  31.153  33.115  1.00  0.00     0.049 A 
ATOM     44  H   UNL A   1      40.103  29.894  31.729  1.00  0.00     0.167 HD
ATOM     45  C   UNL A   1      42.022  27.386  28.785  1.00  0.00     0.037 A 
ATOM     46  C   UNL A   1      39.896  31.120  34.260  1.00  0.00     0.037 A 
ATOM     47  C   UNL A   1      42.769  27.164  29.999  1.00  0.00     0.049 A 
ATOM     48  C   UNL A   1      41.056  30.177  34.370  1.00  0.00     0.074 A 
ATOM     49  C   UNL A   1      43.873  26.352  30.196  1.00  0.00     0.029 A 
ATOM     50  N   UNL A   1      42.503  27.774  31.216  1.00  0.00    -0.354 N 
ATOM     51  N   UNL A   1      41.591  29.421  33.443  1.00  0.00    -0.248 NA
ATOM     52  C   UNL A   1      41.679  30.043  35.693  1.00  0.00     0.031 C 
ATOM     53  C   UNL A   1      44.243  26.432  31.542  1.00  0.00     0.029 A 
ATOM     54  C   UNL A   1      43.410  27.341  32.172  1.00  0.00     0.049 A 
ATOM     55  H   UNL A   1      41.777  28.420  31.378  1.00  0.00     0.167 HD
ATOM     56  C   UNL A   1      42.610  28.718  34.070  1.00  0.00     0.074 A 
ATOM     57  C   UNL A   1      42.640  29.162  35.449  1.00  0.00     0.031 C 
ATOM     58  C   UNL A   1      43.437  27.781  33.546  1.00  0.00     0.037 A 
BRANCH  45  59
ATOM     59  C   UNL A   1      42.453  26.653  27.544  1.00  0.00     0.057 A 
ATOM     60  C   UNL A   1      41.916  25.391  27.253  1.00  0.00     0.134 A 
ATOM     61  C   UNL A   1      43.397  27.170  26.648  1.00  0.00     0.134 A 
ATOM     62  F   UNL A   1      41.014  24.829  28.073  1.00  0.00    -0.206 F 
ATOM     63  C   UNL A   1      42.301  24.671  26.121  1.00  0.00     0.040 A 
ATOM     64  C   UNL A   1      43.766  26.473  25.493  1.00  0.00     0.040 A 
ATOM     65  F   UNL A   1      43.940  28.379  26.856  1.00  0.00    -0.206 F 
ATOM     66  C   UNL A   1      43.221  25.218  25.231  1.00  0.00     0.006 A 
ENDBRANCH  45  59
BRANCH  46  67
ATOM     67  C   UNL A   1      39.469  31.952  35.419  1.00  0.00     0.057 A 
ATOM     68  C   UNL A   1      38.531  31.484  36.350  1.00  0.00     0.134 A 
ATOM     69  C   UNL A   1      39.957  33.251  35.598  1.00  0.00     0.134 A 
ATOM     70  F   UNL A   1      38.031  30.244  36.245  1.00  0.00    -0.206 F 
ATOM     71  C   UNL A   1      38.054  32.293  37.384  1.00  0.00     0.040 A 
ATOM     72  C   UNL A   1      39.515  34.059  36.649  1.00  0.00     0.040 A 
ATOM     73  F   UNL A   1      40.880  33.748  34.763  1.00  0.00    -0.206 F 
ATOM     74  C   UNL A   1      38.548  33.586  37.535  1.00  0.00     0.006 A 
ENDBRANCH  46  67
BRANCH  58  75
ATOM     75  C   UNL A   1      44.464  27.178  34.458  1.00  0.00     0.057 A 
ATOM     76  C   UNL A   1      45.739  27.746  34.571  1.00  0.00     0.134 A 
ATOM     77  C   UNL A   1      44.214  26.003  35.179  1.00  0.00     0.134 A 
ATOM     78  F   UNL A   1      46.048  28.867  33.902  1.00  0.00    -0.206 F 
ATOM     79  C   UNL A   1      46.733  27.161  35.358  1.00  0.00     0.040 A 
ATOM     80  C   UNL A   1      45.190  25.424  35.992  1.00  0.00     0.040 A 
ATOM     81  F   UNL A   1      43.008  25.416  35.127  1.00  0.00    -0.206 F 
ATOM     82  C   UNL A   1      46.458  25.998  36.074  1.00  0.00     0.006 A 
ENDBRANCH  58  75
ENDBRANCH  32  33
ENDBRANCH  25  27
ENDBRANCH  24  25
ENDBRANCH  23  24
ENDBRANCH   1  23
TORSDOF 13
ENDMDL
MODEL 2
REMARK VINA RESULT:     -11.5      4.084      8.688
REMARK SMILES O=C(Nc1cccc(F)c1C(=O)OCCOC(=O)c1ccc(-c2c3nc(c(-c4c(F)cccc4F)c4ccc([nH]4)c(-c4c(F)cccc4F)c4nc(c(-c5c(F)cccc5F)c5ccc2[nH]5)C=C4)C=C3)cc1)c1ccc(Cl)nc1
REMARK SMILES IDX 14 1 13 2 11 3 12 4 10 5 4 6 5 7 6 8 8 9 7 10 9 11 3 12 1 13
REMARK SMILES IDX 2 14 73 16 74 17 79 18 75 19 78 20 76 21 77 22 15 23 16 24
REMARK SMILES IDX 17 25 18 26 19 27 20 28 72 29 21 30 71 31 22 32 23 33 24 34
REMARK SMILES IDX 65 35 25 36 70 37 64 38 66 39 26 40 69 41 63 42 62 43 27 45
REMARK SMILES IDX 53 46 36 47 52 48 37 49 40 50 51 51 67 52 38 53 39 54 50 56
REMARK SMILES IDX 68 57 41 58 28 59 29 60 34 61 30 62 31 63 33 64 35 65 32 66
REMARK SMILES IDX 54 67 55 68 60 69 56 70 57 71 59 72 61 73 58 74 42 75 43 76
REMARK SMILES IDX 48 77 44 78 45 79 47 80 49 81 46 82
REMARK H PARENT 3 15 66 44 40 55
REMARK Flexibility Score: inf
ROOT
ATOM      1  C   UNL A   1      34.845  22.177  24.916  1.00  0.00     0.275 C 
ENDROOT
BRANCH   1   2
ATOM      2  O   UNL A   1      34.479  22.649  23.601  1.00  0.00    -0.458 OA
BRANCH   2   3
ATOM      3  C   UNL A   1      33.153  22.709  23.349  1.00  0.00     0.343 C 
ATOM      4  O   UNL A   1      32.347  21.817  23.585  1.00  0.00    -0.246 OA
BRANCH   3   5
ATOM      5  C   UNL A   1      32.720  24.034  22.843  1.00  0.00     0.119 A 
ATOM      6  C   UNL A   1      31.966  24.898  23.675  1.00  0.00     0.059 A 
ATOM      7  C   UNL A   1      31.514  26.124  23.178  1.00  0.00     0.027 A 
ATOM      8  C   UNL A   1      31.739  26.460  21.841  1.00  0.00     0.005 A 
ATOM      9  C   UNL A   1      32.903  24.370  21.505  1.00  0.00     0.139 A 
ATOM     10  C   UNL A   1      32.412  25.572  21.000  1.00  0.00     0.040 A 
ATOM     11  F   UNL A   1      33.490  23.518  20.651  1.00  0.00    -0.206 F 
BRANCH   6  12
ATOM     12  N   UNL A   1      31.698  24.483  24.989  1.00  0.00    -0.321 N 
ATOM     13  O   UNL A   1      31.402  24.541  27.226  1.00  0.00    -0.269 OA
ATOM     14  C   UNL A   1      31.805  25.093  26.205  1.00  0.00     0.257 C 
ATOM     15  H   UNL A   1      31.363  23.559  25.045  1.00  0.00     0.170 HD
BRANCH  14  16
ATOM     16  C   UNL A   1      32.251  26.464  26.344  1.00  0.00     0.058 A 
ATOM     17  C   UNL A   1      33.592  26.766  26.130  1.00  0.00     0.018 A 
ATOM     18  C   UNL A   1      31.401  27.428  26.864  1.00  0.00     0.126 A 
ATOM     19  C   UNL A   1      34.028  28.054  26.401  1.00  0.00     0.042 A 
ATOM     20  N   UNL A   1      31.797  28.693  27.119  1.00  0.00    -0.244 NA
ATOM     21  C   UNL A   1      33.100  28.967  26.884  1.00  0.00     0.129 A 
ATOM     22  Cl  UNL A   1      33.563  30.575  27.248  1.00  0.00    -0.062 Cl
ENDBRANCH  14  16
ENDBRANCH   6  12
ENDBRANCH   3   5
ENDBRANCH   2   3
ENDBRANCH   1   2
BRANCH   1  23
ATOM     23  C   UNL A   1      35.901  21.075  24.839  1.00  0.00     0.275 C 
BRANCH  23  24
ATOM     24  O   UNL A   1      37.210  21.642  24.623  1.00  0.00    -0.458 OA
BRANCH  24  25
ATOM     25  C   UNL A   1      38.205  21.130  25.384  1.00  0.00     0.338 C 
ATOM     26  O   UNL A   1      38.666  20.003  25.338  1.00  0.00    -0.246 OA
BRANCH  25  27
ATOM     27  C   UNL A   1      38.807  22.179  26.228  1.00  0.00     0.060 A 
ATOM     28  C   UNL A   1      38.265  23.445  26.126  1.00  0.00     0.016 A 
ATOM     29  C   UNL A   1      40.031  22.009  26.872  1.00  0.00     0.016 A 
ATOM     30  C   UNL A   1      39.049  24.546  26.446  1.00  0.00     0.010 A 
ATOM     31  C   UNL A   1      40.718  23.128  27.387  1.00  0.00     0.010 A 
ATOM     32  C   UNL A   1      40.269  24.432  27.120  1.00  0.00    -0.014 A 
BRANCH  32  33
ATOM     33  C   UNL A   1      41.046  25.680  27.452  1.00  0.00     0.031 A 
ATOM     34  C   UNL A   1      40.467  26.729  28.375  1.00  0.00     0.074 A 
ATOM     35  C   UNL A   1      42.323  25.852  27.035  1.00  0.00     0.049 A 
ATOM     36  N   UNL A   1      40.907  27.935  28.642  1.00  0.00    -0.248 NA
ATOM     37  C   UNL A   1      39.230  26.380  29.091  1.00  0.00     0.031 C 
ATOM     38  C   UNL A   1      43.094  24.899  26.233  1.00  0.00     0.029 A 
ATOM     39  N   UNL A   1      43.226  26.867  27.272  1.00  0.00    -0.354 N 
ATOM     40  C   UNL A   1      39.966  28.511  29.489  1.00  0.00     0.074 A 
ATOM     41  C   UNL A   1      38.933  27.520  29.699  1.00  0.00     0.031 C 
ATOM     42  C   UNL A   1      44.366  25.308  26.150  1.00  0.00     0.029 A 
ATOM     43  C   UNL A   1      44.472  26.637  26.732  1.00  0.00     0.049 A 
ATOM     44  H   UNL A   1      43.001  27.681  27.778  1.00  0.00     0.167 HD
ATOM     45  C   UNL A   1      39.959  29.753  30.034  1.00  0.00     0.037 A 
ATOM     46  C   UNL A   1      45.569  27.415  26.644  1.00  0.00     0.037 A 
ATOM     47  C   UNL A   1      41.018  30.717  29.876  1.00  0.00     0.049 A 
ATOM     48  C   UNL A   1      45.510  28.819  27.166  1.00  0.00     0.074 A 
ATOM     49  C   UNL A   1      41.081  32.017  30.352  1.00  0.00     0.029 A 
ATOM     50  N   UNL A   1      42.212  30.482  29.208  1.00  0.00    -0.354 N 
ATOM     51  N   UNL A   1      44.549  29.407  27.835  1.00  0.00    -0.248 NA
ATOM     52  C   UNL A   1      46.664  29.682  26.882  1.00  0.00     0.031 C 
ATOM     53  C   UNL A   1      42.288  32.582  29.929  1.00  0.00     0.029 A 
ATOM     54  C   UNL A   1      43.008  31.618  29.244  1.00  0.00     0.049 A 
ATOM     55  H   UNL A   1      42.458  29.634  28.774  1.00  0.00     0.167 HD
ATOM     56  C   UNL A   1      44.977  30.709  28.047  1.00  0.00     0.074 A 
ATOM     57  C   UNL A   1      46.300  30.816  27.465  1.00  0.00     0.031 C 
ATOM     58  C   UNL A   1      44.323  31.725  28.661  1.00  0.00     0.037 A 
BRANCH  45  59
ATOM     59  C   UNL A   1      38.732  30.166  30.801  1.00  0.00     0.057 A 
ATOM     60  C   UNL A   1      38.644  29.905  32.176  1.00  0.00     0.134 A 
ATOM     61  C   UNL A   1      37.639  30.799  30.197  1.00  0.00     0.134 A 
ATOM     62  F   UNL A   1      39.650  29.292  32.819  1.00  0.00    -0.206 F 
ATOM     63  C   UNL A   1      37.516  30.257  32.920  1.00  0.00     0.040 A 
ATOM     64  C   UNL A   1      36.518  31.186  30.938  1.00  0.00     0.040 A 
ATOM     65  F   UNL A   1      37.661  31.093  28.888  1.00  0.00    -0.206 F 
ATOM     66  C   UNL A   1      36.453  30.909  32.303  1.00  0.00     0.006 A 
ENDBRANCH  45  59
BRANCH  46  67
ATOM     67  C   UNL A   1      46.787  26.901  25.958  1.00  0.00     0.057 A 
ATOM     68  C   UNL A   1      47.764  26.171  26.649  1.00  0.00     0.134 A 
ATOM     69  C   UNL A   1      47.023  27.165  24.604  1.00  0.00     0.134 A 
ATOM     70  F   UNL A   1      47.596  25.873  27.947  1.00  0.00    -0.206 F 
ATOM     71  C   UNL A   1      48.953  25.769  26.037  1.00  0.00     0.040 A 
ATOM     72  C   UNL A   1      48.192  26.737  23.970  1.00  0.00     0.040 A 
ATOM     73  F   UNL A   1      46.115  27.829  23.876  1.00  0.00    -0.206 F 
ATOM     74  C   UNL A   1      49.168  26.052  24.691  1.00  0.00     0.006 A 
ENDBRANCH  46  67
BRANCH  58  75
ATOM     75  C   UNL A   1      45.030  33.045  28.757  1.00  0.00     0.057 A 
ATOM     76  C   UNL A   1      45.871  33.327  29.841  1.00  0.00     0.134 A 
ATOM     77  C   UNL A   1      44.834  34.059  27.811  1.00  0.00     0.134 A 
ATOM     78  F   UNL A   1      46.097  32.402  30.786  1.00  0.00    -0.206 F 
ATOM     79  C   UNL A   1      46.482  34.573  29.987  1.00  0.00     0.040 A 
ATOM     80  C   UNL A   1      45.462  35.300  27.930  1.00  0.00     0.040 A 
ATOM     81  F   UNL A   1      44.053  33.849  26.740  1.00  0.00    -0.206 F 
ATOM     82  C   UNL A   1      46.281  35.563  29.028  1.00  0.00     0.006 A 
ENDBRANCH  58  75
ENDBRANCH  32  33
ENDBRANCH  25  27
ENDBRANCH  24  25
ENDBRANCH  23  24
ENDBRANCH   1  23
TORSDOF 13
ENDMDL
MODEL 3
REMARK VINA RESULT:     -11.4      4.125      8.822
REMARK SMILES O=C(Nc1cccc(F)c1C(=O)OCCOC(=O)c1ccc(-c2c3nc(c(-c4c(F)cccc4F)c4ccc([nH]4)c(-c4c(F)cccc4F)c4nc(c(-c5c(F)cccc5F)c5ccc2[nH]5)C=C4)C=C3)cc1)c1ccc(Cl)nc1
REMARK SMILES IDX 14 1 13 2 11 3 12 4 10 5 4 6 5 7 6 8 8 9 7 10 9 11 3 12 1 13
REMARK SMILES IDX 2 14 73 16 74 17 79 18 75 19 78 20 76 21 77 22 15 23 16 24
REMARK SMILES IDX 17 25 18 26 19 27 20 28 72 29 21 30 71 31 22 32 23 33 24 34
REMARK SMILES IDX 65 35 25 36 70 37 64 38 66 39 26 40 69 41 63 42 62 43 27 45
REMARK SMILES IDX 53 46 36 47 52 48 37 49 40 50 51 51 67 52 38 53 39 54 50 56
REMARK SMILES IDX 68 57 41 58 28 59 29 60 34 61 30 62 31 63 33 64 35 65 32 66
REMARK SMILES IDX 54 67 55 68 60 69 56 70 57 71 59 72 61 73 58 74 42 75 43 76
REMARK SMILES IDX 48 77 44 78 45 79 47 80 49 81 46 82
REMARK H PARENT 3 15 66 44 40 55
REMARK Flexibility Score: inf
ROOT
ATOM      1  C   UNL A   1      35.242  21.487  26.314  1.00  0.00     0.275 C 
ENDROOT
BRANCH   1   2
ATOM      2  O   UNL A   1      34.982  22.900  26.166  1.00  0.00    -0.458 OA
BRANCH   2   3
ATOM      3  C   UNL A   1      33.724  23.227  25.796  1.00  0.00     0.343 C 
ATOM      4  O   UNL A   1      32.761  23.297  26.549  1.00  0.00    -0.246 OA
BRANCH   3   5
ATOM      5  C   UNL A   1      33.624  23.612  24.367  1.00  0.00     0.119 A 
ATOM      6  C   UNL A   1      33.785  24.967  23.986  1.00  0.00     0.059 A 
ATOM      7  C   UNL A   1      33.637  25.335  22.645  1.00  0.00     0.027 A 
ATOM      8  C   UNL A   1      33.255  24.382  21.698  1.00  0.00     0.005 A 
ATOM      9  C   UNL A   1      33.210  22.684  23.417  1.00  0.00     0.139 A 
ATOM     10  C   UNL A   1      33.020  23.063  22.089  1.00  0.00     0.040 A 
ATOM     11  F   UNL A   1      32.914  21.423  23.763  1.00  0.00    -0.206 F 
BRANCH   6  12
ATOM     12  N   UNL A   1      34.091  25.903  24.986  1.00  0.00    -0.321 N 
ATOM     13  O   UNL A   1      33.900  27.650  26.403  1.00  0.00    -0.269 OA
ATOM     14  C   UNL A   1      33.481  27.045  25.420  1.00  0.00     0.257 C 
ATOM     15  H   UNL A   1      34.918  25.694  25.477  1.00  0.00     0.170 HD
BRANCH  14  16
ATOM     16  C   UNL A   1      32.236  27.518  24.851  1.00  0.00     0.058 A 
ATOM     17  C   UNL A   1      31.091  26.739  24.982  1.00  0.00     0.018 A 
ATOM     18  C   UNL A   1      32.220  28.634  24.028  1.00  0.00     0.126 A 
ATOM     19  C   UNL A   1      29.942  27.139  24.316  1.00  0.00     0.042 A 
ATOM     20  N   UNL A   1      31.112  29.053  23.383  1.00  0.00    -0.244 NA
ATOM     21  C   UNL A   1      30.006  28.291  23.543  1.00  0.00     0.129 A 
ATOM     22  Cl  UNL A   1      28.632  28.846  22.685  1.00  0.00    -0.062 Cl
ENDBRANCH  14  16
ENDBRANCH   6  12
ENDBRANCH   3   5
ENDBRANCH   2   3
ENDBRANCH   1   2
BRANCH   1  23
ATOM     23  C   UNL A   1      36.035  20.939  25.129  1.00  0.00     0.275 C 
BRANCH  23  24
ATOM     24  O   UNL A   1      37.223  21.727  24.906  1.00  0.00    -0.458 OA
BRANCH  24  25
ATOM     25  C   UNL A   1      38.339  21.301  25.541  1.00  0.00     0.338 C 
ATOM     26  O   UNL A   1      38.913  20.236  25.396  1.00  0.00    -0.246 OA
BRANCH  25  27
ATOM     27  C   UNL A   1      38.905  22.377  26.376  1.00  0.00     0.060 A 
ATOM     28  C   UNL A   1      38.393  23.645  26.185  1.00  0.00     0.016 A 
ATOM     29  C   UNL A   1      40.084  22.218  27.102  1.00  0.00     0.016 A 
ATOM     30  C   UNL A   1      39.175  24.748  26.507  1.00  0.00     0.010 A 
ATOM     31  C   UNL A   1      40.757  23.348  27.611  1.00  0.00     0.010 A 
ATOM     32  C   UNL A   1      40.349  24.646  27.260  1.00  0.00    -0.014 A 
BRANCH  32  33
ATOM     33  C   UNL A   1      41.124  25.896  27.587  1.00  0.00     0.031 A 
ATOM     34  C   UNL A   1      40.557  26.935  28.528  1.00  0.00     0.074 A 
ATOM     35  C   UNL A   1      42.393  26.077  27.147  1.00  0.00     0.049 A 
ATOM     36  N   UNL A   1      40.996  28.142  28.795  1.00  0.00    -0.248 NA
ATOM     37  C   UNL A   1      39.336  26.574  29.264  1.00  0.00     0.031 C 
ATOM     38  C   UNL A   1      43.154  25.134  26.324  1.00  0.00     0.029 A 
ATOM     39  N   UNL A   1      43.294  27.096  27.374  1.00  0.00    -0.354 N 
ATOM     40  C   UNL A   1      40.067  28.706  29.664  1.00  0.00     0.074 A 
ATOM     41  C   UNL A   1      39.044  27.708  29.886  1.00  0.00     0.031 C 
ATOM     42  C   UNL A   1      44.421  25.551  26.220  1.00  0.00     0.029 A 
ATOM     43  C   UNL A   1      44.531  26.877  26.809  1.00  0.00     0.049 A 
ATOM     44  H   UNL A   1      43.075  27.905  27.890  1.00  0.00     0.167 HD
ATOM     45  C   UNL A   1      40.064  29.944  30.218  1.00  0.00     0.037 A 
ATOM     46  C   UNL A   1      45.623  27.661  26.706  1.00  0.00     0.037 A 
ATOM     47  C   UNL A   1      41.115  30.916  30.046  1.00  0.00     0.049 A 
ATOM     48  C   UNL A   1      45.565  29.061  27.240  1.00  0.00     0.074 A 
ATOM     49  C   UNL A   1      41.180  32.212  30.530  1.00  0.00     0.029 A 
ATOM     50  N   UNL A   1      42.297  30.691  29.355  1.00  0.00    -0.354 N 
ATOM     51  N   UNL A   1      44.614  29.639  27.930  1.00  0.00    -0.248 NA
ATOM     52  C   UNL A   1      46.709  29.933  26.940  1.00  0.00     0.031 C 
ATOM     53  C   UNL A   1      42.375  32.787  30.089  1.00  0.00     0.029 A 
ATOM     54  C   UNL A   1      43.087  31.831  29.384  1.00  0.00     0.049 A 
ATOM     55  H   UNL A   1      42.540  29.848  28.910  1.00  0.00     0.167 HD
ATOM     56  C   UNL A   1      45.039  30.942  28.144  1.00  0.00     0.074 A 
ATOM     57  C   UNL A   1      46.350  31.060  27.538  1.00  0.00     0.031 C 
ATOM     58  C   UNL A   1      44.391  31.950  28.777  1.00  0.00     0.037 A 
BRANCH  45  59
ATOM     59  C   UNL A   1      38.850  30.345  31.010  1.00  0.00     0.057 A 
ATOM     60  C   UNL A   1      37.803  31.038  30.386  1.00  0.00     0.134 A 
ATOM     61  C   UNL A   1      38.712  30.071  32.377  1.00  0.00     0.134 A 
ATOM     62  F   UNL A   1      37.871  31.344  29.081  1.00  0.00    -0.206 F 
ATOM     63  C   UNL A   1      36.667  31.443  31.089  1.00  0.00     0.040 A 
ATOM     64  C   UNL A   1      37.565  30.442  33.084  1.00  0.00     0.040 A 
ATOM     65  F   UNL A   1      39.669  29.399  33.035  1.00  0.00    -0.206 F 
ATOM     66  C   UNL A   1      36.541  31.135  32.441  1.00  0.00     0.006 A 
ENDBRANCH  45  59
BRANCH  46  67
ATOM     67  C   UNL A   1      46.830  27.159  25.994  1.00  0.00     0.057 A 
ATOM     68  C   UNL A   1      47.002  27.355  24.616  1.00  0.00     0.134 A 
ATOM     69  C   UNL A   1      47.819  26.432  26.666  1.00  0.00     0.134 A 
ATOM     70  F   UNL A   1      46.097  28.051  23.912  1.00  0.00    -0.206 F 
ATOM     71  C   UNL A   1      48.082  26.804  23.924  1.00  0.00     0.040 A 
ATOM     72  C   UNL A   1      48.924  25.907  25.992  1.00  0.00     0.040 A 
ATOM     73  F   UNL A   1      47.733  26.237  27.989  1.00  0.00    -0.206 F 
ATOM     74  C   UNL A   1      49.048  26.077  24.614  1.00  0.00     0.006 A 
ENDBRANCH  46  67
BRANCH  58  75
ATOM     75  C   UNL A   1      45.092  33.273  28.870  1.00  0.00     0.057 A 
ATOM     76  C   UNL A   1      44.896  34.255  27.890  1.00  0.00     0.134 A 
ATOM     77  C   UNL A   1      46.005  33.555  29.893  1.00  0.00     0.134 A 
ATOM     78  F   UNL A   1      44.040  34.046  26.879  1.00  0.00    -0.206 F 
ATOM     79  C   UNL A   1      45.592  35.464  27.918  1.00  0.00     0.040 A 
ATOM     80  C   UNL A   1      46.687  34.773  29.948  1.00  0.00     0.040 A 
ATOM     81  F   UNL A   1      46.228  32.664  30.872  1.00  0.00    -0.206 F 
ATOM     82  C   UNL A   1      46.488  35.727  28.951  1.00  0.00     0.006 A 
ENDBRANCH  58  75
ENDBRANCH  32  33
ENDBRANCH  25  27
ENDBRANCH  24  25
ENDBRANCH  23  24
ENDBRANCH   1  23
TORSDOF 13
ENDMDL
