MODEL 1
REMARK VINA RESULT:     -11.5      0.000      0.000
REMARK SMILES O=C(OCCOC(=O)c1ccc(C[NH2+]Cc2cc(F)ccc2F)nc1)c1ccc(-c2c3nc(c(-c4c(F)cccc4F)c4ccc([nH]4)c(-c4c(F)cccc4F)c4nc(c(-c5c(F)cccc5F)c5ccc2[nH]5)C=C4)C=C3)cc1
REMARK SMILES IDX 5 1 4 2 3 3 2 4 1 5 26 6 27 7 79 8 28 9 78 10 29 11 30 12
REMARK SMILES IDX 31 13 72 14 32 15 77 16 71 17 73 18 33 19 76 20 70 21 69 22
REMARK SMILES IDX 34 24 60 25 43 26 59 27 44 28 47 29 58 30 74 31 45 32 46 33
REMARK SMILES IDX 57 35 75 36 48 37 35 38 36 39 41 40 37 41 38 42 40 43 42 44
REMARK SMILES IDX 39 45 61 46 62 47 67 48 63 49 64 50 66 51 68 52 65 53 49 54
REMARK SMILES IDX 50 55 55 56 51 57 52 58 54 59 56 60 53 61 6 62 7 63 8 64
REMARK SMILES IDX 9 65 10 66 25 67 11 68 24 69 12 70 13 71 14 72 15 75 16 76
REMARK SMILES IDX 17 77 22 78 18 79 21 80 23 81 19 82 20 83
REMARK H PARENT 73 23 47 34 14 73 14 74
REMARK Flexibility Score: inf
ROOT
ATOM      1  C   UNL A   1      41.927  20.701  26.599  1.00  0.00     0.275 C 
ENDROOT
BRANCH   1   2
ATOM      2  C   UNL A   1      43.087  21.281  25.785  1.00  0.00     0.275 C 
BRANCH   2   3
ATOM      3  O   UNL A   1      42.740  22.438  25.007  1.00  0.00    -0.458 OA
BRANCH   3   4
ATOM      4  C   UNL A   1      43.302  23.669  25.014  1.00  0.00     0.338 C 
ATOM      5  O   UNL A   1      44.292  23.876  24.316  1.00  0.00    -0.246 OA
BRANCH   4   6
ATOM      6  C   UNL A   1      42.888  24.750  25.961  1.00  0.00     0.060 A 
ATOM      7  C   UNL A   1      43.526  25.979  26.142  1.00  0.00     0.016 A 
ATOM      8  C   UNL A   1      41.769  24.466  26.764  1.00  0.00     0.016 A 
ATOM      9  C   UNL A   1      43.037  26.923  27.053  1.00  0.00     0.010 A 
ATOM     10  C   UNL A   1      41.275  25.403  27.675  1.00  0.00     0.010 A 
ATOM     11  C   UNL A   1      41.914  26.637  27.830  1.00  0.00    -0.014 A 
BRANCH  11  12
ATOM     12  C   UNL A   1      41.524  27.533  28.940  1.00  0.00     0.031 A 
ATOM     13  C   UNL A   1      42.239  27.379  30.248  1.00  0.00     0.074 A 
ATOM     14  C   UNL A   1      40.572  28.468  28.788  1.00  0.00     0.049 A 
ATOM     15  N   UNL A   1      42.042  28.003  31.378  1.00  0.00    -0.248 NA
ATOM     16  C   UNL A   1      43.343  26.405  30.275  1.00  0.00     0.031 C 
ATOM     17  C   UNL A   1      39.889  28.786  27.539  1.00  0.00     0.029 A 
ATOM     18  N   UNL A   1      39.994  29.310  29.705  1.00  0.00    -0.354 N 
ATOM     19  C   UNL A   1      43.019  27.523  32.238  1.00  0.00     0.074 A 
ATOM     20  C   UNL A   1      43.758  26.503  31.527  1.00  0.00     0.031 C 
ATOM     21  C   UNL A   1      38.926  29.692  27.779  1.00  0.00     0.029 A 
ATOM     22  C   UNL A   1      38.932  30.021  29.200  1.00  0.00     0.049 A 
ATOM     23  H   UNL A   1      40.309  29.395  30.634  1.00  0.00     0.167 HD
ATOM     24  C   UNL A   1      43.303  27.927  33.497  1.00  0.00     0.037 A 
ATOM     25  C   UNL A   1      38.053  30.827  29.827  1.00  0.00     0.037 A 
ATOM     26  C   UNL A   1      42.542  28.917  34.206  1.00  0.00     0.049 A 
ATOM     27  C   UNL A   1      38.252  31.110  31.290  1.00  0.00     0.074 A 
ATOM     28  C   UNL A   1      42.730  29.401  35.487  1.00  0.00     0.029 A 
ATOM     29  N   UNL A   1      41.426  29.560  33.689  1.00  0.00    -0.354 N 
ATOM     30  N   UNL A   1      39.201  30.681  32.089  1.00  0.00    -0.248 NA
ATOM     31  C   UNL A   1      37.282  32.003  31.938  1.00  0.00     0.031 C 
ATOM     32  C   UNL A   1      41.698  30.308  35.760  1.00  0.00     0.029 A 
ATOM     33  C   UNL A   1      40.897  30.420  34.632  1.00  0.00     0.049 A 
ATOM     34  H   UNL A   1      41.065  29.423  32.783  1.00  0.00     0.167 HD
ATOM     35  C   UNL A   1      38.987  31.308  33.308  1.00  0.00     0.074 A 
ATOM     36  C   UNL A   1      37.795  32.119  33.155  1.00  0.00     0.031 C 
ATOM     37  C   UNL A   1      39.728  31.242  34.441  1.00  0.00     0.037 A 
BRANCH  24  38
ATOM     38  C   UNL A   1      44.472  27.266  34.161  1.00  0.00     0.057 A 
ATOM     39  C   UNL A   1      44.318  26.094  34.918  1.00  0.00     0.134 A 
ATOM     40  C   UNL A   1      45.748  27.837  34.105  1.00  0.00     0.134 A 
ATOM     41  F   UNL A   1      43.114  25.512  35.032  1.00  0.00    -0.206 F 
ATOM     42  C   UNL A   1      45.383  25.541  35.632  1.00  0.00     0.040 A 
ATOM     43  C   UNL A   1      46.825  27.279  34.794  1.00  0.00     0.040 A 
ATOM     44  F   UNL A   1      45.961  28.958  33.401  1.00  0.00    -0.206 F 
ATOM     45  C   UNL A   1      46.641  26.136  35.571  1.00  0.00     0.006 A 
ENDBRANCH  24  38
BRANCH  25  46
ATOM     46  C   UNL A   1      36.906  31.403  29.080  1.00  0.00     0.057 A 
ATOM     47  C   UNL A   1      36.884  32.739  28.668  1.00  0.00     0.134 A 
ATOM     48  C   UNL A   1      35.787  30.618  28.775  1.00  0.00     0.134 A 
ATOM     49  F   UNL A   1      37.921  33.545  28.939  1.00  0.00    -0.206 F 
ATOM     50  C   UNL A   1      35.785  33.279  27.996  1.00  0.00     0.040 A 
ATOM     51  C   UNL A   1      34.687  31.139  28.090  1.00  0.00     0.040 A 
ATOM     52  F   UNL A   1      35.760  29.326  29.127  1.00  0.00    -0.206 F 
ATOM     53  C   UNL A   1      34.682  32.478  27.704  1.00  0.00     0.006 A 
ENDBRANCH  25  46
BRANCH  37  54
ATOM     54  C   UNL A   1      39.333  32.141  35.573  1.00  0.00     0.057 A 
ATOM     55  C   UNL A   1      39.824  33.444  35.696  1.00  0.00     0.134 A 
ATOM     56  C   UNL A   1      38.387  31.707  36.511  1.00  0.00     0.134 A 
ATOM     57  F   UNL A   1      40.745  33.909  34.839  1.00  0.00    -0.206 F 
ATOM     58  C   UNL A   1      39.391  34.287  36.722  1.00  0.00     0.040 A 
ATOM     59  C   UNL A   1      37.930  32.546  37.526  1.00  0.00     0.040 A 
ATOM     60  F   UNL A   1      37.877  30.468  36.441  1.00  0.00    -0.206 F 
ATOM     61  C   UNL A   1      38.433  33.841  37.634  1.00  0.00     0.006 A 
ENDBRANCH  37  54
ENDBRANCH  11  12
ENDBRANCH   4   6
ENDBRANCH   3   4
ENDBRANCH   2   3
ENDBRANCH   1   2
BRANCH   1  62
ATOM     62  O   UNL A   1      40.654  21.275  26.262  1.00  0.00    -0.458 OA
BRANCH  62  63
ATOM     63  C   UNL A   1      39.746  20.399  25.747  1.00  0.00     0.339 C 
ATOM     64  O   UNL A   1      39.891  19.203  25.589  1.00  0.00    -0.246 OA
BRANCH  63  65
ATOM     65  C   UNL A   1      38.471  21.098  25.532  1.00  0.00     0.078 A 
ATOM     66  C   UNL A   1      38.266  22.427  25.886  1.00  0.00     0.019 A 
ATOM     67  C   UNL A   1      37.410  20.381  25.005  1.00  0.00     0.127 A 
ATOM     68  C   UNL A   1      36.987  22.969  25.748  1.00  0.00     0.031 A 
ATOM     69  N   UNL A   1      36.149  20.875  24.907  1.00  0.00    -0.254 NA
ATOM     70  C   UNL A   1      35.941  22.156  25.309  1.00  0.00     0.094 A 
BRANCH  70  71
ATOM     71  C   UNL A   1      34.507  22.668  25.365  1.00  0.00     0.318 C 
BRANCH  71  72
ATOM     72  N   UNL A   1      33.721  22.276  24.197  1.00  0.00    -0.337 N 
ATOM     73  H   UNL A   1      34.317  21.734  23.572  1.00  0.00     0.346 HD
ATOM     74  H   UNL A   1      33.384  23.132  23.757  1.00  0.00     0.346 HD
BRANCH  72  75
ATOM     75  C   UNL A   1      32.551  21.472  24.536  1.00  0.00     0.300 C 
BRANCH  75  76
ATOM     76  C   UNL A   1      32.683  19.979  24.334  1.00  0.00     0.045 A 
ATOM     77  C   UNL A   1      32.950  19.076  25.376  1.00  0.00     0.051 A 
ATOM     78  C   UNL A   1      32.457  19.451  23.055  1.00  0.00     0.132 A 
ATOM     79  C   UNL A   1      33.020  17.708  25.118  1.00  0.00     0.123 A 
ATOM     80  C   UNL A   1      32.527  18.082  22.799  1.00  0.00     0.043 A 
ATOM     81  F   UNL A   1      32.155  20.273  22.040  1.00  0.00    -0.206 F 
ATOM     82  F   UNL A   1      33.302  16.866  26.121  1.00  0.00    -0.207 F 
ATOM     83  C   UNL A   1      32.815  17.202  23.840  1.00  0.00     0.042 A 
ENDBRANCH  75  76
ENDBRANCH  72  75
ENDBRANCH  71  72
ENDBRANCH  70  71
ENDBRANCH  63  65
ENDBRANCH  62  63
ENDBRANCH   1  62
TORSDOF 15
ENDMDL
MODEL 2
REMARK VINA RESULT:     -11.5      2.200      3.225
REMARK SMILES O=C(OCCOC(=O)c1ccc(C[NH2+]Cc2cc(F)ccc2F)nc1)c1ccc(-c2c3nc(c(-c4c(F)cccc4F)c4ccc([nH]4)c(-c4c(F)cccc4F)c4nc(c(-c5c(F)cccc5F)c5ccc2[nH]5)C=C4)C=C3)cc1
REMARK SMILES IDX 5 1 4 2 3 3 2 4 1 5 26 6 27 7 79 8 28 9 78 10 29 11 30 12
REMARK SMILES IDX 31 13 72 14 32 15 77 16 71 17 73 18 33 19 76 20 70 21 69 22
REMARK SMILES IDX 34 24 60 25 43 26 59 27 44 28 47 29 58 30 74 31 45 32 46 33
REMARK SMILES IDX 57 35 75 36 48 37 35 38 36 39 41 40 37 41 38 42 40 43 42 44
REMARK SMILES IDX 39 45 61 46 62 47 67 48 63 49 64 50 66 51 68 52 65 53 49 54
REMARK SMILES IDX 50 55 55 56 51 57 52 58 54 59 56 60 53 61 6 62 7 63 8 64
REMARK SMILES IDX 9 65 10 66 25 67 11 68 24 69 12 70 13 71 14 72 15 75 16 76
REMARK SMILES IDX 17 77 22 78 18 79 21 80 23 81 19 82 20 83
REMARK H PARENT 73 23 47 34 14 73 14 74
REMARK Flexibility Score: inf
ROOT
ATOM      1  C   UNL A   1      42.592  20.796  26.245  1.00  0.00     0.275 C 
ENDROOT
BRANCH   1   2
ATOM      2  C   UNL A   1      43.673  21.538  25.455  1.00  0.00     0.275 C 
BRANCH   2   3
ATOM      3  O   UNL A   1      43.229  22.771  24.864  1.00  0.00    -0.458 OA
BRANCH   3   4
ATOM      4  C   UNL A   1      43.765  24.009  24.975  1.00  0.00     0.338 C 
ATOM      5  O   UNL A   1      44.802  24.265  24.367  1.00  0.00    -0.246 OA
BRANCH   4   6
ATOM      6  C   UNL A   1      43.258  25.034  25.938  1.00  0.00     0.060 A 
ATOM      7  C   UNL A   1      43.787  26.312  26.140  1.00  0.00     0.016 A 
ATOM      8  C   UNL A   1      42.168  24.641  26.735  1.00  0.00     0.016 A 
ATOM      9  C   UNL A   1      43.217  27.195  27.064  1.00  0.00     0.010 A 
ATOM     10  C   UNL A   1      41.594  25.518  27.659  1.00  0.00     0.010 A 
ATOM     11  C   UNL A   1      42.123  26.800  27.835  1.00  0.00    -0.014 A 
BRANCH  11  12
ATOM     12  C   UNL A   1      41.657  27.641  28.958  1.00  0.00     0.031 A 
ATOM     13  C   UNL A   1      42.357  27.502  30.276  1.00  0.00     0.074 A 
ATOM     14  C   UNL A   1      40.648  28.516  28.810  1.00  0.00     0.049 A 
ATOM     15  N   UNL A   1      42.101  28.083  31.416  1.00  0.00    -0.248 NA
ATOM     16  C   UNL A   1      43.522  26.601  30.300  1.00  0.00     0.031 C 
ATOM     17  C   UNL A   1      39.968  28.820  27.556  1.00  0.00     0.029 A 
ATOM     18  N   UNL A   1      40.000  29.296  29.735  1.00  0.00    -0.354 N 
ATOM     19  C   UNL A   1      43.091  27.647  32.283  1.00  0.00     0.074 A 
ATOM     20  C   UNL A   1      43.907  26.695  31.562  1.00  0.00     0.031 C 
ATOM     21  C   UNL A   1      38.943  29.655  27.799  1.00  0.00     0.029 A 
ATOM     22  C   UNL A   1      38.903  29.949  29.228  1.00  0.00     0.049 A 
ATOM     23  H   UNL A   1      40.293  29.379  30.672  1.00  0.00     0.167 HD
ATOM     24  C   UNL A   1      43.326  28.037  33.556  1.00  0.00     0.037 A 
ATOM     25  C   UNL A   1      37.963  30.680  29.856  1.00  0.00     0.037 A 
ATOM     26  C   UNL A   1      42.490  28.957  34.273  1.00  0.00     0.049 A 
ATOM     27  C   UNL A   1      38.118  30.939  31.329  1.00  0.00     0.074 A 
ATOM     28  C   UNL A   1      42.624  29.421  35.568  1.00  0.00     0.029 A 
ATOM     29  N   UNL A   1      41.344  29.540  33.750  1.00  0.00    -0.354 N 
ATOM     30  N   UNL A   1      39.079  30.553  32.135  1.00  0.00    -0.248 NA
ATOM     31  C   UNL A   1      37.080  31.751  31.979  1.00  0.00     0.031 C 
ATOM     32  C   UNL A   1      41.530  30.252  35.843  1.00  0.00     0.029 A 
ATOM     33  C   UNL A   1      40.743  30.340  34.704  1.00  0.00     0.049 A 
ATOM     34  H   UNL A   1      41.008  29.402  32.835  1.00  0.00     0.167 HD
ATOM     35  C   UNL A   1      38.803  31.134  33.365  1.00  0.00     0.074 A 
ATOM     36  C   UNL A   1      37.564  31.870  33.209  1.00  0.00     0.031 C 
ATOM     37  C   UNL A   1      39.527  31.089  34.509  1.00  0.00     0.037 A 
BRANCH  24  38
ATOM     38  C   UNL A   1      44.524  27.437  34.226  1.00  0.00     0.057 A 
ATOM     39  C   UNL A   1      44.430  26.251  34.970  1.00  0.00     0.134 A 
ATOM     40  C   UNL A   1      45.766  28.081  34.190  1.00  0.00     0.134 A 
ATOM     41  F   UNL A   1      43.260  25.599  35.064  1.00  0.00    -0.206 F 
ATOM     42  C   UNL A   1      45.517  25.752  35.689  1.00  0.00     0.040 A 
ATOM     43  C   UNL A   1      46.866  27.578  34.885  1.00  0.00     0.040 A 
ATOM     44  F   UNL A   1      45.921  29.220  33.500  1.00  0.00    -0.206 F 
ATOM     45  C   UNL A   1      46.740  26.418  35.649  1.00  0.00     0.006 A 
ENDBRANCH  24  38
BRANCH  25  46
ATOM     46  C   UNL A   1      36.793  31.199  29.102  1.00  0.00     0.057 A 
ATOM     47  C   UNL A   1      35.751  30.366  28.685  1.00  0.00     0.134 A 
ATOM     48  C   UNL A   1      36.704  32.556  28.768  1.00  0.00     0.134 A 
ATOM     49  F   UNL A   1      35.783  29.055  28.964  1.00  0.00    -0.206 F 
ATOM     50  C   UNL A   1      34.672  30.859  27.946  1.00  0.00     0.040 A 
ATOM     51  C   UNL A   1      35.625  33.067  28.044  1.00  0.00     0.040 A 
ATOM     52  F   UNL A   1      37.664  33.406  29.159  1.00  0.00    -0.206 F 
ATOM     53  C   UNL A   1      34.606  32.214  27.625  1.00  0.00     0.006 A 
ENDBRANCH  25  46
BRANCH  37  54
ATOM     54  C   UNL A   1      39.054  31.932  35.655  1.00  0.00     0.057 A 
ATOM     55  C   UNL A   1      38.239  31.421  36.670  1.00  0.00     0.134 A 
ATOM     56  C   UNL A   1      39.488  33.259  35.771  1.00  0.00     0.134 A 
ATOM     57  F   UNL A   1      37.778  30.164  36.605  1.00  0.00    -0.206 F 
ATOM     58  C   UNL A   1      37.867  32.207  37.762  1.00  0.00     0.040 A 
ATOM     59  C   UNL A   1      39.141  34.046  36.867  1.00  0.00     0.040 A 
ATOM     60  F   UNL A   1      40.275  33.803  34.830  1.00  0.00    -0.206 F 
ATOM     61  C   UNL A   1      38.327  33.520  37.867  1.00  0.00     0.006 A 
ENDBRANCH  37  54
ENDBRANCH  11  12
ENDBRANCH   4   6
ENDBRANCH   3   4
ENDBRANCH   2   3
ENDBRANCH   1   2
BRANCH   1  62
ATOM     62  O   UNL A   1      41.258  21.106  25.813  1.00  0.00    -0.458 OA
BRANCH  62  63
ATOM     63  C   UNL A   1      40.398  21.459  26.808  1.00  0.00     0.339 C 
ATOM     64  O   UNL A   1      40.602  21.406  28.005  1.00  0.00    -0.246 OA
BRANCH  63  65
ATOM     65  C   UNL A   1      39.198  22.067  26.215  1.00  0.00     0.078 A 
ATOM     66  C   UNL A   1      38.783  23.363  26.502  1.00  0.00     0.019 A 
ATOM     67  C   UNL A   1      38.414  21.291  25.377  1.00  0.00     0.127 A 
ATOM     68  C   UNL A   1      37.568  23.811  25.980  1.00  0.00     0.031 A 
ATOM     69  N   UNL A   1      37.209  21.691  24.898  1.00  0.00    -0.254 NA
ATOM     70  C   UNL A   1      36.780  22.937  25.229  1.00  0.00     0.094 A 
BRANCH  70  71
ATOM     71  C   UNL A   1      35.363  23.337  24.842  1.00  0.00     0.318 C 
BRANCH  71  72
ATOM     72  N   UNL A   1      34.681  24.089  25.894  1.00  0.00    -0.337 N 
ATOM     73  H   UNL A   1      35.296  24.841  26.205  1.00  0.00     0.346 HD
ATOM     74  H   UNL A   1      34.467  23.433  26.646  1.00  0.00     0.346 HD
BRANCH  72  75
ATOM     75  C   UNL A   1      33.418  24.674  25.455  1.00  0.00     0.300 C 
BRANCH  75  76
ATOM     76  C   UNL A   1      33.508  25.735  24.382  1.00  0.00     0.045 A 
ATOM     77  C   UNL A   1      33.236  25.493  23.026  1.00  0.00     0.051 A 
ATOM     78  C   UNL A   1      33.809  27.052  24.762  1.00  0.00     0.132 A 
ATOM     79  C   UNL A   1      33.304  26.534  22.101  1.00  0.00     0.123 A 
ATOM     80  C   UNL A   1      33.876  28.090  23.835  1.00  0.00     0.043 A 
ATOM     81  F   UNL A   1      34.032  27.336  26.054  1.00  0.00    -0.206 F 
ATOM     82  F   UNL A   1      33.065  26.276  20.808  1.00  0.00    -0.207 F 
ATOM     83  C   UNL A   1      33.625  27.828  22.490  1.00  0.00     0.042 A 
ENDBRANCH  75  76
ENDBRANCH  72  75
ENDBRANCH  71  72
ENDBRANCH  70  71
ENDBRANCH  63  65
ENDBRANCH  62  63
ENDBRANCH   1  62
TORSDOF 15
ENDMDL
MODEL 3
REMARK VINA RESULT:     -11.5      0.641      1.529
REMARK SMILES O=C(OCCOC(=O)c1ccc(C[NH2+]Cc2cc(F)ccc2F)nc1)c1ccc(-c2c3nc(c(-c4c(F)cccc4F)c4ccc([nH]4)c(-c4c(F)cccc4F)c4nc(c(-c5c(F)cccc5F)c5ccc2[nH]5)C=C4)C=C3)cc1
REMARK SMILES IDX 5 1 4 2 3 3 2 4 1 5 26 6 27 7 79 8 28 9 78 10 29 11 30 12
REMARK SMILES IDX 31 13 72 14 32 15 77 16 71 17 73 18 33 19 76 20 70 21 69 22
REMARK SMILES IDX 34 24 60 25 43 26 59 27 44 28 47 29 58 30 74 31 45 32 46 33
REMARK SMILES IDX 57 35 75 36 48 37 35 38 36 39 41 40 37 41 38 42 40 43 42 44
REMARK SMILES IDX 39 45 61 46 62 47 67 48 63 49 64 50 66 51 68 52 65 53 49 54
REMARK SMILES IDX 50 55 55 56 51 57 52 58 54 59 56 60 53 61 6 62 7 63 8 64
REMARK SMILES IDX 9 65 10 66 25 67 11 68 24 69 12 70 13 71 14 72 15 75 16 76
REMARK SMILES IDX 17 77 22 78 18 79 21 80 23 81 19 82 20 83
REMARK H PARENT 73 23 47 34 14 73 14 74
REMARK Flexibility Score: inf
ROOT
ATOM      1  C   UNL A   1      42.508  20.468  26.147  1.00  0.00     0.275 C 
ENDROOT
BRANCH   1   2
ATOM      2  C   UNL A   1      43.567  21.402  25.557  1.00  0.00     0.275 C 
BRANCH   2   3
ATOM      3  O   UNL A   1      43.037  22.615  24.996  1.00  0.00    -0.458 OA
BRANCH   3   4
ATOM      4  C   UNL A   1      43.558  23.864  25.021  1.00  0.00     0.338 C 
ATOM      5  O   UNL A   1      44.553  24.108  24.343  1.00  0.00    -0.246 OA
BRANCH   4   6
ATOM      6  C   UNL A   1      43.091  24.923  25.968  1.00  0.00     0.060 A 
ATOM      7  C   UNL A   1      43.650  26.194  26.127  1.00  0.00     0.016 A 
ATOM      8  C   UNL A   1      42.009  24.572  26.796  1.00  0.00     0.016 A 
ATOM      9  C   UNL A   1      43.116  27.112  27.040  1.00  0.00     0.010 A 
ATOM     10  C   UNL A   1      41.472  25.483  27.708  1.00  0.00     0.010 A 
ATOM     11  C   UNL A   1      42.030  26.759  27.842  1.00  0.00    -0.014 A 
BRANCH  11  12
ATOM     12  C   UNL A   1      41.603  27.636  28.952  1.00  0.00     0.031 A 
ATOM     13  C   UNL A   1      42.308  27.496  30.267  1.00  0.00     0.074 A 
ATOM     14  C   UNL A   1      40.625  28.545  28.795  1.00  0.00     0.049 A 
ATOM     15  N   UNL A   1      42.082  28.108  31.397  1.00  0.00    -0.248 NA
ATOM     16  C   UNL A   1      43.440  26.555  30.300  1.00  0.00     0.031 C 
ATOM     17  C   UNL A   1      39.946  28.849  27.540  1.00  0.00     0.029 A 
ATOM     18  N   UNL A   1      40.013  29.364  29.710  1.00  0.00    -0.354 N 
ATOM     19  C   UNL A   1      43.063  27.653  32.265  1.00  0.00     0.074 A 
ATOM     20  C   UNL A   1      43.838  26.658  31.557  1.00  0.00     0.031 C 
ATOM     21  C   UNL A   1      38.954  29.725  27.775  1.00  0.00     0.029 A 
ATOM     22  C   UNL A   1      38.936  30.047  29.198  1.00  0.00     0.049 A 
ATOM     23  H   UNL A   1      40.316  29.454  30.643  1.00  0.00     0.167 HD
ATOM     24  C   UNL A   1      43.322  28.058  33.529  1.00  0.00     0.037 A 
ATOM     25  C   UNL A   1      38.028  30.823  29.819  1.00  0.00     0.037 A 
ATOM     26  C   UNL A   1      42.526  29.020  34.235  1.00  0.00     0.049 A 
ATOM     27  C   UNL A   1      38.204  31.104  31.286  1.00  0.00     0.074 A 
ATOM     28  C   UNL A   1      42.686  29.503  35.520  1.00  0.00     0.029 A 
ATOM     29  N   UNL A   1      41.397  29.634  33.710  1.00  0.00    -0.354 N 
ATOM     30  N   UNL A   1      39.156  30.698  32.092  1.00  0.00    -0.248 NA
ATOM     31  C   UNL A   1      37.201  31.965  31.928  1.00  0.00     0.031 C 
ATOM     32  C   UNL A   1      41.625  30.378  35.787  1.00  0.00     0.029 A 
ATOM     33  C   UNL A   1      40.833  30.473  34.652  1.00  0.00     0.049 A 
ATOM     34  H   UNL A   1      41.049  29.491  32.800  1.00  0.00     0.167 HD
ATOM     35  C   UNL A   1      38.911  31.312  33.313  1.00  0.00     0.074 A 
ATOM     36  C   UNL A   1      37.698  32.089  33.152  1.00  0.00     0.031 C 
ATOM     37  C   UNL A   1      39.642  31.262  34.453  1.00  0.00     0.037 A 
BRANCH  24  38
ATOM     38  C   UNL A   1      44.503  27.427  34.202  1.00  0.00     0.057 A 
ATOM     39  C   UNL A   1      45.785  27.990  34.111  1.00  0.00     0.134 A 
ATOM     40  C   UNL A   1      44.377  26.212  34.885  1.00  0.00     0.134 A 
ATOM     41  F   UNL A   1      45.976  29.140  33.447  1.00  0.00    -0.206 F 
ATOM     42  C   UNL A   1      46.905  27.344  34.637  1.00  0.00     0.040 A 
ATOM     43  C   UNL A   1      45.486  25.570  35.436  1.00  0.00     0.040 A 
ATOM     44  F   UNL A   1      43.180  25.620  35.004  1.00  0.00    -0.206 F 
ATOM     45  C   UNL A   1      46.756  26.129  35.302  1.00  0.00     0.006 A 
ENDBRANCH  24  38
BRANCH  25  46
ATOM     46  C   UNL A   1      36.872  31.370  29.064  1.00  0.00     0.057 A 
ATOM     47  C   UNL A   1      36.837  32.694  28.617  1.00  0.00     0.134 A 
ATOM     48  C   UNL A   1      35.758  30.568  28.785  1.00  0.00     0.134 A 
ATOM     49  F   UNL A   1      37.868  33.515  28.861  1.00  0.00    -0.206 F 
ATOM     50  C   UNL A   1      35.729  33.206  27.936  1.00  0.00     0.040 A 
ATOM     51  C   UNL A   1      34.651  31.061  28.092  1.00  0.00     0.040 A 
ATOM     52  F   UNL A   1      35.744  29.285  29.171  1.00  0.00    -0.206 F 
ATOM     53  C   UNL A   1      34.632  32.389  27.671  1.00  0.00     0.006 A 
ENDBRANCH  25  46
BRANCH  37  54
ATOM     54  C   UNL A   1      39.210  32.142  35.585  1.00  0.00     0.057 A 
ATOM     55  C   UNL A   1      38.382  31.682  36.613  1.00  0.00     0.134 A 
ATOM     56  C   UNL A   1      39.696  33.453  35.676  1.00  0.00     0.134 A 
ATOM     57  F   UNL A   1      37.871  30.442  36.573  1.00  0.00    -0.206 F 
ATOM     58  C   UNL A   1      38.046  32.500  37.694  1.00  0.00     0.040 A 
ATOM     59  C   UNL A   1      39.387  34.272  36.760  1.00  0.00     0.040 A 
ATOM     60  F   UNL A   1      40.499  33.949  34.721  1.00  0.00    -0.206 F 
ATOM     61  C   UNL A   1      38.558  33.796  37.773  1.00  0.00     0.006 A 
ENDBRANCH  37  54
ENDBRANCH  11  12
ENDBRANCH   4   6
ENDBRANCH   3   4
ENDBRANCH   2   3
ENDBRANCH   1   2
BRANCH   1  62
ATOM     62  O   UNL A   1      41.169  20.806  25.751  1.00  0.00    -0.458 OA
BRANCH  62  63
ATOM     63  C   UNL A   1      40.369  21.261  26.756  1.00  0.00     0.339 C 
ATOM     64  O   UNL A   1      40.625  21.278  27.944  1.00  0.00    -0.246 OA
BRANCH  63  65
ATOM     65  C   UNL A   1      39.169  21.879  26.174  1.00  0.00     0.078 A 
ATOM     66  C   UNL A   1      38.759  23.172  26.478  1.00  0.00     0.019 A 
ATOM     67  C   UNL A   1      38.381  21.115  25.329  1.00  0.00     0.127 A 
ATOM     68  C   UNL A   1      37.544  23.630  25.966  1.00  0.00     0.031 A 
ATOM     69  N   UNL A   1      37.175  21.524  24.859  1.00  0.00    -0.254 NA
ATOM     70  C   UNL A   1      36.751  22.767  25.206  1.00  0.00     0.094 A 
BRANCH  70  71
ATOM     71  C   UNL A   1      35.333  23.175  24.829  1.00  0.00     0.318 C 
BRANCH  71  72
ATOM     72  N   UNL A   1      34.371  22.936  25.903  1.00  0.00    -0.337 N 
ATOM     73  H   UNL A   1      34.293  23.785  26.463  1.00  0.00     0.346 HD
ATOM     74  H   UNL A   1      34.717  22.147  26.450  1.00  0.00     0.346 HD
BRANCH  72  75
ATOM     75  C   UNL A   1      33.043  22.577  25.416  1.00  0.00     0.300 C 
BRANCH  75  76
ATOM     76  C   UNL A   1      32.903  21.201  24.805  1.00  0.00     0.045 A 
ATOM     77  C   UNL A   1      33.162  20.012  25.505  1.00  0.00     0.051 A 
ATOM     78  C   UNL A   1      32.420  21.093  23.492  1.00  0.00     0.132 A 
ATOM     79  C   UNL A   1      32.973  18.777  24.884  1.00  0.00     0.123 A 
ATOM     80  C   UNL A   1      32.232  19.858  22.875  1.00  0.00     0.043 A 
ATOM     81  F   UNL A   1      32.117  22.203  22.803  1.00  0.00    -0.206 F 
ATOM     82  F   UNL A   1      33.251  17.655  25.562  1.00  0.00    -0.207 F 
ATOM     83  C   UNL A   1      32.515  18.688  23.576  1.00  0.00     0.042 A 
ENDBRANCH  75  76
ENDBRANCH  72  75
ENDBRANCH  71  72
ENDBRANCH  70  71
ENDBRANCH  63  65
ENDBRANCH  62  63
ENDBRANCH   1  62
TORSDOF 15
ENDMDL
