MODEL 1
REMARK VINA RESULT:      -9.2      0.000      0.000
REMARK SMILES CC[C@@H](C)N(C)c1ccc(/C=C/C(=O)OCCOC(=O)c2ccc(-c3c4nc(c(-c5c(F)cccc5F)c5ccc([nH]5)c(-c5c(F)cccc5F)c5nc(c(-c6c(F)cccc6F)c6ccc3[nH]6)C=C5)C=C4)cc2)cc1F
REMARK SMILES IDX 16 1 15 2 13 3 14 4 12 5 11 6 10 7 7 8 8 9 76 10 9 11 75 12
REMARK SMILES IDX 77 13 5 14 6 15 3 16 4 17 2 18 1 19 17 20 18 21 19 22 20 23
REMARK SMILES IDX 21 24 22 25 74 26 23 27 73 28 24 29 25 30 26 31 67 32 27 33
REMARK SMILES IDX 72 34 66 35 68 36 28 37 71 38 65 39 64 40 29 42 55 43 38 44
REMARK SMILES IDX 54 45 39 46 42 47 53 48 69 49 40 50 41 51 52 53 70 54 43 55
REMARK SMILES IDX 30 56 31 57 36 58 32 59 33 60 35 61 37 62 34 63 56 64 57 65
REMARK SMILES IDX 62 66 58 67 59 68 61 69 63 70 60 71 44 72 45 73 50 74 46 75
REMARK SMILES IDX 47 76 49 77 51 78 48 79
REMARK H PARENT 68 41 42 52
REMARK Flexibility Score: inf
ROOT
ATOM      1  C   UNL A   1      43.919  18.851  25.816  1.00  0.00     0.275 C 
ENDROOT
BRANCH   1   2
ATOM      2  O   UNL A   1      44.020  19.032  24.392  1.00  0.00    -0.459 OA
BRANCH   2   3
ATOM      3  C   UNL A   1      45.188  19.547  23.941  1.00  0.00     0.330 C 
ATOM      4  O   UNL A   1      46.133  18.914  23.493  1.00  0.00    -0.247 OA
BRANCH   3   5
ATOM      5  C   UNL A   1      45.219  21.023  23.998  1.00  0.00     0.094 C 
ATOM      6  C   UNL A   1      46.041  21.749  24.772  1.00  0.00     0.016 C 
BRANCH   6   7
ATOM      7  C   UNL A   1      45.999  23.218  24.842  1.00  0.00    -0.022 A 
ATOM      8  C   UNL A   1      45.839  26.071  24.977  1.00  0.00     0.073 A 
ATOM      9  C   UNL A   1      47.067  25.411  24.824  1.00  0.00     0.029 A 
ATOM     10  C   UNL A   1      44.694  25.256  25.001  1.00  0.00     0.147 A 
ATOM     11  C   UNL A   1      47.149  24.011  24.753  1.00  0.00     0.010 A 
ATOM     12  C   UNL A   1      44.765  23.861  24.938  1.00  0.00     0.049 A 
ATOM     13  F   UNL A   1      43.470  25.804  25.045  1.00  0.00    -0.205 F 
BRANCH   8  14
ATOM     14  N   UNL A   1      45.775  27.460  25.099  1.00  0.00    -0.370 N 
ATOM     15  C   UNL A   1      46.557  28.253  24.154  1.00  0.00     0.144 C 
BRANCH  14  16
ATOM     16  C   UNL A   1      45.486  28.081  26.416  1.00  0.00     0.078 C 
ATOM     17  C   UNL A   1      44.023  28.523  26.517  1.00  0.00     0.031 C 
BRANCH  16  18
ATOM     18  C   UNL A   1      46.474  29.208  26.756  1.00  0.00     0.021 C 
ATOM     19  C   UNL A   1      45.845  30.595  26.728  1.00  0.00     0.006 C 
ENDBRANCH  16  18
ENDBRANCH  14  16
ENDBRANCH   8  14
ENDBRANCH   6   7
ENDBRANCH   3   5
ENDBRANCH   2   3
ENDBRANCH   1   2
BRANCH   1  20
ATOM     20  C   UNL A   1      42.740  17.943  26.179  1.00  0.00     0.275 C 
BRANCH  20  21
ATOM     21  O   UNL A   1      41.775  18.622  27.005  1.00  0.00    -0.458 OA
BRANCH  21  22
ATOM     22  C   UNL A   1      40.991  19.511  26.348  1.00  0.00     0.338 C 
ATOM     23  O   UNL A   1      40.155  19.263  25.496  1.00  0.00    -0.246 OA
BRANCH  22  24
ATOM     24  C   UNL A   1      41.199  20.871  26.878  1.00  0.00     0.060 A 
ATOM     25  C   UNL A   1      41.395  21.904  25.956  1.00  0.00     0.016 A 
ATOM     26  C   UNL A   1      41.292  21.122  28.251  1.00  0.00     0.016 A 
ATOM     27  C   UNL A   1      41.713  23.185  26.399  1.00  0.00     0.010 A 
ATOM     28  C   UNL A   1      41.615  22.409  28.696  1.00  0.00     0.010 A 
ATOM     29  C   UNL A   1      41.851  23.441  27.772  1.00  0.00    -0.014 A 
BRANCH  29  30
ATOM     30  C   UNL A   1      42.327  24.774  28.213  1.00  0.00     0.031 A 
ATOM     31  C   UNL A   1      41.343  25.896  28.393  1.00  0.00     0.074 A 
ATOM     32  C   UNL A   1      43.622  24.961  28.523  1.00  0.00     0.049 A 
ATOM     33  N   UNL A   1      41.549  27.116  28.819  1.00  0.00    -0.248 NA
ATOM     34  C   UNL A   1      39.943  25.603  28.053  1.00  0.00     0.031 C 
ATOM     35  C   UNL A   1      44.665  23.940  28.430  1.00  0.00     0.029 A 
ATOM     36  N   UNL A   1      44.275  26.069  28.998  1.00  0.00    -0.354 N 
ATOM     37  C   UNL A   1      40.306  27.734  28.807  1.00  0.00     0.074 A 
ATOM     38  C   UNL A   1      39.357  26.767  28.297  1.00  0.00     0.031 C 
ATOM     39  C   UNL A   1      45.825  24.463  28.858  1.00  0.00     0.029 A 
ATOM     40  C   UNL A   1      45.612  25.861  29.230  1.00  0.00     0.049 A 
ATOM     41  H   UNL A   1      43.828  26.932  29.158  1.00  0.00     0.167 HD
ATOM     42  C   UNL A   1      39.980  28.989  29.201  1.00  0.00     0.037 A 
ATOM     43  C   UNL A   1      46.558  26.701  29.692  1.00  0.00     0.037 A 
ATOM     44  C   UNL A   1      40.922  29.956  29.701  1.00  0.00     0.049 A 
ATOM     45  C   UNL A   1      46.187  28.111  30.060  1.00  0.00     0.074 A 
ATOM     46  C   UNL A   1      40.686  31.257  30.109  1.00  0.00     0.029 A 
ATOM     47  N   UNL A   1      42.280  29.725  29.863  1.00  0.00    -0.354 N 
ATOM     48  N   UNL A   1      45.009  28.686  30.037  1.00  0.00    -0.248 NA
ATOM     49  C   UNL A   1      47.275  28.987  30.516  1.00  0.00     0.031 C 
ATOM     50  C   UNL A   1      41.908  31.827  30.485  1.00  0.00     0.029 A 
ATOM     51  C   UNL A   1      42.898  30.865  30.351  1.00  0.00     0.049 A 
ATOM     52  H   UNL A   1      42.737  28.877  29.661  1.00  0.00     0.167 HD
ATOM     53  C   UNL A   1      45.209  29.983  30.492  1.00  0.00     0.074 A 
ATOM     54  C   UNL A   1      46.622  30.108  30.794  1.00  0.00     0.031 C 
ATOM     55  C   UNL A   1      44.303  30.978  30.648  1.00  0.00     0.037 A 
BRANCH  42  56
ATOM     56  C   UNL A   1      38.540  29.389  29.092  1.00  0.00     0.057 A 
ATOM     57  C   UNL A   1      37.995  29.781  27.863  1.00  0.00     0.134 A 
ATOM     58  C   UNL A   1      37.699  29.419  30.213  1.00  0.00     0.134 A 
ATOM     59  F   UNL A   1      38.748  29.778  26.753  1.00  0.00    -0.206 F 
ATOM     60  C   UNL A   1      36.665  30.188  27.752  1.00  0.00     0.040 A 
ATOM     61  C   UNL A   1      36.361  29.804  30.110  1.00  0.00     0.040 A 
ATOM     62  F   UNL A   1      38.157  29.044  31.416  1.00  0.00    -0.206 F 
ATOM     63  C   UNL A   1      35.842  30.196  28.877  1.00  0.00     0.006 A 
ENDBRANCH  42  56
BRANCH  43  64
ATOM     64  C   UNL A   1      47.948  26.212  29.857  1.00  0.00     0.057 A 
ATOM     65  C   UNL A   1      48.417  25.751  31.092  1.00  0.00     0.134 A 
ATOM     66  C   UNL A   1      48.849  26.228  28.786  1.00  0.00     0.134 A 
ATOM     67  F   UNL A   1      47.599  25.712  32.155  1.00  0.00    -0.206 F 
ATOM     68  C   UNL A   1      49.740  25.342  31.263  1.00  0.00     0.040 A 
ATOM     69  C   UNL A   1      50.169  25.804  28.939  1.00  0.00     0.040 A 
ATOM     70  F   UNL A   1      48.449  26.641  27.574  1.00  0.00    -0.206 F 
ATOM     71  C   UNL A   1      50.620  25.367  30.184  1.00  0.00     0.006 A 
ENDBRANCH  43  64
BRANCH  55  72
ATOM     72  C   UNL A   1      44.798  32.289  31.185  1.00  0.00     0.057 A 
ATOM     73  C   UNL A   1      45.212  33.306  30.316  1.00  0.00     0.134 A 
ATOM     74  C   UNL A   1      44.925  32.518  32.561  1.00  0.00     0.134 A 
ATOM     75  F   UNL A   1      45.125  33.144  28.988  1.00  0.00    -0.206 F 
ATOM     76  C   UNL A   1      45.745  34.502  30.796  1.00  0.00     0.040 A 
ATOM     77  C   UNL A   1      45.438  33.720  33.053  1.00  0.00     0.040 A 
ATOM     78  F   UNL A   1      44.536  31.588  33.445  1.00  0.00    -0.206 F 
ATOM     79  C   UNL A   1      45.858  34.713  32.169  1.00  0.00     0.006 A 
ENDBRANCH  55  72
ENDBRANCH  29  30
ENDBRANCH  22  24
ENDBRANCH  21  22
ENDBRANCH  20  21
ENDBRANCH   1  20
TORSDOF 15
ENDMDL
MODEL 2
REMARK VINA RESULT:      -8.7      4.867      7.236
REMARK SMILES CC[C@@H](C)N(C)c1ccc(/C=C/C(=O)OCCOC(=O)c2ccc(-c3c4nc(c(-c5c(F)cccc5F)c5ccc([nH]5)c(-c5c(F)cccc5F)c5nc(c(-c6c(F)cccc6F)c6ccc3[nH]6)C=C5)C=C4)cc2)cc1F
REMARK SMILES IDX 16 1 15 2 13 3 14 4 12 5 11 6 10 7 7 8 8 9 76 10 9 11 75 12
REMARK SMILES IDX 77 13 5 14 6 15 3 16 4 17 2 18 1 19 17 20 18 21 19 22 20 23
REMARK SMILES IDX 21 24 22 25 74 26 23 27 73 28 24 29 25 30 26 31 67 32 27 33
REMARK SMILES IDX 72 34 66 35 68 36 28 37 71 38 65 39 64 40 29 42 55 43 38 44
REMARK SMILES IDX 54 45 39 46 42 47 53 48 69 49 40 50 41 51 52 53 70 54 43 55
REMARK SMILES IDX 30 56 31 57 36 58 32 59 33 60 35 61 37 62 34 63 56 64 57 65
REMARK SMILES IDX 62 66 58 67 59 68 61 69 63 70 60 71 44 72 45 73 50 74 46 75
REMARK SMILES IDX 47 76 49 77 51 78 48 79
REMARK H PARENT 68 41 42 52
REMARK Flexibility Score: inf
ROOT
ATOM      1  C   UNL A   1      42.746  21.071  26.129  1.00  0.00     0.275 C 
ENDROOT
BRANCH   1   2
ATOM      2  O   UNL A   1      41.371  21.270  25.753  1.00  0.00    -0.459 OA
BRANCH   2   3
ATOM      3  C   UNL A   1      40.502  21.473  26.770  1.00  0.00     0.330 C 
ATOM      4  O   UNL A   1      40.752  21.388  27.964  1.00  0.00    -0.247 OA
BRANCH   3   5
ATOM      5  C   UNL A   1      39.158  21.867  26.300  1.00  0.00     0.094 C 
ATOM      6  C   UNL A   1      38.439  21.210  25.377  1.00  0.00     0.016 C 
BRANCH   6   7
ATOM      7  C   UNL A   1      37.127  21.671  24.894  1.00  0.00    -0.022 A 
ATOM      8  C   UNL A   1      34.544  22.507  23.994  1.00  0.00     0.073 A 
ATOM      9  C   UNL A   1      35.718  23.107  23.516  1.00  0.00     0.029 A 
ATOM     10  C   UNL A   1      34.713  21.439  24.892  1.00  0.00     0.147 A 
ATOM     11  C   UNL A   1      36.988  22.697  23.952  1.00  0.00     0.010 A 
ATOM     12  C   UNL A   1      35.972  21.026  25.338  1.00  0.00     0.049 A 
ATOM     13  F   UNL A   1      33.653  20.741  25.326  1.00  0.00    -0.205 F 
BRANCH   8  14
ATOM     14  N   UNL A   1      33.286  22.960  23.593  1.00  0.00    -0.370 N 
ATOM     15  C   UNL A   1      32.995  22.951  22.162  1.00  0.00     0.144 C 
BRANCH  14  16
ATOM     16  C   UNL A   1      32.549  23.948  24.420  1.00  0.00     0.078 C 
ATOM     17  C   UNL A   1      31.974  25.079  23.561  1.00  0.00     0.031 C 
BRANCH  16  18
ATOM     18  C   UNL A   1      33.392  24.463  25.597  1.00  0.00     0.021 C 
ATOM     19  C   UNL A   1      33.937  25.869  25.383  1.00  0.00     0.006 C 
ENDBRANCH  16  18
ENDBRANCH  14  16
ENDBRANCH   8  14
ENDBRANCH   6   7
ENDBRANCH   3   5
ENDBRANCH   2   3
ENDBRANCH   1   2
BRANCH   1  20
ATOM     20  C   UNL A   1      43.675  22.017  25.362  1.00  0.00     0.275 C 
BRANCH  20  21
ATOM     21  O   UNL A   1      43.029  23.266  25.049  1.00  0.00    -0.458 OA
BRANCH  21  22
ATOM     22  C   UNL A   1      43.788  24.367  25.265  1.00  0.00     0.338 C 
ATOM     23  O   UNL A   1      44.808  24.682  24.675  1.00  0.00    -0.246 OA
BRANCH  22  24
ATOM     24  C   UNL A   1      43.157  25.238  26.273  1.00  0.00     0.060 A 
ATOM     25  C   UNL A   1      43.665  26.533  26.420  1.00  0.00     0.016 A 
ATOM     26  C   UNL A   1      42.149  24.774  27.122  1.00  0.00     0.016 A 
ATOM     27  C   UNL A   1      43.188  27.359  27.435  1.00  0.00     0.010 A 
ATOM     28  C   UNL A   1      41.671  25.603  28.144  1.00  0.00     0.010 A 
ATOM     29  C   UNL A   1      42.206  26.890  28.321  1.00  0.00    -0.014 A 
BRANCH  29  30
ATOM     30  C   UNL A   1      41.815  27.733  29.477  1.00  0.00     0.031 A 
ATOM     31  C   UNL A   1      40.623  28.641  29.369  1.00  0.00     0.074 A 
ATOM     32  C   UNL A   1      42.479  27.631  30.642  1.00  0.00     0.049 A 
ATOM     33  N   UNL A   1      40.088  29.416  30.278  1.00  0.00    -0.248 NA
ATOM     34  C   UNL A   1      39.939  28.676  28.068  1.00  0.00     0.031 C 
ATOM     35  C   UNL A   1      43.626  26.757  30.883  1.00  0.00     0.029 A 
ATOM     36  N   UNL A   1      42.270  28.256  31.845  1.00  0.00    -0.354 N 
ATOM     37  C   UNL A   1      39.003  30.025  29.665  1.00  0.00     0.074 A 
ATOM     38  C   UNL A   1      38.975  29.559  28.294  1.00  0.00     0.031 C 
ATOM     39  C   UNL A   1      44.005  26.882  32.165  1.00  0.00     0.029 A 
ATOM     40  C   UNL A   1      43.146  27.864  32.826  1.00  0.00     0.049 A 
ATOM     41  H   UNL A   1      41.559  28.921  31.991  1.00  0.00     0.167 HD
ATOM     42  C   UNL A   1      38.099  30.883  30.197  1.00  0.00     0.037 A 
ATOM     43  C   UNL A   1      43.245  28.250  34.112  1.00  0.00     0.037 A 
ATOM     44  C   UNL A   1      38.128  31.354  31.556  1.00  0.00     0.049 A 
ATOM     45  C   UNL A   1      42.273  29.255  34.665  1.00  0.00     0.074 A 
ATOM     46  C   UNL A   1      37.264  32.238  32.181  1.00  0.00     0.029 A 
ATOM     47  N   UNL A   1      39.071  30.981  32.503  1.00  0.00    -0.354 N 
ATOM     48  N   UNL A   1      41.255  29.829  34.072  1.00  0.00    -0.248 NA
ATOM     49  C   UNL A   1      42.464  29.665  36.064  1.00  0.00     0.031 C 
ATOM     50  C   UNL A   1      37.704  32.426  33.496  1.00  0.00     0.029 A 
ATOM     51  C   UNL A   1      38.818  31.626  33.702  1.00  0.00     0.049 A 
ATOM     52  H   UNL A   1      39.810  30.350  32.346  1.00  0.00     0.167 HD
ATOM     53  C   UNL A   1      40.673  30.653  35.027  1.00  0.00     0.074 A 
ATOM     54  C   UNL A   1      41.446  30.496  36.242  1.00  0.00     0.031 C 
ATOM     55  C   UNL A   1      39.593  31.463  34.905  1.00  0.00     0.037 A 
BRANCH  42  56
ATOM     56  C   UNL A   1      37.007  31.375  29.296  1.00  0.00     0.057 A 
ATOM     57  C   UNL A   1      37.052  32.667  28.755  1.00  0.00     0.134 A 
ATOM     58  C   UNL A   1      35.894  30.583  28.989  1.00  0.00     0.134 A 
ATOM     59  F   UNL A   1      38.088  33.478  29.014  1.00  0.00    -0.206 F 
ATOM     60  C   UNL A   1      36.027  33.152  27.942  1.00  0.00     0.040 A 
ATOM     61  C   UNL A   1      34.873  31.048  28.159  1.00  0.00     0.040 A 
ATOM     62  F   UNL A   1      35.799  29.332  29.465  1.00  0.00    -0.206 F 
ATOM     63  C   UNL A   1      34.935  32.340  27.638  1.00  0.00     0.006 A 
ENDBRANCH  42  56
BRANCH  43  64
ATOM     64  C   UNL A   1      44.297  27.656  34.972  1.00  0.00     0.057 A 
ATOM     65  C   UNL A   1      45.555  28.256  35.106  1.00  0.00     0.134 A 
ATOM     66  C   UNL A   1      44.077  26.453  35.652  1.00  0.00     0.134 A 
ATOM     67  F   UNL A   1      45.824  29.410  34.476  1.00  0.00    -0.206 F 
ATOM     68  C   UNL A   1      46.565  27.670  35.869  1.00  0.00     0.040 A 
ATOM     69  C   UNL A   1      45.072  25.867  36.435  1.00  0.00     0.040 A 
ATOM     70  F   UNL A   1      42.885  25.844  35.578  1.00  0.00    -0.206 F 
ATOM     71  C   UNL A   1      46.324  26.472  36.537  1.00  0.00     0.006 A 
ENDBRANCH  43  64
BRANCH  55  72
ATOM     72  C   UNL A   1      39.164  32.233  36.119  1.00  0.00     0.057 A 
ATOM     73  C   UNL A   1      38.247  31.685  37.025  1.00  0.00     0.134 A 
ATOM     74  C   UNL A   1      39.608  33.540  36.356  1.00  0.00     0.134 A 
ATOM     75  F   UNL A   1      37.777  30.441  36.848  1.00  0.00    -0.206 F 
ATOM     76  C   UNL A   1      37.778  32.413  38.118  1.00  0.00     0.040 A 
ATOM     77  C   UNL A   1      39.162  34.271  37.459  1.00  0.00     0.040 A 
ATOM     78  F   UNL A   1      40.495  34.117  35.533  1.00  0.00    -0.206 F 
ATOM     79  C   UNL A   1      38.237  33.710  38.339  1.00  0.00     0.006 A 
ENDBRANCH  55  72
ENDBRANCH  29  30
ENDBRANCH  22  24
ENDBRANCH  21  22
ENDBRANCH  20  21
ENDBRANCH   1  20
TORSDOF 15
ENDMDL
MODEL 3
REMARK VINA RESULT:      -8.6      4.692      9.168
REMARK SMILES CC[C@@H](C)N(C)c1ccc(/C=C/C(=O)OCCOC(=O)c2ccc(-c3c4nc(c(-c5c(F)cccc5F)c5ccc([nH]5)c(-c5c(F)cccc5F)c5nc(c(-c6c(F)cccc6F)c6ccc3[nH]6)C=C5)C=C4)cc2)cc1F
REMARK SMILES IDX 16 1 15 2 13 3 14 4 12 5 11 6 10 7 7 8 8 9 76 10 9 11 75 12
REMARK SMILES IDX 77 13 5 14 6 15 3 16 4 17 2 18 1 19 17 20 18 21 19 22 20 23
REMARK SMILES IDX 21 24 22 25 74 26 23 27 73 28 24 29 25 30 26 31 67 32 27 33
REMARK SMILES IDX 72 34 66 35 68 36 28 37 71 38 65 39 64 40 29 42 55 43 38 44
REMARK SMILES IDX 54 45 39 46 42 47 53 48 69 49 40 50 41 51 52 53 70 54 43 55
REMARK SMILES IDX 30 56 31 57 36 58 32 59 33 60 35 61 37 62 34 63 56 64 57 65
REMARK SMILES IDX 62 66 58 67 59 68 61 69 63 70 60 71 44 72 45 73 50 74 46 75
REMARK SMILES IDX 47 76 49 77 51 78 48 79
REMARK H PARENT 68 41 42 52
REMARK Flexibility Score: inf
ROOT
ATOM      1  C   UNL A   1      42.862  21.123  26.132  1.00  0.00     0.275 C 
ENDROOT
BRANCH   1   2
ATOM      2  O   UNL A   1      41.566  21.528  25.655  1.00  0.00    -0.459 OA
BRANCH   2   3
ATOM      3  C   UNL A   1      40.523  21.266  26.476  1.00  0.00     0.330 C 
ATOM      4  O   UNL A   1      40.592  20.853  27.625  1.00  0.00    -0.247 OA
BRANCH   3   5
ATOM      5  C   UNL A   1      39.218  21.574  25.855  1.00  0.00     0.094 C 
ATOM      6  C   UNL A   1      38.612  22.772  25.884  1.00  0.00     0.016 C 
BRANCH   6   7
ATOM      7  C   UNL A   1      37.284  23.021  25.302  1.00  0.00    -0.022 A 
ATOM      8  C   UNL A   1      34.674  23.521  24.244  1.00  0.00     0.073 A 
ATOM      9  C   UNL A   1      35.706  23.011  23.443  1.00  0.00     0.029 A 
ATOM     10  C   UNL A   1      34.980  23.716  25.602  1.00  0.00     0.147 A 
ATOM     11  C   UNL A   1      36.987  22.760  23.959  1.00  0.00     0.010 A 
ATOM     12  C   UNL A   1      36.254  23.475  26.126  1.00  0.00     0.049 A 
ATOM     13  F   UNL A   1      34.029  24.106  26.465  1.00  0.00    -0.205 F 
BRANCH   8  14
ATOM     14  N   UNL A   1      33.420  23.817  23.706  1.00  0.00    -0.370 N 
ATOM     15  C   UNL A   1      32.573  22.691  23.323  1.00  0.00     0.144 C 
BRANCH  14  16
ATOM     16  C   UNL A   1      33.198  25.097  22.989  1.00  0.00     0.078 C 
ATOM     17  C   UNL A   1      33.579  26.299  23.858  1.00  0.00     0.031 C 
BRANCH  16  18
ATOM     18  C   UNL A   1      31.776  25.202  22.416  1.00  0.00     0.021 C 
ATOM     19  C   UNL A   1      30.900  26.209  23.151  1.00  0.00     0.006 C 
ENDBRANCH  16  18
ENDBRANCH  14  16
ENDBRANCH   8  14
ENDBRANCH   6   7
ENDBRANCH   3   5
ENDBRANCH   2   3
ENDBRANCH   1   2
BRANCH   1  20
ATOM     20  C   UNL A   1      43.969  22.013  25.559  1.00  0.00     0.275 C 
BRANCH  20  21
ATOM     21  O   UNL A   1      43.434  23.175  24.897  1.00  0.00    -0.458 OA
BRANCH  21  22
ATOM     22  C   UNL A   1      44.100  24.327  25.146  1.00  0.00     0.338 C 
ATOM     23  O   UNL A   1      45.124  24.715  24.607  1.00  0.00    -0.246 OA
BRANCH  22  24
ATOM     24  C   UNL A   1      43.359  25.152  26.118  1.00  0.00     0.060 A 
ATOM     25  C   UNL A   1      43.877  26.413  26.428  1.00  0.00     0.016 A 
ATOM     26  C   UNL A   1      42.227  24.670  26.782  1.00  0.00     0.016 A 
ATOM     27  C   UNL A   1      43.285  27.185  27.425  1.00  0.00     0.010 A 
ATOM     28  C   UNL A   1      41.634  25.445  27.786  1.00  0.00     0.010 A 
ATOM     29  C   UNL A   1      42.175  26.695  28.129  1.00  0.00    -0.014 A 
BRANCH  29  30
ATOM     30  C   UNL A   1      41.649  27.472  29.278  1.00  0.00     0.031 A 
ATOM     31  C   UNL A   1      42.363  27.424  30.599  1.00  0.00     0.074 A 
ATOM     32  C   UNL A   1      40.582  28.274  29.120  1.00  0.00     0.049 A 
ATOM     33  N   UNL A   1      42.096  28.067  31.708  1.00  0.00    -0.248 NA
ATOM     34  C   UNL A   1      43.535  26.540  30.682  1.00  0.00     0.031 C 
ATOM     35  C   UNL A   1      39.829  28.437  27.877  1.00  0.00     0.029 A 
ATOM     36  N   UNL A   1      39.960  29.115  30.006  1.00  0.00    -0.354 N 
ATOM     37  C   UNL A   1      43.069  27.674  32.616  1.00  0.00     0.074 A 
ATOM     38  C   UNL A   1      43.911  26.708  31.943  1.00  0.00     0.031 C 
ATOM     39  C   UNL A   1      38.859  29.344  28.072  1.00  0.00     0.029 A 
ATOM     40  C   UNL A   1      38.906  29.805  29.460  1.00  0.00     0.049 A 
ATOM     41  H   UNL A   1      40.242  29.215  30.944  1.00  0.00     0.167 HD
ATOM     42  C   UNL A   1      43.255  28.091  33.892  1.00  0.00     0.037 A 
ATOM     43  C   UNL A   1      38.073  30.707  30.013  1.00  0.00     0.037 A 
ATOM     44  C   UNL A   1      42.416  29.045  34.567  1.00  0.00     0.049 A 
ATOM     45  C   UNL A   1      38.257  31.106  31.451  1.00  0.00     0.074 A 
ATOM     46  C   UNL A   1      42.517  29.516  35.865  1.00  0.00     0.029 A 
ATOM     47  N   UNL A   1      41.319  29.675  33.997  1.00  0.00    -0.354 N 
ATOM     48  N   UNL A   1      39.176  30.720  32.302  1.00  0.00    -0.248 NA
ATOM     49  C   UNL A   1      37.287  32.062  32.004  1.00  0.00     0.031 C 
ATOM     50  C   UNL A   1      41.461  30.405  36.092  1.00  0.00     0.029 A 
ATOM     51  C   UNL A   1      40.727  30.520  34.921  1.00  0.00     0.049 A 
ATOM     52  H   UNL A   1      41.008  29.542  33.073  1.00  0.00     0.167 HD
ATOM     53  C   UNL A   1      38.909  31.400  33.484  1.00  0.00     0.074 A 
ATOM     54  C   UNL A   1      37.747  32.229  33.238  1.00  0.00     0.031 C 
ATOM     55  C   UNL A   1      39.571  31.341  34.666  1.00  0.00     0.037 A 
BRANCH  42  56
ATOM     56  C   UNL A   1      44.411  27.502  34.644  1.00  0.00     0.057 A 
ATOM     57  C   UNL A   1      45.687  28.072  34.558  1.00  0.00     0.134 A 
ATOM     58  C   UNL A   1      44.267  26.350  35.427  1.00  0.00     0.134 A 
ATOM     59  F   UNL A   1      45.893  29.174  33.821  1.00  0.00    -0.206 F 
ATOM     60  C   UNL A   1      46.779  27.517  35.225  1.00  0.00     0.040 A 
ATOM     61  C   UNL A   1      45.347  25.797  36.117  1.00  0.00     0.040 A 
ATOM     62  F   UNL A   1      43.067  25.764  35.560  1.00  0.00    -0.206 F 
ATOM     63  C   UNL A   1      46.610  26.378  36.012  1.00  0.00     0.006 A 
ENDBRANCH  42  56
BRANCH  43  64
ATOM     64  C   UNL A   1      37.004  31.315  29.185  1.00  0.00     0.057 A 
ATOM     65  C   UNL A   1      37.094  32.636  28.733  1.00  0.00     0.134 A 
ATOM     66  C   UNL A   1      35.850  30.594  28.856  1.00  0.00     0.134 A 
ATOM     67  F   UNL A   1      38.176  33.376  29.018  1.00  0.00    -0.206 F 
ATOM     68  C   UNL A   1      36.064  33.228  28.001  1.00  0.00     0.040 A 
ATOM     69  C   UNL A   1      34.822  31.168  28.108  1.00  0.00     0.040 A 
ATOM     70  F   UNL A   1      35.718  29.317  29.244  1.00  0.00    -0.206 F 
ATOM     71  C   UNL A   1      34.924  32.493  27.686  1.00  0.00     0.006 A 
ENDBRANCH  43  64
BRANCH  55  72
ATOM     72  C   UNL A   1      39.072  32.209  35.783  1.00  0.00     0.057 A 
ATOM     73  C   UNL A   1      39.499  33.538  35.899  1.00  0.00     0.134 A 
ATOM     74  C   UNL A   1      38.225  31.711  36.780  1.00  0.00     0.134 A 
ATOM     75  F   UNL A   1      40.320  34.072  34.982  1.00  0.00    -0.206 F 
ATOM     76  C   UNL A   1      39.107  34.339  36.972  1.00  0.00     0.040 A 
ATOM     77  C   UNL A   1      37.809  32.509  37.847  1.00  0.00     0.040 A 
ATOM     78  F   UNL A   1      37.773  30.449  36.720  1.00  0.00    -0.206 F 
ATOM     79  C   UNL A   1      38.257  33.825  37.950  1.00  0.00     0.006 A 
ENDBRANCH  55  72
ENDBRANCH  29  30
ENDBRANCH  22  24
ENDBRANCH  21  22
ENDBRANCH  20  21
ENDBRANCH   1  20
TORSDOF 15
ENDMDL
