MODEL 1
REMARK VINA RESULT:     -10.4      0.000      0.000
REMARK SMILES CCOc1ccccc1[C@@H](O)[C@@H](C)[C@@H](C)C(=O)OCCOC(=O)c1ccc(-c2c3nc(c(-c4c(F)cccc4F)c4ccc([nH]4)c(-c4c(F)cccc4F)c4nc(c(-c5c(F)cccc5F)c5ccc2[nH]5)C=C4)C=C3)cc1
REMARK SMILES IDX 18 1 16 2 17 3 14 4 15 5 12 6 13 7 10 8 9 9 4 10 5 11 6 12
REMARK SMILES IDX 8 13 7 14 3 15 2 16 1 17 11 18 19 20 20 21 21 22 22 23 23 24
REMARK SMILES IDX 24 25 25 26 77 27 26 28 76 29 27 30 28 31 29 32 70 33 30 34
REMARK SMILES IDX 75 35 69 36 71 37 31 38 74 39 68 40 67 41 32 43 58 44 41 45
REMARK SMILES IDX 57 46 42 47 45 48 56 49 72 50 43 51 44 52 55 54 73 55 46 56
REMARK SMILES IDX 33 57 34 58 39 59 35 60 36 61 38 62 40 63 37 64 59 65 60 66
REMARK SMILES IDX 65 67 61 68 62 69 64 70 66 71 63 72 47 73 48 74 53 75 49 76
REMARK SMILES IDX 50 77 52 78 54 79 51 80
REMARK H PARENT 11 19 71 42 45 53
REMARK Flexibility Score: inf
ROOT
ATOM      1  O   UNL A   1      39.568  21.470  26.345  1.00  0.00    -0.462 OA
ENDROOT
BRANCH   1   2
ATOM      2  C   UNL A   1      38.517  21.253  25.513  1.00  0.00     0.309 C 
ATOM      3  O   UNL A   1      38.182  20.153  25.084  1.00  0.00    -0.252 OA
BRANCH   2   4
ATOM      4  C   UNL A   1      37.780  22.523  25.116  1.00  0.00     0.102 C 
ATOM      5  C   UNL A   1      38.104  23.563  26.190  1.00  0.00     0.020 C 
BRANCH   4   6
ATOM      6  C   UNL A   1      36.261  22.362  24.785  1.00  0.00     0.033 C 
ATOM      7  C   UNL A   1      35.880  23.299  23.620  1.00  0.00     0.011 C 
BRANCH   6   8
ATOM      8  C   UNL A   1      35.391  22.632  26.050  1.00  0.00     0.152 C 
BRANCH   8   9
ATOM      9  C   UNL A   1      33.951  23.022  25.790  1.00  0.00     0.023 A 
ATOM     10  C   UNL A   1      33.041  22.111  25.235  1.00  0.00     0.125 A 
ATOM     11  C   UNL A   1      31.709  22.469  25.015  1.00  0.00     0.047 A 
ATOM     12  C   UNL A   1      31.268  23.744  25.366  1.00  0.00     0.004 A 
ATOM     13  C   UNL A   1      33.492  24.306  26.126  1.00  0.00     0.010 A 
ATOM     14  C   UNL A   1      32.159  24.664  25.918  1.00  0.00     0.001 A 
BRANCH  10  15
ATOM     15  O   UNL A   1      33.497  20.891  24.814  1.00  0.00    -0.493 OA
BRANCH  15  16
ATOM     16  C   UNL A   1      32.532  19.849  25.002  1.00  0.00     0.226 C 
ATOM     17  C   UNL A   1      32.526  19.002  23.740  1.00  0.00     0.049 C 
ENDBRANCH  15  16
ENDBRANCH  10  15
ENDBRANCH   8   9
BRANCH   8  18
ATOM     18  O   UNL A   1      35.371  21.453  26.863  1.00  0.00    -0.388 OA
ATOM     19  H   UNL A   1      36.279  21.144  27.008  1.00  0.00     0.211 HD
ENDBRANCH   8  18
ENDBRANCH   6   8
ENDBRANCH   4   6
ENDBRANCH   2   4
ENDBRANCH   1   2
BRANCH   1  20
ATOM     20  C   UNL A   1      40.624  20.492  26.269  1.00  0.00     0.274 C 
BRANCH  20  21
ATOM     21  C   UNL A   1      41.986  21.173  26.129  1.00  0.00     0.275 C 
BRANCH  21  22
ATOM     22  O   UNL A   1      41.844  22.409  25.406  1.00  0.00    -0.458 OA
BRANCH  22  23
ATOM     23  C   UNL A   1      42.870  23.277  25.517  1.00  0.00     0.338 C 
ATOM     24  O   UNL A   1      43.975  23.192  24.999  1.00  0.00    -0.246 OA
BRANCH  23  25
ATOM     25  C   UNL A   1      42.494  24.381  26.416  1.00  0.00     0.060 A 
ATOM     26  C   UNL A   1      43.131  25.623  26.346  1.00  0.00     0.016 A 
ATOM     27  C   UNL A   1      41.540  24.135  27.404  1.00  0.00     0.016 A 
ATOM     28  C   UNL A   1      42.843  26.610  27.293  1.00  0.00     0.010 A 
ATOM     29  C   UNL A   1      41.215  25.140  28.316  1.00  0.00     0.010 A 
ATOM     30  C   UNL A   1      41.882  26.376  28.286  1.00  0.00    -0.014 A 
BRANCH  30  31
ATOM     31  C   UNL A   1      41.574  27.395  29.323  1.00  0.00     0.031 A 
ATOM     32  C   UNL A   1      42.359  27.421  30.605  1.00  0.00     0.074 A 
ATOM     33  C   UNL A   1      40.562  28.263  29.140  1.00  0.00     0.049 A 
ATOM     34  N   UNL A   1      42.141  28.109  31.697  1.00  0.00    -0.248 NA
ATOM     35  C   UNL A   1      43.541  26.548  30.669  1.00  0.00     0.031 C 
ATOM     36  C   UNL A   1      39.739  28.364  27.935  1.00  0.00     0.029 A 
ATOM     37  N   UNL A   1      40.043  29.215  29.981  1.00  0.00    -0.354 N 
ATOM     38  C   UNL A   1      43.130  27.722  32.593  1.00  0.00     0.074 A 
ATOM     39  C   UNL A   1      43.949  26.737  31.917  1.00  0.00     0.031 C 
ATOM     40  C   UNL A   1      38.823  29.329  28.112  1.00  0.00     0.029 A 
ATOM     41  C   UNL A   1      38.957  29.873  29.460  1.00  0.00     0.049 A 
ATOM     42  H   UNL A   1      40.415  29.408  30.873  1.00  0.00     0.167 HD
ATOM     43  C   UNL A   1      43.335  28.148  33.862  1.00  0.00     0.037 A 
ATOM     44  C   UNL A   1      38.138  30.784  30.017  1.00  0.00     0.037 A 
ATOM     45  C   UNL A   1      42.543  29.151  34.522  1.00  0.00     0.049 A 
ATOM     46  C   UNL A   1      38.359  31.210  31.440  1.00  0.00     0.074 A 
ATOM     47  C   UNL A   1      42.706  29.684  35.791  1.00  0.00     0.029 A 
ATOM     48  N   UNL A   1      41.436  29.774  33.966  1.00  0.00    -0.354 N 
ATOM     49  N   UNL A   1      39.295  30.835  32.278  1.00  0.00    -0.248 NA
ATOM     50  C   UNL A   1      37.399  32.172  32.000  1.00  0.00     0.031 C 
ATOM     51  C   UNL A   1      41.675  30.605  36.014  1.00  0.00     0.029 A 
ATOM     52  C   UNL A   1      40.893  30.671  34.873  1.00  0.00     0.049 A 
ATOM     53  H   UNL A   1      41.088  29.606  33.061  1.00  0.00     0.167 HD
ATOM     54  C   UNL A   1      39.048  31.527  33.456  1.00  0.00     0.074 A 
ATOM     55  C   UNL A   1      37.879  32.351  33.222  1.00  0.00     0.031 C 
ATOM     56  C   UNL A   1      39.730  31.483  34.627  1.00  0.00     0.037 A 
BRANCH  43  57
ATOM     57  C   UNL A   1      44.450  27.505  34.633  1.00  0.00     0.057 A 
ATOM     58  C   UNL A   1      44.278  26.298  35.321  1.00  0.00     0.134 A 
ATOM     59  C   UNL A   1      45.721  28.092  34.661  1.00  0.00     0.134 A 
ATOM     60  F   UNL A   1      43.080  25.693  35.346  1.00  0.00    -0.206 F 
ATOM     61  C   UNL A   1      45.328  25.706  36.027  1.00  0.00     0.040 A 
ATOM     62  C   UNL A   1      46.783  27.500  35.347  1.00  0.00     0.040 A 
ATOM     63  F   UNL A   1      45.952  29.248  34.019  1.00  0.00    -0.206 F 
ATOM     64  C   UNL A   1      46.586  26.305  36.036  1.00  0.00     0.006 A 
ENDBRANCH  43  57
BRANCH  44  65
ATOM     65  C   UNL A   1      37.019  31.349  29.225  1.00  0.00     0.057 A 
ATOM     66  C   UNL A   1      35.871  30.592  28.965  1.00  0.00     0.134 A 
ATOM     67  C   UNL A   1      37.063  32.654  28.721  1.00  0.00     0.134 A 
ATOM     68  F   UNL A   1      35.783  29.328  29.403  1.00  0.00    -0.206 F 
ATOM     69  C   UNL A   1      34.805  31.114  28.230  1.00  0.00     0.040 A 
ATOM     70  C   UNL A   1      35.997  33.195  28.002  1.00  0.00     0.040 A 
ATOM     71  F   UNL A   1      38.139  33.427  28.937  1.00  0.00    -0.206 F 
ATOM     72  C   UNL A   1      34.864  32.422  27.753  1.00  0.00     0.006 A 
ENDBRANCH  44  65
BRANCH  56  73
ATOM     73  C   UNL A   1      39.243  32.370  35.732  1.00  0.00     0.057 A 
ATOM     74  C   UNL A   1      38.303  31.929  36.670  1.00  0.00     0.134 A 
ATOM     75  C   UNL A   1      39.741  33.672  35.873  1.00  0.00     0.134 A 
ATOM     76  F   UNL A   1      37.779  30.696  36.578  1.00  0.00    -0.206 F 
ATOM     77  C   UNL A   1      37.861  32.757  37.702  1.00  0.00     0.040 A 
ATOM     78  C   UNL A   1      39.320  34.503  36.912  1.00  0.00     0.040 A 
ATOM     79  F   UNL A   1      40.648  34.151  35.009  1.00  0.00    -0.206 F 
ATOM     80  C   UNL A   1      38.374  34.047  37.828  1.00  0.00     0.006 A 
ENDBRANCH  56  73
ENDBRANCH  30  31
ENDBRANCH  23  25
ENDBRANCH  22  23
ENDBRANCH  21  22
ENDBRANCH  20  21
ENDBRANCH   1  20
TORSDOF 17
ENDMDL
MODEL 2
REMARK VINA RESULT:     -10.1      4.050      7.829
REMARK SMILES CCOc1ccccc1[C@@H](O)[C@@H](C)[C@@H](C)C(=O)OCCOC(=O)c1ccc(-c2c3nc(c(-c4c(F)cccc4F)c4ccc([nH]4)c(-c4c(F)cccc4F)c4nc(c(-c5c(F)cccc5F)c5ccc2[nH]5)C=C4)C=C3)cc1
REMARK SMILES IDX 18 1 16 2 17 3 14 4 15 5 12 6 13 7 10 8 9 9 4 10 5 11 6 12
REMARK SMILES IDX 8 13 7 14 3 15 2 16 1 17 11 18 19 20 20 21 21 22 22 23 23 24
REMARK SMILES IDX 24 25 25 26 77 27 26 28 76 29 27 30 28 31 29 32 70 33 30 34
REMARK SMILES IDX 75 35 69 36 71 37 31 38 74 39 68 40 67 41 32 43 58 44 41 45
REMARK SMILES IDX 57 46 42 47 45 48 56 49 72 50 43 51 44 52 55 54 73 55 46 56
REMARK SMILES IDX 33 57 34 58 39 59 35 60 36 61 38 62 40 63 37 64 59 65 60 66
REMARK SMILES IDX 65 67 61 68 62 69 64 70 66 71 63 72 47 73 48 74 53 75 49 76
REMARK SMILES IDX 50 77 52 78 54 79 51 80
REMARK H PARENT 11 19 71 42 45 53
REMARK Flexibility Score: inf
ROOT
ATOM      1  O   UNL A   1      37.847  21.665  25.211  1.00  0.00    -0.462 OA
ENDROOT
BRANCH   1   2
ATOM      2  C   UNL A   1      37.017  22.527  24.569  1.00  0.00     0.309 C 
ATOM      3  O   UNL A   1      36.577  22.358  23.436  1.00  0.00    -0.252 OA
BRANCH   2   4
ATOM      4  C   UNL A   1      36.690  23.774  25.375  1.00  0.00     0.102 C 
ATOM      5  C   UNL A   1      37.870  23.998  26.321  1.00  0.00     0.020 C 
BRANCH   4   6
ATOM      6  C   UNL A   1      35.281  23.805  26.052  1.00  0.00     0.033 C 
ATOM      7  C   UNL A   1      34.908  22.391  26.543  1.00  0.00     0.011 C 
BRANCH   6   8
ATOM      8  C   UNL A   1      34.213  24.374  25.070  1.00  0.00     0.152 C 
BRANCH   8   9
ATOM      9  C   UNL A   1      33.345  25.490  25.613  1.00  0.00     0.023 A 
ATOM     10  C   UNL A   1      32.002  25.269  25.947  1.00  0.00     0.125 A 
ATOM     11  C   UNL A   1      31.211  26.297  26.466  1.00  0.00     0.047 A 
ATOM     12  C   UNL A   1      31.766  27.560  26.673  1.00  0.00     0.004 A 
ATOM     13  C   UNL A   1      33.884  26.772  25.817  1.00  0.00     0.010 A 
ATOM     14  C   UNL A   1      33.100  27.799  26.346  1.00  0.00     0.001 A 
BRANCH  10  15
ATOM     15  O   UNL A   1      31.439  24.054  25.663  1.00  0.00    -0.493 OA
BRANCH  15  16
ATOM     16  C   UNL A   1      31.241  23.254  26.835  1.00  0.00     0.226 C 
ATOM     17  C   UNL A   1      29.749  22.999  26.964  1.00  0.00     0.049 C 
ENDBRANCH  15  16
ENDBRANCH  10  15
ENDBRANCH   8   9
BRANCH   8  18
ATOM     18  O   UNL A   1      34.872  24.879  23.903  1.00  0.00    -0.388 OA
ATOM     19  H   UNL A   1      35.704  24.398  23.767  1.00  0.00     0.211 HD
ENDBRANCH   8  18
ENDBRANCH   6   8
ENDBRANCH   4   6
ENDBRANCH   2   4
ENDBRANCH   1   2
BRANCH   1  20
ATOM     20  C   UNL A   1      37.602  20.269  24.954  1.00  0.00     0.274 C 
BRANCH  20  21
ATOM     21  C   UNL A   1      38.910  19.475  24.970  1.00  0.00     0.275 C 
BRANCH  21  22
ATOM     22  O   UNL A   1      39.623  19.731  26.193  1.00  0.00    -0.458 OA
BRANCH  22  23
ATOM     23  C   UNL A   1      40.968  19.694  26.110  1.00  0.00     0.338 C 
ATOM     24  O   UNL A   1      41.661  18.779  25.687  1.00  0.00    -0.246 OA
BRANCH  23  25
ATOM     25  C   UNL A   1      41.537  20.937  26.657  1.00  0.00     0.060 A 
ATOM     26  C   UNL A   1      41.795  21.078  28.023  1.00  0.00     0.016 A 
ATOM     27  C   UNL A   1      41.734  22.012  25.788  1.00  0.00     0.016 A 
ATOM     28  C   UNL A   1      42.214  22.311  28.530  1.00  0.00     0.010 A 
ATOM     29  C   UNL A   1      42.204  23.227  26.289  1.00  0.00     0.010 A 
ATOM     30  C   UNL A   1      42.423  23.396  27.667  1.00  0.00    -0.014 A 
BRANCH  30  31
ATOM     31  C   UNL A   1      42.842  24.726  28.180  1.00  0.00     0.031 A 
ATOM     32  C   UNL A   1      41.807  25.775  28.478  1.00  0.00     0.074 A 
ATOM     33  C   UNL A   1      44.147  25.013  28.330  1.00  0.00     0.049 A 
ATOM     34  N   UNL A   1      41.968  27.041  28.766  1.00  0.00    -0.248 NA
ATOM     35  C   UNL A   1      40.401  25.341  28.436  1.00  0.00     0.031 C 
ATOM     36  C   UNL A   1      45.252  24.082  28.103  1.00  0.00     0.029 A 
ATOM     37  N   UNL A   1      44.766  26.183  28.695  1.00  0.00    -0.354 N 
ATOM     38  C   UNL A   1      40.689  27.566  28.898  1.00  0.00     0.074 A 
ATOM     39  C   UNL A   1      39.761  26.481  28.656  1.00  0.00     0.031 C 
ATOM     40  C   UNL A   1      46.413  24.714  28.339  1.00  0.00     0.029 A 
ATOM     41  C   UNL A   1      46.136  26.107  28.677  1.00  0.00     0.049 A 
ATOM     42  H   UNL A   1      44.274  26.999  28.944  1.00  0.00     0.167 HD
ATOM     43  C   UNL A   1      40.322  28.837  29.191  1.00  0.00     0.037 A 
ATOM     44  C   UNL A   1      47.067  27.059  28.875  1.00  0.00     0.037 A 
ATOM     45  C   UNL A   1      41.244  29.907  29.465  1.00  0.00     0.049 A 
ATOM     46  C   UNL A   1      46.636  28.470  29.157  1.00  0.00     0.074 A 
ATOM     47  C   UNL A   1      40.965  31.217  29.821  1.00  0.00     0.029 A 
ATOM     48  N   UNL A   1      42.624  29.793  29.413  1.00  0.00    -0.354 N 
ATOM     49  N   UNL A   1      45.424  28.956  29.276  1.00  0.00    -0.248 NA
ATOM     50  C   UNL A   1      47.704  29.469  29.315  1.00  0.00     0.031 C 
ATOM     51  C   UNL A   1      42.179  31.903  29.951  1.00  0.00     0.029 A 
ATOM     52  C   UNL A   1      43.212  31.012  29.710  1.00  0.00     0.049 A 
ATOM     53  H   UNL A   1      43.115  28.967  29.198  1.00  0.00     0.167 HD
ATOM     54  C   UNL A   1      45.583  30.310  29.539  1.00  0.00     0.074 A 
ATOM     55  C   UNL A   1      47.008  30.567  29.572  1.00  0.00     0.031 C 
ATOM     56  C   UNL A   1      44.631  31.254  29.737  1.00  0.00     0.037 A 
BRANCH  43  57
ATOM     57  C   UNL A   1      38.854  29.146  29.204  1.00  0.00     0.057 A 
ATOM     58  C   UNL A   1      38.081  29.033  30.365  1.00  0.00     0.134 A 
ATOM     59  C   UNL A   1      38.215  29.591  28.039  1.00  0.00     0.134 A 
ATOM     60  F   UNL A   1      38.631  28.598  31.509  1.00  0.00    -0.206 F 
ATOM     61  C   UNL A   1      36.717  29.334  30.364  1.00  0.00     0.040 A 
ATOM     62  C   UNL A   1      36.857  29.912  28.031  1.00  0.00     0.040 A 
ATOM     63  F   UNL A   1      38.901  29.723  26.894  1.00  0.00    -0.206 F 
ATOM     64  C   UNL A   1      36.103  29.780  29.195  1.00  0.00     0.006 A 
ENDBRANCH  43  57
BRANCH  44  65
ATOM     65  C   UNL A   1      48.505  26.709  28.800  1.00  0.00     0.057 A 
ATOM     66  C   UNL A   1      49.182  26.720  27.575  1.00  0.00     0.134 A 
ATOM     67  C   UNL A   1      49.237  26.369  29.943  1.00  0.00     0.134 A 
ATOM     68  F   UNL A   1      48.526  27.015  26.444  1.00  0.00    -0.206 F 
ATOM     69  C   UNL A   1      50.539  26.402  27.490  1.00  0.00     0.040 A 
ATOM     70  C   UNL A   1      50.598  26.069  29.876  1.00  0.00     0.040 A 
ATOM     71  F   UNL A   1      48.642  26.341  31.145  1.00  0.00    -0.206 F 
ATOM     72  C   UNL A   1      51.252  26.083  28.644  1.00  0.00     0.006 A 
ENDBRANCH  44  65
BRANCH  56  73
ATOM     73  C   UNL A   1      45.103  32.645  30.032  1.00  0.00     0.057 A 
ATOM     74  C   UNL A   1      45.282  33.592  29.017  1.00  0.00     0.134 A 
ATOM     75  C   UNL A   1      45.357  33.048  31.349  1.00  0.00     0.134 A 
ATOM     76  F   UNL A   1      45.069  33.261  27.734  1.00  0.00    -0.206 F 
ATOM     77  C   UNL A   1      45.713  34.889  29.299  1.00  0.00     0.040 A 
ATOM     78  C   UNL A   1      45.771  34.347  31.646  1.00  0.00     0.040 A 
ATOM     79  F   UNL A   1      45.199  32.188  32.367  1.00  0.00    -0.206 F 
ATOM     80  C   UNL A   1      45.954  35.271  30.619  1.00  0.00     0.006 A 
ENDBRANCH  56  73
ENDBRANCH  30  31
ENDBRANCH  23  25
ENDBRANCH  22  23
ENDBRANCH  21  22
ENDBRANCH  20  21
ENDBRANCH   1  20
TORSDOF 17
ENDMDL
MODEL 3
REMARK VINA RESULT:     -10.1      5.195      9.989
REMARK SMILES CCOc1ccccc1[C@@H](O)[C@@H](C)[C@@H](C)C(=O)OCCOC(=O)c1ccc(-c2c3nc(c(-c4c(F)cccc4F)c4ccc([nH]4)c(-c4c(F)cccc4F)c4nc(c(-c5c(F)cccc5F)c5ccc2[nH]5)C=C4)C=C3)cc1
REMARK SMILES IDX 18 1 16 2 17 3 14 4 15 5 12 6 13 7 10 8 9 9 4 10 5 11 6 12
REMARK SMILES IDX 8 13 7 14 3 15 2 16 1 17 11 18 19 20 20 21 21 22 22 23 23 24
REMARK SMILES IDX 24 25 25 26 77 27 26 28 76 29 27 30 28 31 29 32 70 33 30 34
REMARK SMILES IDX 75 35 69 36 71 37 31 38 74 39 68 40 67 41 32 43 58 44 41 45
REMARK SMILES IDX 57 46 42 47 45 48 56 49 72 50 43 51 44 52 55 54 73 55 46 56
REMARK SMILES IDX 33 57 34 58 39 59 35 60 36 61 38 62 40 63 37 64 59 65 60 66
REMARK SMILES IDX 65 67 61 68 62 69 64 70 66 71 63 72 47 73 48 74 53 75 49 76
REMARK SMILES IDX 50 77 52 78 54 79 51 80
REMARK H PARENT 11 19 71 42 45 53
REMARK Flexibility Score: inf
ROOT
ATOM      1  O   UNL A   1      33.368  32.723  28.583  1.00  0.00    -0.462 OA
ENDROOT
BRANCH   1   2
ATOM      2  C   UNL A   1      34.014  31.950  27.673  1.00  0.00     0.309 C 
ATOM      3  O   UNL A   1      35.209  32.037  27.405  1.00  0.00    -0.252 OA
BRANCH   2   4
ATOM      4  C   UNL A   1      33.107  30.958  26.962  1.00  0.00     0.102 C 
ATOM      5  C   UNL A   1      31.737  31.629  26.850  1.00  0.00     0.020 C 
BRANCH   4   6
ATOM      6  C   UNL A   1      33.089  29.506  27.542  1.00  0.00     0.033 C 
ATOM      7  C   UNL A   1      34.336  28.737  27.057  1.00  0.00     0.011 C 
BRANCH   6   8
ATOM      8  C   UNL A   1      31.771  28.773  27.147  1.00  0.00     0.152 C 
BRANCH   8   9
ATOM      9  C   UNL A   1      31.907  27.690  26.097  1.00  0.00     0.023 A 
ATOM     10  C   UNL A   1      31.732  27.973  24.735  1.00  0.00     0.125 A 
ATOM     11  C   UNL A   1      31.877  26.976  23.769  1.00  0.00     0.047 A 
ATOM     12  C   UNL A   1      32.219  25.680  24.157  1.00  0.00     0.004 A 
ATOM     13  C   UNL A   1      32.238  26.377  26.471  1.00  0.00     0.010 A 
ATOM     14  C   UNL A   1      32.396  25.380  25.507  1.00  0.00     0.001 A 
BRANCH  10  15
ATOM     15  O   UNL A   1      31.315  29.224  24.366  1.00  0.00    -0.493 OA
BRANCH  15  16
ATOM     16  C   UNL A   1      30.808  29.260  23.027  1.00  0.00     0.226 C 
ATOM     17  C   UNL A   1      29.299  29.418  23.116  1.00  0.00     0.049 C 
ENDBRANCH  15  16
ENDBRANCH  10  15
ENDBRANCH   8   9
BRANCH   8  18
ATOM     18  O   UNL A   1      31.208  28.163  28.315  1.00  0.00    -0.388 OA
ATOM     19  H   UNL A   1      30.652  28.807  28.780  1.00  0.00     0.211 HD
ENDBRANCH   8  18
ENDBRANCH   6   8
ENDBRANCH   4   6
ENDBRANCH   2   4
ENDBRANCH   1   2
BRANCH   1  20
ATOM     20  C   UNL A   1      34.138  33.819  29.116  1.00  0.00     0.274 C 
BRANCH  20  21
ATOM     21  C   UNL A   1      34.300  33.683  30.631  1.00  0.00     0.275 C 
BRANCH  21  22
ATOM     22  O   UNL A   1      34.584  32.314  30.973  1.00  0.00    -0.458 OA
BRANCH  22  23
ATOM     23  C   UNL A   1      35.462  32.128  31.978  1.00  0.00     0.338 C 
ATOM     24  O   UNL A   1      35.338  32.469  33.147  1.00  0.00    -0.246 OA
BRANCH  23  25
ATOM     25  C   UNL A   1      36.673  31.464  31.467  1.00  0.00     0.060 A 
ATOM     26  C   UNL A   1      37.601  30.880  32.333  1.00  0.00     0.016 A 
ATOM     27  C   UNL A   1      36.921  31.505  30.094  1.00  0.00     0.016 A 
ATOM     28  C   UNL A   1      38.801  30.370  31.829  1.00  0.00     0.010 A 
ATOM     29  C   UNL A   1      38.095  30.948  29.587  1.00  0.00     0.010 A 
ATOM     30  C   UNL A   1      39.058  30.399  30.452  1.00  0.00    -0.014 A 
BRANCH  30  31
ATOM     31  C   UNL A   1      40.335  29.890  29.890  1.00  0.00     0.031 A 
ATOM     32  C   UNL A   1      41.503  30.822  29.715  1.00  0.00     0.074 A 
ATOM     33  C   UNL A   1      40.436  28.610  29.489  1.00  0.00     0.049 A 
ATOM     34  N   UNL A   1      42.637  30.624  29.093  1.00  0.00    -0.248 NA
ATOM     35  C   UNL A   1      41.369  32.160  30.313  1.00  0.00     0.031 C 
ATOM     36  C   UNL A   1      39.393  27.594  29.624  1.00  0.00     0.029 A 
ATOM     37  N   UNL A   1      41.467  27.950  28.867  1.00  0.00    -0.354 N 
ATOM     38  C   UNL A   1      43.335  31.821  29.186  1.00  0.00     0.074 A 
ATOM     39  C   UNL A   1      42.495  32.742  29.924  1.00  0.00     0.031 C 
ATOM     40  C   UNL A   1      39.838  26.438  29.107  1.00  0.00     0.029 A 
ATOM     41  C   UNL A   1      41.172  26.646  28.554  1.00  0.00     0.049 A 
ATOM     42  H   UNL A   1      42.334  28.371  28.665  1.00  0.00     0.167 HD
ATOM     43  C   UNL A   1      44.562  32.125  28.699  1.00  0.00     0.037 A 
ATOM     44  C   UNL A   1      41.882  25.732  27.867  1.00  0.00     0.037 A 
ATOM     45  C   UNL A   1      45.410  31.200  27.996  1.00  0.00     0.049 A 
ATOM     46  C   UNL A   1      43.222  26.104  27.300  1.00  0.00     0.074 A 
ATOM     47  C   UNL A   1      46.691  31.402  27.509  1.00  0.00     0.029 A 
ATOM     48  N   UNL A   1      45.064  29.896  27.679  1.00  0.00    -0.354 N 
ATOM     49  N   UNL A   1      43.870  27.240  27.391  1.00  0.00    -0.248 NA
ATOM     50  C   UNL A   1      43.920  25.073  26.519  1.00  0.00     0.031 C 
ATOM     51  C   UNL A   1      47.105  30.229  26.866  1.00  0.00     0.029 A 
ATOM     52  C   UNL A   1      46.097  29.287  26.984  1.00  0.00     0.049 A 
ATOM     53  H   UNL A   1      44.210  29.465  27.913  1.00  0.00     0.167 HD
ATOM     54  C   UNL A   1      45.058  27.055  26.696  1.00  0.00     0.074 A 
ATOM     55  C   UNL A   1      45.045  25.695  26.196  1.00  0.00     0.031 C 
ATOM     56  C   UNL A   1      46.069  27.935  26.492  1.00  0.00     0.037 A 
BRANCH  43  57
ATOM     57  C   UNL A   1      45.050  33.531  28.888  1.00  0.00     0.057 A 
ATOM     58  C   UNL A   1      44.756  34.548  27.973  1.00  0.00     0.134 A 
ATOM     59  C   UNL A   1      45.801  33.873  30.019  1.00  0.00     0.134 A 
ATOM     60  F   UNL A   1      44.053  34.282  26.861  1.00  0.00    -0.206 F 
ATOM     61  C   UNL A   1      45.209  35.855  28.167  1.00  0.00     0.040 A 
ATOM     62  C   UNL A   1      46.242  35.179  30.234  1.00  0.00     0.040 A 
ATOM     63  F   UNL A   1      46.114  32.944  30.936  1.00  0.00    -0.206 F 
ATOM     64  C   UNL A   1      45.950  36.174  29.303  1.00  0.00     0.006 A 
ENDBRANCH  43  57
BRANCH  44  65
ATOM     65  C   UNL A   1      41.328  24.372  27.665  1.00  0.00     0.057 A 
ATOM     66  C   UNL A   1      41.801  23.286  28.411  1.00  0.00     0.134 A 
ATOM     67  C   UNL A   1      40.310  24.126  26.736  1.00  0.00     0.134 A 
ATOM     68  F   UNL A   1      42.791  23.458  29.298  1.00  0.00    -0.206 F 
ATOM     69  C   UNL A   1      41.282  22.002  28.238  1.00  0.00     0.040 A 
ATOM     70  C   UNL A   1      39.768  22.852  26.568  1.00  0.00     0.040 A 
ATOM     71  F   UNL A   1      39.817  25.127  25.991  1.00  0.00    -0.206 F 
ATOM     72  C   UNL A   1      40.257  21.784  27.320  1.00  0.00     0.006 A 
ENDBRANCH  44  65
BRANCH  56  73
ATOM     73  C   UNL A   1      47.254  27.442  25.717  1.00  0.00     0.057 A 
ATOM     74  C   UNL A   1      48.319  26.784  26.342  1.00  0.00     0.134 A 
ATOM     75  C   UNL A   1      47.315  27.604  24.328  1.00  0.00     0.134 A 
ATOM     76  F   UNL A   1      48.325  26.612  27.673  1.00  0.00    -0.206 F 
ATOM     77  C   UNL A   1      49.415  26.320  25.614  1.00  0.00     0.040 A 
ATOM     78  C   UNL A   1      48.396  27.128  23.586  1.00  0.00     0.040 A 
ATOM     79  F   UNL A   1      46.321  28.222  23.670  1.00  0.00    -0.206 F 
ATOM     80  C   UNL A   1      49.453  26.487  24.230  1.00  0.00     0.006 A 
ENDBRANCH  56  73
ENDBRANCH  30  31
ENDBRANCH  23  25
ENDBRANCH  22  23
ENDBRANCH  21  22
ENDBRANCH  20  21
ENDBRANCH   1  20
TORSDOF 17
ENDMDL
