MODEL 1
REMARK VINA RESULT:     -11.8      0.000      0.000
REMARK SMILES Cc1cc(NS(=O)(=O)c2ccc(F)c(Cl)c2)sc1C(=O)OCCOC(=O)c1ccc(-c2c3nc(c(-c4c(F)cccc4F)c4ccc([nH]4)c(-c4c(F)cccc4F)c4nc(c(-c5c(F)cccc5F)c5ccc2[nH]5)C=C4)C=C3)cc1
REMARK SMILES IDX 22 1 21 2 19 3 20 4 18 5 1 6 2 7 3 8 4 9 17 10 5 11 6 13
REMARK SMILES IDX 7 14 8 15 9 16 10 17 16 18 11 19 14 20 12 21 15 22 13 23
REMARK SMILES IDX 23 24 24 25 25 26 26 27 27 28 28 29 80 30 29 31 79 32 30 33
REMARK SMILES IDX 31 34 32 35 73 36 33 37 78 38 72 39 74 40 34 41 77 42 71 43
REMARK SMILES IDX 70 44 35 46 61 47 44 48 60 49 45 50 48 51 59 52 75 53 46 54
REMARK SMILES IDX 47 55 58 57 76 58 49 59 36 60 37 61 42 62 38 63 39 64 41 65
REMARK SMILES IDX 43 66 40 67 62 68 63 69 68 70 64 71 65 72 67 73 69 74 66 75
REMARK SMILES IDX 50 76 51 77 56 78 52 79 53 80 55 81 57 82 54 83
REMARK H PARENT 5 12 74 45 48 56
REMARK Flexibility Score: inf
ROOT
ATOM      1  C   UNL A   1      42.422  20.998  26.119  1.00  0.00     0.275 C 
ENDROOT
BRANCH   1   2
ATOM      2  O   UNL A   1      41.079  21.294  25.680  1.00  0.00    -0.458 OA
BRANCH   2   3
ATOM      3  C   UNL A   1      40.171  21.580  26.659  1.00  0.00     0.348 C 
ATOM      4  O   UNL A   1      40.397  21.454  27.858  1.00  0.00    -0.245 OA
BRANCH   3   5
ATOM      5  C   UNL A   1      38.928  22.082  26.091  1.00  0.00     0.117 A 
ATOM      6  C   UNL A   1      38.723  24.493  26.981  1.00  0.00     0.046 C 
ATOM      7  C   UNL A   1      38.310  23.326  26.148  1.00  0.00    -0.023 A 
ATOM      8  C   UNL A   1      37.152  23.364  25.281  1.00  0.00     0.043 A 
ATOM      9  C   UNL A   1      36.684  22.093  25.071  1.00  0.00     0.103 A 
ATOM     10  S   UNL A   1      37.962  20.987  25.176  1.00  0.00    -0.110 S 
BRANCH   9  11
ATOM     11  N   UNL A   1      35.369  21.632  24.852  1.00  0.00    -0.270 N 
ATOM     12  H   UNL A   1      35.156  21.369  23.927  1.00  0.00     0.181 HD
BRANCH  11  13
ATOM     13  S   UNL A   1      34.133  21.474  25.946  1.00  0.00     0.262 S 
ATOM     14  O   UNL A   1      33.360  20.321  25.538  1.00  0.00    -0.201 OA
ATOM     15  O   UNL A   1      34.748  21.532  27.254  1.00  0.00    -0.201 OA
BRANCH  13  16
ATOM     16  C   UNL A   1      33.042  22.877  25.870  1.00  0.00     0.089 A 
ATOM     17  C   UNL A   1      31.651  22.759  25.946  1.00  0.00     0.025 A 
ATOM     18  C   UNL A   1      33.652  24.141  25.873  1.00  0.00     0.045 A 
ATOM     19  C   UNL A   1      30.885  23.909  26.169  1.00  0.00     0.042 A 
ATOM     20  C   UNL A   1      32.876  25.283  26.048  1.00  0.00     0.078 A 
ATOM     21  C   UNL A   1      31.502  25.160  26.232  1.00  0.00     0.141 A 
ATOM     22  Cl  UNL A   1      33.638  26.825  26.076  1.00  0.00    -0.081 Cl
ATOM     23  F   UNL A   1      30.748  26.238  26.493  1.00  0.00    -0.205 F 
ENDBRANCH  13  16
ENDBRANCH  11  13
ENDBRANCH   9  11
ENDBRANCH   3   5
ENDBRANCH   2   3
ENDBRANCH   1   2
BRANCH   1  24
ATOM     24  C   UNL A   1      43.488  21.744  25.310  1.00  0.00     0.275 C 
BRANCH  24  25
ATOM     25  O   UNL A   1      43.005  23.022  24.861  1.00  0.00    -0.458 OA
BRANCH  25  26
ATOM     26  C   UNL A   1      43.788  24.076  25.187  1.00  0.00     0.338 C 
ATOM     27  O   UNL A   1      44.812  24.439  24.632  1.00  0.00    -0.246 OA
BRANCH  26  28
ATOM     28  C   UNL A   1      43.118  24.883  26.216  1.00  0.00     0.060 A 
ATOM     29  C   UNL A   1      43.351  26.253  26.167  1.00  0.00     0.016 A 
ATOM     30  C   UNL A   1      42.387  24.334  27.264  1.00  0.00     0.016 A 
ATOM     31  C   UNL A   1      42.900  27.093  27.172  1.00  0.00     0.010 A 
ATOM     32  C   UNL A   1      41.889  25.186  28.263  1.00  0.00     0.010 A 
ATOM     33  C   UNL A   1      42.159  26.569  28.233  1.00  0.00    -0.014 A 
BRANCH  33  34
ATOM     34  C   UNL A   1      41.738  27.476  29.332  1.00  0.00     0.031 A 
ATOM     35  C   UNL A   1      42.515  27.501  30.617  1.00  0.00     0.074 A 
ATOM     36  C   UNL A   1      40.706  28.324  29.154  1.00  0.00     0.049 A 
ATOM     37  N   UNL A   1      42.243  28.118  31.739  1.00  0.00    -0.248 NA
ATOM     38  C   UNL A   1      43.764  26.724  30.645  1.00  0.00     0.031 C 
ATOM     39  C   UNL A   1      39.923  28.460  27.924  1.00  0.00     0.029 A 
ATOM     40  N   UNL A   1      40.145  29.242  30.007  1.00  0.00    -0.354 N 
ATOM     41  C   UNL A   1      43.259  27.767  32.619  1.00  0.00     0.074 A 
ATOM     42  C   UNL A   1      44.150  26.879  31.904  1.00  0.00     0.031 C 
ATOM     43  C   UNL A   1      38.999  29.418  28.094  1.00  0.00     0.029 A 
ATOM     44  C   UNL A   1      39.069  29.906  29.466  1.00  0.00     0.049 A 
ATOM     45  H   UNL A   1      40.479  29.408  30.917  1.00  0.00     0.167 HD
ATOM     46  C   UNL A   1      43.428  28.151  33.906  1.00  0.00     0.037 A 
ATOM     47  C   UNL A   1      38.208  30.777  30.027  1.00  0.00     0.037 A 
ATOM     48  C   UNL A   1      42.556  29.066  34.596  1.00  0.00     0.049 A 
ATOM     49  C   UNL A   1      38.379  31.138  31.475  1.00  0.00     0.074 A 
ATOM     50  C   UNL A   1      42.634  29.516  35.903  1.00  0.00     0.029 A 
ATOM     51  N   UNL A   1      41.449  29.681  34.028  1.00  0.00    -0.354 N 
ATOM     52  N   UNL A   1      39.306  30.753  32.320  1.00  0.00    -0.248 NA
ATOM     53  C   UNL A   1      37.376  32.041  32.055  1.00  0.00     0.031 C 
ATOM     54  C   UNL A   1      41.552  30.371  36.137  1.00  0.00     0.029 A 
ATOM     55  C   UNL A   1      40.827  30.493  34.962  1.00  0.00     0.049 A 
ATOM     56  H   UNL A   1      41.150  29.558  33.098  1.00  0.00     0.167 HD
ATOM     57  C   UNL A   1      39.009  31.377  33.523  1.00  0.00     0.074 A 
ATOM     58  C   UNL A   1      37.825  32.182  33.294  1.00  0.00     0.031 C 
ATOM     59  C   UNL A   1      39.653  31.291  34.713  1.00  0.00     0.037 A 
BRANCH  46  60
ATOM     60  C   UNL A   1      44.574  27.545  34.664  1.00  0.00     0.057 A 
ATOM     61  C   UNL A   1      44.450  26.346  35.376  1.00  0.00     0.134 A 
ATOM     62  C   UNL A   1      45.829  28.168  34.664  1.00  0.00     0.134 A 
ATOM     63  F   UNL A   1      43.272  25.707  35.432  1.00  0.00    -0.206 F 
ATOM     64  C   UNL A   1      45.525  25.803  36.083  1.00  0.00     0.040 A 
ATOM     65  C   UNL A   1      46.918  27.622  35.345  1.00  0.00     0.040 A 
ATOM     66  F   UNL A   1      46.019  29.318  33.999  1.00  0.00    -0.206 F 
ATOM     67  C   UNL A   1      46.765  26.438  36.063  1.00  0.00     0.006 A 
ENDBRANCH  46  60
BRANCH  47  68
ATOM     68  C   UNL A   1      37.078  31.322  29.232  1.00  0.00     0.057 A 
ATOM     69  C   UNL A   1      37.101  32.629  28.735  1.00  0.00     0.134 A 
ATOM     70  C   UNL A   1      35.943  30.548  28.955  1.00  0.00     0.134 A 
ATOM     71  F   UNL A   1      38.148  33.429  28.987  1.00  0.00    -0.206 F 
ATOM     72  C   UNL A   1      36.034  33.152  28.000  1.00  0.00     0.040 A 
ATOM     73  C   UNL A   1      34.883  31.047  28.197  1.00  0.00     0.040 A 
ATOM     74  F   UNL A   1      35.857  29.287  29.403  1.00  0.00    -0.206 F 
ATOM     75  C   UNL A   1      34.924  32.356  27.723  1.00  0.00     0.006 A 
ENDBRANCH  47  68
BRANCH  59  76
ATOM     76  C   UNL A   1      39.112  32.113  35.844  1.00  0.00     0.057 A 
ATOM     77  C   UNL A   1      38.224  31.580  36.787  1.00  0.00     0.134 A 
ATOM     78  C   UNL A   1      39.510  33.446  36.008  1.00  0.00     0.134 A 
ATOM     79  F   UNL A   1      37.794  30.314  36.678  1.00  0.00    -0.206 F 
ATOM     80  C   UNL A   1      37.734  32.352  37.842  1.00  0.00     0.040 A 
ATOM     81  C   UNL A   1      39.047  34.219  37.072  1.00  0.00     0.040 A 
ATOM     82  F   UNL A   1      40.364  34.014  35.142  1.00  0.00    -0.206 F 
ATOM     83  C   UNL A   1      38.152  33.674  37.991  1.00  0.00     0.006 A 
ENDBRANCH  59  76
ENDBRANCH  33  34
ENDBRANCH  26  28
ENDBRANCH  25  26
ENDBRANCH  24  25
ENDBRANCH   1  24
TORSDOF 14
ENDMDL
MODEL 2
REMARK VINA RESULT:     -11.8      0.904      1.680
REMARK SMILES Cc1cc(NS(=O)(=O)c2ccc(F)c(Cl)c2)sc1C(=O)OCCOC(=O)c1ccc(-c2c3nc(c(-c4c(F)cccc4F)c4ccc([nH]4)c(-c4c(F)cccc4F)c4nc(c(-c5c(F)cccc5F)c5ccc2[nH]5)C=C4)C=C3)cc1
REMARK SMILES IDX 22 1 21 2 19 3 20 4 18 5 1 6 2 7 3 8 4 9 17 10 5 11 6 13
REMARK SMILES IDX 7 14 8 15 9 16 10 17 16 18 11 19 14 20 12 21 15 22 13 23
REMARK SMILES IDX 23 24 24 25 25 26 26 27 27 28 28 29 80 30 29 31 79 32 30 33
REMARK SMILES IDX 31 34 32 35 73 36 33 37 78 38 72 39 74 40 34 41 77 42 71 43
REMARK SMILES IDX 70 44 35 46 61 47 44 48 60 49 45 50 48 51 59 52 75 53 46 54
REMARK SMILES IDX 47 55 58 57 76 58 49 59 36 60 37 61 42 62 38 63 39 64 41 65
REMARK SMILES IDX 43 66 40 67 62 68 63 69 68 70 64 71 65 72 67 73 69 74 66 75
REMARK SMILES IDX 50 76 51 77 56 78 52 79 53 80 55 81 57 82 54 83
REMARK H PARENT 5 12 74 45 48 56
REMARK Flexibility Score: inf
ROOT
ATOM      1  C   UNL A   1      42.366  20.909  26.101  1.00  0.00     0.275 C 
ENDROOT
BRANCH   1   2
ATOM      2  O   UNL A   1      41.065  21.379  25.691  1.00  0.00    -0.458 OA
BRANCH   2   3
ATOM      3  C   UNL A   1      40.180  21.664  26.691  1.00  0.00     0.348 C 
ATOM      4  O   UNL A   1      40.403  21.456  27.879  1.00  0.00    -0.245 OA
BRANCH   3   5
ATOM      5  C   UNL A   1      38.968  22.273  26.162  1.00  0.00     0.117 A 
ATOM      6  C   UNL A   1      38.890  24.619  27.229  1.00  0.00     0.046 C 
ATOM      7  C   UNL A   1      38.418  23.541  26.310  1.00  0.00    -0.023 A 
ATOM      8  C   UNL A   1      37.268  23.706  25.449  1.00  0.00     0.043 A 
ATOM      9  C   UNL A   1      36.732  22.482  25.144  1.00  0.00     0.103 A 
ATOM     10  S   UNL A   1      37.949  21.303  25.168  1.00  0.00    -0.110 S 
BRANCH   9  11
ATOM     11  N   UNL A   1      35.396  22.110  24.891  1.00  0.00    -0.270 N 
ATOM     12  H   UNL A   1      35.056  21.349  25.418  1.00  0.00     0.181 HD
BRANCH  11  13
ATOM     13  S   UNL A   1      34.319  22.784  23.826  1.00  0.00     0.262 S 
ATOM     14  O   UNL A   1      35.073  23.153  22.647  1.00  0.00    -0.201 OA
ATOM     15  O   UNL A   1      33.211  21.857  23.739  1.00  0.00    -0.201 OA
BRANCH  13  16
ATOM     16  C   UNL A   1      33.633  24.285  24.487  1.00  0.00     0.089 A 
ATOM     17  C   UNL A   1      32.955  24.335  25.708  1.00  0.00     0.025 A 
ATOM     18  C   UNL A   1      33.930  25.466  23.787  1.00  0.00     0.045 A 
ATOM     19  C   UNL A   1      32.703  25.582  26.292  1.00  0.00     0.042 A 
ATOM     20  C   UNL A   1      33.631  26.700  24.355  1.00  0.00     0.078 A 
ATOM     21  C   UNL A   1      33.053  26.754  25.621  1.00  0.00     0.141 A 
ATOM     22  Cl  UNL A   1      34.023  28.140  23.499  1.00  0.00    -0.081 Cl
ATOM     23  F   UNL A   1      32.842  27.932  26.225  1.00  0.00    -0.205 F 
ENDBRANCH  13  16
ENDBRANCH  11  13
ENDBRANCH   9  11
ENDBRANCH   3   5
ENDBRANCH   2   3
ENDBRANCH   1   2
BRANCH   1  24
ATOM     24  C   UNL A   1      43.510  21.737  25.506  1.00  0.00     0.275 C 
BRANCH  24  25
ATOM     25  O   UNL A   1      43.032  22.986  24.975  1.00  0.00    -0.458 OA
BRANCH  25  26
ATOM     26  C   UNL A   1      43.800  24.061  25.263  1.00  0.00     0.338 C 
ATOM     27  O   UNL A   1      44.801  24.436  24.675  1.00  0.00    -0.246 OA
BRANCH  26  28
ATOM     28  C   UNL A   1      43.140  24.871  26.296  1.00  0.00     0.060 A 
ATOM     29  C   UNL A   1      43.327  26.246  26.208  1.00  0.00     0.016 A 
ATOM     30  C   UNL A   1      42.463  24.324  27.381  1.00  0.00     0.016 A 
ATOM     31  C   UNL A   1      42.883  27.095  27.208  1.00  0.00     0.010 A 
ATOM     32  C   UNL A   1      41.973  25.184  28.377  1.00  0.00     0.010 A 
ATOM     33  C   UNL A   1      42.197  26.574  28.307  1.00  0.00    -0.014 A 
BRANCH  33  34
ATOM     34  C   UNL A   1      41.785  27.493  29.399  1.00  0.00     0.031 A 
ATOM     35  C   UNL A   1      42.570  27.529  30.679  1.00  0.00     0.074 A 
ATOM     36  C   UNL A   1      40.753  28.341  29.219  1.00  0.00     0.049 A 
ATOM     37  N   UNL A   1      42.307  28.158  31.796  1.00  0.00    -0.248 NA
ATOM     38  C   UNL A   1      43.818  26.750  30.707  1.00  0.00     0.031 C 
ATOM     39  C   UNL A   1      39.963  28.466  27.993  1.00  0.00     0.029 A 
ATOM     40  N   UNL A   1      40.199  29.269  30.066  1.00  0.00    -0.354 N 
ATOM     41  C   UNL A   1      43.327  27.815  32.673  1.00  0.00     0.074 A 
ATOM     42  C   UNL A   1      44.212  26.917  31.962  1.00  0.00     0.031 C 
ATOM     43  C   UNL A   1      39.042  29.428  28.158  1.00  0.00     0.029 A 
ATOM     44  C   UNL A   1      39.122  29.930  29.525  1.00  0.00     0.049 A 
ATOM     45  H   UNL A   1      40.540  29.444  30.972  1.00  0.00     0.167 HD
ATOM     46  C   UNL A   1      43.505  28.212  33.955  1.00  0.00     0.037 A 
ATOM     47  C   UNL A   1      38.266  30.808  30.082  1.00  0.00     0.037 A 
ATOM     48  C   UNL A   1      42.640  29.135  34.641  1.00  0.00     0.049 A 
ATOM     49  C   UNL A   1      38.447  31.184  31.526  1.00  0.00     0.074 A 
ATOM     50  C   UNL A   1      42.727  29.599  35.942  1.00  0.00     0.029 A 
ATOM     51  N   UNL A   1      41.531  29.747  34.073  1.00  0.00    -0.354 N 
ATOM     52  N   UNL A   1      39.379  30.806  32.368  1.00  0.00    -0.248 NA
ATOM     53  C   UNL A   1      37.449  32.095  32.103  1.00  0.00     0.031 C 
ATOM     54  C   UNL A   1      41.648  30.458  36.175  1.00  0.00     0.029 A 
ATOM     55  C   UNL A   1      40.916  30.570  35.003  1.00  0.00     0.049 A 
ATOM     56  H   UNL A   1      41.225  29.615  33.147  1.00  0.00     0.167 HD
ATOM     57  C   UNL A   1      39.090  31.443  33.567  1.00  0.00     0.074 A 
ATOM     58  C   UNL A   1      37.907  32.248  33.337  1.00  0.00     0.031 C 
ATOM     59  C   UNL A   1      39.742  31.367  34.753  1.00  0.00     0.037 A 
BRANCH  46  60
ATOM     60  C   UNL A   1      44.655  27.611  34.712  1.00  0.00     0.057 A 
ATOM     61  C   UNL A   1      44.539  26.408  35.419  1.00  0.00     0.134 A 
ATOM     62  C   UNL A   1      45.905  28.244  34.716  1.00  0.00     0.134 A 
ATOM     63  F   UNL A   1      43.365  25.760  35.471  1.00  0.00    -0.206 F 
ATOM     64  C   UNL A   1      45.617  25.870  36.125  1.00  0.00     0.040 A 
ATOM     65  C   UNL A   1      46.997  27.702  35.396  1.00  0.00     0.040 A 
ATOM     66  F   UNL A   1      46.087  29.398  34.056  1.00  0.00    -0.206 F 
ATOM     67  C   UNL A   1      46.852  26.515  36.109  1.00  0.00     0.006 A 
ENDBRANCH  46  60
BRANCH  47  68
ATOM     68  C   UNL A   1      37.132  31.347  29.288  1.00  0.00     0.057 A 
ATOM     69  C   UNL A   1      35.985  30.584  29.046  1.00  0.00     0.134 A 
ATOM     70  C   UNL A   1      37.172  32.639  28.747  1.00  0.00     0.134 A 
ATOM     71  F   UNL A   1      35.896  29.331  29.515  1.00  0.00    -0.206 F 
ATOM     72  C   UNL A   1      34.923  31.080  28.286  1.00  0.00     0.040 A 
ATOM     73  C   UNL A   1      36.106  33.159  28.012  1.00  0.00     0.040 A 
ATOM     74  F   UNL A   1      38.243  33.422  28.941  1.00  0.00    -0.206 F 
ATOM     75  C   UNL A   1      34.979  32.375  27.775  1.00  0.00     0.006 A 
ENDBRANCH  47  68
BRANCH  59  76
ATOM     76  C   UNL A   1      39.210  32.203  35.879  1.00  0.00     0.057 A 
ATOM     77  C   UNL A   1      39.632  33.522  36.085  1.00  0.00     0.134 A 
ATOM     78  C   UNL A   1      38.238  31.690  36.747  1.00  0.00     0.134 A 
ATOM     79  F   UNL A   1      40.570  34.067  35.297  1.00  0.00    -0.206 F 
ATOM     80  C   UNL A   1      39.121  34.295  37.130  1.00  0.00     0.040 A 
ATOM     81  C   UNL A   1      37.701  32.460  37.778  1.00  0.00     0.040 A 
ATOM     82  F   UNL A   1      37.786  30.434  36.599  1.00  0.00    -0.206 F 
ATOM     83  C   UNL A   1      38.148  33.765  37.976  1.00  0.00     0.006 A 
ENDBRANCH  59  76
ENDBRANCH  33  34
ENDBRANCH  26  28
ENDBRANCH  25  26
ENDBRANCH  24  25
ENDBRANCH   1  24
TORSDOF 14
ENDMDL
MODEL 3
REMARK VINA RESULT:     -11.5      2.092      2.515
REMARK SMILES Cc1cc(NS(=O)(=O)c2ccc(F)c(Cl)c2)sc1C(=O)OCCOC(=O)c1ccc(-c2c3nc(c(-c4c(F)cccc4F)c4ccc([nH]4)c(-c4c(F)cccc4F)c4nc(c(-c5c(F)cccc5F)c5ccc2[nH]5)C=C4)C=C3)cc1
REMARK SMILES IDX 22 1 21 2 19 3 20 4 18 5 1 6 2 7 3 8 4 9 17 10 5 11 6 13
REMARK SMILES IDX 7 14 8 15 9 16 10 17 16 18 11 19 14 20 12 21 15 22 13 23
REMARK SMILES IDX 23 24 24 25 25 26 26 27 27 28 28 29 80 30 29 31 79 32 30 33
REMARK SMILES IDX 31 34 32 35 73 36 33 37 78 38 72 39 74 40 34 41 77 42 71 43
REMARK SMILES IDX 70 44 35 46 61 47 44 48 60 49 45 50 48 51 59 52 75 53 46 54
REMARK SMILES IDX 47 55 58 57 76 58 49 59 36 60 37 61 42 62 38 63 39 64 41 65
REMARK SMILES IDX 43 66 40 67 62 68 63 69 68 70 64 71 65 72 67 73 69 74 66 75
REMARK SMILES IDX 50 76 51 77 56 78 52 79 53 80 55 81 57 82 54 83
REMARK H PARENT 5 12 74 45 48 56
REMARK Flexibility Score: inf
ROOT
ATOM      1  C   UNL A   1      42.641  21.086  25.943  1.00  0.00     0.275 C 
ENDROOT
BRANCH   1   2
ATOM      2  O   UNL A   1      41.410  21.813  25.751  1.00  0.00    -0.458 OA
BRANCH   2   3
ATOM      3  C   UNL A   1      40.532  21.806  26.797  1.00  0.00     0.348 C 
ATOM      4  O   UNL A   1      40.815  21.412  27.923  1.00  0.00    -0.245 OA
BRANCH   3   5
ATOM      5  C   UNL A   1      39.242  22.357  26.404  1.00  0.00     0.117 A 
ATOM      6  C   UNL A   1      39.340  24.833  27.117  1.00  0.00     0.046 C 
ATOM      7  C   UNL A   1      38.720  23.644  26.461  1.00  0.00    -0.023 A 
ATOM      8  C   UNL A   1      37.436  23.707  25.798  1.00  0.00     0.043 A 
ATOM      9  C   UNL A   1      36.862  22.462  25.771  1.00  0.00     0.103 A 
ATOM     10  S   UNL A   1      38.070  21.275  25.753  1.00  0.00    -0.110 S 
BRANCH   9  11
ATOM     11  N   UNL A   1      35.504  22.085  25.811  1.00  0.00    -0.270 N 
ATOM     12  H   UNL A   1      35.199  21.673  26.652  1.00  0.00     0.181 HD
BRANCH  11  13
ATOM     13  S   UNL A   1      34.351  22.244  24.630  1.00  0.00     0.262 S 
ATOM     14  O   UNL A   1      33.299  23.071  25.182  1.00  0.00    -0.201 OA
ATOM     15  O   UNL A   1      35.059  22.642  23.432  1.00  0.00    -0.201 OA
BRANCH  13  16
ATOM     16  C   UNL A   1      33.618  20.669  24.249  1.00  0.00     0.089 A 
ATOM     17  C   UNL A   1      32.493  20.535  23.432  1.00  0.00     0.025 A 
ATOM     18  C   UNL A   1      34.314  19.534  24.697  1.00  0.00     0.045 A 
ATOM     19  C   UNL A   1      32.153  19.266  22.949  1.00  0.00     0.042 A 
ATOM     20  C   UNL A   1      33.939  18.272  24.249  1.00  0.00     0.078 A 
ATOM     21  C   UNL A   1      32.884  18.146  23.348  1.00  0.00     0.141 A 
ATOM     22  Cl  UNL A   1      34.815  16.891  24.784  1.00  0.00    -0.081 Cl
ATOM     23  F   UNL A   1      32.566  16.950  22.833  1.00  0.00    -0.205 F 
ENDBRANCH  13  16
ENDBRANCH  11  13
ENDBRANCH   9  11
ENDBRANCH   3   5
ENDBRANCH   2   3
ENDBRANCH   1   2
BRANCH   1  24
ATOM     24  C   UNL A   1      43.839  21.761  25.268  1.00  0.00     0.275 C 
BRANCH  24  25
ATOM     25  O   UNL A   1      44.421  22.767  26.116  1.00  0.00    -0.458 OA
BRANCH  25  26
ATOM     26  C   UNL A   1      44.292  24.036  25.669  1.00  0.00     0.338 C 
ATOM     27  O   UNL A   1      44.554  24.461  24.556  1.00  0.00    -0.246 OA
BRANCH  26  28
ATOM     28  C   UNL A   1      43.579  24.838  26.673  1.00  0.00     0.060 A 
ATOM     29  C   UNL A   1      43.680  26.218  26.539  1.00  0.00     0.016 A 
ATOM     30  C   UNL A   1      42.934  24.287  27.775  1.00  0.00     0.016 A 
ATOM     31  C   UNL A   1      43.181  27.072  27.509  1.00  0.00     0.010 A 
ATOM     32  C   UNL A   1      42.387  25.147  28.741  1.00  0.00     0.010 A 
ATOM     33  C   UNL A   1      42.524  26.546  28.624  1.00  0.00    -0.014 A 
BRANCH  33  34
ATOM     34  C   UNL A   1      42.052  27.473  29.684  1.00  0.00     0.031 A 
ATOM     35  C   UNL A   1      42.791  27.553  30.989  1.00  0.00     0.074 A 
ATOM     36  C   UNL A   1      41.006  28.291  29.452  1.00  0.00     0.049 A 
ATOM     37  N   UNL A   1      42.473  28.195  32.084  1.00  0.00    -0.248 NA
ATOM     38  C   UNL A   1      44.056  26.807  31.074  1.00  0.00     0.031 C 
ATOM     39  C   UNL A   1      40.256  28.373  28.198  1.00  0.00     0.029 A 
ATOM     40  N   UNL A   1      40.400  29.220  30.262  1.00  0.00    -0.354 N 
ATOM     41  C   UNL A   1      43.471  27.894  33.001  1.00  0.00     0.074 A 
ATOM     42  C   UNL A   1      44.402  27.007  32.338  1.00  0.00     0.031 C 
ATOM     43  C   UNL A   1      39.305  29.314  28.313  1.00  0.00     0.029 A 
ATOM     44  C   UNL A   1      39.326  29.843  29.672  1.00  0.00     0.049 A 
ATOM     45  H   UNL A   1      40.704  29.420  31.176  1.00  0.00     0.167 HD
ATOM     46  C   UNL A   1      43.595  28.319  34.281  1.00  0.00     0.037 A 
ATOM     47  C   UNL A   1      38.430  30.709  30.183  1.00  0.00     0.037 A 
ATOM     48  C   UNL A   1      42.683  29.232  34.920  1.00  0.00     0.049 A 
ATOM     49  C   UNL A   1      38.551  31.116  31.625  1.00  0.00     0.074 A 
ATOM     50  C   UNL A   1      42.714  29.721  36.214  1.00  0.00     0.029 A 
ATOM     51  N   UNL A   1      41.580  29.805  34.303  1.00  0.00    -0.354 N 
ATOM     52  N   UNL A   1      39.462  30.777  32.505  1.00  0.00    -0.248 NA
ATOM     53  C   UNL A   1      37.511  32.011  32.150  1.00  0.00     0.031 C 
ATOM     54  C   UNL A   1      41.607  30.557  36.393  1.00  0.00     0.029 A 
ATOM     55  C   UNL A   1      40.913  30.628  35.195  1.00  0.00     0.049 A 
ATOM     56  H   UNL A   1      41.310  29.648  33.369  1.00  0.00     0.167 HD
ATOM     57  C   UNL A   1      39.117  31.428  33.681  1.00  0.00     0.074 A 
ATOM     58  C   UNL A   1      37.922  32.198  33.396  1.00  0.00     0.031 C 
ATOM     59  C   UNL A   1      39.729  31.391  34.890  1.00  0.00     0.037 A 
BRANCH  46  60
ATOM     60  C   UNL A   1      44.732  27.761  35.088  1.00  0.00     0.057 A 
ATOM     61  C   UNL A   1      45.974  28.401  35.173  1.00  0.00     0.134 A 
ATOM     62  C   UNL A   1      44.570  26.569  35.806  1.00  0.00     0.134 A 
ATOM     63  F   UNL A   1      46.202  29.536  34.496  1.00  0.00    -0.206 F 
ATOM     64  C   UNL A   1      47.023  27.861  35.921  1.00  0.00     0.040 A 
ATOM     65  C   UNL A   1      45.602  26.034  36.579  1.00  0.00     0.040 A 
ATOM     66  F   UNL A   1      43.404  25.906  35.772  1.00  0.00    -0.206 F 
ATOM     67  C   UNL A   1      46.836  26.678  36.632  1.00  0.00     0.006 A 
ENDBRANCH  46  60
BRANCH  47  68
ATOM     68  C   UNL A   1      37.310  31.204  29.341  1.00  0.00     0.057 A 
ATOM     69  C   UNL A   1      37.333  32.486  28.781  1.00  0.00     0.134 A 
ATOM     70  C   UNL A   1      36.187  30.408  29.081  1.00  0.00     0.134 A 
ATOM     71  F   UNL A   1      38.368  33.306  29.014  1.00  0.00    -0.206 F 
ATOM     72  C   UNL A   1      36.276  32.963  28.002  1.00  0.00     0.040 A 
ATOM     73  C   UNL A   1      35.137  30.860  28.281  1.00  0.00     0.040 A 
ATOM     74  F   UNL A   1      36.102  29.170  29.589  1.00  0.00    -0.206 F 
ATOM     75  C   UNL A   1      35.178  32.144  27.744  1.00  0.00     0.006 A 
ENDBRANCH  47  68
BRANCH  59  76
ATOM     76  C   UNL A   1      39.137  32.232  35.981  1.00  0.00     0.057 A 
ATOM     77  C   UNL A   1      38.206  31.716  36.891  1.00  0.00     0.134 A 
ATOM     78  C   UNL A   1      39.529  33.567  36.141  1.00  0.00     0.134 A 
ATOM     79  F   UNL A   1      37.780  30.449  36.783  1.00  0.00    -0.206 F 
ATOM     80  C   UNL A   1      37.669  32.505  37.910  1.00  0.00     0.040 A 
ATOM     81  C   UNL A   1      39.019  34.358  37.170  1.00  0.00     0.040 A 
ATOM     82  F   UNL A   1      40.422  34.120  35.306  1.00  0.00    -0.206 F 
ATOM     83  C   UNL A   1      38.081  33.829  38.055  1.00  0.00     0.006 A 
ENDBRANCH  59  76
ENDBRANCH  33  34
ENDBRANCH  26  28
ENDBRANCH  25  26
ENDBRANCH  24  25
ENDBRANCH   1  24
TORSDOF 14
ENDMDL
