MODEL 1
REMARK VINA RESULT:      -9.6      0.000      0.000
REMARK SMILES [NH3+][C@H](CC[S@@](=O)[O-])C(=O)OCCOC(=O)c1ccc(-c2c3nc(c(-c4c(F)cccc4F)c4ccc([nH]4)c(-c4c(F)cccc4F)c4nc(c(-c5c(F)cccc5F)c5ccc2[nH]5)C=C4)C=C3)cc1
REMARK SMILES IDX 11 1 10 2 8 3 9 4 2 5 1 6 3 10 4 11 5 12 6 13 7 14 12 15
REMARK SMILES IDX 13 16 14 17 15 18 16 19 17 20 69 21 18 22 68 23 19 24 20 25
REMARK SMILES IDX 21 26 62 27 22 28 67 29 61 30 63 31 23 32 66 33 60 34 59 35
REMARK SMILES IDX 24 37 50 38 33 39 49 40 34 41 37 42 48 43 64 44 35 45 36 46
REMARK SMILES IDX 47 48 65 49 38 50 25 51 26 52 31 53 27 54 28 55 30 56 32 57
REMARK SMILES IDX 29 58 51 59 52 60 57 61 53 62 54 63 56 64 58 65 55 66 39 67
REMARK SMILES IDX 40 68 45 69 41 70 42 71 44 72 46 73 43 74
REMARK H PARENT 1 7 1 8 1 9 63 36 37 47
REMARK Flexibility Score: inf
ROOT
ATOM      1  C   UNL A   1      33.258  37.332  30.428  1.00  0.00     0.274 C 
ENDROOT
BRANCH   1   2
ATOM      2  O   UNL A   1      32.702  36.815  31.652  1.00  0.00    -0.458 OA
BRANCH   2   3
ATOM      3  C   UNL A   1      33.549  36.686  32.709  1.00  0.00     0.364 C 
ATOM      4  O   UNL A   1      33.834  37.605  33.472  1.00  0.00    -0.245 OA
BRANCH   3   5
ATOM      5  C   UNL A   1      34.051  35.231  32.895  1.00  0.00     0.292 C 
BRANCH   5   6
ATOM      6  N   UNL A   1      32.919  34.287  32.873  1.00  0.00    -0.346 N 
ATOM      7  H   UNL A   1      33.173  33.465  32.326  1.00  0.00     0.345 HD
ATOM      8  H   UNL A   1      32.108  34.739  32.451  1.00  0.00     0.345 HD
ATOM      9  H   UNL A   1      32.694  34.005  33.827  1.00  0.00     0.345 HD
ENDBRANCH   5   6
BRANCH   5  10
ATOM     10  C   UNL A   1      35.056  34.973  34.029  1.00  0.00     0.090 C 
BRANCH  10  11
ATOM     11  C   UNL A   1      35.623  33.569  34.206  1.00  0.00     0.096 C 
BRANCH  11  12
ATOM     12  S   UNL A   1      37.023  33.485  35.364  1.00  0.00    -0.055 S 
ATOM     13  O   UNL A   1      36.466  33.426  36.752  1.00  0.00    -0.275 OA
ATOM     14  O   UNL A   1      37.364  31.957  35.010  1.00  0.00    -0.772 OA
ENDBRANCH  11  12
ENDBRANCH  10  11
ENDBRANCH   5  10
ENDBRANCH   3   5
ENDBRANCH   2   3
ENDBRANCH   1   2
BRANCH   1  15
ATOM     15  C   UNL A   1      32.883  36.437  29.245  1.00  0.00     0.275 C 
BRANCH  15  16
ATOM     16  O   UNL A   1      32.736  35.062  29.646  1.00  0.00    -0.458 OA
BRANCH  16  17
ATOM     17  C   UNL A   1      32.979  34.156  28.674  1.00  0.00     0.338 C 
ATOM     18  O   UNL A   1      32.326  33.950  27.665  1.00  0.00    -0.246 OA
BRANCH  17  19
ATOM     19  C   UNL A   1      34.260  33.487  28.929  1.00  0.00     0.060 A 
ATOM     20  C   UNL A   1      34.385  32.738  30.099  1.00  0.00     0.016 A 
ATOM     21  C   UNL A   1      35.357  33.694  28.092  1.00  0.00     0.016 A 
ATOM     22  C   UNL A   1      35.622  32.230  30.473  1.00  0.00     0.010 A 
ATOM     23  C   UNL A   1      36.596  33.159  28.455  1.00  0.00     0.010 A 
ATOM     24  C   UNL A   1      36.740  32.447  29.659  1.00  0.00    -0.014 A 
BRANCH  24  25
ATOM     25  C   UNL A   1      38.070  31.973  30.103  1.00  0.00     0.031 A 
ATOM     26  C   UNL A   1      38.638  30.708  29.529  1.00  0.00     0.074 A 
ATOM     27  C   UNL A   1      38.774  32.692  30.994  1.00  0.00     0.049 A 
ATOM     28  N   UNL A   1      39.719  30.058  29.873  1.00  0.00    -0.248 NA
ATOM     29  C   UNL A   1      37.888  30.092  28.423  1.00  0.00     0.031 C 
ATOM     30  C   UNL A   1      38.352  33.968  31.573  1.00  0.00     0.029 A 
ATOM     31  N   UNL A   1      39.995  32.448  31.568  1.00  0.00    -0.354 N 
ATOM     32  C   UNL A   1      39.761  28.939  29.053  1.00  0.00     0.074 A 
ATOM     33  C   UNL A   1      38.597  28.996  28.194  1.00  0.00     0.031 C 
ATOM     34  C   UNL A   1      39.303  34.398  32.418  1.00  0.00     0.029 A 
ATOM     35  C   UNL A   1      40.370  33.405  32.478  1.00  0.00     0.049 A 
ATOM     36  H   UNL A   1      40.548  31.664  31.348  1.00  0.00     0.167 HD
ATOM     37  C   UNL A   1      40.687  27.951  29.026  1.00  0.00     0.037 A 
ATOM     38  C   UNL A   1      41.439  33.455  33.293  1.00  0.00     0.037 A 
ATOM     39  C   UNL A   1      41.857  27.913  29.862  1.00  0.00     0.049 A 
ATOM     40  C   UNL A   1      42.433  32.329  33.271  1.00  0.00     0.074 A 
ATOM     41  C   UNL A   1      42.854  26.955  29.913  1.00  0.00     0.029 A 
ATOM     42  N   UNL A   1      42.191  28.890  30.789  1.00  0.00    -0.354 N 
ATOM     43  N   UNL A   1      42.438  31.250  32.529  1.00  0.00    -0.248 NA
ATOM     44  C   UNL A   1      43.559  32.422  34.211  1.00  0.00     0.031 C 
ATOM     45  C   UNL A   1      43.780  27.341  30.888  1.00  0.00     0.029 A 
ATOM     46  C   UNL A   1      43.374  28.553  31.423  1.00  0.00     0.049 A 
ATOM     47  H   UNL A   1      41.665  29.702  30.968  1.00  0.00     0.167 HD
ATOM     48  C   UNL A   1      43.570  30.538  32.902  1.00  0.00     0.074 A 
ATOM     49  C   UNL A   1      44.234  31.315  33.928  1.00  0.00     0.031 C 
ATOM     50  C   UNL A   1      44.017  29.344  32.440  1.00  0.00     0.037 A 
BRANCH  37  51
ATOM     51  C   UNL A   1      40.445  26.812  28.082  1.00  0.00     0.057 A 
ATOM     52  C   UNL A   1      39.586  25.753  28.403  1.00  0.00     0.134 A 
ATOM     53  C   UNL A   1      41.070  26.784  26.830  1.00  0.00     0.134 A 
ATOM     54  F   UNL A   1      38.973  25.713  29.595  1.00  0.00    -0.206 F 
ATOM     55  C   UNL A   1      39.372  24.697  27.517  1.00  0.00     0.040 A 
ATOM     56  C   UNL A   1      40.848  25.743  25.928  1.00  0.00     0.040 A 
ATOM     57  F   UNL A   1      41.904  27.769  26.463  1.00  0.00    -0.206 F 
ATOM     58  C   UNL A   1      40.001  24.692  26.273  1.00  0.00     0.006 A 
ENDBRANCH  37  51
BRANCH  38  59
ATOM     59  C   UNL A   1      41.602  34.599  34.220  1.00  0.00     0.057 A 
ATOM     60  C   UNL A   1      42.240  35.775  33.813  1.00  0.00     0.134 A 
ATOM     61  C   UNL A   1      41.107  34.549  35.530  1.00  0.00     0.134 A 
ATOM     62  F   UNL A   1      42.751  35.871  32.577  1.00  0.00    -0.206 F 
ATOM     63  C   UNL A   1      42.385  36.861  34.676  1.00  0.00     0.040 A 
ATOM     64  C   UNL A   1      41.228  35.636  36.397  1.00  0.00     0.040 A 
ATOM     65  F   UNL A   1      40.486  33.449  35.977  1.00  0.00    -0.206 F 
ATOM     66  C   UNL A   1      41.872  36.795  35.971  1.00  0.00     0.006 A 
ENDBRANCH  38  59
BRANCH  50  67
ATOM     67  C   UNL A   1      45.291  28.826  33.028  1.00  0.00     0.057 A 
ATOM     68  C   UNL A   1      46.539  29.176  32.496  1.00  0.00     0.134 A 
ATOM     69  C   UNL A   1      45.273  27.997  34.156  1.00  0.00     0.134 A 
ATOM     70  F   UNL A   1      46.618  29.956  31.408  1.00  0.00    -0.206 F 
ATOM     71  C   UNL A   1      47.726  28.707  33.060  1.00  0.00     0.040 A 
ATOM     72  C   UNL A   1      46.454  27.535  34.738  1.00  0.00     0.040 A 
ATOM     73  F   UNL A   1      44.108  27.631  34.712  1.00  0.00    -0.206 F 
ATOM     74  C   UNL A   1      47.684  27.887  34.187  1.00  0.00     0.006 A 
ENDBRANCH  50  67
ENDBRANCH  24  25
ENDBRANCH  17  19
ENDBRANCH  16  17
ENDBRANCH  15  16
ENDBRANCH   1  15
TORSDOF 15
ENDMDL
MODEL 2
REMARK VINA RESULT:      -9.2      6.106     11.513
REMARK SMILES [NH3+][C@H](CC[S@@](=O)[O-])C(=O)OCCOC(=O)c1ccc(-c2c3nc(c(-c4c(F)cccc4F)c4ccc([nH]4)c(-c4c(F)cccc4F)c4nc(c(-c5c(F)cccc5F)c5ccc2[nH]5)C=C4)C=C3)cc1
REMARK SMILES IDX 11 1 10 2 8 3 9 4 2 5 1 6 3 10 4 11 5 12 6 13 7 14 12 15
REMARK SMILES IDX 13 16 14 17 15 18 16 19 17 20 69 21 18 22 68 23 19 24 20 25
REMARK SMILES IDX 21 26 62 27 22 28 67 29 61 30 63 31 23 32 66 33 60 34 59 35
REMARK SMILES IDX 24 37 50 38 33 39 49 40 34 41 37 42 48 43 64 44 35 45 36 46
REMARK SMILES IDX 47 48 65 49 38 50 25 51 26 52 31 53 27 54 28 55 30 56 32 57
REMARK SMILES IDX 29 58 51 59 52 60 57 61 53 62 54 63 56 64 58 65 55 66 39 67
REMARK SMILES IDX 40 68 45 69 41 70 42 71 44 72 46 73 43 74
REMARK H PARENT 1 7 1 8 1 9 63 36 37 47
REMARK Flexibility Score: inf
ROOT
ATOM      1  C   UNL A   1      46.355  22.045  24.492  1.00  0.00     0.274 C 
ENDROOT
BRANCH   1   2
ATOM      2  O   UNL A   1      46.026  21.073  25.503  1.00  0.00    -0.458 OA
BRANCH   2   3
ATOM      3  C   UNL A   1      46.167  19.762  25.168  1.00  0.00     0.364 C 
ATOM      4  O   UNL A   1      47.176  19.103  25.400  1.00  0.00    -0.245 OA
BRANCH   3   5
ATOM      5  C   UNL A   1      44.881  19.168  24.537  1.00  0.00     0.292 C 
BRANCH   5   6
ATOM      6  N   UNL A   1      45.087  18.901  23.102  1.00  0.00    -0.346 N 
ATOM      7  H   UNL A   1      45.925  18.333  22.978  1.00  0.00     0.345 HD
ATOM      8  H   UNL A   1      45.198  19.784  22.605  1.00  0.00     0.345 HD
ATOM      9  H   UNL A   1      44.280  18.400  22.731  1.00  0.00     0.345 HD
ENDBRANCH   5   6
BRANCH   5  10
ATOM     10  C   UNL A   1      43.552  19.869  24.857  1.00  0.00     0.090 C 
BRANCH  10  11
ATOM     11  C   UNL A   1      42.947  19.703  26.246  1.00  0.00     0.096 C 
BRANCH  11  12
ATOM     12  S   UNL A   1      41.194  20.178  26.344  1.00  0.00    -0.055 S 
ATOM     13  O   UNL A   1      40.398  19.136  25.621  1.00  0.00    -0.275 OA
ATOM     14  O   UNL A   1      41.059  19.775  27.892  1.00  0.00    -0.772 OA
ENDBRANCH  11  12
ENDBRANCH  10  11
ENDBRANCH   5  10
ENDBRANCH   3   5
ENDBRANCH   2   3
ENDBRANCH   1   2
BRANCH   1  15
ATOM     15  C   UNL A   1      45.900  23.443  24.918  1.00  0.00     0.275 C 
BRANCH  15  16
ATOM     16  O   UNL A   1      44.890  23.381  25.942  1.00  0.00    -0.458 OA
BRANCH  16  17
ATOM     17  C   UNL A   1      43.640  23.680  25.525  1.00  0.00     0.338 C 
ATOM     18  O   UNL A   1      43.023  23.182  24.599  1.00  0.00    -0.246 OA
BRANCH  17  19
ATOM     19  C   UNL A   1      43.030  24.650  26.442  1.00  0.00     0.060 A 
ATOM     20  C   UNL A   1      43.523  25.955  26.436  1.00  0.00     0.016 A 
ATOM     21  C   UNL A   1      42.075  24.251  27.377  1.00  0.00     0.016 A 
ATOM     22  C   UNL A   1      43.102  26.863  27.399  1.00  0.00     0.010 A 
ATOM     23  C   UNL A   1      41.631  25.174  28.329  1.00  0.00     0.010 A 
ATOM     24  C   UNL A   1      42.162  26.476  28.359  1.00  0.00    -0.014 A 
BRANCH  24  25
ATOM     25  C   UNL A   1      41.779  27.423  29.431  1.00  0.00     0.031 A 
ATOM     26  C   UNL A   1      42.557  27.447  30.714  1.00  0.00     0.074 A 
ATOM     27  C   UNL A   1      40.758  28.275  29.239  1.00  0.00     0.049 A 
ATOM     28  N   UNL A   1      42.310  28.105  31.817  1.00  0.00    -0.248 NA
ATOM     29  C   UNL A   1      43.772  26.619  30.763  1.00  0.00     0.031 C 
ATOM     30  C   UNL A   1      39.969  28.386  28.011  1.00  0.00     0.029 A 
ATOM     31  N   UNL A   1      40.208  29.209  30.078  1.00  0.00    -0.354 N 
ATOM     32  C   UNL A   1      43.316  27.743  32.703  1.00  0.00     0.074 A 
ATOM     33  C   UNL A   1      44.178  26.809  32.010  1.00  0.00     0.031 C 
ATOM     34  C   UNL A   1      39.039  29.340  28.176  1.00  0.00     0.029 A 
ATOM     35  C   UNL A   1      39.133  29.866  29.534  1.00  0.00     0.049 A 
ATOM     36  H   UNL A   1      40.552  29.391  30.983  1.00  0.00     0.167 HD
ATOM     37  C   UNL A   1      43.498  28.153  33.980  1.00  0.00     0.037 A 
ATOM     38  C   UNL A   1      38.297  30.766  30.083  1.00  0.00     0.037 A 
ATOM     39  C   UNL A   1      42.656  29.104  34.655  1.00  0.00     0.049 A 
ATOM     40  C   UNL A   1      38.498  31.177  31.513  1.00  0.00     0.074 A 
ATOM     41  C   UNL A   1      42.753  29.583  35.949  1.00  0.00     0.029 A 
ATOM     42  N   UNL A   1      41.561  29.731  34.076  1.00  0.00    -0.354 N 
ATOM     43  N   UNL A   1      39.421  30.793  32.359  1.00  0.00    -0.248 NA
ATOM     44  C   UNL A   1      37.531  32.135  32.068  1.00  0.00     0.031 C 
ATOM     45  C   UNL A   1      41.704  30.483  36.162  1.00  0.00     0.029 A 
ATOM     46  C   UNL A   1      40.970  30.586  34.991  1.00  0.00     0.049 A 
ATOM     47  H   UNL A   1      41.251  29.589  33.153  1.00  0.00     0.167 HD
ATOM     48  C   UNL A   1      39.155  31.466  33.543  1.00  0.00     0.074 A 
ATOM     49  C   UNL A   1      37.991  32.294  33.302  1.00  0.00     0.031 C 
ATOM     50  C   UNL A   1      39.813  31.401  34.727  1.00  0.00     0.037 A 
BRANCH  37  51
ATOM     51  C   UNL A   1      44.636  27.541  34.740  1.00  0.00     0.057 A 
ATOM     52  C   UNL A   1      44.508  26.317  35.408  1.00  0.00     0.134 A 
ATOM     53  C   UNL A   1      45.881  28.180  34.789  1.00  0.00     0.134 A 
ATOM     54  F   UNL A   1      43.335  25.665  35.414  1.00  0.00    -0.206 F 
ATOM     55  C   UNL A   1      45.574  25.759  36.115  1.00  0.00     0.040 A 
ATOM     56  C   UNL A   1      46.960  27.623  35.476  1.00  0.00     0.040 A 
ATOM     57  F   UNL A   1      46.067  29.355  34.169  1.00  0.00    -0.206 F 
ATOM     58  C   UNL A   1      46.806  26.410  36.146  1.00  0.00     0.006 A 
ENDBRANCH  37  51
BRANCH  38  59
ATOM     59  C   UNL A   1      37.177  31.311  29.281  1.00  0.00     0.057 A 
ATOM     60  C   UNL A   1      36.018  30.561  29.054  1.00  0.00     0.134 A 
ATOM     61  C   UNL A   1      37.232  32.601  28.737  1.00  0.00     0.134 A 
ATOM     62  F   UNL A   1      35.919  29.313  29.534  1.00  0.00    -0.206 F 
ATOM     63  C   UNL A   1      34.954  31.072  28.311  1.00  0.00     0.040 A 
ATOM     64  C   UNL A   1      36.166  33.132  28.009  1.00  0.00     0.040 A 
ATOM     65  F   UNL A   1      38.316  33.367  28.922  1.00  0.00    -0.206 F 
ATOM     66  C   UNL A   1      35.024  32.364  27.792  1.00  0.00     0.006 A 
ENDBRANCH  38  59
BRANCH  50  67
ATOM     67  C   UNL A   1      39.298  32.264  35.835  1.00  0.00     0.057 A 
ATOM     68  C   UNL A   1      39.742  33.582  36.003  1.00  0.00     0.134 A 
ATOM     69  C   UNL A   1      38.326  31.785  36.721  1.00  0.00     0.134 A 
ATOM     70  F   UNL A   1      40.682  34.091  35.193  1.00  0.00    -0.206 F 
ATOM     71  C   UNL A   1      39.243  34.390  37.026  1.00  0.00     0.040 A 
ATOM     72  C   UNL A   1      37.809  32.589  37.737  1.00  0.00     0.040 A 
ATOM     73  F   UNL A   1      37.860  30.532  36.607  1.00  0.00    -0.206 F 
ATOM     74  C   UNL A   1      38.271  33.895  37.893  1.00  0.00     0.006 A 
ENDBRANCH  50  67
ENDBRANCH  24  25
ENDBRANCH  17  19
ENDBRANCH  16  17
ENDBRANCH  15  16
ENDBRANCH   1  15
TORSDOF 15
ENDMDL
MODEL 3
REMARK VINA RESULT:      -9.0      6.072     11.142
REMARK SMILES [NH3+][C@H](CC[S@@](=O)[O-])C(=O)OCCOC(=O)c1ccc(-c2c3nc(c(-c4c(F)cccc4F)c4ccc([nH]4)c(-c4c(F)cccc4F)c4nc(c(-c5c(F)cccc5F)c5ccc2[nH]5)C=C4)C=C3)cc1
REMARK SMILES IDX 11 1 10 2 8 3 9 4 2 5 1 6 3 10 4 11 5 12 6 13 7 14 12 15
REMARK SMILES IDX 13 16 14 17 15 18 16 19 17 20 69 21 18 22 68 23 19 24 20 25
REMARK SMILES IDX 21 26 62 27 22 28 67 29 61 30 63 31 23 32 66 33 60 34 59 35
REMARK SMILES IDX 24 37 50 38 33 39 49 40 34 41 37 42 48 43 64 44 35 45 36 46
REMARK SMILES IDX 47 48 65 49 38 50 25 51 26 52 31 53 27 54 28 55 30 56 32 57
REMARK SMILES IDX 29 58 51 59 52 60 57 61 53 62 54 63 56 64 58 65 55 66 39 67
REMARK SMILES IDX 40 68 45 69 41 70 42 71 44 72 46 73 43 74
REMARK H PARENT 1 7 1 8 1 9 63 36 37 47
REMARK Flexibility Score: inf
ROOT
ATOM      1  C   UNL A   1      44.867  21.657  24.472  1.00  0.00     0.274 C 
ENDROOT
BRANCH   1   2
ATOM      2  O   UNL A   1      44.530  20.537  23.633  1.00  0.00    -0.458 OA
BRANCH   2   3
ATOM      3  C   UNL A   1      44.979  19.315  24.025  1.00  0.00     0.364 C 
ATOM      4  O   UNL A   1      45.531  18.516  23.275  1.00  0.00    -0.245 OA
BRANCH   3   5
ATOM      5  C   UNL A   1      44.794  19.073  25.546  1.00  0.00     0.292 C 
BRANCH   5   6
ATOM      6  N   UNL A   1      45.983  18.412  26.113  1.00  0.00    -0.346 N 
ATOM      7  H   UNL A   1      45.831  18.232  27.105  1.00  0.00     0.345 HD
ATOM      8  H   UNL A   1      46.795  19.018  25.998  1.00  0.00     0.345 HD
ATOM      9  H   UNL A   1      46.145  17.530  25.628  1.00  0.00     0.345 HD
ENDBRANCH   5   6
BRANCH   5  10
ATOM     10  C   UNL A   1      43.462  18.457  26.003  1.00  0.00     0.090 C 
BRANCH  10  11
ATOM     11  C   UNL A   1      42.171  19.231  25.761  1.00  0.00     0.096 C 
BRANCH  11  12
ATOM     12  S   UNL A   1      42.003  20.718  26.795  1.00  0.00    -0.055 S 
ATOM     13  O   UNL A   1      41.387  21.792  25.954  1.00  0.00    -0.275 OA
ATOM     14  O   UNL A   1      40.775  20.123  27.640  1.00  0.00    -0.772 OA
ENDBRANCH  11  12
ENDBRANCH  10  11
ENDBRANCH   5  10
ENDBRANCH   3   5
ENDBRANCH   2   3
ENDBRANCH   1   2
BRANCH   1  15
ATOM     15  C   UNL A   1      44.364  22.965  23.855  1.00  0.00     0.275 C 
BRANCH  15  16
ATOM     16  O   UNL A   1      43.693  23.786  24.828  1.00  0.00    -0.458 OA
BRANCH  16  17
ATOM     17  C   UNL A   1      44.361  24.906  25.185  1.00  0.00     0.338 C 
ATOM     18  O   UNL A   1      45.376  25.360  24.685  1.00  0.00    -0.246 OA
BRANCH  17  19
ATOM     19  C   UNL A   1      43.617  25.615  26.232  1.00  0.00     0.060 A 
ATOM     20  C   UNL A   1      43.909  26.963  26.442  1.00  0.00     0.016 A 
ATOM     21  C   UNL A   1      42.736  24.935  27.072  1.00  0.00     0.016 A 
ATOM     22  C   UNL A   1      43.361  27.633  27.529  1.00  0.00     0.010 A 
ATOM     23  C   UNL A   1      42.163  25.617  28.149  1.00  0.00     0.010 A 
ATOM     24  C   UNL A   1      42.493  26.962  28.397  1.00  0.00    -0.014 A 
BRANCH  24  25
ATOM     25  C   UNL A   1      41.977  27.657  29.597  1.00  0.00     0.031 A 
ATOM     26  C   UNL A   1      40.743  28.504  29.493  1.00  0.00     0.074 A 
ATOM     27  C   UNL A   1      42.599  27.503  30.779  1.00  0.00     0.049 A 
ATOM     28  N   UNL A   1      40.204  29.292  30.387  1.00  0.00    -0.248 NA
ATOM     29  C   UNL A   1      40.021  28.461  28.212  1.00  0.00     0.031 C 
ATOM     30  C   UNL A   1      43.769  26.657  31.015  1.00  0.00     0.029 A 
ATOM     31  N   UNL A   1      42.331  28.057  32.004  1.00  0.00    -0.354 N 
ATOM     32  C   UNL A   1      39.103  29.866  29.767  1.00  0.00     0.074 A 
ATOM     33  C   UNL A   1      39.049  29.337  28.420  1.00  0.00     0.031 C 
ATOM     34  C   UNL A   1      44.115  26.744  32.310  1.00  0.00     0.029 A 
ATOM     35  C   UNL A   1      43.227  27.690  32.977  1.00  0.00     0.049 A 
ATOM     36  H   UNL A   1      41.570  28.659  32.170  1.00  0.00     0.167 HD
ATOM     37  C   UNL A   1      38.221  30.758  30.276  1.00  0.00     0.037 A 
ATOM     38  C   UNL A   1      43.338  28.099  34.254  1.00  0.00     0.037 A 
ATOM     39  C   UNL A   1      38.262  31.258  31.624  1.00  0.00     0.049 A 
ATOM     40  C   UNL A   1      42.370  29.117  34.785  1.00  0.00     0.074 A 
ATOM     41  C   UNL A   1      37.417  32.166  32.237  1.00  0.00     0.029 A 
ATOM     42  N   UNL A   1      39.200  30.879  32.574  1.00  0.00    -0.354 N 
ATOM     43  N   UNL A   1      41.363  29.692  34.177  1.00  0.00    -0.248 NA
ATOM     44  C   UNL A   1      42.565  29.553  36.175  1.00  0.00     0.031 C 
ATOM     45  C   UNL A   1      37.857  32.355  33.551  1.00  0.00     0.029 A 
ATOM     46  C   UNL A   1      38.959  31.542  33.765  1.00  0.00     0.049 A 
ATOM     47  H   UNL A   1      39.928  30.235  32.423  1.00  0.00     0.167 HD
ATOM     48  C   UNL A   1      40.797  30.551  35.109  1.00  0.00     0.074 A 
ATOM     49  C   UNL A   1      41.565  30.410  36.328  1.00  0.00     0.031 C 
ATOM     50  C   UNL A   1      39.737  31.384  34.966  1.00  0.00     0.037 A 
BRANCH  37  51
ATOM     51  C   UNL A   1      37.159  31.274  29.354  1.00  0.00     0.057 A 
ATOM     52  C   UNL A   1      36.037  30.509  29.013  1.00  0.00     0.134 A 
ATOM     53  C   UNL A   1      37.256  32.561  28.812  1.00  0.00     0.134 A 
ATOM     54  F   UNL A   1      35.896  29.261  29.486  1.00  0.00    -0.206 F 
ATOM     55  C   UNL A   1      35.056  31.001  28.150  1.00  0.00     0.040 A 
ATOM     56  C   UNL A   1      36.273  33.071  27.963  1.00  0.00     0.040 A 
ATOM     57  F   UNL A   1      38.307  33.343  29.099  1.00  0.00    -0.206 F 
ATOM     58  C   UNL A   1      35.171  32.287  27.626  1.00  0.00     0.006 A 
ENDBRANCH  37  51
BRANCH  38  59
ATOM     59  C   UNL A   1      44.430  27.566  35.102  1.00  0.00     0.057 A 
ATOM     60  C   UNL A   1      45.668  28.212  35.177  1.00  0.00     0.134 A 
ATOM     61  C   UNL A   1      44.253  26.409  35.871  1.00  0.00     0.134 A 
ATOM     62  F   UNL A   1      45.900  29.313  34.447  1.00  0.00    -0.206 F 
ATOM     63  C   UNL A   1      46.696  27.723  35.983  1.00  0.00     0.040 A 
ATOM     64  C   UNL A   1      45.266  25.921  36.697  1.00  0.00     0.040 A 
ATOM     65  F   UNL A   1      43.087  25.748  35.841  1.00  0.00    -0.206 F 
ATOM     66  C   UNL A   1      46.494  26.578  36.752  1.00  0.00     0.006 A 
ENDBRANCH  38  59
BRANCH  50  67
ATOM     67  C   UNL A   1      39.341  32.187  36.166  1.00  0.00     0.057 A 
ATOM     68  C   UNL A   1      39.911  33.439  36.428  1.00  0.00     0.134 A 
ATOM     69  C   UNL A   1      38.359  31.720  37.045  1.00  0.00     0.134 A 
ATOM     70  F   UNL A   1      40.867  33.933  35.628  1.00  0.00    -0.206 F 
ATOM     71  C   UNL A   1      39.523  34.194  37.536  1.00  0.00     0.040 A 
ATOM     72  C   UNL A   1      37.952  32.472  38.148  1.00  0.00     0.040 A 
ATOM     73  F   UNL A   1      37.775  30.529  36.843  1.00  0.00    -0.206 F 
ATOM     74  C   UNL A   1      38.538  33.712  38.397  1.00  0.00     0.006 A 
ENDBRANCH  50  67
ENDBRANCH  24  25
ENDBRANCH  17  19
ENDBRANCH  16  17
ENDBRANCH  15  16
ENDBRANCH   1  15
TORSDOF 15
ENDMDL
