MODEL 1
REMARK VINA RESULT:      -9.6      0.000      0.000
REMARK SMILES C=CCC(=O)N[C@@](C)(CC)C(=O)OCCOC(=O)c1ccc(-c2c3nc(c(-c4c(F)cccc4F)c4ccc([nH]4)c(-c4c(F)cccc4F)c4nc(c(-c5c(F)cccc5F)c5ccc2[nH]5)C=C4)C=C3)cc1
REMARK SMILES IDX 14 1 13 2 11 3 12 4 7 5 8 6 6 7 4 8 5 9 3 11 2 12 1 13 9 14
REMARK SMILES IDX 10 15 15 16 16 17 17 18 18 19 19 20 20 21 72 22 21 23 71 24
REMARK SMILES IDX 22 25 23 26 24 27 65 28 25 29 70 30 64 31 66 32 26 33 69 34
REMARK SMILES IDX 63 35 62 36 27 38 53 39 36 40 52 41 37 42 40 43 51 44 67 45
REMARK SMILES IDX 38 46 39 47 50 49 68 50 41 51 28 52 29 53 34 54 30 55 31 56
REMARK SMILES IDX 33 57 35 58 32 59 54 60 55 61 60 62 56 63 57 64 59 65 61 66
REMARK SMILES IDX 58 67 42 68 43 69 48 70 44 71 45 72 47 73 49 74 46 75
REMARK H PARENT 6 10 66 37 40 48
REMARK Flexibility Score: inf
ROOT
ATOM      1  C   UNL A   1      31.731  31.167  26.329  1.00  0.00     0.274 C 
ENDROOT
BRANCH   1   2
ATOM      2  O   UNL A   1      31.893  29.856  26.927  1.00  0.00    -0.460 OA
BRANCH   2   3
ATOM      3  C   UNL A   1      32.812  29.109  26.270  1.00  0.00     0.331 C 
ATOM      4  O   UNL A   1      33.972  29.486  26.178  1.00  0.00    -0.249 OA
BRANCH   3   5
ATOM      5  C   UNL A   1      32.316  27.828  25.586  1.00  0.00     0.135 C 
ATOM      6  C   UNL A   1      31.559  26.947  26.592  1.00  0.00     0.047 C 
BRANCH   5   7
ATOM      7  N   UNL A   1      31.381  28.133  24.452  1.00  0.00    -0.340 N 
ATOM      8  C   UNL A   1      30.637  27.350  23.609  1.00  0.00     0.224 C 
ATOM      9  O   UNL A   1      30.470  27.820  22.475  1.00  0.00    -0.275 OA
ATOM     10  H   UNL A   1      31.283  29.097  24.277  1.00  0.00     0.164 HD
BRANCH   8  11
ATOM     11  C   UNL A   1      29.903  26.043  23.979  1.00  0.00     0.126 C 
BRANCH  11  12
ATOM     12  C   UNL A   1      30.478  24.745  23.479  1.00  0.00    -0.025 C 
ATOM     13  C   UNL A   1      30.905  23.747  24.271  1.00  0.00     0.004 C 
ENDBRANCH  11  12
ENDBRANCH   8  11
ENDBRANCH   5   7
BRANCH   5  14
ATOM     14  C   UNL A   1      33.514  26.968  25.061  1.00  0.00     0.037 C 
ATOM     15  C   UNL A   1      33.762  25.619  25.722  1.00  0.00     0.007 C 
ENDBRANCH   5  14
ENDBRANCH   3   5
ENDBRANCH   2   3
ENDBRANCH   1   2
BRANCH   1  16
ATOM     16  C   UNL A   1      31.540  32.356  27.308  1.00  0.00     0.275 C 
BRANCH  16  17
ATOM     17  O   UNL A   1      32.285  33.559  26.983  1.00  0.00    -0.458 OA
BRANCH  17  18
ATOM     18  C   UNL A   1      32.959  34.137  28.012  1.00  0.00     0.338 C 
ATOM     19  O   UNL A   1      32.536  35.036  28.723  1.00  0.00    -0.246 OA
BRANCH  18  20
ATOM     20  C   UNL A   1      34.220  33.417  28.354  1.00  0.00     0.060 A 
ATOM     21  C   UNL A   1      34.085  32.222  29.070  1.00  0.00     0.016 A 
ATOM     22  C   UNL A   1      35.503  33.900  28.108  1.00  0.00     0.016 A 
ATOM     23  C   UNL A   1      35.184  31.492  29.522  1.00  0.00     0.010 A 
ATOM     24  C   UNL A   1      36.624  33.186  28.596  1.00  0.00     0.010 A 
ATOM     25  C   UNL A   1      36.472  31.981  29.314  1.00  0.00    -0.014 A 
BRANCH  25  26
ATOM     26  C   UNL A   1      37.616  31.278  29.963  1.00  0.00     0.031 A 
ATOM     27  C   UNL A   1      37.906  31.528  31.418  1.00  0.00     0.074 A 
ATOM     28  C   UNL A   1      38.341  30.351  29.308  1.00  0.00     0.049 A 
ATOM     29  N   UNL A   1      38.856  31.035  32.175  1.00  0.00    -0.248 NA
ATOM     30  C   UNL A   1      36.995  32.446  32.116  1.00  0.00     0.031 C 
ATOM     31  C   UNL A   1      38.108  29.913  27.935  1.00  0.00     0.029 A 
ATOM     32  N   UNL A   1      39.422  29.603  29.719  1.00  0.00    -0.354 N 
ATOM     33  C   UNL A   1      38.660  31.585  33.435  1.00  0.00     0.074 A 
ATOM     34  C   UNL A   1      37.510  32.460  33.336  1.00  0.00     0.031 C 
ATOM     35  C   UNL A   1      39.031  28.991  27.608  1.00  0.00     0.029 A 
ATOM     36  C   UNL A   1      39.943  28.797  28.734  1.00  0.00     0.049 A 
ATOM     37  H   UNL A   1      39.787  29.643  30.632  1.00  0.00     0.167 HD
ATOM     38  C   UNL A   1      39.374  31.387  34.571  1.00  0.00     0.037 A 
ATOM     39  C   UNL A   1      41.042  28.017  28.730  1.00  0.00     0.037 A 
ATOM     40  C   UNL A   1      40.531  30.534  34.678  1.00  0.00     0.049 A 
ATOM     41  C   UNL A   1      41.894  27.911  29.972  1.00  0.00     0.074 A 
ATOM     42  C   UNL A   1      41.322  30.292  35.790  1.00  0.00     0.029 A 
ATOM     43  N   UNL A   1      41.075  29.797  33.638  1.00  0.00    -0.354 N 
ATOM     44  N   UNL A   1      41.706  28.440  31.157  1.00  0.00    -0.248 NA
ATOM     45  C   UNL A   1      43.114  27.094  29.875  1.00  0.00     0.031 C 
ATOM     46  C   UNL A   1      42.381  29.463  35.406  1.00  0.00     0.029 A 
ATOM     47  C   UNL A   1      42.211  29.130  34.073  1.00  0.00     0.049 A 
ATOM     48  H   UNL A   1      40.709  29.754  32.725  1.00  0.00     0.167 HD
ATOM     49  C   UNL A   1      42.758  27.992  31.949  1.00  0.00     0.074 A 
ATOM     50  C   UNL A   1      43.573  27.134  31.117  1.00  0.00     0.031 C 
ATOM     51  C   UNL A   1      43.022  28.268  33.250  1.00  0.00     0.037 A 
BRANCH  38  52
ATOM     52  C   UNL A   1      38.953  32.158  35.787  1.00  0.00     0.057 A 
ATOM     53  C   UNL A   1      38.192  31.581  36.810  1.00  0.00     0.134 A 
ATOM     54  C   UNL A   1      39.343  33.495  35.946  1.00  0.00     0.134 A 
ATOM     55  F   UNL A   1      37.775  30.309  36.715  1.00  0.00    -0.206 F 
ATOM     56  C   UNL A   1      37.811  32.313  37.937  1.00  0.00     0.040 A 
ATOM     57  C   UNL A   1      38.993  34.228  37.080  1.00  0.00     0.040 A 
ATOM     58  F   UNL A   1      40.079  34.106  35.006  1.00  0.00    -0.206 F 
ATOM     59  C   UNL A   1      38.218  33.639  38.076  1.00  0.00     0.006 A 
ENDBRANCH  38  52
BRANCH  39  60
ATOM     60  C   UNL A   1      41.453  27.298  27.492  1.00  0.00     0.057 A 
ATOM     61  C   UNL A   1      41.158  25.942  27.300  1.00  0.00     0.134 A 
ATOM     62  C   UNL A   1      42.223  27.932  26.509  1.00  0.00     0.134 A 
ATOM     63  F   UNL A   1      40.457  25.266  28.221  1.00  0.00    -0.206 F 
ATOM     64  C   UNL A   1      41.637  25.238  26.192  1.00  0.00     0.040 A 
ATOM     65  C   UNL A   1      42.682  27.249  25.381  1.00  0.00     0.040 A 
ATOM     66  F   UNL A   1      42.555  29.225  26.636  1.00  0.00    -0.206 F 
ATOM     67  C   UNL A   1      42.398  25.894  25.227  1.00  0.00     0.006 A 
ENDBRANCH  39  60
BRANCH  51  68
ATOM     68  C   UNL A   1      44.218  27.601  33.876  1.00  0.00     0.057 A 
ATOM     69  C   UNL A   1      45.480  28.211  33.917  1.00  0.00     0.134 A 
ATOM     70  C   UNL A   1      44.098  26.338  34.472  1.00  0.00     0.134 A 
ATOM     71  F   UNL A   1      45.671  29.416  33.359  1.00  0.00    -0.206 F 
ATOM     72  C   UNL A   1      46.582  27.574  34.494  1.00  0.00     0.040 A 
ATOM     73  C   UNL A   1      45.186  25.706  35.080  1.00  0.00     0.040 A 
ATOM     74  F   UNL A   1      42.920  25.697  34.482  1.00  0.00    -0.206 F 
ATOM     75  C   UNL A   1      46.435  26.322  35.083  1.00  0.00     0.006 A 
ENDBRANCH  51  68
ENDBRANCH  25  26
ENDBRANCH  18  20
ENDBRANCH  17  18
ENDBRANCH  16  17
ENDBRANCH   1  16
TORSDOF 15
ENDMDL
MODEL 2
REMARK VINA RESULT:      -9.5      1.286      6.756
REMARK SMILES C=CCC(=O)N[C@@](C)(CC)C(=O)OCCOC(=O)c1ccc(-c2c3nc(c(-c4c(F)cccc4F)c4ccc([nH]4)c(-c4c(F)cccc4F)c4nc(c(-c5c(F)cccc5F)c5ccc2[nH]5)C=C4)C=C3)cc1
REMARK SMILES IDX 14 1 13 2 11 3 12 4 7 5 8 6 6 7 4 8 5 9 3 11 2 12 1 13 9 14
REMARK SMILES IDX 10 15 15 16 16 17 17 18 18 19 19 20 20 21 72 22 21 23 71 24
REMARK SMILES IDX 22 25 23 26 24 27 65 28 25 29 70 30 64 31 66 32 26 33 69 34
REMARK SMILES IDX 63 35 62 36 27 38 53 39 36 40 52 41 37 42 40 43 51 44 67 45
REMARK SMILES IDX 38 46 39 47 50 49 68 50 41 51 28 52 29 53 34 54 30 55 31 56
REMARK SMILES IDX 33 57 35 58 32 59 54 60 55 61 60 62 56 63 57 64 59 65 61 66
REMARK SMILES IDX 58 67 42 68 43 69 48 70 44 71 45 72 47 73 49 74 46 75
REMARK H PARENT 6 10 66 37 40 48
REMARK Flexibility Score: inf
ROOT
ATOM      1  C   UNL A   1      31.817  30.829  26.696  1.00  0.00     0.274 C 
ENDROOT
BRANCH   1   2
ATOM      2  O   UNL A   1      31.390  30.478  25.356  1.00  0.00    -0.460 OA
BRANCH   2   3
ATOM      3  C   UNL A   1      32.200  29.550  24.791  1.00  0.00     0.331 C 
ATOM      4  O   UNL A   1      33.397  29.530  25.045  1.00  0.00    -0.249 OA
BRANCH   3   5
ATOM      5  C   UNL A   1      31.569  28.595  23.769  1.00  0.00     0.135 C 
ATOM      6  C   UNL A   1      30.460  27.764  24.433  1.00  0.00     0.047 C 
BRANCH   5   7
ATOM      7  N   UNL A   1      30.954  29.342  22.621  1.00  0.00    -0.340 N 
ATOM      8  C   UNL A   1      29.726  29.913  22.420  1.00  0.00     0.224 C 
ATOM      9  O   UNL A   1      29.335  29.908  21.244  1.00  0.00    -0.275 OA
ATOM     10  H   UNL A   1      31.561  29.441  21.852  1.00  0.00     0.164 HD
BRANCH   8  11
ATOM     11  C   UNL A   1      28.874  30.655  23.473  1.00  0.00     0.126 C 
BRANCH  11  12
ATOM     12  C   UNL A   1      28.161  31.911  23.047  1.00  0.00    -0.025 C 
ATOM     13  C   UNL A   1      28.773  33.070  22.751  1.00  0.00     0.004 C 
ENDBRANCH  11  12
ENDBRANCH   8  11
ENDBRANCH   5   7
BRANCH   5  14
ATOM     14  C   UNL A   1      32.621  27.572  23.226  1.00  0.00     0.037 C 
ATOM     15  C   UNL A   1      33.020  26.416  24.132  1.00  0.00     0.007 C 
ENDBRANCH   5  14
ENDBRANCH   3   5
ENDBRANCH   2   3
ENDBRANCH   1   2
BRANCH   1  16
ATOM     16  C   UNL A   1      32.742  32.068  26.826  1.00  0.00     0.275 C 
BRANCH  16  17
ATOM     17  O   UNL A   1      32.110  33.269  27.341  1.00  0.00    -0.458 OA
BRANCH  17  18
ATOM     18  C   UNL A   1      32.915  34.109  28.046  1.00  0.00     0.338 C 
ATOM     19  O   UNL A   1      32.603  35.218  28.451  1.00  0.00    -0.246 OA
BRANCH  18  20
ATOM     20  C   UNL A   1      34.184  33.459  28.485  1.00  0.00     0.060 A 
ATOM     21  C   UNL A   1      34.059  32.308  29.270  1.00  0.00     0.016 A 
ATOM     22  C   UNL A   1      35.458  33.975  28.263  1.00  0.00     0.016 A 
ATOM     23  C   UNL A   1      35.162  31.650  29.814  1.00  0.00     0.010 A 
ATOM     24  C   UNL A   1      36.581  33.336  28.843  1.00  0.00     0.010 A 
ATOM     25  C   UNL A   1      36.441  32.173  29.629  1.00  0.00    -0.014 A 
BRANCH  25  26
ATOM     26  C   UNL A   1      37.578  31.556  30.370  1.00  0.00     0.031 A 
ATOM     27  C   UNL A   1      38.460  30.558  29.670  1.00  0.00     0.074 A 
ATOM     28  C   UNL A   1      37.899  31.937  31.621  1.00  0.00     0.049 A 
ATOM     29  N   UNL A   1      39.492  29.892  30.127  1.00  0.00    -0.248 NA
ATOM     30  C   UNL A   1      38.144  30.285  28.260  1.00  0.00     0.031 C 
ATOM     31  C   UNL A   1      37.216  32.974  32.388  1.00  0.00     0.029 A 
ATOM     32  N   UNL A   1      38.892  31.496  32.466  1.00  0.00    -0.354 N 
ATOM     33  C   UNL A   1      39.946  29.119  29.066  1.00  0.00     0.074 A 
ATOM     34  C   UNL A   1      39.068  29.388  27.947  1.00  0.00     0.031 C 
ATOM     35  C   UNL A   1      37.793  33.076  33.598  1.00  0.00     0.029 A 
ATOM     36  C   UNL A   1      38.865  32.087  33.707  1.00  0.00     0.049 A 
ATOM     37  H   UNL A   1      39.559  30.821  32.205  1.00  0.00     0.167 HD
ATOM     38  C   UNL A   1      40.993  28.259  29.026  1.00  0.00     0.037 A 
ATOM     39  C   UNL A   1      39.597  31.841  34.813  1.00  0.00     0.037 A 
ATOM     40  C   UNL A   1      41.863  27.968  30.138  1.00  0.00     0.049 A 
ATOM     41  C   UNL A   1      40.677  30.786  34.779  1.00  0.00     0.074 A 
ATOM     42  C   UNL A   1      42.938  27.096  30.185  1.00  0.00     0.029 A 
ATOM     43  N   UNL A   1      41.753  28.527  31.402  1.00  0.00    -0.354 N 
ATOM     44  N   UNL A   1      41.094  30.054  33.775  1.00  0.00    -0.248 NA
ATOM     45  C   UNL A   1      41.391  30.525  36.039  1.00  0.00     0.031 C 
ATOM     46  C   UNL A   1      43.435  27.076  31.492  1.00  0.00     0.029 A 
ATOM     47  C   UNL A   1      42.716  27.990  32.243  1.00  0.00     0.049 A 
ATOM     48  H   UNL A   1      41.088  29.206  31.663  1.00  0.00     0.167 HD
ATOM     49  C   UNL A   1      42.136  29.278  34.271  1.00  0.00     0.074 A 
ATOM     50  C   UNL A   1      42.301  29.639  35.662  1.00  0.00     0.031 C 
ATOM     51  C   UNL A   1      42.889  28.351  33.628  1.00  0.00     0.037 A 
BRANCH  38  52
ATOM     52  C   UNL A   1      41.223  27.520  27.742  1.00  0.00     0.057 A 
ATOM     53  C   UNL A   1      42.026  28.034  26.717  1.00  0.00     0.134 A 
ATOM     54  C   UNL A   1      40.650  26.256  27.541  1.00  0.00     0.134 A 
ATOM     55  F   UNL A   1      42.593  29.244  26.839  1.00  0.00    -0.206 F 
ATOM     56  C   UNL A   1      42.230  27.331  25.528  1.00  0.00     0.040 A 
ATOM     57  C   UNL A   1      40.870  25.531  26.371  1.00  0.00     0.040 A 
ATOM     58  F   UNL A   1      39.876  25.701  28.486  1.00  0.00    -0.206 F 
ATOM     59  C   UNL A   1      41.656  26.072  25.356  1.00  0.00     0.006 A 
ENDBRANCH  38  52
BRANCH  39  60
ATOM     60  C   UNL A   1      39.314  32.564  36.083  1.00  0.00     0.057 A 
ATOM     61  C   UNL A   1      38.391  32.074  37.016  1.00  0.00     0.134 A 
ATOM     62  C   UNL A   1      39.900  33.807  36.354  1.00  0.00     0.134 A 
ATOM     63  F   UNL A   1      37.765  30.908  36.799  1.00  0.00    -0.206 F 
ATOM     64  C   UNL A   1      38.042  32.805  38.154  1.00  0.00     0.040 A 
ATOM     65  C   UNL A   1      39.583  34.533  37.503  1.00  0.00     0.040 A 
ATOM     66  F   UNL A   1      40.781  34.343  35.497  1.00  0.00    -0.206 F 
ATOM     67  C   UNL A   1      38.642  34.037  38.402  1.00  0.00     0.006 A 
ENDBRANCH  39  60
BRANCH  51  68
ATOM     68  C   UNL A   1      43.994  27.689  34.406  1.00  0.00     0.057 A 
ATOM     69  C   UNL A   1      45.279  28.243  34.502  1.00  0.00     0.134 A 
ATOM     70  C   UNL A   1      43.763  26.489  35.093  1.00  0.00     0.134 A 
ATOM     71  F   UNL A   1      45.577  29.385  33.864  1.00  0.00    -0.206 F 
ATOM     72  C   UNL A   1      46.298  27.611  35.221  1.00  0.00     0.040 A 
ATOM     73  C   UNL A   1      44.764  25.865  35.841  1.00  0.00     0.040 A 
ATOM     74  F   UNL A   1      42.556  25.905  35.057  1.00  0.00    -0.206 F 
ATOM     75  C   UNL A   1      46.039  26.423  35.898  1.00  0.00     0.006 A 
ENDBRANCH  51  68
ENDBRANCH  25  26
ENDBRANCH  18  20
ENDBRANCH  17  18
ENDBRANCH  16  17
ENDBRANCH   1  16
TORSDOF 15
ENDMDL
MODEL 3
REMARK VINA RESULT:      -9.4      4.260      6.972
REMARK SMILES C=CCC(=O)N[C@@](C)(CC)C(=O)OCCOC(=O)c1ccc(-c2c3nc(c(-c4c(F)cccc4F)c4ccc([nH]4)c(-c4c(F)cccc4F)c4nc(c(-c5c(F)cccc5F)c5ccc2[nH]5)C=C4)C=C3)cc1
REMARK SMILES IDX 14 1 13 2 11 3 12 4 7 5 8 6 6 7 4 8 5 9 3 11 2 12 1 13 9 14
REMARK SMILES IDX 10 15 15 16 16 17 17 18 18 19 19 20 20 21 72 22 21 23 71 24
REMARK SMILES IDX 22 25 23 26 24 27 65 28 25 29 70 30 64 31 66 32 26 33 69 34
REMARK SMILES IDX 63 35 62 36 27 38 53 39 36 40 52 41 37 42 40 43 51 44 67 45
REMARK SMILES IDX 38 46 39 47 50 49 68 50 41 51 28 52 29 53 34 54 30 55 31 56
REMARK SMILES IDX 33 57 35 58 32 59 54 60 55 61 60 62 56 63 57 64 59 65 61 66
REMARK SMILES IDX 58 67 42 68 43 69 48 70 44 71 45 72 47 73 49 74 46 75
REMARK H PARENT 6 10 66 37 40 48
REMARK Flexibility Score: inf
ROOT
ATOM      1  C   UNL A   1      33.616  33.606  28.350  1.00  0.00     0.274 C 
ENDROOT
BRANCH   1   2
ATOM      2  O   UNL A   1      33.585  33.624  29.799  1.00  0.00    -0.460 OA
BRANCH   2   3
ATOM      3  C   UNL A   1      34.174  34.733  30.306  1.00  0.00     0.331 C 
ATOM      4  O   UNL A   1      34.377  35.711  29.598  1.00  0.00    -0.249 OA
BRANCH   3   5
ATOM      5  C   UNL A   1      34.644  34.674  31.765  1.00  0.00     0.135 C 
ATOM      6  C   UNL A   1      34.372  33.282  32.355  1.00  0.00     0.047 C 
BRANCH   5   7
ATOM      7  N   UNL A   1      36.118  34.939  31.883  1.00  0.00    -0.340 N 
ATOM      8  C   UNL A   1      37.217  34.126  31.949  1.00  0.00     0.224 C 
ATOM      9  O   UNL A   1      38.161  34.578  32.614  1.00  0.00    -0.275 OA
ATOM     10  H   UNL A   1      36.339  35.898  31.921  1.00  0.00     0.164 HD
BRANCH   8  11
ATOM     11  C   UNL A   1      37.427  32.801  31.184  1.00  0.00     0.126 C 
BRANCH  11  12
ATOM     12  C   UNL A   1      37.935  32.876  29.769  1.00  0.00    -0.025 C 
ATOM     13  C   UNL A   1      37.273  33.453  28.752  1.00  0.00     0.004 C 
ENDBRANCH  11  12
ENDBRANCH   8  11
ENDBRANCH   5   7
BRANCH   5  14
ATOM     14  C   UNL A   1      33.856  35.692  32.655  1.00  0.00     0.037 C 
ATOM     15  C   UNL A   1      32.407  35.981  32.288  1.00  0.00     0.007 C 
ENDBRANCH   5  14
ENDBRANCH   3   5
ENDBRANCH   2   3
ENDBRANCH   1   2
BRANCH   1  16
ATOM     16  C   UNL A   1      33.890  32.232  27.680  1.00  0.00     0.275 C 
BRANCH  16  17
ATOM     17  O   UNL A   1      34.247  31.156  28.586  1.00  0.00    -0.458 OA
BRANCH  17  18
ATOM     18  C   UNL A   1      34.764  30.039  28.007  1.00  0.00     0.338 C 
ATOM     19  O   UNL A   1      34.217  29.369  27.143  1.00  0.00    -0.246 OA
BRANCH  18  20
ATOM     20  C   UNL A   1      36.192  29.807  28.369  1.00  0.00     0.060 A 
ATOM     21  C   UNL A   1      37.131  29.963  27.344  1.00  0.00     0.016 A 
ATOM     22  C   UNL A   1      36.632  29.349  29.608  1.00  0.00     0.016 A 
ATOM     23  C   UNL A   1      38.489  29.698  27.527  1.00  0.00     0.010 A 
ATOM     24  C   UNL A   1      38.002  29.041  29.792  1.00  0.00     0.010 A 
ATOM     25  C   UNL A   1      38.940  29.206  28.751  1.00  0.00    -0.014 A 
BRANCH  25  26
ATOM     26  C   UNL A   1      40.358  28.761  28.862  1.00  0.00     0.031 A 
ATOM     27  C   UNL A   1      41.384  29.700  29.436  1.00  0.00     0.074 A 
ATOM     28  C   UNL A   1      40.733  27.505  28.551  1.00  0.00     0.049 A 
ATOM     29  N   UNL A   1      42.671  29.524  29.611  1.00  0.00    -0.248 NA
ATOM     30  C   UNL A   1      40.889  31.009  29.886  1.00  0.00     0.031 C 
ATOM     31  C   UNL A   1      39.838  26.446  28.096  1.00  0.00     0.029 A 
ATOM     32  N   UNL A   1      41.972  26.906  28.580  1.00  0.00    -0.354 N 
ATOM     33  C   UNL A   1      43.140  30.698  30.186  1.00  0.00     0.074 A 
ATOM     34  C   UNL A   1      42.002  31.584  30.317  1.00  0.00     0.031 C 
ATOM     35  C   UNL A   1      40.557  25.333  27.866  1.00  0.00     0.029 A 
ATOM     36  C   UNL A   1      41.970  25.610  28.123  1.00  0.00     0.049 A 
ATOM     37  H   UNL A   1      42.784  27.364  28.898  1.00  0.00     0.167 HD
ATOM     38  C   UNL A   1      44.402  31.014  30.566  1.00  0.00     0.037 A 
ATOM     39  C   UNL A   1      42.990  24.753  27.907  1.00  0.00     0.037 A 
ATOM     40  C   UNL A   1      45.546  30.149  30.424  1.00  0.00     0.049 A 
ATOM     41  C   UNL A   1      44.405  25.176  28.221  1.00  0.00     0.074 A 
ATOM     42  C   UNL A   1      46.864  30.401  30.769  1.00  0.00     0.029 A 
ATOM     43  N   UNL A   1      45.517  28.873  29.882  1.00  0.00    -0.354 N 
ATOM     44  N   UNL A   1      44.841  26.290  28.757  1.00  0.00    -0.248 NA
ATOM     45  C   UNL A   1      45.473  24.216  27.900  1.00  0.00     0.031 C 
ATOM     46  C   UNL A   1      47.642  29.307  30.374  1.00  0.00     0.029 A 
ATOM     47  C   UNL A   1      46.798  28.342  29.850  1.00  0.00     0.049 A 
ATOM     48  H   UNL A   1      44.706  28.413  29.566  1.00  0.00     0.167 HD
ATOM     49  C   UNL A   1      46.220  26.149  28.869  1.00  0.00     0.074 A 
ATOM     50  C   UNL A   1      46.549  24.835  28.362  1.00  0.00     0.031 C 
ATOM     51  C   UNL A   1      47.130  27.031  29.351  1.00  0.00     0.037 A 
BRANCH  38  52
ATOM     52  C   UNL A   1      44.625  32.389  31.124  1.00  0.00     0.057 A 
ATOM     53  C   UNL A   1      44.883  33.494  30.305  1.00  0.00     0.134 A 
ATOM     54  C   UNL A   1      44.552  32.611  32.507  1.00  0.00     0.134 A 
ATOM     55  F   UNL A   1      44.980  33.348  28.974  1.00  0.00    -0.206 F 
ATOM     56  C   UNL A   1      45.086  34.767  30.842  1.00  0.00     0.040 A 
ATOM     57  C   UNL A   1      44.724  33.882  33.052  1.00  0.00     0.040 A 
ATOM     58  F   UNL A   1      44.301  31.596  33.347  1.00  0.00    -0.206 F 
ATOM     59  C   UNL A   1      45.001  34.965  32.219  1.00  0.00     0.006 A 
ENDBRANCH  38  52
BRANCH  39  60
ATOM     60  C   UNL A   1      42.737  23.412  27.313  1.00  0.00     0.057 A 
ATOM     61  C   UNL A   1      42.405  22.308  28.110  1.00  0.00     0.134 A 
ATOM     62  C   UNL A   1      42.901  23.185  25.941  1.00  0.00     0.134 A 
ATOM     63  F   UNL A   1      42.271  22.449  29.437  1.00  0.00    -0.206 F 
ATOM     64  C   UNL A   1      42.276  21.027  27.569  1.00  0.00     0.040 A 
ATOM     65  C   UNL A   1      42.744  21.916  25.382  1.00  0.00     0.040 A 
ATOM     66  F   UNL A   1      43.232  24.194  25.122  1.00  0.00    -0.206 F 
ATOM     67  C   UNL A   1      42.442  20.829  26.200  1.00  0.00     0.006 A 
ENDBRANCH  39  60
BRANCH  51  68
ATOM     68  C   UNL A   1      48.569  26.593  29.400  1.00  0.00     0.057 A 
ATOM     69  C   UNL A   1      49.477  26.886  28.371  1.00  0.00     0.134 A 
ATOM     70  C   UNL A   1      49.063  25.887  30.506  1.00  0.00     0.134 A 
ATOM     71  F   UNL A   1      49.074  27.550  27.277  1.00  0.00    -0.206 F 
ATOM     72  C   UNL A   1      50.808  26.463  28.427  1.00  0.00     0.040 A 
ATOM     73  C   UNL A   1      50.399  25.488  30.587  1.00  0.00     0.040 A 
ATOM     74  F   UNL A   1      48.257  25.580  31.533  1.00  0.00    -0.206 F 
ATOM     75  C   UNL A   1      51.274  25.768  29.539  1.00  0.00     0.006 A 
ENDBRANCH  51  68
ENDBRANCH  25  26
ENDBRANCH  18  20
ENDBRANCH  17  18
ENDBRANCH  16  17
ENDBRANCH   1  16
TORSDOF 15
ENDMDL
