MODEL 1
REMARK VINA RESULT:     -10.9      0.000      0.000
REMARK SMILES CCCCCCCCNC(=O)Oc1cccc(-c2ccc([C@@H](C)C(=O)OCCOC(=O)c3ccc(-c4c5nc(c(-c6c(F)cccc6F)c6ccc([nH]6)c(-c6c(F)cccc6F)c6nc(c(-c7c(F)cccc7F)c7ccc4[nH]7)C=C6)C=C5)cc3)cc2F)c1
REMARK SMILES IDX 18 1 19 2 20 3 21 4 86 5 87 6 88 7 17 8 13 9 14 10 89 11
REMARK SMILES IDX 15 12 16 13 12 14 10 15 9 16 11 18 8 19 7 20 6 21 5 22 4 23
REMARK SMILES IDX 3 24 2 25 1 26 22 27 23 28 24 29 25 30 26 31 27 32 28 33
REMARK SMILES IDX 29 34 30 35 31 36 32 37 33 38 85 39 34 40 84 41 35 42 36 43
REMARK SMILES IDX 37 44 78 45 38 46 83 47 77 48 79 49 39 50 82 51 76 52 75 53
REMARK SMILES IDX 40 55 66 56 49 57 65 58 50 59 53 60 64 61 80 62 51 63 52 64
REMARK SMILES IDX 63 66 81 67 54 68 41 69 42 70 47 71 43 72 44 73 46 74 48 75
REMARK SMILES IDX 45 76 67 77 68 78 73 79 69 80 70 81 72 82 74 83 71 84 55 85
REMARK SMILES IDX 56 86 61 87 57 88 58 89 60 90 62 91 59 92
REMARK H PARENT 9 17 79 54 53 65
REMARK Flexibility Score: inf
ROOT
ATOM      1  C   UNL A   1      37.481  21.802  25.373  1.00  0.00     0.018 A 
ATOM      2  C   UNL A   1      38.093  22.886  26.022  1.00  0.00     0.012 A 
ATOM      3  C   UNL A   1      39.410  22.805  26.494  1.00  0.00     0.005 A 
ATOM      4  C   UNL A   1      40.159  21.632  26.337  1.00  0.00    -0.031 A 
ATOM      5  C   UNL A   1      39.547  20.544  25.696  1.00  0.00     0.044 A 
ATOM      6  C   UNL A   1      38.232  20.630  25.236  1.00  0.00     0.131 A 
ATOM      7  F   UNL A   1      37.714  19.558  24.616  1.00  0.00    -0.206 F 
ENDROOT
BRANCH   1   8
ATOM      8  C   UNL A   1      36.123  21.926  24.818  1.00  0.00    -0.012 A 
ATOM      9  C   UNL A   1      34.486  23.027  23.411  1.00  0.00     0.133 A 
ATOM     10  C   UNL A   1      33.490  22.147  23.828  1.00  0.00     0.047 A 
ATOM     11  C   UNL A   1      35.789  22.936  23.902  1.00  0.00     0.056 A 
ATOM     12  C   UNL A   1      33.807  21.141  24.734  1.00  0.00     0.004 A 
ATOM     13  C   UNL A   1      35.111  21.034  25.222  1.00  0.00     0.009 A 
BRANCH   9  14
ATOM     14  O   UNL A   1      34.080  24.084  22.582  1.00  0.00    -0.410 OA
BRANCH  14  15
ATOM     15  C   UNL A   1      32.816  24.620  22.771  1.00  0.00     0.412 C 
ATOM     16  N   UNL A   1      32.813  25.676  23.643  1.00  0.00    -0.321 N 
ATOM     17  H   UNL A   1      31.946  26.114  23.804  1.00  0.00     0.167 HD
ATOM     18  O   UNL A   1      31.776  24.224  22.259  1.00  0.00    -0.224 OA
BRANCH  16  19
ATOM     19  C   UNL A   1      33.956  26.215  24.353  1.00  0.00     0.119 C 
BRANCH  19  20
ATOM     20  C   UNL A   1      33.704  26.314  25.858  1.00  0.00     0.021 C 
BRANCH  20  21
ATOM     21  C   UNL A   1      33.651  27.745  26.408  1.00  0.00     0.002 C 
BRANCH  21  22
ATOM     22  C   UNL A   1      33.701  28.857  25.354  1.00  0.00     0.000 C 
BRANCH  22  23
ATOM     23  C   UNL A   1      32.608  29.923  25.480  1.00  0.00    -0.000 C 
BRANCH  23  24
ATOM     24  C   UNL A   1      31.219  29.492  24.998  1.00  0.00    -0.000 C 
BRANCH  24  25
ATOM     25  C   UNL A   1      31.175  28.860  23.603  1.00  0.00    -0.003 C 
ATOM     26  C   UNL A   1      29.762  28.605  23.098  1.00  0.00     0.004 C 
ENDBRANCH  24  25
ENDBRANCH  23  24
ENDBRANCH  22  23
ENDBRANCH  21  22
ENDBRANCH  20  21
ENDBRANCH  19  20
ENDBRANCH  16  19
ENDBRANCH  14  15
ENDBRANCH   9  14
ENDBRANCH   1   8
BRANCH   4  27
ATOM     27  C   UNL A   1      41.596  21.522  26.823  1.00  0.00     0.126 C 
ATOM     28  C   UNL A   1      41.703  21.544  28.346  1.00  0.00     0.025 C 
BRANCH  27  29
ATOM     29  C   UNL A   1      42.405  20.357  26.260  1.00  0.00     0.313 C 
ATOM     30  O   UNL A   1      42.427  19.258  26.806  1.00  0.00    -0.252 OA
BRANCH  29  31
ATOM     31  O   UNL A   1      43.043  20.645  25.096  1.00  0.00    -0.462 OA
BRANCH  31  32
ATOM     32  C   UNL A   1      44.295  21.350  25.196  1.00  0.00     0.274 C 
BRANCH  32  33
ATOM     33  C   UNL A   1      44.360  22.521  24.210  1.00  0.00     0.275 C 
BRANCH  33  34
ATOM     34  O   UNL A   1      43.571  23.635  24.667  1.00  0.00    -0.458 OA
BRANCH  34  35
ATOM     35  C   UNL A   1      44.286  24.702  25.091  1.00  0.00     0.338 C 
ATOM     36  O   UNL A   1      45.344  25.108  24.642  1.00  0.00    -0.246 OA
BRANCH  35  37
ATOM     37  C   UNL A   1      43.533  25.440  26.114  1.00  0.00     0.060 A 
ATOM     38  C   UNL A   1      43.926  26.753  26.373  1.00  0.00     0.016 A 
ATOM     39  C   UNL A   1      42.541  24.835  26.885  1.00  0.00     0.016 A 
ATOM     40  C   UNL A   1      43.360  27.462  27.425  1.00  0.00     0.010 A 
ATOM     41  C   UNL A   1      41.954  25.556  27.934  1.00  0.00     0.010 A 
ATOM     42  C   UNL A   1      42.375  26.867  28.222  1.00  0.00    -0.014 A 
BRANCH  42  43
ATOM     43  C   UNL A   1      41.845  27.628  29.380  1.00  0.00     0.031 A 
ATOM     44  C   UNL A   1      42.572  27.608  30.695  1.00  0.00     0.074 A 
ATOM     45  C   UNL A   1      40.759  28.407  29.221  1.00  0.00     0.049 A 
ATOM     46  N   UNL A   1      42.282  28.231  31.810  1.00  0.00    -0.248 NA
ATOM     47  C   UNL A   1      43.787  26.781  30.765  1.00  0.00     0.031 C 
ATOM     48  C   UNL A   1      39.993  28.544  27.981  1.00  0.00     0.029 A 
ATOM     49  N   UNL A   1      40.125  29.248  30.100  1.00  0.00    -0.354 N 
ATOM     50  C   UNL A   1      43.270  27.866  32.716  1.00  0.00     0.074 A 
ATOM     51  C   UNL A   1      44.153  26.948  32.029  1.00  0.00     0.031 C 
ATOM     52  C   UNL A   1      39.007  29.436  28.174  1.00  0.00     0.029 A 
ATOM     53  C   UNL A   1      39.048  29.903  29.556  1.00  0.00     0.049 A 
ATOM     54  H   UNL A   1      40.414  29.370  31.034  1.00  0.00     0.167 HD
ATOM     55  C   UNL A   1      43.431  28.269  33.999  1.00  0.00     0.037 A 
ATOM     56  C   UNL A   1      38.186  30.775  30.110  1.00  0.00     0.037 A 
ATOM     57  C   UNL A   1      42.560  29.194  34.679  1.00  0.00     0.049 A 
ATOM     58  C   UNL A   1      38.364  31.169  31.550  1.00  0.00     0.074 A 
ATOM     59  C   UNL A   1      42.639  29.657  35.981  1.00  0.00     0.029 A 
ATOM     60  N   UNL A   1      41.454  29.802  34.105  1.00  0.00    -0.354 N 
ATOM     61  N   UNL A   1      39.297  30.809  32.398  1.00  0.00    -0.248 NA
ATOM     62  C   UNL A   1      37.368  32.094  32.110  1.00  0.00     0.031 C 
ATOM     63  C   UNL A   1      41.560  30.520  36.207  1.00  0.00     0.029 A 
ATOM     64  C   UNL A   1      40.834  30.627  35.031  1.00  0.00     0.049 A 
ATOM     65  H   UNL A   1      41.153  29.669  33.178  1.00  0.00     0.167 HD
ATOM     66  C   UNL A   1      39.011  31.475  33.583  1.00  0.00     0.074 A 
ATOM     67  C   UNL A   1      37.833  32.280  33.336  1.00  0.00     0.031 C 
ATOM     68  C   UNL A   1      39.663  31.421  34.770  1.00  0.00     0.037 A 
BRANCH  55  69
ATOM     69  C   UNL A   1      44.587  27.694  34.763  1.00  0.00     0.057 A 
ATOM     70  C   UNL A   1      45.832  28.335  34.811  1.00  0.00     0.134 A 
ATOM     71  C   UNL A   1      44.443  26.506  35.490  1.00  0.00     0.134 A 
ATOM     72  F   UNL A   1      46.040  29.470  34.127  1.00  0.00    -0.206 F 
ATOM     73  C   UNL A   1      46.897  27.806  35.543  1.00  0.00     0.040 A 
ATOM     74  C   UNL A   1      45.493  25.979  36.243  1.00  0.00     0.040 A 
ATOM     75  F   UNL A   1      43.275  25.845  35.490  1.00  0.00    -0.206 F 
ATOM     76  C   UNL A   1      46.726  26.627  36.267  1.00  0.00     0.006 A 
ENDBRANCH  55  69
BRANCH  56  77
ATOM     77  C   UNL A   1      37.068  31.332  29.309  1.00  0.00     0.057 A 
ATOM     78  C   UNL A   1      35.937  30.565  29.010  1.00  0.00     0.134 A 
ATOM     79  C   UNL A   1      37.119  32.635  28.799  1.00  0.00     0.134 A 
ATOM     80  F   UNL A   1      35.842  29.302  29.450  1.00  0.00    -0.206 F 
ATOM     81  C   UNL A   1      34.903  31.067  28.217  1.00  0.00     0.040 A 
ATOM     82  C   UNL A   1      36.082  33.158  28.026  1.00  0.00     0.040 A 
ATOM     83  F   UNL A   1      38.177  33.420  29.050  1.00  0.00    -0.206 F 
ATOM     84  C   UNL A   1      34.973  32.369  27.725  1.00  0.00     0.006 A 
ENDBRANCH  56  77
BRANCH  68  85
ATOM     85  C   UNL A   1      39.123  32.278  35.878  1.00  0.00     0.057 A 
ATOM     86  C   UNL A   1      39.498  33.620  36.021  1.00  0.00     0.134 A 
ATOM     87  C   UNL A   1      38.219  31.754  36.809  1.00  0.00     0.134 A 
ATOM     88  F   UNL A   1      40.373  34.177  35.169  1.00  0.00    -0.206 F 
ATOM     89  C   UNL A   1      39.014  34.403  37.070  1.00  0.00     0.040 A 
ATOM     90  C   UNL A   1      37.709  32.535  37.848  1.00  0.00     0.040 A 
ATOM     91  F   UNL A   1      37.814  30.479  36.725  1.00  0.00    -0.206 F 
ATOM     92  C   UNL A   1      38.115  33.861  37.986  1.00  0.00     0.006 A 
ENDBRANCH  68  85
ENDBRANCH  42  43
ENDBRANCH  35  37
ENDBRANCH  34  35
ENDBRANCH  33  34
ENDBRANCH  32  33
ENDBRANCH  31  32
ENDBRANCH  29  31
ENDBRANCH  27  29
ENDBRANCH   4  27
TORSDOF 22
ENDMDL
MODEL 2
REMARK VINA RESULT:     -10.8      0.975      2.103
REMARK SMILES CCCCCCCCNC(=O)Oc1cccc(-c2ccc([C@@H](C)C(=O)OCCOC(=O)c3ccc(-c4c5nc(c(-c6c(F)cccc6F)c6ccc([nH]6)c(-c6c(F)cccc6F)c6nc(c(-c7c(F)cccc7F)c7ccc4[nH]7)C=C6)C=C5)cc3)cc2F)c1
REMARK SMILES IDX 18 1 19 2 20 3 21 4 86 5 87 6 88 7 17 8 13 9 14 10 89 11
REMARK SMILES IDX 15 12 16 13 12 14 10 15 9 16 11 18 8 19 7 20 6 21 5 22 4 23
REMARK SMILES IDX 3 24 2 25 1 26 22 27 23 28 24 29 25 30 26 31 27 32 28 33
REMARK SMILES IDX 29 34 30 35 31 36 32 37 33 38 85 39 34 40 84 41 35 42 36 43
REMARK SMILES IDX 37 44 78 45 38 46 83 47 77 48 79 49 39 50 82 51 76 52 75 53
REMARK SMILES IDX 40 55 66 56 49 57 65 58 50 59 53 60 64 61 80 62 51 63 52 64
REMARK SMILES IDX 63 66 81 67 54 68 41 69 42 70 47 71 43 72 44 73 46 74 48 75
REMARK SMILES IDX 45 76 67 77 68 78 73 79 69 80 70 81 72 82 74 83 71 84 55 85
REMARK SMILES IDX 56 86 61 87 57 88 58 89 60 90 62 91 59 92
REMARK H PARENT 9 17 79 54 53 65
REMARK Flexibility Score: inf
ROOT
ATOM      1  C   UNL A   1      37.240  23.262  25.937  1.00  0.00     0.018 A 
ATOM      2  C   UNL A   1      38.122  24.180  26.529  1.00  0.00     0.012 A 
ATOM      3  C   UNL A   1      39.434  23.819  26.864  1.00  0.00     0.005 A 
ATOM      4  C   UNL A   1      39.907  22.523  26.624  1.00  0.00    -0.031 A 
ATOM      5  C   UNL A   1      39.025  21.601  26.041  1.00  0.00     0.044 A 
ATOM      6  C   UNL A   1      37.718  21.965  25.717  1.00  0.00     0.131 A 
ATOM      7  F   UNL A   1      36.932  21.038  25.145  1.00  0.00    -0.206 F 
ENDROOT
BRANCH   1   8
ATOM      8  C   UNL A   1      35.890  23.674  25.524  1.00  0.00    -0.012 A 
ATOM      9  C   UNL A   1      34.322  24.488  23.863  1.00  0.00     0.133 A 
ATOM     10  C   UNL A   1      33.291  24.505  24.801  1.00  0.00     0.047 A 
ATOM     11  C   UNL A   1      35.614  24.090  24.211  1.00  0.00     0.056 A 
ATOM     12  C   UNL A   1      33.549  24.096  26.104  1.00  0.00     0.004 A 
ATOM     13  C   UNL A   1      34.837  23.684  26.459  1.00  0.00     0.009 A 
BRANCH   9  14
ATOM     14  O   UNL A   1      34.026  25.015  22.597  1.00  0.00    -0.410 OA
BRANCH  14  15
ATOM     15  C   UNL A   1      33.175  24.300  21.770  1.00  0.00     0.412 C 
ATOM     16  N   UNL A   1      32.153  25.065  21.272  1.00  0.00    -0.321 N 
ATOM     17  H   UNL A   1      31.524  24.619  20.661  1.00  0.00     0.167 HD
ATOM     18  O   UNL A   1      33.262  23.111  21.493  1.00  0.00    -0.224 OA
BRANCH  16  19
ATOM     19  C   UNL A   1      31.903  26.464  21.555  1.00  0.00     0.119 C 
BRANCH  19  20
ATOM     20  C   UNL A   1      30.618  26.669  22.357  1.00  0.00     0.021 C 
BRANCH  20  21
ATOM     21  C   UNL A   1      30.209  28.135  22.555  1.00  0.00     0.002 C 
BRANCH  21  22
ATOM     22  C   UNL A   1      31.260  29.026  23.228  1.00  0.00     0.000 C 
BRANCH  22  23
ATOM     23  C   UNL A   1      31.866  28.458  24.515  1.00  0.00    -0.000 C 
BRANCH  23  24
ATOM     24  C   UNL A   1      31.862  29.413  25.714  1.00  0.00    -0.000 C 
BRANCH  24  25
ATOM     25  C   UNL A   1      32.512  28.868  26.989  1.00  0.00    -0.003 C 
ATOM     26  C   UNL A   1      31.550  28.090  27.874  1.00  0.00     0.004 C 
ENDBRANCH  24  25
ENDBRANCH  23  24
ENDBRANCH  22  23
ENDBRANCH  21  22
ENDBRANCH  20  21
ENDBRANCH  19  20
ENDBRANCH  16  19
ENDBRANCH  14  15
ENDBRANCH   9  14
ENDBRANCH   1   8
BRANCH   4  27
ATOM     27  C   UNL A   1      41.332  22.109  26.961  1.00  0.00     0.126 C 
ATOM     28  C   UNL A   1      41.429  21.385  28.302  1.00  0.00     0.025 C 
BRANCH  27  29
ATOM     29  C   UNL A   1      42.070  21.316  25.886  1.00  0.00     0.313 C 
ATOM     30  O   UNL A   1      42.016  20.092  25.830  1.00  0.00    -0.252 OA
BRANCH  29  31
ATOM     31  O   UNL A   1      42.737  22.094  24.993  1.00  0.00    -0.462 OA
BRANCH  31  32
ATOM     32  C   UNL A   1      44.113  21.755  24.734  1.00  0.00     0.274 C 
BRANCH  32  33
ATOM     33  C   UNL A   1      44.955  23.002  24.449  1.00  0.00     0.275 C 
BRANCH  33  34
ATOM     34  O   UNL A   1      44.171  24.204  24.576  1.00  0.00    -0.458 OA
BRANCH  34  35
ATOM     35  C   UNL A   1      44.841  25.266  25.078  1.00  0.00     0.338 C 
ATOM     36  O   UNL A   1      45.902  25.723  24.689  1.00  0.00    -0.246 OA
BRANCH  35  37
ATOM     37  C   UNL A   1      44.031  25.932  26.107  1.00  0.00     0.060 A 
ATOM     38  C   UNL A   1      44.372  27.243  26.440  1.00  0.00     0.016 A 
ATOM     39  C   UNL A   1      43.033  25.261  26.815  1.00  0.00     0.016 A 
ATOM     40  C   UNL A   1      43.749  27.884  27.502  1.00  0.00     0.010 A 
ATOM     41  C   UNL A   1      42.389  25.915  27.875  1.00  0.00     0.010 A 
ATOM     42  C   UNL A   1      42.757  27.223  28.237  1.00  0.00    -0.014 A 
BRANCH  42  43
ATOM     43  C   UNL A   1      42.165  27.912  29.410  1.00  0.00     0.031 A 
ATOM     44  C   UNL A   1      42.859  27.869  30.742  1.00  0.00     0.074 A 
ATOM     45  C   UNL A   1      41.050  28.649  29.253  1.00  0.00     0.049 A 
ATOM     46  N   UNL A   1      42.513  28.432  31.872  1.00  0.00    -0.248 NA
ATOM     47  C   UNL A   1      44.107  27.093  30.812  1.00  0.00     0.031 C 
ATOM     48  C   UNL A   1      40.311  28.804  27.999  1.00  0.00     0.029 A 
ATOM     49  N   UNL A   1      40.358  29.425  30.147  1.00  0.00    -0.354 N 
ATOM     50  C   UNL A   1      43.493  28.073  32.790  1.00  0.00     0.074 A 
ATOM     51  C   UNL A   1      44.433  27.223  32.091  1.00  0.00     0.031 C 
ATOM     52  C   UNL A   1      39.282  29.644  28.199  1.00  0.00     0.029 A 
ATOM     53  C   UNL A   1      39.267  30.055  29.600  1.00  0.00     0.049 A 
ATOM     54  H   UNL A   1      40.618  29.521  31.092  1.00  0.00     0.167 HD
ATOM     55  C   UNL A   1      43.603  28.430  34.092  1.00  0.00     0.037 A 
ATOM     56  C   UNL A   1      38.354  30.866  30.165  1.00  0.00     0.037 A 
ATOM     57  C   UNL A   1      42.676  29.288  34.784  1.00  0.00     0.049 A 
ATOM     58  C   UNL A   1      38.478  31.208  31.624  1.00  0.00     0.074 A 
ATOM     59  C   UNL A   1      42.700  29.700  36.106  1.00  0.00     0.029 A 
ATOM     60  N   UNL A   1      41.559  29.871  34.205  1.00  0.00    -0.354 N 
ATOM     61  N   UNL A   1      39.404  30.854  32.482  1.00  0.00    -0.248 NA
ATOM     62  C   UNL A   1      37.428  32.065  32.193  1.00  0.00     0.031 C 
ATOM     63  C   UNL A   1      41.580  30.506  36.336  1.00  0.00     0.029 A 
ATOM     64  C   UNL A   1      40.880  30.630  35.147  1.00  0.00     0.049 A 
ATOM     65  H   UNL A   1      41.287  29.764  33.265  1.00  0.00     0.167 HD
ATOM     66  C   UNL A   1      39.059  31.457  33.684  1.00  0.00     0.074 A 
ATOM     67  C   UNL A   1      37.852  32.220  33.438  1.00  0.00     0.031 C 
ATOM     68  C   UNL A   1      39.682  31.383  34.885  1.00  0.00     0.037 A 
BRANCH  55  69
ATOM     69  C   UNL A   1      44.764  27.874  34.863  1.00  0.00     0.057 A 
ATOM     70  C   UNL A   1      44.700  26.626  35.497  1.00  0.00     0.134 A 
ATOM     71  C   UNL A   1      45.973  28.577  34.940  1.00  0.00     0.134 A 
ATOM     72  F   UNL A   1      43.567  25.908  35.472  1.00  0.00    -0.206 F 
ATOM     73  C   UNL A   1      45.792  26.105  36.194  1.00  0.00     0.040 A 
ATOM     74  C   UNL A   1      47.078  28.057  35.614  1.00  0.00     0.040 A 
ATOM     75  F   UNL A   1      46.102  29.775  34.350  1.00  0.00    -0.206 F 
ATOM     76  C   UNL A   1      46.988  26.820  36.248  1.00  0.00     0.006 A 
ENDBRANCH  55  69
BRANCH  56  77
ATOM     77  C   UNL A   1      37.234  31.407  29.356  1.00  0.00     0.057 A 
ATOM     78  C   UNL A   1      37.253  32.721  28.877  1.00  0.00     0.134 A 
ATOM     79  C   UNL A   1      36.105  30.631  29.068  1.00  0.00     0.134 A 
ATOM     80  F   UNL A   1      38.296  33.522  29.143  1.00  0.00    -0.206 F 
ATOM     81  C   UNL A   1      36.182  33.252  28.156  1.00  0.00     0.040 A 
ATOM     82  C   UNL A   1      35.038  31.140  28.326  1.00  0.00     0.040 A 
ATOM     83  F   UNL A   1      36.026  29.363  29.499  1.00  0.00    -0.206 F 
ATOM     84  C   UNL A   1      35.071  32.458  27.876  1.00  0.00     0.006 A 
ENDBRANCH  56  77
BRANCH  68  85
ATOM     85  C   UNL A   1      39.077  32.169  36.012  1.00  0.00     0.057 A 
ATOM     86  C   UNL A   1      38.155  31.597  36.898  1.00  0.00     0.134 A 
ATOM     87  C   UNL A   1      39.422  33.510  36.212  1.00  0.00     0.134 A 
ATOM     88  F   UNL A   1      37.771  30.319  36.750  1.00  0.00    -0.206 F 
ATOM     89  C   UNL A   1      37.575  32.341  37.926  1.00  0.00     0.040 A 
ATOM     90  C   UNL A   1      38.867  34.258  37.252  1.00  0.00     0.040 A 
ATOM     91  F   UNL A   1      40.304  34.117  35.404  1.00  0.00    -0.206 F 
ATOM     92  C   UNL A   1      37.933  33.676  38.107  1.00  0.00     0.006 A 
ENDBRANCH  68  85
ENDBRANCH  42  43
ENDBRANCH  35  37
ENDBRANCH  34  35
ENDBRANCH  33  34
ENDBRANCH  32  33
ENDBRANCH  31  32
ENDBRANCH  29  31
ENDBRANCH  27  29
ENDBRANCH   4  27
TORSDOF 22
ENDMDL
MODEL 3
REMARK VINA RESULT:     -10.6      4.835     10.619
REMARK SMILES CCCCCCCCNC(=O)Oc1cccc(-c2ccc([C@@H](C)C(=O)OCCOC(=O)c3ccc(-c4c5nc(c(-c6c(F)cccc6F)c6ccc([nH]6)c(-c6c(F)cccc6F)c6nc(c(-c7c(F)cccc7F)c7ccc4[nH]7)C=C6)C=C5)cc3)cc2F)c1
REMARK SMILES IDX 18 1 19 2 20 3 21 4 86 5 87 6 88 7 17 8 13 9 14 10 89 11
REMARK SMILES IDX 15 12 16 13 12 14 10 15 9 16 11 18 8 19 7 20 6 21 5 22 4 23
REMARK SMILES IDX 3 24 2 25 1 26 22 27 23 28 24 29 25 30 26 31 27 32 28 33
REMARK SMILES IDX 29 34 30 35 31 36 32 37 33 38 85 39 34 40 84 41 35 42 36 43
REMARK SMILES IDX 37 44 78 45 38 46 83 47 77 48 79 49 39 50 82 51 76 52 75 53
REMARK SMILES IDX 40 55 66 56 49 57 65 58 50 59 53 60 64 61 80 62 51 63 52 64
REMARK SMILES IDX 63 66 81 67 54 68 41 69 42 70 47 71 43 72 44 73 46 74 48 75
REMARK SMILES IDX 45 76 67 77 68 78 73 79 69 80 70 81 72 82 74 83 71 84 55 85
REMARK SMILES IDX 56 86 61 87 57 88 58 89 60 90 62 91 59 92
REMARK H PARENT 9 17 79 54 53 65
REMARK Flexibility Score: inf
ROOT
ATOM      1  C   UNL A   1      33.157  31.134  27.271  1.00  0.00     0.018 A 
ATOM      2  C   UNL A   1      34.377  31.286  27.951  1.00  0.00     0.012 A 
ATOM      3  C   UNL A   1      34.728  32.499  28.557  1.00  0.00     0.005 A 
ATOM      4  C   UNL A   1      33.873  33.607  28.498  1.00  0.00    -0.031 A 
ATOM      5  C   UNL A   1      32.658  33.461  27.813  1.00  0.00     0.044 A 
ATOM      6  C   UNL A   1      32.318  32.252  27.205  1.00  0.00     0.131 A 
ATOM      7  F   UNL A   1      31.132  32.176  26.579  1.00  0.00    -0.206 F 
ENDROOT
BRANCH   1   8
ATOM      8  C   UNL A   1      32.769  29.834  26.703  1.00  0.00    -0.012 A 
ATOM      9  C   UNL A   1      32.344  28.371  24.817  1.00  0.00     0.133 A 
ATOM     10  C   UNL A   1      31.964  27.335  25.668  1.00  0.00     0.047 A 
ATOM     11  C   UNL A   1      32.733  29.615  25.316  1.00  0.00     0.056 A 
ATOM     12  C   UNL A   1      31.995  27.537  27.043  1.00  0.00     0.004 A 
ATOM     13  C   UNL A   1      32.394  28.775  27.552  1.00  0.00     0.009 A 
BRANCH   9  14
ATOM     14  O   UNL A   1      32.187  28.141  23.442  1.00  0.00    -0.410 OA
BRANCH  14  15
ATOM     15  C   UNL A   1      33.325  27.984  22.667  1.00  0.00     0.412 C 
ATOM     16  N   UNL A   1      33.474  26.708  22.194  1.00  0.00    -0.321 N 
ATOM     17  H   UNL A   1      34.254  26.537  21.619  1.00  0.00     0.167 HD
ATOM     18  O   UNL A   1      34.155  28.849  22.414  1.00  0.00    -0.224 OA
BRANCH  16  19
ATOM     19  C   UNL A   1      32.598  25.582  22.455  1.00  0.00     0.119 C 
BRANCH  19  20
ATOM     20  C   UNL A   1      33.222  24.255  22.022  1.00  0.00     0.021 C 
BRANCH  20  21
ATOM     21  C   UNL A   1      34.119  23.591  23.076  1.00  0.00     0.002 C 
BRANCH  21  22
ATOM     22  C   UNL A   1      34.411  24.439  24.319  1.00  0.00     0.000 C 
BRANCH  22  23
ATOM     23  C   UNL A   1      35.550  23.925  25.204  1.00  0.00    -0.000 C 
BRANCH  23  24
ATOM     24  C   UNL A   1      36.446  22.861  24.562  1.00  0.00    -0.000 C 
BRANCH  24  25
ATOM     25  C   UNL A   1      36.490  21.514  25.290  1.00  0.00    -0.003 C 
ATOM     26  C   UNL A   1      35.238  20.674  25.087  1.00  0.00     0.004 C 
ENDBRANCH  24  25
ENDBRANCH  23  24
ENDBRANCH  22  23
ENDBRANCH  21  22
ENDBRANCH  20  21
ENDBRANCH  19  20
ENDBRANCH  16  19
ENDBRANCH  14  15
ENDBRANCH   9  14
ENDBRANCH   1   8
BRANCH   4  27
ATOM     27  C   UNL A   1      34.221  34.930  29.163  1.00  0.00     0.126 C 
ATOM     28  C   UNL A   1      34.183  36.103  28.186  1.00  0.00     0.025 C 
BRANCH  27  29
ATOM     29  C   UNL A   1      33.431  35.275  30.422  1.00  0.00     0.313 C 
ATOM     30  O   UNL A   1      32.204  35.268  30.441  1.00  0.00    -0.252 OA
BRANCH  29  31
ATOM     31  O   UNL A   1      34.211  35.537  31.503  1.00  0.00    -0.462 OA
BRANCH  31  32
ATOM     32  C   UNL A   1      35.140  34.511  31.901  1.00  0.00     0.274 C 
BRANCH  32  33
ATOM     33  C   UNL A   1      34.461  33.440  32.759  1.00  0.00     0.275 C 
BRANCH  33  34
ATOM     34  O   UNL A   1      35.110  32.163  32.615  1.00  0.00    -0.458 OA
BRANCH  34  35
ATOM     35  C   UNL A   1      36.312  32.065  33.228  1.00  0.00     0.338 C 
ATOM     36  O   UNL A   1      36.572  32.323  34.391  1.00  0.00    -0.246 OA
BRANCH  35  37
ATOM     37  C   UNL A   1      37.289  31.441  32.326  1.00  0.00     0.060 A 
ATOM     38  C   UNL A   1      38.413  30.856  32.907  1.00  0.00     0.016 A 
ATOM     39  C   UNL A   1      37.174  31.523  30.938  1.00  0.00     0.016 A 
ATOM     40  C   UNL A   1      39.449  30.379  32.114  1.00  0.00     0.010 A 
ATOM     41  C   UNL A   1      38.210  31.023  30.135  1.00  0.00     0.010 A 
ATOM     42  C   UNL A   1      39.362  30.467  30.719  1.00  0.00    -0.014 A 
BRANCH  42  43
ATOM     43  C   UNL A   1      40.517  30.013  29.907  1.00  0.00     0.031 A 
ATOM     44  C   UNL A   1      41.683  30.932  29.672  1.00  0.00     0.074 A 
ATOM     45  C   UNL A   1      40.554  28.746  29.455  1.00  0.00     0.049 A 
ATOM     46  N   UNL A   1      42.793  30.706  29.016  1.00  0.00    -0.248 NA
ATOM     47  C   UNL A   1      41.590  32.280  30.254  1.00  0.00     0.031 C 
ATOM     48  C   UNL A   1      39.503  27.747  29.657  1.00  0.00     0.029 A 
ATOM     49  N   UNL A   1      41.524  28.074  28.755  1.00  0.00    -0.354 N 
ATOM     50  C   UNL A   1      43.527  31.883  29.097  1.00  0.00     0.074 A 
ATOM     51  C   UNL A   1      42.726  32.829  29.844  1.00  0.00     0.031 C 
ATOM     52  C   UNL A   1      39.896  26.584  29.113  1.00  0.00     0.029 A 
ATOM     53  C   UNL A   1      41.206  26.764  28.494  1.00  0.00     0.049 A 
ATOM     54  H   UNL A   1      42.367  28.492  28.466  1.00  0.00     0.167 HD
ATOM     55  C   UNL A   1      44.761  32.147  28.603  1.00  0.00     0.037 A 
ATOM     56  C   UNL A   1      41.889  25.817  27.824  1.00  0.00     0.037 A 
ATOM     57  C   UNL A   1      45.565  31.201  27.872  1.00  0.00     0.049 A 
ATOM     58  C   UNL A   1      43.236  26.153  27.249  1.00  0.00     0.074 A 
ATOM     59  C   UNL A   1      46.825  31.379  27.326  1.00  0.00     0.029 A 
ATOM     60  N   UNL A   1      45.189  29.897  27.591  1.00  0.00    -0.354 N 
ATOM     61  N   UNL A   1      43.914  27.272  27.325  1.00  0.00    -0.248 NA
ATOM     62  C   UNL A   1      43.915  25.090  26.494  1.00  0.00     0.031 C 
ATOM     63  C   UNL A   1      47.197  30.192  26.685  1.00  0.00     0.029 A 
ATOM     64  C   UNL A   1      46.187  29.261  26.868  1.00  0.00     0.049 A 
ATOM     65  H   UNL A   1      44.339  29.482  27.864  1.00  0.00     0.167 HD
ATOM     66  C   UNL A   1      45.104  27.044  26.646  1.00  0.00     0.074 A 
ATOM     67  C   UNL A   1      45.065  25.671  26.186  1.00  0.00     0.031 C 
ATOM     68  C   UNL A   1      46.133  27.895  26.419  1.00  0.00     0.037 A 
BRANCH  55  69
ATOM     69  C   UNL A   1      45.312  33.525  28.822  1.00  0.00     0.057 A 
ATOM     70  C   UNL A   1      45.017  34.584  27.954  1.00  0.00     0.134 A 
ATOM     71  C   UNL A   1      46.114  33.805  29.935  1.00  0.00     0.134 A 
ATOM     72  F   UNL A   1      44.265  34.380  26.862  1.00  0.00    -0.206 F 
ATOM     73  C   UNL A   1      45.515  35.870  28.177  1.00  0.00     0.040 A 
ATOM     74  C   UNL A   1      46.598  35.090  30.181  1.00  0.00     0.040 A 
ATOM     75  F   UNL A   1      46.428  32.836  30.808  1.00  0.00    -0.206 F 
ATOM     76  C   UNL A   1      46.303  36.126  29.297  1.00  0.00     0.006 A 
ENDBRANCH  55  69
BRANCH  56  77
ATOM     77  C   UNL A   1      41.311  24.462  27.651  1.00  0.00     0.057 A 
ATOM     78  C   UNL A   1      41.783  23.371  28.389  1.00  0.00     0.134 A 
ATOM     79  C   UNL A   1      40.292  24.220  26.721  1.00  0.00     0.134 A 
ATOM     80  F   UNL A   1      42.775  23.535  29.277  1.00  0.00    -0.206 F 
ATOM     81  C   UNL A   1      41.276  22.085  28.197  1.00  0.00     0.040 A 
ATOM     82  C   UNL A   1      39.758  22.945  26.537  1.00  0.00     0.040 A 
ATOM     83  F   UNL A   1      39.797  25.224  25.982  1.00  0.00    -0.206 F 
ATOM     84  C   UNL A   1      40.258  21.870  27.270  1.00  0.00     0.006 A 
ENDBRANCH  56  77
BRANCH  68  85
ATOM     85  C   UNL A   1      47.308  27.350  25.660  1.00  0.00     0.057 A 
ATOM     86  C   UNL A   1      47.430  27.513  24.274  1.00  0.00     0.134 A 
ATOM     87  C   UNL A   1      48.327  26.658  26.323  1.00  0.00     0.134 A 
ATOM     88  F   UNL A   1      46.478  28.154  23.578  1.00  0.00    -0.206 F 
ATOM     89  C   UNL A   1      48.510  26.979  23.570  1.00  0.00     0.040 A 
ATOM     90  C   UNL A   1      49.425  26.141  25.633  1.00  0.00     0.040 A 
ATOM     91  F   UNL A   1      48.275  26.473  27.650  1.00  0.00    -0.206 F 
ATOM     92  C   UNL A   1      49.514  26.293  24.251  1.00  0.00     0.006 A 
ENDBRANCH  68  85
ENDBRANCH  42  43
ENDBRANCH  35  37
ENDBRANCH  34  35
ENDBRANCH  33  34
ENDBRANCH  32  33
ENDBRANCH  31  32
ENDBRANCH  29  31
ENDBRANCH  27  29
ENDBRANCH   4  27
TORSDOF 22
ENDMDL
