MODEL 1
REMARK VINA RESULT:     -11.2      0.000      0.000
REMARK SMILES C[C@@H](O)[C@@H](NC(=O)c1csc(-c2ccsc2)n1)C(=O)OCCOC(=O)c1ccc(-c2c3nc(c(-c4c(F)cccc4F)c4ccc([nH]4)c(-c4c(F)cccc4F)c4nc(c(-c5c(F)cccc5F)c5ccc2[nH]5)C=C4)C=C3)cc1
REMARK SMILES IDX 21 1 20 2 18 3 19 4 4 5 2 6 1 7 3 8 5 10 6 11 7 13 8 14 9 15
REMARK SMILES IDX 17 16 10 17 11 18 12 19 13 20 16 21 14 22 15 23 22 24 23 25
REMARK SMILES IDX 24 26 25 27 26 28 27 29 79 30 28 31 78 32 29 33 30 34 31 35
REMARK SMILES IDX 72 36 32 37 77 38 71 39 73 40 33 41 76 42 70 43 69 44 34 46
REMARK SMILES IDX 60 47 43 48 59 49 44 50 47 51 58 52 74 53 45 54 46 55 57 57
REMARK SMILES IDX 75 58 48 59 35 60 36 61 41 62 37 63 38 64 40 65 42 66 39 67
REMARK SMILES IDX 61 68 62 69 67 70 63 71 64 72 66 73 68 74 65 75 49 76 50 77
REMARK SMILES IDX 55 78 51 79 52 80 54 81 56 82 53 83
REMARK H PARENT 3 9 5 12 73 45 47 56
REMARK Flexibility Score: inf
ROOT
ATOM      1  C   UNL A   1      32.879  29.470  25.228  1.00  0.00     0.274 C 
ENDROOT
BRANCH   1   2
ATOM      2  O   UNL A   1      32.434  28.999  23.936  1.00  0.00    -0.460 OA
BRANCH   2   3
ATOM      3  C   UNL A   1      31.554  27.960  23.968  1.00  0.00     0.331 C 
ATOM      4  O   UNL A   1      31.206  27.396  24.998  1.00  0.00    -0.250 OA
BRANCH   3   5
ATOM      5  C   UNL A   1      31.045  27.521  22.592  1.00  0.00     0.221 C 
BRANCH   5   6
ATOM      6  C   UNL A   1      30.148  28.649  21.991  1.00  0.00     0.145 C 
ATOM      7  C   UNL A   1      29.123  29.194  22.986  1.00  0.00     0.041 C 
BRANCH   6   8
ATOM      8  O   UNL A   1      30.913  29.800  21.631  1.00  0.00    -0.391 OA
ATOM      9  H   UNL A   1      31.082  30.338  22.421  1.00  0.00     0.211 HD
ENDBRANCH   6   8
ENDBRANCH   5   6
BRANCH   5  10
ATOM     10  N   UNL A   1      32.067  27.052  21.631  1.00  0.00    -0.335 N 
ATOM     11  C   UNL A   1      32.490  25.777  21.325  1.00  0.00     0.271 C 
ATOM     12  H   UNL A   1      32.519  27.767  21.128  1.00  0.00     0.164 HD
ATOM     13  O   UNL A   1      32.893  25.562  20.185  1.00  0.00    -0.267 OA
BRANCH  11  14
ATOM     14  C   UNL A   1      32.691  24.820  22.406  1.00  0.00     0.139 A 
ATOM     15  C   UNL A   1      31.625  24.215  23.044  1.00  0.00     0.101 A 
ATOM     16  N   UNL A   1      33.938  24.444  22.889  1.00  0.00    -0.231 NA
ATOM     17  S   UNL A   1      32.189  23.024  24.132  1.00  0.00    -0.122 S 
ATOM     18  C   UNL A   1      33.811  23.402  23.691  1.00  0.00     0.125 A 
BRANCH  18  19
ATOM     19  C   UNL A   1      34.993  22.551  24.082  1.00  0.00     0.021 A 
ATOM     20  C   UNL A   1      34.902  21.250  24.663  1.00  0.00     0.023 A 
ATOM     21  C   UNL A   1      36.305  22.978  24.005  1.00  0.00     0.076 A 
ATOM     22  C   UNL A   1      36.136  20.737  24.997  1.00  0.00     0.065 A 
ATOM     23  S   UNL A   1      37.403  21.830  24.645  1.00  0.00    -0.152 S 
ENDBRANCH  18  19
ENDBRANCH  11  14
ENDBRANCH   5  10
ENDBRANCH   3   5
ENDBRANCH   2   3
ENDBRANCH   1   2
BRANCH   1  24
ATOM     24  C   UNL A   1      31.999  30.540  25.896  1.00  0.00     0.275 C 
BRANCH  24  25
ATOM     25  O   UNL A   1      32.370  30.817  27.260  1.00  0.00    -0.458 OA
BRANCH  25  26
ATOM     26  C   UNL A   1      33.185  31.885  27.405  1.00  0.00     0.338 C 
ATOM     27  O   UNL A   1      32.835  33.061  27.347  1.00  0.00    -0.246 OA
BRANCH  26  28
ATOM     28  C   UNL A   1      34.548  31.491  27.825  1.00  0.00     0.060 A 
ATOM     29  C   UNL A   1      34.755  30.142  28.146  1.00  0.00     0.016 A 
ATOM     30  C   UNL A   1      35.578  32.415  28.001  1.00  0.00     0.016 A 
ATOM     31  C   UNL A   1      35.957  29.717  28.694  1.00  0.00     0.010 A 
ATOM     32  C   UNL A   1      36.785  31.991  28.572  1.00  0.00     0.010 A 
ATOM     33  C   UNL A   1      36.961  30.649  28.960  1.00  0.00    -0.014 A 
BRANCH  33  34
ATOM     34  C   UNL A   1      38.090  30.241  29.826  1.00  0.00     0.031 A 
ATOM     35  C   UNL A   1      39.140  29.331  29.250  1.00  0.00     0.074 A 
ATOM     36  C   UNL A   1      38.231  30.736  31.068  1.00  0.00     0.049 A 
ATOM     37  N   UNL A   1      40.185  28.797  29.826  1.00  0.00    -0.248 NA
ATOM     38  C   UNL A   1      38.992  28.983  27.827  1.00  0.00     0.031 C 
ATOM     39  C   UNL A   1      37.333  31.698  31.702  1.00  0.00     0.029 A 
ATOM     40  N   UNL A   1      39.194  30.494  32.014  1.00  0.00    -0.354 N 
ATOM     41  C   UNL A   1      40.807  28.036  28.844  1.00  0.00     0.074 A 
ATOM     42  C   UNL A   1      40.016  28.164  27.640  1.00  0.00     0.031 C 
ATOM     43  C   UNL A   1      37.781  31.958  32.943  1.00  0.00     0.029 A 
ATOM     44  C   UNL A   1      38.974  31.153  33.199  1.00  0.00     0.049 A 
ATOM     45  H   UNL A   1      39.967  29.906  31.859  1.00  0.00     0.167 HD
ATOM     46  C   UNL A   1      41.938  27.297  28.937  1.00  0.00     0.037 A 
ATOM     47  C   UNL A   1      39.648  31.086  34.363  1.00  0.00     0.037 A 
ATOM     48  C   UNL A   1      42.730  27.180  30.132  1.00  0.00     0.049 A 
ATOM     49  C   UNL A   1      40.858  30.197  34.466  1.00  0.00     0.074 A 
ATOM     50  C   UNL A   1      43.881  26.441  30.336  1.00  0.00     0.029 A 
ATOM     51  N   UNL A   1      42.451  27.827  31.326  1.00  0.00    -0.354 N 
ATOM     52  N   UNL A   1      41.419  29.451  33.546  1.00  0.00    -0.248 NA
ATOM     53  C   UNL A   1      41.527  30.137  35.774  1.00  0.00     0.031 C 
ATOM     54  C   UNL A   1      44.280  26.614  31.667  1.00  0.00     0.029 A 
ATOM     55  C   UNL A   1      43.401  27.494  32.276  1.00  0.00     0.049 A 
ATOM     56  H   UNL A   1      41.690  28.434  31.476  1.00  0.00     0.167 HD
ATOM     57  C   UNL A   1      42.521  28.858  34.152  1.00  0.00     0.074 A 
ATOM     58  C   UNL A   1      42.554  29.339  35.517  1.00  0.00     0.031 C 
ATOM     59  C   UNL A   1      43.425  27.995  33.627  1.00  0.00     0.037 A 
BRANCH  46  60
ATOM     60  C   UNL A   1      42.356  26.528  27.721  1.00  0.00     0.057 A 
ATOM     61  C   UNL A   1      43.242  27.058  26.775  1.00  0.00     0.134 A 
ATOM     62  C   UNL A   1      41.871  25.232  27.499  1.00  0.00     0.134 A 
ATOM     63  F   UNL A   1      43.727  28.300  26.918  1.00  0.00    -0.206 F 
ATOM     64  C   UNL A   1      43.613  26.335  25.639  1.00  0.00     0.040 A 
ATOM     65  C   UNL A   1      42.253  24.492  26.381  1.00  0.00     0.040 A 
ATOM     66  F   UNL A   1      41.019  24.666  28.367  1.00  0.00    -0.206 F 
ATOM     67  C   UNL A   1      43.123  25.046  25.443  1.00  0.00     0.006 A 
ENDBRANCH  46  60
BRANCH  47  68
ATOM     68  C   UNL A   1      39.180  31.863  35.539  1.00  0.00     0.057 A 
ATOM     69  C   UNL A   1      38.256  31.328  36.443  1.00  0.00     0.134 A 
ATOM     70  C   UNL A   1      39.622  33.172  35.767  1.00  0.00     0.134 A 
ATOM     71  F   UNL A   1      37.775  30.089  36.263  1.00  0.00    -0.206 F 
ATOM     72  C   UNL A   1      37.777  32.070  37.524  1.00  0.00     0.040 A 
ATOM     73  C   UNL A   1      39.170  33.917  36.856  1.00  0.00     0.040 A 
ATOM     74  F   UNL A   1      40.503  33.743  34.934  1.00  0.00    -0.206 F 
ATOM     75  C   UNL A   1      38.238  33.368  37.735  1.00  0.00     0.006 A 
ENDBRANCH  47  68
BRANCH  59  76
ATOM     76  C   UNL A   1      44.549  27.552  34.516  1.00  0.00     0.057 A 
ATOM     77  C   UNL A   1      45.749  28.268  34.605  1.00  0.00     0.134 A 
ATOM     78  C   UNL A   1      44.412  26.413  35.318  1.00  0.00     0.134 A 
ATOM     79  F   UNL A   1      45.946  29.362  33.852  1.00  0.00    -0.206 F 
ATOM     80  C   UNL A   1      46.783  27.854  35.445  1.00  0.00     0.040 A 
ATOM     81  C   UNL A   1      45.429  26.002  36.181  1.00  0.00     0.040 A 
ATOM     82  F   UNL A   1      43.283  25.688  35.287  1.00  0.00    -0.206 F 
ATOM     83  C   UNL A   1      46.621  26.720  36.241  1.00  0.00     0.006 A 
ENDBRANCH  59  76
ENDBRANCH  33  34
ENDBRANCH  26  28
ENDBRANCH  25  26
ENDBRANCH  24  25
ENDBRANCH   1  24
TORSDOF 16
ENDMDL
MODEL 2
REMARK VINA RESULT:     -11.0      4.728      8.952
REMARK SMILES C[C@@H](O)[C@@H](NC(=O)c1csc(-c2ccsc2)n1)C(=O)OCCOC(=O)c1ccc(-c2c3nc(c(-c4c(F)cccc4F)c4ccc([nH]4)c(-c4c(F)cccc4F)c4nc(c(-c5c(F)cccc5F)c5ccc2[nH]5)C=C4)C=C3)cc1
REMARK SMILES IDX 21 1 20 2 18 3 19 4 4 5 2 6 1 7 3 8 5 10 6 11 7 13 8 14 9 15
REMARK SMILES IDX 17 16 10 17 11 18 12 19 13 20 16 21 14 22 15 23 22 24 23 25
REMARK SMILES IDX 24 26 25 27 26 28 27 29 79 30 28 31 78 32 29 33 30 34 31 35
REMARK SMILES IDX 72 36 32 37 77 38 71 39 73 40 33 41 76 42 70 43 69 44 34 46
REMARK SMILES IDX 60 47 43 48 59 49 44 50 47 51 58 52 74 53 45 54 46 55 57 57
REMARK SMILES IDX 75 58 48 59 35 60 36 61 41 62 37 63 38 64 40 65 42 66 39 67
REMARK SMILES IDX 61 68 62 69 67 70 63 71 64 72 66 73 68 74 65 75 49 76 50 77
REMARK SMILES IDX 55 78 51 79 52 80 54 81 56 82 53 83
REMARK H PARENT 3 9 5 12 73 45 47 56
REMARK Flexibility Score: inf
ROOT
ATOM      1  C   UNL A   1      34.440  34.864  33.400  1.00  0.00     0.274 C 
ENDROOT
BRANCH   1   2
ATOM      2  O   UNL A   1      34.360  35.584  32.150  1.00  0.00    -0.460 OA
BRANCH   2   3
ATOM      3  C   UNL A   1      33.206  35.405  31.448  1.00  0.00     0.331 C 
ATOM      4  O   UNL A   1      32.091  35.453  31.952  1.00  0.00    -0.250 OA
BRANCH   3   5
ATOM      5  C   UNL A   1      33.411  35.103  29.961  1.00  0.00     0.221 C 
BRANCH   5   6
ATOM      6  C   UNL A   1      33.353  36.437  29.152  1.00  0.00     0.145 C 
ATOM      7  C   UNL A   1      34.393  36.504  28.032  1.00  0.00     0.041 C 
BRANCH   6   8
ATOM      8  O   UNL A   1      32.110  36.588  28.466  1.00  0.00    -0.391 OA
ATOM      9  H   UNL A   1      31.405  36.157  28.974  1.00  0.00     0.211 HD
ENDBRANCH   6   8
ENDBRANCH   5   6
BRANCH   5  10
ATOM     10  N   UNL A   1      34.599  34.292  29.612  1.00  0.00    -0.335 N 
ATOM     11  C   UNL A   1      34.856  33.511  28.506  1.00  0.00     0.271 C 
ATOM     12  H   UNL A   1      35.323  34.314  30.278  1.00  0.00     0.164 HD
ATOM     13  O   UNL A   1      36.025  33.394  28.144  1.00  0.00    -0.267 OA
BRANCH  11  14
ATOM     14  C   UNL A   1      33.798  32.661  27.979  1.00  0.00     0.139 A 
ATOM     15  C   UNL A   1      32.610  33.190  27.509  1.00  0.00     0.101 A 
ATOM     16  N   UNL A   1      33.875  31.276  27.908  1.00  0.00    -0.231 NA
ATOM     17  S   UNL A   1      31.657  31.963  26.801  1.00  0.00    -0.122 S 
ATOM     18  C   UNL A   1      32.880  30.809  27.177  1.00  0.00     0.125 A 
BRANCH  18  19
ATOM     19  C   UNL A   1      32.890  29.405  26.624  1.00  0.00     0.021 A 
ATOM     20  C   UNL A   1      31.731  28.696  26.185  1.00  0.00     0.023 A 
ATOM     21  C   UNL A   1      34.020  28.611  26.566  1.00  0.00     0.076 A 
ATOM     22  C   UNL A   1      32.019  27.403  25.807  1.00  0.00     0.065 A 
ATOM     23  S   UNL A   1      33.676  27.029  26.009  1.00  0.00    -0.152 S 
ENDBRANCH  18  19
ENDBRANCH  11  14
ENDBRANCH   5  10
ENDBRANCH   3   5
ENDBRANCH   2   3
ENDBRANCH   1   2
BRANCH   1  24
ATOM     24  C   UNL A   1      34.229  33.343  33.317  1.00  0.00     0.275 C 
BRANCH  24  25
ATOM     25  O   UNL A   1      35.174  32.679  32.455  1.00  0.00    -0.458 OA
BRANCH  25  26
ATOM     26  C   UNL A   1      36.271  32.213  33.092  1.00  0.00     0.338 C 
ATOM     27  O   UNL A   1      36.490  32.313  34.297  1.00  0.00    -0.246 OA
BRANCH  26  28
ATOM     28  C   UNL A   1      37.122  31.393  32.203  1.00  0.00     0.060 A 
ATOM     29  C   UNL A   1      38.049  30.537  32.813  1.00  0.00     0.016 A 
ATOM     30  C   UNL A   1      37.099  31.518  30.814  1.00  0.00     0.016 A 
ATOM     31  C   UNL A   1      38.989  29.849  32.058  1.00  0.00     0.010 A 
ATOM     32  C   UNL A   1      38.059  30.840  30.051  1.00  0.00     0.010 A 
ATOM     33  C   UNL A   1      39.033  30.038  30.676  1.00  0.00    -0.014 A 
BRANCH  33  34
ATOM     34  C   UNL A   1      40.224  29.559  29.937  1.00  0.00     0.031 A 
ATOM     35  C   UNL A   1      41.378  30.505  29.753  1.00  0.00     0.074 A 
ATOM     36  C   UNL A   1      40.319  28.286  29.517  1.00  0.00     0.049 A 
ATOM     37  N   UNL A   1      42.498  30.335  29.100  1.00  0.00    -0.248 NA
ATOM     38  C   UNL A   1      41.252  31.822  30.401  1.00  0.00     0.031 C 
ATOM     39  C   UNL A   1      39.310  27.250  29.721  1.00  0.00     0.029 A 
ATOM     40  N   UNL A   1      41.324  27.652  28.832  1.00  0.00    -0.354 N 
ATOM     41  C   UNL A   1      43.200  31.526  29.241  1.00  0.00     0.074 A 
ATOM     42  C   UNL A   1      42.375  32.416  30.029  1.00  0.00     0.031 C 
ATOM     43  C   UNL A   1      39.742  26.106  29.161  1.00  0.00     0.029 A 
ATOM     44  C   UNL A   1      41.039  26.343  28.530  1.00  0.00     0.049 A 
ATOM     45  H   UNL A   1      42.168  28.092  28.582  1.00  0.00     0.167 HD
ATOM     46  C   UNL A   1      44.423  31.849  28.759  1.00  0.00     0.037 A 
ATOM     47  C   UNL A   1      41.738  25.452  27.801  1.00  0.00     0.037 A 
ATOM     48  C   UNL A   1      45.246  30.958  27.986  1.00  0.00     0.049 A 
ATOM     49  C   UNL A   1      43.061  25.858  27.209  1.00  0.00     0.074 A 
ATOM     50  C   UNL A   1      46.492  31.195  27.434  1.00  0.00     0.029 A 
ATOM     51  N   UNL A   1      44.904  29.654  27.662  1.00  0.00    -0.354 N 
ATOM     52  N   UNL A   1      43.702  26.997  27.314  1.00  0.00    -0.248 NA
ATOM     53  C   UNL A   1      43.757  24.854  26.391  1.00  0.00     0.031 C 
ATOM     54  C   UNL A   1      46.890  30.043  26.744  1.00  0.00     0.029 A 
ATOM     55  C   UNL A   1      45.909  29.077  26.905  1.00  0.00     0.049 A 
ATOM     56  H   UNL A   1      44.070  29.205  27.930  1.00  0.00     0.167 HD
ATOM     57  C   UNL A   1      44.886  26.837  26.604  1.00  0.00     0.074 A 
ATOM     58  C   UNL A   1      44.879  25.488  26.080  1.00  0.00     0.031 C 
ATOM     59  C   UNL A   1      45.890  27.726  26.404  1.00  0.00     0.037 A 
BRANCH  46  60
ATOM     60  C   UNL A   1      44.920  33.238  29.023  1.00  0.00     0.057 A 
ATOM     61  C   UNL A   1      45.710  33.545  30.138  1.00  0.00     0.134 A 
ATOM     62  C   UNL A   1      44.609  34.281  28.141  1.00  0.00     0.134 A 
ATOM     63  F   UNL A   1      46.026  32.595  31.030  1.00  0.00    -0.206 F 
ATOM     64  C   UNL A   1      46.155  34.847  30.378  1.00  0.00     0.040 A 
ATOM     65  C   UNL A   1      45.068  35.581  28.359  1.00  0.00     0.040 A 
ATOM     66  F   UNL A   1      43.855  34.054  27.055  1.00  0.00    -0.206 F 
ATOM     67  C   UNL A   1      45.839  35.867  29.484  1.00  0.00     0.006 A 
ENDBRANCH  46  60
BRANCH  47  68
ATOM     68  C   UNL A   1      41.190  24.093  27.563  1.00  0.00     0.057 A 
ATOM     69  C   UNL A   1      41.700  22.975  28.234  1.00  0.00     0.134 A 
ATOM     70  C   UNL A   1      40.165  23.875  26.634  1.00  0.00     0.134 A 
ATOM     71  F   UNL A   1      42.701  23.115  29.115  1.00  0.00    -0.206 F 
ATOM     72  C   UNL A   1      41.221  21.689  27.979  1.00  0.00     0.040 A 
ATOM     73  C   UNL A   1      39.660  22.599  26.388  1.00  0.00     0.040 A 
ATOM     74  F   UNL A   1      39.638  24.904  25.955  1.00  0.00    -0.206 F 
ATOM     75  C   UNL A   1      40.193  21.499  27.057  1.00  0.00     0.006 A 
ENDBRANCH  47  68
BRANCH  59  76
ATOM     76  C   UNL A   1      47.081  27.254  25.625  1.00  0.00     0.057 A 
ATOM     77  C   UNL A   1      47.234  27.536  24.262  1.00  0.00     0.134 A 
ATOM     78  C   UNL A   1      48.104  26.537  26.258  1.00  0.00     0.134 A 
ATOM     79  F   UNL A   1      46.282  28.209  23.596  1.00  0.00    -0.206 F 
ATOM     80  C   UNL A   1      48.353  27.102  23.550  1.00  0.00     0.040 A 
ATOM     81  C   UNL A   1      49.239  26.119  25.562  1.00  0.00     0.040 A 
ATOM     82  F   UNL A   1      48.023  26.242  27.564  1.00  0.00    -0.206 F 
ATOM     83  C   UNL A   1      49.363  26.396  24.203  1.00  0.00     0.006 A 
ENDBRANCH  59  76
ENDBRANCH  33  34
ENDBRANCH  26  28
ENDBRANCH  25  26
ENDBRANCH  24  25
ENDBRANCH   1  24
TORSDOF 16
ENDMDL
MODEL 3
REMARK VINA RESULT:     -11.0      1.904      2.831
REMARK SMILES C[C@@H](O)[C@@H](NC(=O)c1csc(-c2ccsc2)n1)C(=O)OCCOC(=O)c1ccc(-c2c3nc(c(-c4c(F)cccc4F)c4ccc([nH]4)c(-c4c(F)cccc4F)c4nc(c(-c5c(F)cccc5F)c5ccc2[nH]5)C=C4)C=C3)cc1
REMARK SMILES IDX 21 1 20 2 18 3 19 4 4 5 2 6 1 7 3 8 5 10 6 11 7 13 8 14 9 15
REMARK SMILES IDX 17 16 10 17 11 18 12 19 13 20 16 21 14 22 15 23 22 24 23 25
REMARK SMILES IDX 24 26 25 27 26 28 27 29 79 30 28 31 78 32 29 33 30 34 31 35
REMARK SMILES IDX 72 36 32 37 77 38 71 39 73 40 33 41 76 42 70 43 69 44 34 46
REMARK SMILES IDX 60 47 43 48 59 49 44 50 47 51 58 52 74 53 45 54 46 55 57 57
REMARK SMILES IDX 75 58 48 59 35 60 36 61 41 62 37 63 38 64 40 65 42 66 39 67
REMARK SMILES IDX 61 68 62 69 67 70 63 71 64 72 66 73 68 74 65 75 49 76 50 77
REMARK SMILES IDX 55 78 51 79 52 80 54 81 56 82 53 83
REMARK H PARENT 3 9 5 12 73 45 47 56
REMARK Flexibility Score: inf
ROOT
ATOM      1  C   UNL A   1      31.893  28.195  27.638  1.00  0.00     0.274 C 
ENDROOT
BRANCH   1   2
ATOM      2  O   UNL A   1      31.023  27.199  27.055  1.00  0.00    -0.460 OA
BRANCH   2   3
ATOM      3  C   UNL A   1      31.643  26.274  26.271  1.00  0.00     0.331 C 
ATOM      4  O   UNL A   1      32.856  26.105  26.250  1.00  0.00    -0.250 OA
BRANCH   3   5
ATOM      5  C   UNL A   1      30.696  25.466  25.379  1.00  0.00     0.221 C 
BRANCH   5   6
ATOM      6  C   UNL A   1      31.497  24.888  24.168  1.00  0.00     0.145 C 
ATOM      7  C   UNL A   1      30.613  24.150  23.163  1.00  0.00     0.041 C 
BRANCH   6   8
ATOM      8  O   UNL A   1      32.101  25.922  23.390  1.00  0.00    -0.391 OA
ATOM      9  H   UNL A   1      31.833  26.788  23.736  1.00  0.00     0.211 HD
ENDBRANCH   6   8
ENDBRANCH   5   6
BRANCH   5  10
ATOM     10  N   UNL A   1      29.882  24.429  26.051  1.00  0.00    -0.335 N 
ATOM     11  C   UNL A   1      30.261  23.371  26.848  1.00  0.00     0.271 C 
ATOM     12  H   UNL A   1      28.912  24.509  25.906  1.00  0.00     0.164 HD
ATOM     13  O   UNL A   1      29.480  22.998  27.720  1.00  0.00    -0.267 OA
BRANCH  11  14
ATOM     14  C   UNL A   1      31.425  22.581  26.468  1.00  0.00     0.139 A 
ATOM     15  C   UNL A   1      32.656  22.770  27.068  1.00  0.00     0.101 A 
ATOM     16  N   UNL A   1      31.410  21.596  25.489  1.00  0.00    -0.231 NA
ATOM     17  S   UNL A   1      33.760  21.581  26.536  1.00  0.00    -0.122 S 
ATOM     18  C   UNL A   1      32.533  20.902  25.536  1.00  0.00     0.125 A 
BRANCH  18  19
ATOM     19  C   UNL A   1      32.668  19.563  24.855  1.00  0.00     0.021 A 
ATOM     20  C   UNL A   1      32.493  19.341  23.455  1.00  0.00     0.023 A 
ATOM     21  C   UNL A   1      32.888  18.377  25.530  1.00  0.00     0.076 A 
ATOM     22  C   UNL A   1      32.592  18.009  23.119  1.00  0.00     0.065 A 
ATOM     23  S   UNL A   1      32.862  17.019  24.487  1.00  0.00    -0.152 S 
ENDBRANCH  18  19
ENDBRANCH  11  14
ENDBRANCH   5  10
ENDBRANCH   3   5
ENDBRANCH   2   3
ENDBRANCH   1   2
BRANCH   1  24
ATOM     24  C   UNL A   1      31.771  29.616  27.063  1.00  0.00     0.275 C 
BRANCH  24  25
ATOM     25  O   UNL A   1      33.004  30.119  26.511  1.00  0.00    -0.458 OA
BRANCH  25  26
ATOM     26  C   UNL A   1      33.497  31.200  27.155  1.00  0.00     0.338 C 
ATOM     27  O   UNL A   1      32.857  32.209  27.442  1.00  0.00    -0.246 OA
BRANCH  26  28
ATOM     28  C   UNL A   1      34.872  30.974  27.649  1.00  0.00     0.060 A 
ATOM     29  C   UNL A   1      35.267  29.647  27.861  1.00  0.00     0.016 A 
ATOM     30  C   UNL A   1      35.729  32.020  27.994  1.00  0.00     0.016 A 
ATOM     31  C   UNL A   1      36.482  29.352  28.467  1.00  0.00     0.010 A 
ATOM     32  C   UNL A   1      36.947  31.726  28.622  1.00  0.00     0.010 A 
ATOM     33  C   UNL A   1      37.305  30.393  28.899  1.00  0.00    -0.014 A 
BRANCH  33  34
ATOM     34  C   UNL A   1      38.423  30.072  29.816  1.00  0.00     0.031 A 
ATOM     35  C   UNL A   1      39.516  29.167  29.319  1.00  0.00     0.074 A 
ATOM     36  C   UNL A   1      38.515  30.641  31.030  1.00  0.00     0.049 A 
ATOM     37  N   UNL A   1      40.562  28.701  29.951  1.00  0.00    -0.248 NA
ATOM     38  C   UNL A   1      39.418  28.733  27.915  1.00  0.00     0.031 C 
ATOM     39  C   UNL A   1      37.570  31.607  31.585  1.00  0.00     0.029 A 
ATOM     40  N   UNL A   1      39.459  30.485  32.012  1.00  0.00    -0.354 N 
ATOM     41  C   UNL A   1      41.234  27.906  29.030  1.00  0.00     0.074 A 
ATOM     42  C   UNL A   1      40.472  27.940  27.801  1.00  0.00     0.031 C 
ATOM     43  C   UNL A   1      37.976  31.952  32.820  1.00  0.00     0.029 A 
ATOM     44  C   UNL A   1      39.187  31.202  33.151  1.00  0.00     0.049 A 
ATOM     45  H   UNL A   1      40.254  29.915  31.911  1.00  0.00     0.167 HD
ATOM     46  C   UNL A   1      42.384  27.212  29.193  1.00  0.00     0.037 A 
ATOM     47  C   UNL A   1      39.831  31.224  34.334  1.00  0.00     0.037 A 
ATOM     48  C   UNL A   1      43.147  27.188  30.412  1.00  0.00     0.049 A 
ATOM     49  C   UNL A   1      41.065  30.383  34.518  1.00  0.00     0.074 A 
ATOM     50  C   UNL A   1      44.316  26.501  30.687  1.00  0.00     0.029 A 
ATOM     51  N   UNL A   1      42.816  27.893  31.560  1.00  0.00    -0.354 N 
ATOM     52  N   UNL A   1      41.675  29.605  33.656  1.00  0.00    -0.248 NA
ATOM     53  C   UNL A   1      41.700  30.419  35.844  1.00  0.00     0.031 C 
ATOM     54  C   UNL A   1      44.673  26.762  32.016  1.00  0.00     0.029 A 
ATOM     55  C   UNL A   1      43.751  27.646  32.551  1.00  0.00     0.049 A 
ATOM     56  H   UNL A   1      42.032  28.482  31.655  1.00  0.00     0.167 HD
ATOM     57  C   UNL A   1      42.777  29.084  34.323  1.00  0.00     0.074 A 
ATOM     58  C   UNL A   1      42.758  29.642  35.659  1.00  0.00     0.031 C 
ATOM     59  C   UNL A   1      43.722  28.223  33.871  1.00  0.00     0.037 A 
BRANCH  46  60
ATOM     60  C   UNL A   1      42.860  26.389  28.034  1.00  0.00     0.057 A 
ATOM     61  C   UNL A   1      42.445  25.065  27.844  1.00  0.00     0.134 A 
ATOM     62  C   UNL A   1      43.739  26.934  27.090  1.00  0.00     0.134 A 
ATOM     63  F   UNL A   1      41.620  24.478  28.723  1.00  0.00    -0.206 F 
ATOM     64  C   UNL A   1      42.906  24.305  26.767  1.00  0.00     0.040 A 
ATOM     65  C   UNL A   1      44.187  26.193  25.997  1.00  0.00     0.040 A 
ATOM     66  F   UNL A   1      44.175  28.197  27.214  1.00  0.00    -0.206 F 
ATOM     67  C   UNL A   1      43.775  24.871  25.837  1.00  0.00     0.006 A 
ENDBRANCH  46  60
BRANCH  47  68
ATOM     68  C   UNL A   1      39.307  32.050  35.451  1.00  0.00     0.057 A 
ATOM     69  C   UNL A   1      38.382  31.534  36.365  1.00  0.00     0.134 A 
ATOM     70  C   UNL A   1      39.696  33.386  35.610  1.00  0.00     0.134 A 
ATOM     71  F   UNL A   1      37.950  30.270  36.249  1.00  0.00    -0.206 F 
ATOM     72  C   UNL A   1      37.850  32.320  37.389  1.00  0.00     0.040 A 
ATOM     73  C   UNL A   1      39.192  34.176  36.644  1.00  0.00     0.040 A 
ATOM     74  F   UNL A   1      40.575  33.940  34.764  1.00  0.00    -0.206 F 
ATOM     75  C   UNL A   1      38.259  33.645  37.533  1.00  0.00     0.006 A 
ENDBRANCH  47  68
BRANCH  59  76
ATOM     76  C   UNL A   1      44.835  27.869  34.812  1.00  0.00     0.057 A 
ATOM     77  C   UNL A   1      44.768  26.750  35.650  1.00  0.00     0.134 A 
ATOM     78  C   UNL A   1      46.004  28.639  34.851  1.00  0.00     0.134 A 
ATOM     79  F   UNL A   1      43.670  25.978  35.668  1.00  0.00    -0.206 F 
ATOM     80  C   UNL A   1      45.815  26.422  36.512  1.00  0.00     0.040 A 
ATOM     81  C   UNL A   1      47.068  28.308  35.690  1.00  0.00     0.040 A 
ATOM     82  F   UNL A   1      46.135  29.719  34.066  1.00  0.00    -0.206 F 
ATOM     83  C   UNL A   1      46.973  27.200  36.529  1.00  0.00     0.006 A 
ENDBRANCH  59  76
ENDBRANCH  33  34
ENDBRANCH  26  28
ENDBRANCH  25  26
ENDBRANCH  24  25
ENDBRANCH   1  24
TORSDOF 16
ENDMDL
