MODEL 1
REMARK VINA RESULT:     -11.8      0.000      0.000
REMARK SMILES C#Cc1cc(Cl)c2c(c1)C=C(C(=O)OCCOC(=O)c1ccc(-c3c4nc(c(-c5c(F)cccc5F)c5ccc([nH]5)c(-c5c(F)cccc5F)c5nc(c(-c6c(F)cccc6F)c6ccc3[nH]6)C=C5)C=C4)cc1)[C@@H](C(F)(F)F)O2
REMARK SMILES IDX 16 1 15 2 14 3 12 4 13 5 11 6 3 7 4 8 9 9 5 10 8 11 6 12
REMARK SMILES IDX 7 13 10 14 79 15 74 16 2 17 1 18 75 19 76 20 77 21 78 22
REMARK SMILES IDX 17 23 18 24 19 25 20 26 21 27 73 28 22 29 72 30 23 31 24 32
REMARK SMILES IDX 25 33 66 34 26 35 71 36 65 37 67 38 27 39 70 40 64 41 63 42
REMARK SMILES IDX 28 44 54 45 37 46 53 47 38 48 41 49 52 50 68 51 39 52 40 53
REMARK SMILES IDX 51 55 69 56 42 57 29 58 30 59 35 60 31 61 32 62 34 63 36 64
REMARK SMILES IDX 33 65 55 66 56 67 61 68 57 69 58 70 60 71 62 72 59 73 43 74
REMARK SMILES IDX 44 75 49 76 45 77 46 78 48 79 50 80 47 81
REMARK H PARENT 67 43 41 54
REMARK Flexibility Score: inf
ROOT
ATOM      1  C   UNL A   1      31.808  30.010  25.338  1.00  0.00     0.275 C 
ENDROOT
BRANCH   1   2
ATOM      2  C   UNL A   1      31.599  28.604  24.770  1.00  0.00     0.275 C 
BRANCH   2   3
ATOM      3  O   UNL A   1      32.339  27.614  25.521  1.00  0.00    -0.459 OA
BRANCH   3   4
ATOM      4  C   UNL A   1      31.589  26.717  26.199  1.00  0.00     0.338 C 
ATOM      5  O   UNL A   1      30.657  26.967  26.947  1.00  0.00    -0.246 OA
BRANCH   4   6
ATOM      6  C   UNL A   1      32.029  25.336  25.913  1.00  0.00     0.087 C 
ATOM      7  C   UNL A   1      35.705  22.284  25.279  1.00  0.00     0.027 A 
ATOM      8  C   UNL A   1      34.849  21.361  24.682  1.00  0.00     0.041 A 
ATOM      9  C   UNL A   1      35.188  23.476  25.783  1.00  0.00     0.029 A 
ATOM     10  C   UNL A   1      33.478  21.635  24.590  1.00  0.00     0.084 A 
ATOM     11  C   UNL A   1      33.818  23.754  25.670  1.00  0.00     0.020 A 
ATOM     12  Cl  UNL A   1      32.461  20.460  23.835  1.00  0.00    -0.080 Cl
ATOM     13  C   UNL A   1      32.951  22.839  25.077  1.00  0.00     0.146 A 
ATOM     14  C   UNL A   1      33.312  25.030  26.126  1.00  0.00     0.027 C 
ATOM     15  O   UNL A   1      31.603  23.069  24.966  1.00  0.00    -0.474 OA
ATOM     16  C   UNL A   1      31.073  24.399  25.238  1.00  0.00     0.316 C 
BRANCH   7  17
ATOM     17  C   UNL A   1      37.112  22.035  25.363  1.00  0.00    -0.070 C 
ATOM     18  C   UNL A   1      38.296  21.849  25.457  1.00  0.00     0.010 C 
ENDBRANCH   7  17
BRANCH  16  19
ATOM     19  C   UNL A   1      30.538  25.008  23.933  1.00  0.00     0.430 C 
ATOM     20  F   UNL A   1      31.520  25.613  23.228  1.00  0.00    -0.167 F 
ATOM     21  F   UNL A   1      30.009  24.060  23.121  1.00  0.00    -0.167 F 
ATOM     22  F   UNL A   1      29.572  25.926  24.162  1.00  0.00    -0.167 F 
ENDBRANCH  16  19
ENDBRANCH   4   6
ENDBRANCH   3   4
ENDBRANCH   2   3
ENDBRANCH   1   2
BRANCH   1  23
ATOM     23  O   UNL A   1      32.374  29.953  26.661  1.00  0.00    -0.458 OA
BRANCH  23  24
ATOM     24  C   UNL A   1      32.940  31.106  27.077  1.00  0.00     0.338 C 
ATOM     25  O   UNL A   1      32.396  32.185  27.244  1.00  0.00    -0.246 OA
BRANCH  24  26
ATOM     26  C   UNL A   1      34.343  30.887  27.446  1.00  0.00     0.060 A 
ATOM     27  C   UNL A   1      34.748  29.581  27.678  1.00  0.00     0.016 A 
ATOM     28  C   UNL A   1      35.161  31.947  27.822  1.00  0.00     0.016 A 
ATOM     29  C   UNL A   1      35.854  29.329  28.475  1.00  0.00     0.010 A 
ATOM     30  C   UNL A   1      36.381  31.677  28.455  1.00  0.00     0.010 A 
ATOM     31  C   UNL A   1      36.715  30.367  28.845  1.00  0.00    -0.014 A 
BRANCH  31  32
ATOM     32  C   UNL A   1      37.942  30.068  29.638  1.00  0.00     0.031 A 
ATOM     33  C   UNL A   1      39.034  29.203  29.060  1.00  0.00     0.074 A 
ATOM     34  C   UNL A   1      38.091  30.593  30.874  1.00  0.00     0.049 A 
ATOM     35  N   UNL A   1      40.079  28.686  29.657  1.00  0.00    -0.248 NA
ATOM     36  C   UNL A   1      38.937  28.859  27.631  1.00  0.00     0.031 C 
ATOM     37  C   UNL A   1      37.143  31.496  31.535  1.00  0.00     0.029 A 
ATOM     38  N   UNL A   1      39.098  30.455  31.797  1.00  0.00    -0.354 N 
ATOM     39  C   UNL A   1      40.730  27.922  28.695  1.00  0.00     0.074 A 
ATOM     40  C   UNL A   1      39.955  28.023  27.478  1.00  0.00     0.031 C 
ATOM     41  C   UNL A   1      37.637  31.871  32.721  1.00  0.00     0.029 A 
ATOM     42  C   UNL A   1      38.869  31.140  32.967  1.00  0.00     0.049 A 
ATOM     43  H   UNL A   1      39.908  29.916  31.636  1.00  0.00     0.167 HD
ATOM     44  C   UNL A   1      41.876  27.210  28.818  1.00  0.00     0.037 A 
ATOM     45  C   UNL A   1      39.537  31.141  34.136  1.00  0.00     0.037 A 
ATOM     46  C   UNL A   1      42.665  27.157  30.022  1.00  0.00     0.049 A 
ATOM     47  C   UNL A   1      40.753  30.274  34.270  1.00  0.00     0.074 A 
ATOM     48  C   UNL A   1      43.845  26.470  30.245  1.00  0.00     0.029 A 
ATOM     49  N   UNL A   1      42.363  27.827  31.198  1.00  0.00    -0.354 N 
ATOM     50  N   UNL A   1      41.335  29.525  33.365  1.00  0.00    -0.248 NA
ATOM     51  C   UNL A   1      41.399  30.238  35.588  1.00  0.00     0.031 C 
ATOM     52  C   UNL A   1      44.226  26.675  31.572  1.00  0.00     0.029 A 
ATOM     53  C   UNL A   1      43.322  27.546  32.158  1.00  0.00     0.049 A 
ATOM     54  H   UNL A   1      41.584  28.413  31.331  1.00  0.00     0.167 HD
ATOM     55  C   UNL A   1      42.427  28.947  33.997  1.00  0.00     0.074 A 
ATOM     56  C   UNL A   1      42.441  29.453  35.354  1.00  0.00     0.031 C 
ATOM     57  C   UNL A   1      43.332  28.071  33.499  1.00  0.00     0.037 A 
BRANCH  44  58
ATOM     58  C   UNL A   1      42.356  26.416  27.635  1.00  0.00     0.057 A 
ATOM     59  C   UNL A   1      41.950  25.094  27.414  1.00  0.00     0.134 A 
ATOM     60  C   UNL A   1      43.152  27.019  26.652  1.00  0.00     0.134 A 
ATOM     61  F   UNL A   1      41.197  24.453  28.320  1.00  0.00    -0.206 F 
ATOM     62  C   UNL A   1      42.321  24.401  26.259  1.00  0.00     0.040 A 
ATOM     63  C   UNL A   1      43.503  26.347  25.480  1.00  0.00     0.040 A 
ATOM     64  F   UNL A   1      43.570  28.286  26.796  1.00  0.00    -0.206 F 
ATOM     65  C   UNL A   1      43.087  25.033  25.281  1.00  0.00     0.006 A 
ENDBRANCH  44  58
BRANCH  45  66
ATOM     66  C   UNL A   1      39.041  31.953  35.279  1.00  0.00     0.057 A 
ATOM     67  C   UNL A   1      38.258  31.378  36.286  1.00  0.00     0.134 A 
ATOM     68  C   UNL A   1      39.338  33.318  35.399  1.00  0.00     0.134 A 
ATOM     69  F   UNL A   1      37.921  30.081  36.222  1.00  0.00    -0.206 F 
ATOM     70  C   UNL A   1      37.778  32.130  37.360  1.00  0.00     0.040 A 
ATOM     71  C   UNL A   1      38.897  34.073  36.487  1.00  0.00     0.040 A 
ATOM     72  F   UNL A   1      40.088  33.933  34.472  1.00  0.00    -0.206 F 
ATOM     73  C   UNL A   1      38.105  33.480  37.467  1.00  0.00     0.006 A 
ENDBRANCH  45  66
BRANCH  57  74
ATOM     74  C   UNL A   1      44.439  27.626  34.409  1.00  0.00     0.057 A 
ATOM     75  C   UNL A   1      45.625  28.358  34.540  1.00  0.00     0.134 A 
ATOM     76  C   UNL A   1      44.284  26.492  35.217  1.00  0.00     0.134 A 
ATOM     77  F   UNL A   1      45.841  29.446  33.786  1.00  0.00    -0.206 F 
ATOM     78  C   UNL A   1      46.624  27.970  35.434  1.00  0.00     0.040 A 
ATOM     79  C   UNL A   1      45.261  26.114  36.137  1.00  0.00     0.040 A 
ATOM     80  F   UNL A   1      43.167  25.752  35.146  1.00  0.00    -0.206 F 
ATOM     81  C   UNL A   1      46.437  26.852  36.244  1.00  0.00     0.006 A 
ENDBRANCH  57  74
ENDBRANCH  31  32
ENDBRANCH  24  26
ENDBRANCH  23  24
ENDBRANCH   1  23
TORSDOF 13
ENDMDL
MODEL 2
REMARK VINA RESULT:     -11.7      4.980      9.671
REMARK SMILES C#Cc1cc(Cl)c2c(c1)C=C(C(=O)OCCOC(=O)c1ccc(-c3c4nc(c(-c5c(F)cccc5F)c5ccc([nH]5)c(-c5c(F)cccc5F)c5nc(c(-c6c(F)cccc6F)c6ccc3[nH]6)C=C5)C=C4)cc1)[C@@H](C(F)(F)F)O2
REMARK SMILES IDX 16 1 15 2 14 3 12 4 13 5 11 6 3 7 4 8 9 9 5 10 8 11 6 12
REMARK SMILES IDX 7 13 10 14 79 15 74 16 2 17 1 18 75 19 76 20 77 21 78 22
REMARK SMILES IDX 17 23 18 24 19 25 20 26 21 27 73 28 22 29 72 30 23 31 24 32
REMARK SMILES IDX 25 33 66 34 26 35 71 36 65 37 67 38 27 39 70 40 64 41 63 42
REMARK SMILES IDX 28 44 54 45 37 46 53 47 38 48 41 49 52 50 68 51 39 52 40 53
REMARK SMILES IDX 51 55 69 56 42 57 29 58 30 59 35 60 31 61 32 62 34 63 36 64
REMARK SMILES IDX 33 65 55 66 56 67 61 68 57 69 58 70 60 71 62 72 59 73 43 74
REMARK SMILES IDX 44 75 49 76 45 77 46 78 48 79 50 80 47 81
REMARK H PARENT 67 43 41 54
REMARK Flexibility Score: inf
ROOT
ATOM      1  C   UNL A   1      33.819  33.305  28.316  1.00  0.00     0.275 C 
ENDROOT
BRANCH   1   2
ATOM      2  C   UNL A   1      34.345  34.549  29.036  1.00  0.00     0.275 C 
BRANCH   2   3
ATOM      3  O   UNL A   1      34.092  34.484  30.459  1.00  0.00    -0.459 OA
BRANCH   3   4
ATOM      4  C   UNL A   1      34.744  33.503  31.122  1.00  0.00     0.338 C 
ATOM      5  O   UNL A   1      34.370  32.350  31.263  1.00  0.00    -0.246 OA
BRANCH   4   6
ATOM      6  C   UNL A   1      36.024  33.995  31.672  1.00  0.00     0.087 C 
ATOM      7  C   UNL A   1      40.837  33.977  31.418  1.00  0.00     0.027 A 
ATOM      8  C   UNL A   1      40.917  34.503  32.706  1.00  0.00     0.041 A 
ATOM      9  C   UNL A   1      39.588  33.780  30.832  1.00  0.00     0.029 A 
ATOM     10  C   UNL A   1      39.746  34.830  33.403  1.00  0.00     0.084 A 
ATOM     11  C   UNL A   1      38.419  34.089  31.542  1.00  0.00     0.020 A 
ATOM     12  Cl  UNL A   1      39.900  35.474  34.999  1.00  0.00    -0.080 Cl
ATOM     13  C   UNL A   1      38.485  34.619  32.828  1.00  0.00     0.146 A 
ATOM     14  C   UNL A   1      37.131  33.804  30.949  1.00  0.00     0.027 C 
ATOM     15  O   UNL A   1      37.363  34.951  33.545  1.00  0.00    -0.474 OA
ATOM     16  C   UNL A   1      36.053  34.519  33.076  1.00  0.00     0.316 C 
BRANCH   7  17
ATOM     17  C   UNL A   1      42.019  33.615  30.698  1.00  0.00    -0.070 C 
ATOM     18  C   UNL A   1      42.996  33.317  30.064  1.00  0.00     0.010 C 
ENDBRANCH   7  17
BRANCH  16  19
ATOM     19  C   UNL A   1      35.478  33.486  34.058  1.00  0.00     0.430 C 
ATOM     20  F   UNL A   1      35.795  33.788  35.338  1.00  0.00    -0.167 F 
ATOM     21  F   UNL A   1      34.125  33.438  33.996  1.00  0.00    -0.167 F 
ATOM     22  F   UNL A   1      35.936  32.238  33.806  1.00  0.00    -0.167 F 
ENDBRANCH  16  19
ENDBRANCH   4   6
ENDBRANCH   3   4
ENDBRANCH   2   3
ENDBRANCH   1   2
BRANCH   1  23
ATOM     23  O   UNL A   1      34.878  32.632  27.610  1.00  0.00    -0.458 OA
BRANCH  23  24
ATOM     24  C   UNL A   1      34.903  31.293  27.785  1.00  0.00     0.338 C 
ATOM     25  O   UNL A   1      34.190  30.459  27.250  1.00  0.00    -0.246 OA
BRANCH  24  26
ATOM     26  C   UNL A   1      36.024  30.906  28.648  1.00  0.00     0.060 A 
ATOM     27  C   UNL A   1      37.253  31.505  28.408  1.00  0.00     0.016 A 
ATOM     28  C   UNL A   1      35.941  29.796  29.479  1.00  0.00     0.016 A 
ATOM     29  C   UNL A   1      38.420  30.876  28.811  1.00  0.00     0.010 A 
ATOM     30  C   UNL A   1      37.112  29.280  30.049  1.00  0.00     0.010 A 
ATOM     31  C   UNL A   1      38.375  29.776  29.673  1.00  0.00    -0.014 A 
BRANCH  31  32
ATOM     32  C   UNL A   1      39.642  29.159  30.159  1.00  0.00     0.031 A 
ATOM     33  C   UNL A   1      40.309  29.666  31.413  1.00  0.00     0.074 A 
ATOM     34  C   UNL A   1      40.188  28.122  29.486  1.00  0.00     0.049 A 
ATOM     35  N   UNL A   1      41.496  29.385  31.887  1.00  0.00    -0.248 NA
ATOM     36  C   UNL A   1      39.553  30.625  32.237  1.00  0.00     0.031 C 
ATOM     37  C   UNL A   1      39.621  27.488  28.291  1.00  0.00     0.029 A 
ATOM     38  N   UNL A   1      41.339  27.407  29.712  1.00  0.00    -0.354 N 
ATOM     39  C   UNL A   1      41.647  30.164  33.028  1.00  0.00     0.074 A 
ATOM     40  C   UNL A   1      40.440  30.948  33.169  1.00  0.00     0.031 C 
ATOM     41  C   UNL A   1      40.388  26.453  27.927  1.00  0.00     0.029 A 
ATOM     42  C   UNL A   1      41.568  26.425  28.776  1.00  0.00     0.049 A 
ATOM     43  H   UNL A   1      41.943  27.581  30.471  1.00  0.00     0.167 HD
ATOM     44  C   UNL A   1      42.696  30.212  33.884  1.00  0.00     0.037 A 
ATOM     45  C   UNL A   1      42.633  25.626  28.576  1.00  0.00     0.037 A 
ATOM     46  C   UNL A   1      43.873  29.390  33.761  1.00  0.00     0.049 A 
ATOM     47  C   UNL A   1      43.816  25.762  29.488  1.00  0.00     0.074 A 
ATOM     48  C   UNL A   1      44.987  29.358  34.580  1.00  0.00     0.029 A 
ATOM     49  N   UNL A   1      44.080  28.447  32.765  1.00  0.00    -0.354 N 
ATOM     50  N   UNL A   1      43.962  26.532  30.538  1.00  0.00    -0.248 NA
ATOM     51  C   UNL A   1      44.988  24.934  29.181  1.00  0.00     0.031 C 
ATOM     52  C   UNL A   1      45.894  28.441  34.048  1.00  0.00     0.029 A 
ATOM     53  C   UNL A   1      45.318  27.849  32.936  1.00  0.00     0.049 A 
ATOM     54  H   UNL A   1      43.445  28.236  32.044  1.00  0.00     0.167 HD
ATOM     55  C   UNL A   1      45.231  26.264  31.032  1.00  0.00     0.074 A 
ATOM     56  C   UNL A   1      45.803  25.242  30.179  1.00  0.00     0.031 C 
ATOM     57  C   UNL A   1      45.867  26.820  32.090  1.00  0.00     0.037 A 
BRANCH  44  58
ATOM     58  C   UNL A   1      42.643  31.184  35.029  1.00  0.00     0.057 A 
ATOM     59  C   UNL A   1      43.068  32.511  34.897  1.00  0.00     0.134 A 
ATOM     60  C   UNL A   1      42.060  30.812  36.248  1.00  0.00     0.134 A 
ATOM     61  F   UNL A   1      43.645  32.931  33.761  1.00  0.00    -0.206 F 
ATOM     62  C   UNL A   1      42.919  33.432  35.936  1.00  0.00     0.040 A 
ATOM     63  C   UNL A   1      41.879  31.731  37.284  1.00  0.00     0.040 A 
ATOM     64  F   UNL A   1      41.624  29.559  36.441  1.00  0.00    -0.206 F 
ATOM     65  C   UNL A   1      42.309  33.046  37.129  1.00  0.00     0.006 A 
ENDBRANCH  44  58
BRANCH  45  66
ATOM     66  C   UNL A   1      42.642  24.663  27.443  1.00  0.00     0.057 A 
ATOM     67  C   UNL A   1      43.160  25.025  26.194  1.00  0.00     0.134 A 
ATOM     68  C   UNL A   1      42.142  23.360  27.576  1.00  0.00     0.134 A 
ATOM     69  F   UNL A   1      43.637  26.263  25.994  1.00  0.00    -0.206 F 
ATOM     70  C   UNL A   1      43.167  24.135  25.118  1.00  0.00     0.040 A 
ATOM     71  C   UNL A   1      42.177  22.449  26.520  1.00  0.00     0.040 A 
ATOM     72  F   UNL A   1      41.634  22.945  28.746  1.00  0.00    -0.206 F 
ATOM     73  C   UNL A   1      42.682  22.839  25.283  1.00  0.00     0.006 A 
ENDBRANCH  45  66
BRANCH  57  74
ATOM     74  C   UNL A   1      47.242  26.315  32.416  1.00  0.00     0.057 A 
ATOM     75  C   UNL A   1      48.392  26.907  31.881  1.00  0.00     0.134 A 
ATOM     76  C   UNL A   1      47.417  25.270  33.333  1.00  0.00     0.134 A 
ATOM     77  F   UNL A   1      48.291  27.903  30.988  1.00  0.00    -0.206 F 
ATOM     78  C   UNL A   1      49.668  26.470  32.237  1.00  0.00     0.040 A 
ATOM     79  C   UNL A   1      48.688  24.848  33.721  1.00  0.00     0.040 A 
ATOM     80  F   UNL A   1      46.356  24.666  33.889  1.00  0.00    -0.206 F 
ATOM     81  C   UNL A   1      49.817  25.446  33.169  1.00  0.00     0.006 A 
ENDBRANCH  57  74
ENDBRANCH  31  32
ENDBRANCH  24  26
ENDBRANCH  23  24
ENDBRANCH   1  23
TORSDOF 13
ENDMDL
MODEL 3
REMARK VINA RESULT:     -11.7      3.883      8.754
REMARK SMILES C#Cc1cc(Cl)c2c(c1)C=C(C(=O)OCCOC(=O)c1ccc(-c3c4nc(c(-c5c(F)cccc5F)c5ccc([nH]5)c(-c5c(F)cccc5F)c5nc(c(-c6c(F)cccc6F)c6ccc3[nH]6)C=C5)C=C4)cc1)[C@@H](C(F)(F)F)O2
REMARK SMILES IDX 16 1 15 2 14 3 12 4 13 5 11 6 3 7 4 8 9 9 5 10 8 11 6 12
REMARK SMILES IDX 7 13 10 14 79 15 74 16 2 17 1 18 75 19 76 20 77 21 78 22
REMARK SMILES IDX 17 23 18 24 19 25 20 26 21 27 73 28 22 29 72 30 23 31 24 32
REMARK SMILES IDX 25 33 66 34 26 35 71 36 65 37 67 38 27 39 70 40 64 41 63 42
REMARK SMILES IDX 28 44 54 45 37 46 53 47 38 48 41 49 52 50 68 51 39 52 40 53
REMARK SMILES IDX 51 55 69 56 42 57 29 58 30 59 35 60 31 61 32 62 34 63 36 64
REMARK SMILES IDX 33 65 55 66 56 67 61 68 57 69 58 70 60 71 62 72 59 73 43 74
REMARK SMILES IDX 44 75 49 76 45 77 46 78 48 79 50 80 47 81
REMARK H PARENT 67 43 41 54
REMARK Flexibility Score: inf
ROOT
ATOM      1  C   UNL A   1      36.491  20.519  25.001  1.00  0.00     0.275 C 
ENDROOT
BRANCH   1   2
ATOM      2  C   UNL A   1      35.162  21.200  24.667  1.00  0.00     0.275 C 
BRANCH   2   3
ATOM      3  O   UNL A   1      35.275  22.640  24.730  1.00  0.00    -0.459 OA
BRANCH   3   4
ATOM      4  C   UNL A   1      34.698  23.224  25.805  1.00  0.00     0.338 C 
ATOM      5  O   UNL A   1      34.736  22.822  26.957  1.00  0.00    -0.246 OA
BRANCH   4   6
ATOM      6  C   UNL A   1      33.996  24.465  25.420  1.00  0.00     0.087 C 
ATOM      7  C   UNL A   1      33.207  29.137  26.308  1.00  0.00     0.027 A 
ATOM      8  C   UNL A   1      32.062  29.104  25.516  1.00  0.00     0.041 A 
ATOM      9  C   UNL A   1      33.996  27.993  26.424  1.00  0.00     0.029 A 
ATOM     10  C   UNL A   1      31.709  27.927  24.841  1.00  0.00     0.084 A 
ATOM     11  C   UNL A   1      33.627  26.812  25.764  1.00  0.00     0.020 A 
ATOM     12  Cl  UNL A   1      30.277  27.938  23.876  1.00  0.00    -0.080 Cl
ATOM     13  C   UNL A   1      32.487  26.768  24.966  1.00  0.00     0.146 A 
ATOM     14  C   UNL A   1      34.413  25.614  25.960  1.00  0.00     0.027 C 
ATOM     15  O   UNL A   1      32.106  25.636  24.291  1.00  0.00    -0.474 OA
ATOM     16  C   UNL A   1      32.750  24.364  24.594  1.00  0.00     0.316 C 
BRANCH   7  17
ATOM     17  C   UNL A   1      33.572  30.321  27.024  1.00  0.00    -0.070 C 
ATOM     18  C   UNL A   1      33.911  31.305  27.626  1.00  0.00     0.010 C 
ENDBRANCH   7  17
BRANCH  16  19
ATOM     19  C   UNL A   1      31.728  23.424  25.254  1.00  0.00     0.430 C 
ATOM     20  F   UNL A   1      31.702  23.583  26.597  1.00  0.00    -0.167 F 
ATOM     21  F   UNL A   1      30.470  23.666  24.813  1.00  0.00    -0.167 F 
ATOM     22  F   UNL A   1      32.000  22.124  25.001  1.00  0.00    -0.167 F 
ENDBRANCH  16  19
ENDBRANCH   4   6
ENDBRANCH   3   4
ENDBRANCH   2   3
ENDBRANCH   1   2
BRANCH   1  23
ATOM     23  O   UNL A   1      37.572  21.470  25.003  1.00  0.00    -0.458 OA
BRANCH  23  24
ATOM     24  C   UNL A   1      38.640  21.101  25.744  1.00  0.00     0.338 C 
ATOM     25  O   UNL A   1      39.203  20.019  25.750  1.00  0.00    -0.246 OA
BRANCH  24  26
ATOM     26  C   UNL A   1      39.161  22.244  26.501  1.00  0.00     0.060 A 
ATOM     27  C   UNL A   1      38.629  23.495  26.221  1.00  0.00     0.016 A 
ATOM     28  C   UNL A   1      40.322  22.136  27.258  1.00  0.00     0.016 A 
ATOM     29  C   UNL A   1      39.360  24.638  26.500  1.00  0.00     0.010 A 
ATOM     30  C   UNL A   1      40.954  23.301  27.710  1.00  0.00     0.010 A 
ATOM     31  C   UNL A   1      40.515  24.569  27.286  1.00  0.00    -0.014 A 
BRANCH  31  32
ATOM     32  C   UNL A   1      41.248  25.818  27.642  1.00  0.00     0.031 A 
ATOM     33  C   UNL A   1      40.578  26.890  28.464  1.00  0.00     0.074 A 
ATOM     34  C   UNL A   1      42.530  25.984  27.247  1.00  0.00     0.049 A 
ATOM     35  N   UNL A   1      40.983  28.109  28.717  1.00  0.00    -0.248 NA
ATOM     36  C   UNL A   1      39.278  26.559  29.073  1.00  0.00     0.031 C 
ATOM     37  C   UNL A   1      43.323  25.004  26.498  1.00  0.00     0.029 A 
ATOM     38  N   UNL A   1      43.399  27.031  27.425  1.00  0.00    -0.354 N 
ATOM     39  C   UNL A   1      39.972  28.701  29.465  1.00  0.00     0.074 A 
ATOM     40  C   UNL A   1      38.922  27.717  29.611  1.00  0.00     0.031 C 
ATOM     41  C   UNL A   1      44.567  25.469  26.333  1.00  0.00     0.029 A 
ATOM     42  C   UNL A   1      44.630  26.829  26.845  1.00  0.00     0.049 A 
ATOM     43  H   UNL A   1      43.164  27.850  27.921  1.00  0.00     0.167 HD
ATOM     44  C   UNL A   1      39.931  29.950  29.988  1.00  0.00     0.037 A 
ATOM     45  C   UNL A   1      45.678  27.658  26.682  1.00  0.00     0.037 A 
ATOM     46  C   UNL A   1      41.004  30.904  29.877  1.00  0.00     0.049 A 
ATOM     47  C   UNL A   1      45.569  29.063  27.196  1.00  0.00     0.074 A 
ATOM     48  C   UNL A   1      41.063  32.193  30.378  1.00  0.00     0.029 A 
ATOM     49  N   UNL A   1      42.210  30.670  29.233  1.00  0.00    -0.354 N 
ATOM     50  N   UNL A   1      44.591  29.622  27.865  1.00  0.00    -0.248 NA
ATOM     51  C   UNL A   1      46.700  29.958  26.920  1.00  0.00     0.031 C 
ATOM     52  C   UNL A   1      42.277  32.758  29.988  1.00  0.00     0.029 A 
ATOM     53  C   UNL A   1      43.007  31.801  29.302  1.00  0.00     0.049 A 
ATOM     54  H   UNL A   1      42.462  29.826  28.792  1.00  0.00     0.167 HD
ATOM     55  C   UNL A   1      44.998  30.926  28.111  1.00  0.00     0.074 A 
ATOM     56  C   UNL A   1      46.322  31.066  27.540  1.00  0.00     0.031 C 
ATOM     57  C   UNL A   1      44.330  31.919  28.745  1.00  0.00     0.037 A 
BRANCH  44  58
ATOM     58  C   UNL A   1      38.692  30.379  30.722  1.00  0.00     0.057 A 
ATOM     59  C   UNL A   1      37.600  30.956  30.063  1.00  0.00     0.134 A 
ATOM     60  C   UNL A   1      38.551  30.114  32.091  1.00  0.00     0.134 A 
ATOM     61  F   UNL A   1      37.671  31.247  28.755  1.00  0.00    -0.206 F 
ATOM     62  C   UNL A   1      36.414  31.256  30.738  1.00  0.00     0.040 A 
ATOM     63  C   UNL A   1      37.361  30.382  32.771  1.00  0.00     0.040 A 
ATOM     64  F   UNL A   1      39.555  29.555  32.784  1.00  0.00    -0.206 F 
ATOM     65  C   UNL A   1      36.288  30.955  32.094  1.00  0.00     0.006 A 
ENDBRANCH  44  58
BRANCH  45  66
ATOM     66  C   UNL A   1      46.894  27.192  25.965  1.00  0.00     0.057 A 
ATOM     67  C   UNL A   1      47.027  27.365  24.582  1.00  0.00     0.134 A 
ATOM     68  C   UNL A   1      47.956  26.570  26.638  1.00  0.00     0.134 A 
ATOM     69  F   UNL A   1      46.040  27.936  23.876  1.00  0.00    -0.206 F 
ATOM     70  C   UNL A   1      48.160  26.924  23.894  1.00  0.00     0.040 A 
ATOM     71  C   UNL A   1      49.109  26.159  25.969  1.00  0.00     0.040 A 
ATOM     72  F   UNL A   1      47.898  26.377  27.964  1.00  0.00    -0.206 F 
ATOM     73  C   UNL A   1      49.209  26.328  24.590  1.00  0.00     0.006 A 
ENDBRANCH  45  66
BRANCH  57  74
ATOM     74  C   UNL A   1      45.029  33.239  28.893  1.00  0.00     0.057 A 
ATOM     75  C   UNL A   1      44.846  34.278  27.973  1.00  0.00     0.134 A 
ATOM     76  C   UNL A   1      45.836  33.495  30.010  1.00  0.00     0.134 A 
ATOM     77  F   UNL A   1      44.095  34.092  26.877  1.00  0.00    -0.206 F 
ATOM     78  C   UNL A   1      45.452  35.522  28.151  1.00  0.00     0.040 A 
ATOM     79  C   UNL A   1      46.419  34.746  30.215  1.00  0.00     0.040 A 
ATOM     80  F   UNL A   1      46.045  32.545  30.933  1.00  0.00    -0.206 F 
ATOM     81  C   UNL A   1      46.230  35.761  29.281  1.00  0.00     0.006 A 
ENDBRANCH  57  74
ENDBRANCH  31  32
ENDBRANCH  24  26
ENDBRANCH  23  24
ENDBRANCH   1  23
TORSDOF 13
ENDMDL
