MODEL 1
REMARK VINA RESULT:     -11.7      0.000      0.000
REMARK SMILES CC(C)CN(C)c1cc2c(cc1Cl)C=C(C(=O)OCCOC(=O)c1ccc(-c3c4nc(c(-c5c(F)cccc5F)c5ccc([nH]5)c(-c5c(F)cccc5F)c5nc(c(-c6c(F)cccc6F)c6ccc3[nH]6)C=C5)C=C4)cc1)[C@@H](C(F)(F)F)O2
REMARK SMILES IDX 19 1 18 2 16 3 17 4 15 5 7 6 8 7 12 8 9 9 11 10 13 11 10 12
REMARK SMILES IDX 83 13 14 14 78 15 5 16 6 17 4 18 2 19 1 20 3 21 79 22 80 23
REMARK SMILES IDX 81 24 82 25 20 26 21 27 22 28 23 29 24 30 25 31 77 32 26 33
REMARK SMILES IDX 76 34 27 35 28 36 29 37 70 38 30 39 75 40 69 41 71 42 31 43
REMARK SMILES IDX 74 44 68 45 67 46 32 48 58 49 41 50 57 51 42 52 45 53 56 54
REMARK SMILES IDX 72 55 43 56 44 57 55 59 73 60 46 61 33 62 34 63 39 64 35 65
REMARK SMILES IDX 36 66 38 67 40 68 37 69 59 70 60 71 65 72 61 73 62 74 64 75
REMARK SMILES IDX 66 76 63 77 47 78 48 79 53 80 49 81 50 82 52 83 54 84 51 85
REMARK H PARENT 71 47 45 58
REMARK Flexibility Score: inf
ROOT
ATOM      1  C   UNL A   1      35.398  20.602  25.042  1.00  0.00     0.275 C 
ENDROOT
BRANCH   1   2
ATOM      2  O   UNL A   1      34.719  21.736  24.456  1.00  0.00    -0.459 OA
BRANCH   2   3
ATOM      3  C   UNL A   1      33.446  21.485  24.083  1.00  0.00     0.338 C 
ATOM      4  O   UNL A   1      32.962  20.380  23.876  1.00  0.00    -0.246 OA
BRANCH   3   5
ATOM      5  C   UNL A   1      32.638  22.712  23.986  1.00  0.00     0.087 C 
ATOM      6  C   UNL A   1      31.668  27.602  23.331  1.00  0.00     0.059 A 
ATOM      7  C   UNL A   1      30.951  26.541  23.938  1.00  0.00     0.074 A 
ATOM      8  C   UNL A   1      32.933  27.303  22.784  1.00  0.00     0.065 A 
ATOM      9  C   UNL A   1      31.454  25.236  23.939  1.00  0.00     0.130 A 
ATOM     10  C   UNL A   1      33.362  25.990  22.661  1.00  0.00     0.034 A 
ATOM     11  Cl  UNL A   1      34.082  28.516  22.331  1.00  0.00    -0.082 Cl
ATOM     12  C   UNL A   1      32.611  24.965  23.222  1.00  0.00     0.019 A 
ATOM     13  O   UNL A   1      30.788  24.253  24.628  1.00  0.00    -0.475 OA
ATOM     14  C   UNL A   1      33.098  23.615  23.119  1.00  0.00     0.027 C 
ATOM     15  C   UNL A   1      31.568  23.054  24.983  1.00  0.00     0.316 C 
BRANCH   6  16
ATOM     16  N   UNL A   1      31.137  28.897  23.270  1.00  0.00    -0.373 N 
ATOM     17  C   UNL A   1      31.072  29.632  24.527  1.00  0.00     0.143 C 
BRANCH  16  18
ATOM     18  C   UNL A   1      30.051  29.139  22.292  1.00  0.00     0.119 C 
BRANCH  18  19
ATOM     19  C   UNL A   1      28.828  29.863  22.899  1.00  0.00     0.002 C 
ATOM     20  C   UNL A   1      28.453  31.121  22.108  1.00  0.00     0.009 C 
ATOM     21  C   UNL A   1      27.603  28.947  22.969  1.00  0.00     0.009 C 
ENDBRANCH  18  19
ENDBRANCH  16  18
ENDBRANCH   6  16
BRANCH  15  22
ATOM     22  C   UNL A   1      32.169  23.190  26.394  1.00  0.00     0.430 C 
ATOM     23  F   UNL A   1      33.329  23.888  26.376  1.00  0.00    -0.167 F 
ATOM     24  F   UNL A   1      31.326  23.859  27.219  1.00  0.00    -0.167 F 
ATOM     25  F   UNL A   1      32.423  21.991  26.965  1.00  0.00    -0.167 F 
ENDBRANCH  15  22
ENDBRANCH   3   5
ENDBRANCH   2   3
ENDBRANCH   1   2
BRANCH   1  26
ATOM     26  C   UNL A   1      36.915  20.678  24.862  1.00  0.00     0.275 C 
BRANCH  26  27
ATOM     27  O   UNL A   1      37.506  21.651  25.747  1.00  0.00    -0.458 OA
BRANCH  27  28
ATOM     28  C   UNL A   1      38.807  21.442  26.049  1.00  0.00     0.338 C 
ATOM     29  O   UNL A   1      39.466  20.440  25.831  1.00  0.00    -0.246 OA
BRANCH  28  30
ATOM     30  C   UNL A   1      39.394  22.645  26.660  1.00  0.00     0.060 A 
ATOM     31  C   UNL A   1      40.503  22.557  27.495  1.00  0.00     0.016 A 
ATOM     32  C   UNL A   1      38.948  23.890  26.237  1.00  0.00     0.016 A 
ATOM     33  C   UNL A   1      41.153  23.731  27.899  1.00  0.00     0.010 A 
ATOM     34  C   UNL A   1      39.698  25.035  26.493  1.00  0.00     0.010 A 
ATOM     35  C   UNL A   1      40.790  24.986  27.366  1.00  0.00    -0.014 A 
BRANCH  35  36
ATOM     36  C   UNL A   1      41.518  26.236  27.747  1.00  0.00     0.031 A 
ATOM     37  C   UNL A   1      42.925  26.499  27.251  1.00  0.00     0.074 A 
ATOM     38  C   UNL A   1      40.934  27.137  28.565  1.00  0.00     0.049 A 
ATOM     39  N   UNL A   1      43.704  27.532  27.473  1.00  0.00    -0.248 NA
ATOM     40  C   UNL A   1      43.562  25.450  26.438  1.00  0.00     0.031 C 
ATOM     41  C   UNL A   1      39.630  26.981  29.214  1.00  0.00     0.029 A 
ATOM     42  N   UNL A   1      41.356  28.379  28.978  1.00  0.00    -0.354 N 
ATOM     43  C   UNL A   1      44.913  27.239  26.852  1.00  0.00     0.074 A 
ATOM     44  C   UNL A   1      44.800  25.899  26.324  1.00  0.00     0.031 C 
ATOM     45  C   UNL A   1      39.327  28.108  29.879  1.00  0.00     0.029 A 
ATOM     46  C   UNL A   1      40.428  29.055  29.736  1.00  0.00     0.049 A 
ATOM     47  H   UNL A   1      42.240  28.749  28.754  1.00  0.00     0.167 HD
ATOM     48  C   UNL A   1      46.006  28.022  26.681  1.00  0.00     0.037 A 
ATOM     49  C   UNL A   1      40.449  30.303  30.240  1.00  0.00     0.037 A 
ATOM     50  C   UNL A   1      46.110  29.378  27.149  1.00  0.00     0.049 A 
ATOM     51  C   UNL A   1      41.643  31.181  29.984  1.00  0.00     0.074 A 
ATOM     52  C   UNL A   1      47.149  30.275  26.979  1.00  0.00     0.029 A 
ATOM     53  N   UNL A   1      45.125  30.035  27.869  1.00  0.00    -0.354 N 
ATOM     54  N   UNL A   1      42.743  30.911  29.325  1.00  0.00    -0.248 NA
ATOM     55  C   UNL A   1      41.592  32.544  30.534  1.00  0.00     0.031 C 
ATOM     56  C   UNL A   1      46.798  31.475  27.608  1.00  0.00     0.029 A 
ATOM     57  C   UNL A   1      45.530  31.330  28.145  1.00  0.00     0.049 A 
ATOM     58  H   UNL A   1      44.266  29.640  28.143  1.00  0.00     0.167 HD
ATOM     59  C   UNL A   1      43.505  32.071  29.366  1.00  0.00     0.074 A 
ATOM     60  C   UNL A   1      42.731  33.056  30.091  1.00  0.00     0.031 C 
ATOM     61  C   UNL A   1      44.741  32.299  28.858  1.00  0.00     0.037 A 
BRANCH  48  62
ATOM     62  C   UNL A   1      47.155  27.437  25.911  1.00  0.00     0.057 A 
ATOM     63  C   UNL A   1      47.219  27.537  24.516  1.00  0.00     0.134 A 
ATOM     64  C   UNL A   1      48.205  26.768  26.558  1.00  0.00     0.134 A 
ATOM     65  F   UNL A   1      46.245  28.152  23.831  1.00  0.00    -0.206 F 
ATOM     66  C   UNL A   1      48.290  27.002  23.794  1.00  0.00     0.040 A 
ATOM     67  C   UNL A   1      49.294  26.257  25.851  1.00  0.00     0.040 A 
ATOM     68  F   UNL A   1      48.212  26.649  27.895  1.00  0.00    -0.206 F 
ATOM     69  C   UNL A   1      49.336  26.370  24.464  1.00  0.00     0.006 A 
ENDBRANCH  48  62
BRANCH  49  70
ATOM     70  C   UNL A   1      39.284  30.828  30.996  1.00  0.00     0.057 A 
ATOM     71  C   UNL A   1      38.211  31.454  30.351  1.00  0.00     0.134 A 
ATOM     72  C   UNL A   1      39.204  30.686  32.387  1.00  0.00     0.134 A 
ATOM     73  F   UNL A   1      38.230  31.628  29.021  1.00  0.00    -0.206 F 
ATOM     74  C   UNL A   1      37.101  31.917  31.060  1.00  0.00     0.040 A 
ATOM     75  C   UNL A   1      38.090  31.120  33.106  1.00  0.00     0.040 A 
ATOM     76  F   UNL A   1      40.192  30.077  33.060  1.00  0.00    -0.206 F 
ATOM     77  C   UNL A   1      37.035  31.741  32.442  1.00  0.00     0.006 A 
ENDBRANCH  49  70
BRANCH  61  78
ATOM     78  C   UNL A   1      45.311  33.671  29.047  1.00  0.00     0.057 A 
ATOM     79  C   UNL A   1      46.059  33.983  30.189  1.00  0.00     0.134 A 
ATOM     80  C   UNL A   1      45.101  34.689  28.108  1.00  0.00     0.134 A 
ATOM     81  F   UNL A   1      46.289  33.053  31.128  1.00  0.00    -0.206 F 
ATOM     82  C   UNL A   1      46.582  35.260  30.390  1.00  0.00     0.040 A 
ATOM     83  C   UNL A   1      45.639  35.964  28.287  1.00  0.00     0.040 A 
ATOM     84  F   UNL A   1      44.406  34.447  26.987  1.00  0.00    -0.206 F 
ATOM     85  C   UNL A   1      46.377  36.254  29.433  1.00  0.00     0.006 A 
ENDBRANCH  61  78
ENDBRANCH  35  36
ENDBRANCH  28  30
ENDBRANCH  27  28
ENDBRANCH  26  27
ENDBRANCH   1  26
TORSDOF 15
ENDMDL
MODEL 2
REMARK VINA RESULT:     -11.6      4.262      9.177
REMARK SMILES CC(C)CN(C)c1cc2c(cc1Cl)C=C(C(=O)OCCOC(=O)c1ccc(-c3c4nc(c(-c5c(F)cccc5F)c5ccc([nH]5)c(-c5c(F)cccc5F)c5nc(c(-c6c(F)cccc6F)c6ccc3[nH]6)C=C5)C=C4)cc1)[C@@H](C(F)(F)F)O2
REMARK SMILES IDX 19 1 18 2 16 3 17 4 15 5 7 6 8 7 12 8 9 9 11 10 13 11 10 12
REMARK SMILES IDX 83 13 14 14 78 15 5 16 6 17 4 18 2 19 1 20 3 21 79 22 80 23
REMARK SMILES IDX 81 24 82 25 20 26 21 27 22 28 23 29 24 30 25 31 77 32 26 33
REMARK SMILES IDX 76 34 27 35 28 36 29 37 70 38 30 39 75 40 69 41 71 42 31 43
REMARK SMILES IDX 74 44 68 45 67 46 32 48 58 49 41 50 57 51 42 52 45 53 56 54
REMARK SMILES IDX 72 55 43 56 44 57 55 59 73 60 46 61 33 62 34 63 39 64 35 65
REMARK SMILES IDX 36 66 38 67 40 68 37 69 59 70 60 71 65 72 61 73 62 74 64 75
REMARK SMILES IDX 66 76 63 77 47 78 48 79 53 80 49 81 50 82 52 83 54 84 51 85
REMARK H PARENT 71 47 45 58
REMARK Flexibility Score: inf
ROOT
ATOM      1  C   UNL A   1      31.514  29.777  24.656  1.00  0.00     0.275 C 
ENDROOT
BRANCH   1   2
ATOM      2  O   UNL A   1      30.966  28.487  25.013  1.00  0.00    -0.459 OA
BRANCH   2   3
ATOM      3  C   UNL A   1      30.336  27.855  24.000  1.00  0.00     0.338 C 
ATOM      4  O   UNL A   1      29.457  28.331  23.293  1.00  0.00    -0.246 OA
BRANCH   3   5
ATOM      5  C   UNL A   1      30.853  26.495  23.780  1.00  0.00     0.087 C 
ATOM      6  C   UNL A   1      32.964  22.078  24.930  1.00  0.00     0.059 A 
ATOM      7  C   UNL A   1      32.776  22.778  23.713  1.00  0.00     0.074 A 
ATOM      8  C   UNL A   1      32.501  22.692  26.113  1.00  0.00     0.065 A 
ATOM      9  C   UNL A   1      32.099  24.002  23.680  1.00  0.00     0.130 A 
ATOM     10  C   UNL A   1      31.710  23.831  26.060  1.00  0.00     0.034 A 
ATOM     11  Cl  UNL A   1      32.954  22.164  27.698  1.00  0.00    -0.082 Cl
ATOM     12  C   UNL A   1      31.499  24.466  24.842  1.00  0.00     0.019 A 
ATOM     13  O   UNL A   1      32.027  24.705  22.503  1.00  0.00    -0.475 OA
ATOM     14  C   UNL A   1      30.711  25.669  24.818  1.00  0.00     0.027 C 
ATOM     15  C   UNL A   1      31.732  26.145  22.613  1.00  0.00     0.316 C 
BRANCH   6  16
ATOM     16  N   UNL A   1      33.583  20.821  24.958  1.00  0.00    -0.373 N 
ATOM     17  C   UNL A   1      35.032  20.814  25.116  1.00  0.00     0.143 C 
BRANCH  16  18
ATOM     18  C   UNL A   1      32.991  19.757  24.115  1.00  0.00     0.119 C 
BRANCH  18  19
ATOM     19  C   UNL A   1      33.438  18.334  24.520  1.00  0.00     0.002 C 
ATOM     20  C   UNL A   1      32.625  17.789  25.700  1.00  0.00     0.009 C 
ATOM     21  C   UNL A   1      33.327  17.349  23.354  1.00  0.00     0.009 C 
ENDBRANCH  18  19
ENDBRANCH  16  18
ENDBRANCH   6  16
BRANCH  15  22
ATOM     22  C   UNL A   1      33.033  26.967  22.652  1.00  0.00     0.430 C 
ATOM     23  F   UNL A   1      32.847  28.218  22.169  1.00  0.00    -0.167 F 
ATOM     24  F   UNL A   1      33.484  27.105  23.924  1.00  0.00    -0.167 F 
ATOM     25  F   UNL A   1      34.027  26.396  21.934  1.00  0.00    -0.167 F 
ENDBRANCH  15  22
ENDBRANCH   3   5
ENDBRANCH   2   3
ENDBRANCH   1   2
BRANCH   1  26
ATOM     26  C   UNL A   1      31.393  30.793  25.794  1.00  0.00     0.275 C 
BRANCH  26  27
ATOM     27  O   UNL A   1      32.393  30.575  26.808  1.00  0.00    -0.458 OA
BRANCH  27  28
ATOM     28  C   UNL A   1      33.053  31.682  27.216  1.00  0.00     0.338 C 
ATOM     29  O   UNL A   1      32.627  32.822  27.263  1.00  0.00    -0.246 OA
BRANCH  28  30
ATOM     30  C   UNL A   1      34.407  31.336  27.676  1.00  0.00     0.060 A 
ATOM     31  C   UNL A   1      35.322  32.324  28.022  1.00  0.00     0.016 A 
ATOM     32  C   UNL A   1      34.696  30.004  27.946  1.00  0.00     0.016 A 
ATOM     33  C   UNL A   1      36.526  31.959  28.639  1.00  0.00     0.010 A 
ATOM     34  C   UNL A   1      35.806  29.664  28.716  1.00  0.00     0.010 A 
ATOM     35  C   UNL A   1      36.767  30.628  29.039  1.00  0.00    -0.014 A 
BRANCH  35  36
ATOM     36  C   UNL A   1      38.024  30.242  29.751  1.00  0.00     0.031 A 
ATOM     37  C   UNL A   1      38.276  30.681  31.179  1.00  0.00     0.074 A 
ATOM     38  C   UNL A   1      38.967  29.514  29.115  1.00  0.00     0.049 A 
ATOM     39  N   UNL A   1      39.305  30.431  31.955  1.00  0.00    -0.248 NA
ATOM     40  C   UNL A   1      37.267  31.550  31.806  1.00  0.00     0.031 C 
ATOM     41  C   UNL A   1      38.925  29.106  27.709  1.00  0.00     0.029 A 
ATOM     42  N   UNL A   1      40.143  28.971  29.576  1.00  0.00    -0.354 N 
ATOM     43  C   UNL A   1      39.071  31.129  33.135  1.00  0.00     0.074 A 
ATOM     44  C   UNL A   1      37.855  31.884  32.943  1.00  0.00     0.031 C 
ATOM     45  C   UNL A   1      39.981  28.320  27.442  1.00  0.00     0.029 A 
ATOM     46  C   UNL A   1      40.795  28.194  28.647  1.00  0.00     0.049 A 
ATOM     47  H   UNL A   1      40.486  29.123  30.486  1.00  0.00     0.167 HD
ATOM     48  C   UNL A   1      39.766  31.112  34.298  1.00  0.00     0.037 A 
ATOM     49  C   UNL A   1      41.911  27.448  28.756  1.00  0.00     0.037 A 
ATOM     50  C   UNL A   1      40.945  30.320  34.524  1.00  0.00     0.049 A 
ATOM     51  C   UNL A   1      42.631  27.388  30.075  1.00  0.00     0.074 A 
ATOM     52  C   UNL A   1      41.690  30.186  35.683  1.00  0.00     0.029 A 
ATOM     53  N   UNL A   1      41.540  29.512  33.569  1.00  0.00    -0.354 N 
ATOM     54  N   UNL A   1      42.348  27.994  31.201  1.00  0.00    -0.248 NA
ATOM     55  C   UNL A   1      43.824  26.530  30.138  1.00  0.00     0.031 C 
ATOM     56  C   UNL A   1      42.746  29.306  35.423  1.00  0.00     0.029 A 
ATOM     57  C   UNL A   1      42.640  28.872  34.112  1.00  0.00     0.049 A 
ATOM     58  H   UNL A   1      41.227  29.409  32.641  1.00  0.00     0.167 HD
ATOM     59  C   UNL A   1      43.312  27.578  32.110  1.00  0.00     0.074 A 
ATOM     60  C   UNL A   1      44.173  26.648  31.410  1.00  0.00     0.031 C 
ATOM     61  C   UNL A   1      43.478  27.941  33.404  1.00  0.00     0.037 A 
BRANCH  48  62
ATOM     62  C   UNL A   1      39.231  31.942  35.430  1.00  0.00     0.057 A 
ATOM     63  C   UNL A   1      38.312  31.415  36.346  1.00  0.00     0.134 A 
ATOM     64  C   UNL A   1      39.628  33.276  35.611  1.00  0.00     0.134 A 
ATOM     65  F   UNL A   1      37.879  30.151  36.226  1.00  0.00    -0.206 F 
ATOM     66  C   UNL A   1      37.816  32.179  37.405  1.00  0.00     0.040 A 
ATOM     67  C   UNL A   1      39.164  34.039  36.683  1.00  0.00     0.040 A 
ATOM     68  F   UNL A   1      40.517  33.838  34.777  1.00  0.00    -0.206 F 
ATOM     69  C   UNL A   1      38.251  33.492  37.581  1.00  0.00     0.006 A 
ENDBRANCH  48  62
BRANCH  49  70
ATOM     70  C   UNL A   1      42.394  26.648  27.602  1.00  0.00     0.057 A 
ATOM     71  C   UNL A   1      41.995  25.321  27.409  1.00  0.00     0.134 A 
ATOM     72  C   UNL A   1      43.250  27.209  26.645  1.00  0.00     0.134 A 
ATOM     73  F   UNL A   1      41.183  24.723  28.293  1.00  0.00    -0.206 F 
ATOM     74  C   UNL A   1      42.425  24.581  26.305  1.00  0.00     0.040 A 
ATOM     75  C   UNL A   1      43.667  26.490  25.524  1.00  0.00     0.040 A 
ATOM     76  F   UNL A   1      43.652  28.483  26.765  1.00  0.00    -0.206 F 
ATOM     77  C   UNL A   1      43.256  25.170  25.353  1.00  0.00     0.006 A 
ENDBRANCH  49  70
BRANCH  61  78
ATOM     78  C   UNL A   1      44.614  27.308  34.148  1.00  0.00     0.057 A 
ATOM     79  C   UNL A   1      44.436  26.098  34.829  1.00  0.00     0.134 A 
ATOM     80  C   UNL A   1      45.878  27.909  34.207  1.00  0.00     0.134 A 
ATOM     81  F   UNL A   1      43.246  25.477  34.816  1.00  0.00    -0.206 F 
ATOM     82  C   UNL A   1      45.477  25.504  35.542  1.00  0.00     0.040 A 
ATOM     83  C   UNL A   1      46.934  27.312  34.897  1.00  0.00     0.040 A 
ATOM     84  F   UNL A   1      46.115  29.061  33.563  1.00  0.00    -0.206 F 
ATOM     85  C   UNL A   1      46.733  26.109  35.571  1.00  0.00     0.006 A 
ENDBRANCH  61  78
ENDBRANCH  35  36
ENDBRANCH  28  30
ENDBRANCH  27  28
ENDBRANCH  26  27
ENDBRANCH   1  26
TORSDOF 15
ENDMDL
MODEL 3
REMARK VINA RESULT:     -11.4      4.455      9.306
REMARK SMILES CC(C)CN(C)c1cc2c(cc1Cl)C=C(C(=O)OCCOC(=O)c1ccc(-c3c4nc(c(-c5c(F)cccc5F)c5ccc([nH]5)c(-c5c(F)cccc5F)c5nc(c(-c6c(F)cccc6F)c6ccc3[nH]6)C=C5)C=C4)cc1)[C@@H](C(F)(F)F)O2
REMARK SMILES IDX 19 1 18 2 16 3 17 4 15 5 7 6 8 7 12 8 9 9 11 10 13 11 10 12
REMARK SMILES IDX 83 13 14 14 78 15 5 16 6 17 4 18 2 19 1 20 3 21 79 22 80 23
REMARK SMILES IDX 81 24 82 25 20 26 21 27 22 28 23 29 24 30 25 31 77 32 26 33
REMARK SMILES IDX 76 34 27 35 28 36 29 37 70 38 30 39 75 40 69 41 71 42 31 43
REMARK SMILES IDX 74 44 68 45 67 46 32 48 58 49 41 50 57 51 42 52 45 53 56 54
REMARK SMILES IDX 72 55 43 56 44 57 55 59 73 60 46 61 33 62 34 63 39 64 35 65
REMARK SMILES IDX 36 66 38 67 40 68 37 69 59 70 60 71 65 72 61 73 62 74 64 75
REMARK SMILES IDX 66 76 63 77 47 78 48 79 53 80 49 81 50 82 52 83 54 84 51 85
REMARK H PARENT 71 47 45 58
REMARK Flexibility Score: inf
ROOT
ATOM      1  C   UNL A   1      31.875  30.848  26.725  1.00  0.00     0.275 C 
ENDROOT
BRANCH   1   2
ATOM      2  O   UNL A   1      31.318  30.208  25.555  1.00  0.00    -0.459 OA
BRANCH   2   3
ATOM      3  C   UNL A   1      32.169  29.368  24.927  1.00  0.00     0.338 C 
ATOM      4  O   UNL A   1      32.960  29.675  24.045  1.00  0.00    -0.246 OA
BRANCH   3   5
ATOM      5  C   UNL A   1      32.089  27.994  25.450  1.00  0.00     0.087 C 
ATOM      6  C   UNL A   1      33.364  23.168  26.059  1.00  0.00     0.059 A 
ATOM      7  C   UNL A   1      32.173  23.897  26.298  1.00  0.00     0.074 A 
ATOM      8  C   UNL A   1      34.462  23.874  25.526  1.00  0.00     0.065 A 
ATOM      9  C   UNL A   1      32.111  25.276  26.072  1.00  0.00     0.130 A 
ATOM     10  C   UNL A   1      34.443  25.259  25.438  1.00  0.00     0.034 A 
ATOM     11  Cl  UNL A   1      35.852  23.096  24.849  1.00  0.00    -0.082 Cl
ATOM     12  C   UNL A   1      33.275  25.951  25.730  1.00  0.00     0.019 A 
ATOM     13  O   UNL A   1      30.914  25.933  26.211  1.00  0.00    -0.475 OA
ATOM     14  C   UNL A   1      33.266  27.382  25.590  1.00  0.00     0.027 C 
ATOM     15  C   UNL A   1      30.795  27.237  25.533  1.00  0.00     0.316 C 
BRANCH   6  16
ATOM     16  N   UNL A   1      33.449  21.800  26.347  1.00  0.00    -0.373 N 
ATOM     17  C   UNL A   1      34.018  21.442  27.639  1.00  0.00     0.143 C 
BRANCH  16  18
ATOM     18  C   UNL A   1      33.722  20.885  25.213  1.00  0.00     0.119 C 
BRANCH  18  19
ATOM     19  C   UNL A   1      32.455  20.496  24.420  1.00  0.00     0.002 C 
ATOM     20  C   UNL A   1      32.331  21.283  23.110  1.00  0.00     0.009 C 
ATOM     21  C   UNL A   1      32.425  19.000  24.096  1.00  0.00     0.009 C 
ENDBRANCH  18  19
ENDBRANCH  16  18
ENDBRANCH   6  16
BRANCH  15  22
ATOM     22  C   UNL A   1      30.176  27.071  24.134  1.00  0.00     0.430 C 
ATOM     23  F   UNL A   1      29.538  28.195  23.735  1.00  0.00    -0.167 F 
ATOM     24  F   UNL A   1      31.131  26.816  23.206  1.00  0.00    -0.167 F 
ATOM     25  F   UNL A   1      29.284  26.055  24.082  1.00  0.00    -0.167 F 
ENDBRANCH  15  22
ENDBRANCH   3   5
ENDBRANCH   2   3
ENDBRANCH   1   2
BRANCH   1  26
ATOM     26  C   UNL A   1      31.469  32.319  26.829  1.00  0.00     0.275 C 
BRANCH  26  27
ATOM     27  O   UNL A   1      32.609  33.193  26.707  1.00  0.00    -0.458 OA
BRANCH  27  28
ATOM     28  C   UNL A   1      33.078  33.696  27.870  1.00  0.00     0.338 C 
ATOM     29  O   UNL A   1      32.554  34.537  28.579  1.00  0.00    -0.246 OA
BRANCH  28  30
ATOM     30  C   UNL A   1      34.343  33.042  28.242  1.00  0.00     0.060 A 
ATOM     31  C   UNL A   1      35.554  33.718  28.149  1.00  0.00     0.016 A 
ATOM     32  C   UNL A   1      34.290  31.806  28.873  1.00  0.00     0.016 A 
ATOM     33  C   UNL A   1      36.708  33.137  28.694  1.00  0.00     0.010 A 
ATOM     34  C   UNL A   1      35.396  31.318  29.566  1.00  0.00     0.010 A 
ATOM     35  C   UNL A   1      36.639  31.950  29.453  1.00  0.00    -0.014 A 
BRANCH  35  36
ATOM     36  C   UNL A   1      37.856  31.356  30.087  1.00  0.00     0.031 A 
ATOM     37  C   UNL A   1      38.226  31.685  31.519  1.00  0.00     0.074 A 
ATOM     38  C   UNL A   1      38.659  30.536  29.377  1.00  0.00     0.049 A 
ATOM     39  N   UNL A   1      39.240  31.256  32.234  1.00  0.00    -0.248 NA
ATOM     40  C   UNL A   1      37.378  32.656  32.230  1.00  0.00     0.031 C 
ATOM     41  C   UNL A   1      38.502  30.207  27.958  1.00  0.00     0.029 A 
ATOM     42  N   UNL A   1      39.763  29.811  29.758  1.00  0.00    -0.354 N 
ATOM     43  C   UNL A   1      39.157  31.921  33.452  1.00  0.00     0.074 A 
ATOM     44  C   UNL A   1      38.053  32.848  33.351  1.00  0.00     0.031 C 
ATOM     45  C   UNL A   1      39.422  29.295  27.608  1.00  0.00     0.029 A 
ATOM     46  C   UNL A   1      40.259  28.996  28.766  1.00  0.00     0.049 A 
ATOM     47  H   UNL A   1      40.162  29.868  30.656  1.00  0.00     0.167 HD
ATOM     48  C   UNL A   1      39.889  31.749  34.580  1.00  0.00     0.037 A 
ATOM     49  C   UNL A   1      41.260  28.096  28.790  1.00  0.00     0.037 A 
ATOM     50  C   UNL A   1      40.950  30.789  34.715  1.00  0.00     0.049 A 
ATOM     51  C   UNL A   1      42.018  27.871  30.069  1.00  0.00     0.074 A 
ATOM     52  C   UNL A   1      41.716  30.495  35.830  1.00  0.00     0.029 A 
ATOM     53  N   UNL A   1      41.385  29.954  33.699  1.00  0.00    -0.354 N 
ATOM     54  N   UNL A   1      41.870  28.455  31.232  1.00  0.00    -0.248 NA
ATOM     55  C   UNL A   1      43.078  26.851  30.039  1.00  0.00     0.031 C 
ATOM     56  C   UNL A   1      42.624  29.489  35.484  1.00  0.00     0.029 A 
ATOM     57  C   UNL A   1      42.404  29.139  34.162  1.00  0.00     0.049 A 
ATOM     58  H   UNL A   1      41.022  29.941  32.783  1.00  0.00     0.167 HD
ATOM     59  C   UNL A   1      42.802  27.863  32.076  1.00  0.00     0.074 A 
ATOM     60  C   UNL A   1      43.492  26.857  31.297  1.00  0.00     0.031 C 
ATOM     61  C   UNL A   1      43.071  28.135  33.376  1.00  0.00     0.037 A 
BRANCH  48  62
ATOM     62  C   UNL A   1      39.524  32.590  35.770  1.00  0.00     0.057 A 
ATOM     63  C   UNL A   1      38.558  32.165  36.690  1.00  0.00     0.134 A 
ATOM     64  C   UNL A   1      40.134  33.832  36.003  1.00  0.00     0.134 A 
ATOM     65  F   UNL A   1      37.926  30.994  36.524  1.00  0.00    -0.206 F 
ATOM     66  C   UNL A   1      38.220  32.938  37.804  1.00  0.00     0.040 A 
ATOM     67  C   UNL A   1      39.827  34.599  37.127  1.00  0.00     0.040 A 
ATOM     68  F   UNL A   1      41.078  34.292  35.167  1.00  0.00    -0.206 F 
ATOM     69  C   UNL A   1      38.864  34.154  38.029  1.00  0.00     0.006 A 
ENDBRANCH  48  62
BRANCH  49  70
ATOM     70  C   UNL A   1      41.577  27.294  27.581  1.00  0.00     0.057 A 
ATOM     71  C   UNL A   1      42.474  27.752  26.610  1.00  0.00     0.134 A 
ATOM     72  C   UNL A   1      41.007  26.029  27.386  1.00  0.00     0.134 A 
ATOM     73  F   UNL A   1      43.049  28.958  26.734  1.00  0.00    -0.206 F 
ATOM     74  C   UNL A   1      42.796  26.982  25.491  1.00  0.00     0.040 A 
ATOM     75  C   UNL A   1      41.339  25.238  26.285  1.00  0.00     0.040 A 
ATOM     76  F   UNL A   1      40.154  25.527  28.291  1.00  0.00    -0.206 F 
ATOM     77  C   UNL A   1      42.234  25.716  25.332  1.00  0.00     0.006 A 
ENDBRANCH  49  70
BRANCH  61  78
ATOM     78  C   UNL A   1      44.134  27.313  34.037  1.00  0.00     0.057 A 
ATOM     79  C   UNL A   1      45.470  27.733  34.027  1.00  0.00     0.134 A 
ATOM     80  C   UNL A   1      43.838  26.096  34.664  1.00  0.00     0.134 A 
ATOM     81  F   UNL A   1      45.819  28.885  33.436  1.00  0.00    -0.206 F 
ATOM     82  C   UNL A   1      46.476  26.970  34.622  1.00  0.00     0.040 A 
ATOM     83  C   UNL A   1      44.832  25.337  35.283  1.00  0.00     0.040 A 
ATOM     84  F   UNL A   1      42.574  25.650  34.719  1.00  0.00    -0.206 F 
ATOM     85  C   UNL A   1      46.156  25.771  35.258  1.00  0.00     0.006 A 
ENDBRANCH  61  78
ENDBRANCH  35  36
ENDBRANCH  28  30
ENDBRANCH  27  28
ENDBRANCH  26  27
ENDBRANCH   1  26
TORSDOF 15
ENDMDL
