MODEL 1
REMARK VINA RESULT:      -9.7      0.000      0.000
REMARK SMILES C[C@H](CC(=O)OCCOC(=O)c1ccc(-c2c3nc(c(-c4c(F)cccc4F)c4ccc([nH]4)c(-c4c(F)cccc4F)c4nc(c(-c5c(F)cccc5F)c5ccc2[nH]5)C=C4)C=C3)cc1)c1ccc(O)cc1
REMARK SMILES IDX 7 1 6 2 4 3 5 4 3 5 2 6 1 7 66 8 67 9 72 10 68 11 71 12
REMARK SMILES IDX 69 13 70 14 8 16 9 17 10 18 11 19 12 20 13 21 65 22 14 23
REMARK SMILES IDX 64 24 15 25 16 26 17 27 58 28 18 29 63 30 57 31 59 32 19 33
REMARK SMILES IDX 62 34 56 35 55 36 20 38 46 39 29 40 45 41 30 42 33 43 44 44
REMARK SMILES IDX 60 45 31 46 32 47 43 49 61 50 34 51 21 52 22 53 27 54 23 55
REMARK SMILES IDX 24 56 26 57 28 58 25 59 47 60 48 61 53 62 49 63 50 64 52 65
REMARK SMILES IDX 54 66 51 67 35 68 36 69 41 70 37 71 38 72 40 73 42 74 39 75
REMARK H PARENT 70 15 59 37 33 48
REMARK Flexibility Score: inf
ROOT
ATOM      1  C   UNL A   1      33.093  34.695  28.691  1.00  0.00     0.274 C 
ENDROOT
BRANCH   1   2
ATOM      2  O   UNL A   1      34.476  34.560  28.314  1.00  0.00    -0.462 OA
BRANCH   2   3
ATOM      3  C   UNL A   1      35.238  33.662  28.978  1.00  0.00     0.306 C 
ATOM      4  O   UNL A   1      36.295  33.925  29.539  1.00  0.00    -0.252 OA
BRANCH   3   5
ATOM      5  C   UNL A   1      34.718  32.242  28.851  1.00  0.00     0.130 C 
BRANCH   5   6
ATOM      6  C   UNL A   1      35.185  31.380  27.654  1.00  0.00     0.027 C 
ATOM      7  C   UNL A   1      36.623  30.883  27.854  1.00  0.00     0.013 C 
BRANCH   6   8
ATOM      8  C   UNL A   1      34.174  30.314  27.260  1.00  0.00    -0.044 A 
ATOM      9  C   UNL A   1      32.814  30.668  27.185  1.00  0.00     0.008 A 
ATOM     10  C   UNL A   1      34.521  28.967  27.071  1.00  0.00     0.008 A 
ATOM     11  C   UNL A   1      31.830  29.695  27.006  1.00  0.00     0.046 A 
ATOM     12  C   UNL A   1      33.537  27.993  26.884  1.00  0.00     0.046 A 
ATOM     13  C   UNL A   1      32.198  28.363  26.875  1.00  0.00     0.115 A 
BRANCH  13  14
ATOM     14  O   UNL A   1      31.206  27.436  26.759  1.00  0.00    -0.508 OA
ATOM     15  H   UNL A   1      30.312  27.712  26.700  1.00  0.00     0.293 HD
ENDBRANCH  13  14
ENDBRANCH   6   8
ENDBRANCH   5   6
ENDBRANCH   3   5
ENDBRANCH   2   3
ENDBRANCH   1   2
BRANCH   1  16
ATOM     16  C   UNL A   1      32.906  35.856  29.663  1.00  0.00     0.275 C 
BRANCH  16  17
ATOM     17  O   UNL A   1      32.228  35.385  30.839  1.00  0.00    -0.458 OA
BRANCH  17  18
ATOM     18  C   UNL A   1      32.640  35.904  32.015  1.00  0.00     0.338 C 
ATOM     19  O   UNL A   1      32.185  36.853  32.627  1.00  0.00    -0.246 OA
BRANCH  18  20
ATOM     20  C   UNL A   1      33.783  35.112  32.482  1.00  0.00     0.060 A 
ATOM     21  C   UNL A   1      35.064  35.671  32.483  1.00  0.00     0.016 A 
ATOM     22  C   UNL A   1      33.579  33.790  32.874  1.00  0.00     0.016 A 
ATOM     23  C   UNL A   1      36.158  34.903  32.873  1.00  0.00     0.010 A 
ATOM     24  C   UNL A   1      34.670  33.030  33.290  1.00  0.00     0.010 A 
ATOM     25  C   UNL A   1      35.965  33.579  33.283  1.00  0.00    -0.014 A 
BRANCH  25  26
ATOM     26  C   UNL A   1      37.112  32.736  33.685  1.00  0.00     0.031 A 
ATOM     27  C   UNL A   1      37.818  33.021  34.976  1.00  0.00     0.074 A 
ATOM     28  C   UNL A   1      37.545  31.763  32.867  1.00  0.00     0.049 A 
ATOM     29  N   UNL A   1      38.955  32.551  35.417  1.00  0.00    -0.248 NA
ATOM     30  C   UNL A   1      37.158  33.969  35.888  1.00  0.00     0.031 C 
ATOM     31  C   UNL A   1      36.911  31.369  31.608  1.00  0.00     0.029 A 
ATOM     32  N   UNL A   1      38.641  30.944  32.961  1.00  0.00    -0.354 N 
ATOM     33  C   UNL A   1      39.166  33.170  36.642  1.00  0.00     0.074 A 
ATOM     34  C   UNL A   1      38.040  34.051  36.873  1.00  0.00     0.031 C 
ATOM     35  C   UNL A   1      37.642  30.399  31.036  1.00  0.00     0.029 A 
ATOM     36  C   UNL A   1      38.819  30.143  31.860  1.00  0.00     0.049 A 
ATOM     37  H   UNL A   1      39.242  30.932  33.742  1.00  0.00     0.167 HD
ATOM     38  C   UNL A   1      40.209  33.015  37.491  1.00  0.00     0.037 A 
ATOM     39  C   UNL A   1      39.841  29.332  31.534  1.00  0.00     0.037 A 
ATOM     40  C   UNL A   1      41.313  32.125  37.256  1.00  0.00     0.049 A 
ATOM     41  C   UNL A   1      41.014  29.218  32.465  1.00  0.00     0.074 A 
ATOM     42  C   UNL A   1      42.411  31.880  38.062  1.00  0.00     0.029 A 
ATOM     43  N   UNL A   1      41.459  31.331  36.128  1.00  0.00    -0.354 N 
ATOM     44  N   UNL A   1      41.215  29.815  33.615  1.00  0.00    -0.248 NA
ATOM     45  C   UNL A   1      42.109  28.331  32.048  1.00  0.00     0.031 C 
ATOM     46  C   UNL A   1      43.238  30.961  37.406  1.00  0.00     0.029 A 
ATOM     47  C   UNL A   1      42.636  30.607  36.208  1.00  0.00     0.049 A 
ATOM     48  H   UNL A   1      40.819  31.287  35.381  1.00  0.00     0.167 HD
ATOM     49  C   UNL A   1      42.447  29.362  34.069  1.00  0.00     0.074 A 
ATOM     50  C   UNL A   1      42.943  28.434  33.073  1.00  0.00     0.031 C 
ATOM     51  C   UNL A   1      43.105  29.683  35.208  1.00  0.00     0.037 A 
BRANCH  38  52
ATOM     52  C   UNL A   1      40.216  33.850  38.735  1.00  0.00     0.057 A 
ATOM     53  C   UNL A   1      39.592  33.427  39.914  1.00  0.00     0.134 A 
ATOM     54  C   UNL A   1      40.881  35.083  38.759  1.00  0.00     0.134 A 
ATOM     55  F   UNL A   1      38.924  32.263  39.950  1.00  0.00    -0.206 F 
ATOM     56  C   UNL A   1      39.616  34.207  41.072  1.00  0.00     0.040 A 
ATOM     57  C   UNL A   1      40.929  35.863  39.915  1.00  0.00     0.040 A 
ATOM     58  F   UNL A   1      41.499  35.545  37.662  1.00  0.00    -0.206 F 
ATOM     59  C   UNL A   1      40.291  35.426  41.075  1.00  0.00     0.006 A 
ENDBRANCH  38  52
BRANCH  39  60
ATOM     60  C   UNL A   1      39.812  28.591  30.250  1.00  0.00     0.057 A 
ATOM     61  C   UNL A   1      39.187  27.342  30.152  1.00  0.00     0.134 A 
ATOM     62  C   UNL A   1      40.396  29.116  29.091  1.00  0.00     0.134 A 
ATOM     63  F   UNL A   1      38.631  26.780  31.234  1.00  0.00    -0.206 F 
ATOM     64  C   UNL A   1      39.151  26.638  28.947  1.00  0.00     0.040 A 
ATOM     65  C   UNL A   1      40.347  28.432  27.875  1.00  0.00     0.040 A 
ATOM     66  F   UNL A   1      41.007  30.308  29.121  1.00  0.00    -0.206 F 
ATOM     67  C   UNL A   1      39.726  27.187  27.802  1.00  0.00     0.006 A 
ENDBRANCH  39  60
BRANCH  51  68
ATOM     68  C   UNL A   1      44.416  29.003  35.454  1.00  0.00     0.057 A 
ATOM     69  C   UNL A   1      45.629  29.572  35.049  1.00  0.00     0.134 A 
ATOM     70  C   UNL A   1      44.468  27.787  36.147  1.00  0.00     0.134 A 
ATOM     71  F   UNL A   1      45.643  30.729  34.369  1.00  0.00    -0.206 F 
ATOM     72  C   UNL A   1      46.849  28.949  35.315  1.00  0.00     0.040 A 
ATOM     73  C   UNL A   1      45.682  27.164  36.436  1.00  0.00     0.040 A 
ATOM     74  F   UNL A   1      43.339  27.195  36.566  1.00  0.00    -0.206 F 
ATOM     75  C   UNL A   1      46.877  27.745  36.016  1.00  0.00     0.006 A 
ENDBRANCH  51  68
ENDBRANCH  25  26
ENDBRANCH  18  20
ENDBRANCH  17  18
ENDBRANCH  16  17
ENDBRANCH   1  16
TORSDOF 14
ENDMDL
MODEL 2
REMARK VINA RESULT:      -9.6      7.114     11.749
REMARK SMILES C[C@H](CC(=O)OCCOC(=O)c1ccc(-c2c3nc(c(-c4c(F)cccc4F)c4ccc([nH]4)c(-c4c(F)cccc4F)c4nc(c(-c5c(F)cccc5F)c5ccc2[nH]5)C=C4)C=C3)cc1)c1ccc(O)cc1
REMARK SMILES IDX 7 1 6 2 4 3 5 4 3 5 2 6 1 7 66 8 67 9 72 10 68 11 71 12
REMARK SMILES IDX 69 13 70 14 8 16 9 17 10 18 11 19 12 20 13 21 65 22 14 23
REMARK SMILES IDX 64 24 15 25 16 26 17 27 58 28 18 29 63 30 57 31 59 32 19 33
REMARK SMILES IDX 62 34 56 35 55 36 20 38 46 39 29 40 45 41 30 42 33 43 44 44
REMARK SMILES IDX 60 45 31 46 32 47 43 49 61 50 34 51 21 52 22 53 27 54 23 55
REMARK SMILES IDX 24 56 26 57 28 58 25 59 47 60 48 61 53 62 49 63 50 64 52 65
REMARK SMILES IDX 54 66 51 67 35 68 36 69 41 70 37 71 38 72 40 73 42 74 39 75
REMARK H PARENT 70 15 59 37 33 48
REMARK Flexibility Score: inf
ROOT
ATOM      1  C   UNL A   1      38.711  21.190  25.518  1.00  0.00     0.274 C 
ENDROOT
BRANCH   1   2
ATOM      2  O   UNL A   1      37.605  21.391  24.619  1.00  0.00    -0.462 OA
BRANCH   2   3
ATOM      3  C   UNL A   1      36.855  22.507  24.763  1.00  0.00     0.306 C 
ATOM      4  O   UNL A   1      37.301  23.618  25.027  1.00  0.00    -0.252 OA
BRANCH   3   5
ATOM      5  C   UNL A   1      35.365  22.226  24.694  1.00  0.00     0.130 C 
BRANCH   5   6
ATOM      6  C   UNL A   1      34.794  21.021  25.479  1.00  0.00     0.027 C 
ATOM      7  C   UNL A   1      34.249  21.454  26.846  1.00  0.00     0.013 C 
BRANCH   6   8
ATOM      8  C   UNL A   1      33.859  20.160  24.645  1.00  0.00    -0.044 A 
ATOM      9  C   UNL A   1      34.057  18.767  24.628  1.00  0.00     0.008 A 
ATOM     10  C   UNL A   1      32.871  20.700  23.806  1.00  0.00     0.008 A 
ATOM     11  C   UNL A   1      33.347  17.954  23.745  1.00  0.00     0.046 A 
ATOM     12  C   UNL A   1      32.153  19.885  22.926  1.00  0.00     0.046 A 
ATOM     13  C   UNL A   1      32.413  18.521  22.888  1.00  0.00     0.115 A 
BRANCH  13  14
ATOM     14  O   UNL A   1      31.781  17.702  22.001  1.00  0.00    -0.508 OA
ATOM     15  H   UNL A   1      31.309  18.069  21.279  1.00  0.00     0.293 HD
ENDBRANCH  13  14
ENDBRANCH   6   8
ENDBRANCH   5   6
ENDBRANCH   3   5
ENDBRANCH   2   3
ENDBRANCH   1   2
BRANCH   1  16
ATOM     16  C   UNL A   1      39.274  19.780  25.379  1.00  0.00     0.275 C 
BRANCH  16  17
ATOM     17  O   UNL A   1      40.195  19.529  26.453  1.00  0.00    -0.458 OA
BRANCH  17  18
ATOM     18  C   UNL A   1      41.504  19.505  26.126  1.00  0.00     0.338 C 
ATOM     19  O   UNL A   1      42.138  18.613  25.594  1.00  0.00    -0.246 OA
BRANCH  18  20
ATOM     20  C   UNL A   1      42.092  20.789  26.526  1.00  0.00     0.060 A 
ATOM     21  C   UNL A   1      42.257  21.088  27.881  1.00  0.00     0.016 A 
ATOM     22  C   UNL A   1      42.433  21.715  25.542  1.00  0.00     0.016 A 
ATOM     23  C   UNL A   1      42.762  22.327  28.264  1.00  0.00     0.010 A 
ATOM     24  C   UNL A   1      42.964  22.945  25.924  1.00  0.00     0.010 A 
ATOM     25  C   UNL A   1      43.123  23.261  27.285  1.00  0.00    -0.014 A 
BRANCH  25  26
ATOM     26  C   UNL A   1      43.646  24.591  27.664  1.00  0.00     0.031 A 
ATOM     27  C   UNL A   1      42.689  25.671  28.068  1.00  0.00     0.074 A 
ATOM     28  C   UNL A   1      44.965  24.837  27.588  1.00  0.00     0.049 A 
ATOM     29  N   UNL A   1      42.907  26.950  28.234  1.00  0.00    -0.248 NA
ATOM     30  C   UNL A   1      41.297  25.257  28.307  1.00  0.00     0.031 C 
ATOM     31  C   UNL A   1      45.992  23.851  27.249  1.00  0.00     0.029 A 
ATOM     32  N   UNL A   1      45.664  26.003  27.766  1.00  0.00    -0.354 N 
ATOM     33  C   UNL A   1      41.676  27.500  28.565  1.00  0.00     0.074 A 
ATOM     34  C   UNL A   1      40.715  26.417  28.573  1.00  0.00     0.031 C 
ATOM     35  C   UNL A   1      47.189  24.460  27.221  1.00  0.00     0.029 A 
ATOM     36  C   UNL A   1      47.003  25.883  27.488  1.00  0.00     0.049 A 
ATOM     37  H   UNL A   1      45.246  26.845  28.064  1.00  0.00     0.167 HD
ATOM     38  C   UNL A   1      41.381  28.793  28.833  1.00  0.00     0.037 A 
ATOM     39  C   UNL A   1      47.961  26.824  27.411  1.00  0.00     0.037 A 
ATOM     40  C   UNL A   1      42.349  29.857  28.836  1.00  0.00     0.049 A 
ATOM     41  C   UNL A   1      47.599  28.262  27.658  1.00  0.00     0.074 A 
ATOM     42  C   UNL A   1      42.157  31.199  29.113  1.00  0.00     0.029 A 
ATOM     43  N   UNL A   1      43.697  29.696  28.548  1.00  0.00    -0.354 N 
ATOM     44  N   UNL A   1      46.432  28.778  27.957  1.00  0.00    -0.248 NA
ATOM     45  C   UNL A   1      48.682  29.248  27.542  1.00  0.00     0.031 C 
ATOM     46  C   UNL A   1      43.383  31.856  28.961  1.00  0.00     0.029 A 
ATOM     47  C   UNL A   1      44.345  30.916  28.625  1.00  0.00     0.049 A 
ATOM     48  H   UNL A   1      44.128  28.840  28.324  1.00  0.00     0.167 HD
ATOM     49  C   UNL A   1      46.642  30.145  28.086  1.00  0.00     0.074 A 
ATOM     50  C   UNL A   1      48.051  30.376  27.839  1.00  0.00     0.031 C 
ATOM     51  C   UNL A   1      45.750  31.120  28.383  1.00  0.00     0.037 A 
BRANCH  38  52
ATOM     52  C   UNL A   1      39.948  29.130  29.114  1.00  0.00     0.057 A 
ATOM     53  C   UNL A   1      39.027  29.362  28.085  1.00  0.00     0.134 A 
ATOM     54  C   UNL A   1      39.479  29.196  30.431  1.00  0.00     0.134 A 
ATOM     55  F   UNL A   1      39.419  29.329  26.802  1.00  0.00    -0.206 F 
ATOM     56  C   UNL A   1      37.692  29.662  28.357  1.00  0.00     0.040 A 
ATOM     57  C   UNL A   1      38.142  29.476  30.716  1.00  0.00     0.040 A 
ATOM     58  F   UNL A   1      40.311  28.984  31.462  1.00  0.00    -0.206 F 
ATOM     59  C   UNL A   1      37.245  29.714  29.676  1.00  0.00     0.006 A 
ENDBRANCH  38  52
BRANCH  39  60
ATOM     60  C   UNL A   1      49.346  26.438  27.052  1.00  0.00     0.057 A 
ATOM     61  C   UNL A   1      50.293  26.146  28.040  1.00  0.00     0.134 A 
ATOM     62  C   UNL A   1      49.753  26.339  25.715  1.00  0.00     0.134 A 
ATOM     63  F   UNL A   1      49.967  26.245  29.337  1.00  0.00    -0.206 F 
ATOM     64  C   UNL A   1      51.599  25.777  27.712  1.00  0.00     0.040 A 
ATOM     65  C   UNL A   1      51.049  25.951  25.374  1.00  0.00     0.040 A 
ATOM     66  F   UNL A   1      48.891  26.605  24.724  1.00  0.00    -0.206 F 
ATOM     67  C   UNL A   1      51.977  25.672  26.375  1.00  0.00     0.006 A 
ENDBRANCH  39  60
BRANCH  51  68
ATOM     68  C   UNL A   1      46.276  32.517  28.491  1.00  0.00     0.057 A 
ATOM     69  C   UNL A   1      46.267  33.394  27.400  1.00  0.00     0.134 A 
ATOM     70  C   UNL A   1      46.754  33.005  29.714  1.00  0.00     0.134 A 
ATOM     71  F   UNL A   1      45.835  32.980  26.199  1.00  0.00    -0.206 F 
ATOM     72  C   UNL A   1      46.726  34.706  27.518  1.00  0.00     0.040 A 
ATOM     73  C   UNL A   1      47.196  34.321  29.850  1.00  0.00     0.040 A 
ATOM     74  F   UNL A   1      46.782  32.215  30.797  1.00  0.00    -0.206 F 
ATOM     75  C   UNL A   1      47.185  35.175  28.748  1.00  0.00     0.006 A 
ENDBRANCH  51  68
ENDBRANCH  25  26
ENDBRANCH  18  20
ENDBRANCH  17  18
ENDBRANCH  16  17
ENDBRANCH   1  16
TORSDOF 14
ENDMDL
MODEL 3
REMARK VINA RESULT:      -9.5      2.103      7.449
REMARK SMILES C[C@H](CC(=O)OCCOC(=O)c1ccc(-c2c3nc(c(-c4c(F)cccc4F)c4ccc([nH]4)c(-c4c(F)cccc4F)c4nc(c(-c5c(F)cccc5F)c5ccc2[nH]5)C=C4)C=C3)cc1)c1ccc(O)cc1
REMARK SMILES IDX 7 1 6 2 4 3 5 4 3 5 2 6 1 7 66 8 67 9 72 10 68 11 71 12
REMARK SMILES IDX 69 13 70 14 8 16 9 17 10 18 11 19 12 20 13 21 65 22 14 23
REMARK SMILES IDX 64 24 15 25 16 26 17 27 58 28 18 29 63 30 57 31 59 32 19 33
REMARK SMILES IDX 62 34 56 35 55 36 20 38 46 39 29 40 45 41 30 42 33 43 44 44
REMARK SMILES IDX 60 45 31 46 32 47 43 49 61 50 34 51 21 52 22 53 27 54 23 55
REMARK SMILES IDX 24 56 26 57 28 58 25 59 47 60 48 61 53 62 49 63 50 64 52 65
REMARK SMILES IDX 54 66 51 67 35 68 36 69 41 70 37 71 38 72 40 73 42 74 39 75
REMARK H PARENT 70 15 59 37 33 48
REMARK Flexibility Score: inf
ROOT
ATOM      1  C   UNL A   1      31.940  30.865  26.890  1.00  0.00     0.274 C 
ENDROOT
BRANCH   1   2
ATOM      2  O   UNL A   1      33.312  30.576  26.566  1.00  0.00    -0.462 OA
BRANCH   2   3
ATOM      3  C   UNL A   1      33.859  29.436  27.044  1.00  0.00     0.306 C 
ATOM      4  O   UNL A   1      35.004  29.337  27.468  1.00  0.00    -0.252 OA
BRANCH   3   5
ATOM      5  C   UNL A   1      32.946  28.234  26.883  1.00  0.00     0.130 C 
BRANCH   5   6
ATOM      6  C   UNL A   1      33.025  27.405  25.578  1.00  0.00     0.027 C 
ATOM      7  C   UNL A   1      34.081  26.297  25.686  1.00  0.00     0.013 C 
BRANCH   6   8
ATOM      8  C   UNL A   1      31.660  26.961  25.075  1.00  0.00    -0.044 A 
ATOM      9  C   UNL A   1      31.098  27.628  23.970  1.00  0.00     0.008 A 
ATOM     10  C   UNL A   1      30.888  25.987  25.726  1.00  0.00     0.008 A 
ATOM     11  C   UNL A   1      29.781  27.383  23.582  1.00  0.00     0.046 A 
ATOM     12  C   UNL A   1      29.570  25.736  25.334  1.00  0.00     0.046 A 
ATOM     13  C   UNL A   1      29.021  26.453  24.278  1.00  0.00     0.115 A 
BRANCH  13  14
ATOM     14  O   UNL A   1      27.721  26.283  23.905  1.00  0.00    -0.508 OA
ATOM     15  H   UNL A   1      27.357  26.812  23.222  1.00  0.00     0.293 HD
ENDBRANCH  13  14
ENDBRANCH   6   8
ENDBRANCH   5   6
ENDBRANCH   3   5
ENDBRANCH   2   3
ENDBRANCH   1   2
BRANCH   1  16
ATOM     16  C   UNL A   1      31.693  32.369  26.914  1.00  0.00     0.275 C 
BRANCH  16  17
ATOM     17  O   UNL A   1      32.952  33.056  27.005  1.00  0.00    -0.458 OA
BRANCH  17  18
ATOM     18  C   UNL A   1      33.140  33.819  28.102  1.00  0.00     0.338 C 
ATOM     19  O   UNL A   1      32.456  34.737  28.515  1.00  0.00    -0.246 OA
BRANCH  18  20
ATOM     20  C   UNL A   1      34.361  33.354  28.771  1.00  0.00     0.060 A 
ATOM     21  C   UNL A   1      35.567  34.030  28.566  1.00  0.00     0.016 A 
ATOM     22  C   UNL A   1      34.306  32.211  29.565  1.00  0.00     0.016 A 
ATOM     23  C   UNL A   1      36.737  33.558  29.155  1.00  0.00     0.010 A 
ATOM     24  C   UNL A   1      35.472  31.753  30.176  1.00  0.00     0.010 A 
ATOM     25  C   UNL A   1      36.694  32.419  29.967  1.00  0.00    -0.014 A 
BRANCH  25  26
ATOM     26  C   UNL A   1      37.925  31.886  30.590  1.00  0.00     0.031 A 
ATOM     27  C   UNL A   1      38.717  30.834  29.874  1.00  0.00     0.074 A 
ATOM     28  C   UNL A   1      38.289  32.306  31.814  1.00  0.00     0.049 A 
ATOM     29  N   UNL A   1      39.694  30.089  30.321  1.00  0.00    -0.248 NA
ATOM     30  C   UNL A   1      38.353  30.583  28.471  1.00  0.00     0.031 C 
ATOM     31  C   UNL A   1      37.619  33.353  32.584  1.00  0.00     0.029 A 
ATOM     32  N   UNL A   1      39.302  31.879  32.635  1.00  0.00    -0.354 N 
ATOM     33  C   UNL A   1      40.042  29.257  29.265  1.00  0.00     0.074 A 
ATOM     34  C   UNL A   1      39.169  29.586  28.158  1.00  0.00     0.031 C 
ATOM     35  C   UNL A   1      38.225  33.473  33.777  1.00  0.00     0.029 A 
ATOM     36  C   UNL A   1      39.288  32.476  33.871  1.00  0.00     0.049 A 
ATOM     37  H   UNL A   1      39.972  31.210  32.364  1.00  0.00     0.167 HD
ATOM     38  C   UNL A   1      41.001  28.303  29.231  1.00  0.00     0.037 A 
ATOM     39  C   UNL A   1      40.019  32.215  34.969  1.00  0.00     0.037 A 
ATOM     40  C   UNL A   1      41.872  27.996  30.334  1.00  0.00     0.049 A 
ATOM     41  C   UNL A   1      41.040  31.113  34.925  1.00  0.00     0.074 A 
ATOM     42  C   UNL A   1      42.890  27.060  30.396  1.00  0.00     0.029 A 
ATOM     43  N   UNL A   1      41.827  28.622  31.571  1.00  0.00    -0.354 N 
ATOM     44  N   UNL A   1      41.355  30.320  33.930  1.00  0.00    -0.248 NA
ATOM     45  C   UNL A   1      41.796  30.860  36.160  1.00  0.00     0.031 C 
ATOM     46  C   UNL A   1      43.439  27.098  31.683  1.00  0.00     0.029 A 
ATOM     47  C   UNL A   1      42.787  28.082  32.409  1.00  0.00     0.049 A 
ATOM     48  H   UNL A   1      41.204  29.344  31.816  1.00  0.00     0.167 HD
ATOM     49  C   UNL A   1      42.359  29.489  34.410  1.00  0.00     0.074 A 
ATOM     50  C   UNL A   1      42.605  29.879  35.783  1.00  0.00     0.031 C 
ATOM     51  C   UNL A   1      43.018  28.493  33.769  1.00  0.00     0.037 A 
BRANCH  38  52
ATOM     52  C   UNL A   1      41.135  27.503  27.971  1.00  0.00     0.057 A 
ATOM     53  C   UNL A   1      41.966  27.911  26.921  1.00  0.00     0.134 A 
ATOM     54  C   UNL A   1      40.444  26.295  27.819  1.00  0.00     0.134 A 
ATOM     55  F   UNL A   1      42.642  29.068  26.999  1.00  0.00    -0.206 F 
ATOM     56  C   UNL A   1      42.094  27.152  25.756  1.00  0.00     0.040 A 
ATOM     57  C   UNL A   1      40.578  25.518  26.668  1.00  0.00     0.040 A 
ATOM     58  F   UNL A   1      39.632  25.848  28.789  1.00  0.00    -0.206 F 
ATOM     59  C   UNL A   1      41.403  25.948  25.631  1.00  0.00     0.006 A 
ENDBRANCH  38  52
BRANCH  39  60
ATOM     60  C   UNL A   1      39.785  32.989  36.212  1.00  0.00     0.057 A 
ATOM     61  C   UNL A   1      40.517  34.149  36.488  1.00  0.00     0.134 A 
ATOM     62  C   UNL A   1      38.819  32.595  37.146  1.00  0.00     0.134 A 
ATOM     63  F   UNL A   1      41.471  34.561  35.640  1.00  0.00    -0.206 F 
ATOM     64  C   UNL A   1      40.302  34.887  37.652  1.00  0.00     0.040 A 
ATOM     65  C   UNL A   1      38.579  33.336  38.304  1.00  0.00     0.040 A 
ATOM     66  F   UNL A   1      38.085  31.493  36.937  1.00  0.00    -0.206 F 
ATOM     67  C   UNL A   1      39.324  34.484  38.561  1.00  0.00     0.006 A 
ENDBRANCH  39  60
BRANCH  51  68
ATOM     68  C   UNL A   1      44.090  27.781  34.536  1.00  0.00     0.057 A 
ATOM     69  C   UNL A   1      43.833  26.592  35.228  1.00  0.00     0.134 A 
ATOM     70  C   UNL A   1      45.403  28.267  34.541  1.00  0.00     0.134 A 
ATOM     71  F   UNL A   1      42.592  26.084  35.270  1.00  0.00    -0.206 F 
ATOM     72  C   UNL A   1      44.846  25.915  35.909  1.00  0.00     0.040 A 
ATOM     73  C   UNL A   1      46.428  27.589  35.202  1.00  0.00     0.040 A 
ATOM     74  F   UNL A   1      45.712  29.399  33.892  1.00  0.00    -0.206 F 
ATOM     75  C   UNL A   1      46.149  26.410  35.891  1.00  0.00     0.006 A 
ENDBRANCH  51  68
ENDBRANCH  25  26
ENDBRANCH  18  20
ENDBRANCH  17  18
ENDBRANCH  16  17
ENDBRANCH   1  16
TORSDOF 14
ENDMDL
