MODEL 1
REMARK VINA RESULT:     -10.9      0.000      0.000
REMARK SMILES O=C(CNC(=O)OCc1ccccc1)NCC(=O)OCCOC(=O)c1ccc(-c2c3nc(c(-c4c(F)cccc4F)c4ccc([nH]4)c(-c4c(F)cccc4F)c4nc(c(-c5c(F)cccc5F)c5ccc2[nH]5)C=C4)C=C3)cc1
REMARK SMILES IDX 17 1 18 2 16 3 15 4 1 5 2 6 3 8 4 9 5 10 6 12 7 13 8 14 9 15
REMARK SMILES IDX 10 16 14 17 11 18 13 19 12 20 19 21 20 22 21 23 22 24 23 25
REMARK SMILES IDX 24 26 25 27 26 28 78 29 27 30 77 31 28 32 29 33 30 34 71 35
REMARK SMILES IDX 31 36 76 37 70 38 72 39 32 40 75 41 69 42 68 43 33 45 59 46
REMARK SMILES IDX 42 47 58 48 43 49 46 50 57 51 73 52 44 53 45 54 56 56 74 57
REMARK SMILES IDX 47 58 34 59 35 60 40 61 36 62 37 63 39 64 41 65 38 66 60 67
REMARK SMILES IDX 61 68 66 69 62 70 63 71 65 72 67 73 64 74 48 75 49 76 54 77
REMARK SMILES IDX 50 78 51 79 53 80 55 81 52 82
REMARK H PARENT 15 7 4 11 72 44 46 55
REMARK Flexibility Score: inf
ROOT
ATOM      1  C   UNL A   1      41.625  20.993  26.641  1.00  0.00     0.325 C 
ATOM      2  O   UNL A   1      42.012  21.562  27.655  1.00  0.00    -0.250 OA
ENDROOT
BRANCH   1   3
ATOM      3  C   UNL A   1      40.221  20.414  26.504  1.00  0.00     0.238 C 
BRANCH   3   4
ATOM      4  N   UNL A   1      39.198  21.356  26.081  1.00  0.00    -0.344 N 
ATOM      5  O   UNL A   1      38.042  19.873  24.774  1.00  0.00    -0.273 OA
ATOM      6  C   UNL A   1      38.144  20.987  25.279  1.00  0.00     0.240 C 
ATOM      7  H   UNL A   1      39.263  22.292  26.379  1.00  0.00     0.164 HD
BRANCH   6   8
ATOM      8  C   UNL A   1      37.112  22.090  25.043  1.00  0.00     0.219 C 
BRANCH   8   9
ATOM      9  N   UNL A   1      36.178  22.080  26.153  1.00  0.00    -0.312 N 
ATOM     10  C   UNL A   1      34.993  21.419  26.224  1.00  0.00     0.407 C 
ATOM     11  H   UNL A   1      36.431  22.611  26.942  1.00  0.00     0.167 HD
ATOM     12  O   UNL A   1      34.225  21.612  27.154  1.00  0.00    -0.225 OA
BRANCH  10  13
ATOM     13  O   UNL A   1      34.785  20.581  25.181  1.00  0.00    -0.445 OA
BRANCH  13  14
ATOM     14  C   UNL A   1      33.443  20.094  25.046  1.00  0.00     0.270 C 
BRANCH  14  15
ATOM     15  C   UNL A   1      33.402  18.592  24.899  1.00  0.00    -0.011 A 
ATOM     16  C   UNL A   1      34.136  17.947  23.894  1.00  0.00     0.007 A 
ATOM     17  C   UNL A   1      32.631  17.815  25.775  1.00  0.00     0.007 A 
ATOM     18  C   UNL A   1      34.084  16.556  23.761  1.00  0.00     0.000 A 
ATOM     19  C   UNL A   1      32.587  16.426  25.647  1.00  0.00     0.000 A 
ATOM     20  C   UNL A   1      33.310  15.797  24.638  1.00  0.00     0.000 A 
ENDBRANCH  14  15
ENDBRANCH  13  14
ENDBRANCH  10  13
ENDBRANCH   8   9
ENDBRANCH   6   8
ENDBRANCH   3   4
ENDBRANCH   1   3
BRANCH   1  21
ATOM     21  O   UNL A   1      42.382  20.783  25.530  1.00  0.00    -0.461 OA
BRANCH  21  22
ATOM     22  C   UNL A   1      43.772  21.148  25.614  1.00  0.00     0.274 C 
BRANCH  22  23
ATOM     23  C   UNL A   1      44.116  22.194  24.549  1.00  0.00     0.275 C 
BRANCH  23  24
ATOM     24  O   UNL A   1      43.388  23.423  24.743  1.00  0.00    -0.458 OA
BRANCH  24  25
ATOM     25  C   UNL A   1      44.140  24.495  25.077  1.00  0.00     0.338 C 
ATOM     26  O   UNL A   1      45.204  24.843  24.587  1.00  0.00    -0.246 OA
BRANCH  25  27
ATOM     27  C   UNL A   1      43.421  25.322  26.059  1.00  0.00     0.060 A 
ATOM     28  C   UNL A   1      43.826  26.651  26.204  1.00  0.00     0.016 A 
ATOM     29  C   UNL A   1      42.447  24.781  26.900  1.00  0.00     0.016 A 
ATOM     30  C   UNL A   1      43.292  27.436  27.219  1.00  0.00     0.010 A 
ATOM     31  C   UNL A   1      41.896  25.580  27.908  1.00  0.00     0.010 A 
ATOM     32  C   UNL A   1      42.335  26.904  28.092  1.00  0.00    -0.014 A 
BRANCH  32  33
ATOM     33  C   UNL A   1      41.856  27.721  29.233  1.00  0.00     0.031 A 
ATOM     34  C   UNL A   1      42.591  27.681  30.544  1.00  0.00     0.074 A 
ATOM     35  C   UNL A   1      40.789  28.528  29.082  1.00  0.00     0.049 A 
ATOM     36  N   UNL A   1      42.303  28.271  31.675  1.00  0.00    -0.248 NA
ATOM     37  C   UNL A   1      43.815  26.864  30.587  1.00  0.00     0.031 C 
ATOM     38  C   UNL A   1      40.019  28.689  27.847  1.00  0.00     0.029 A 
ATOM     39  N   UNL A   1      40.170  29.367  29.974  1.00  0.00    -0.354 N 
ATOM     40  C   UNL A   1      43.292  27.882  32.570  1.00  0.00     0.074 A 
ATOM     41  C   UNL A   1      44.174  26.982  31.857  1.00  0.00     0.031 C 
ATOM     42  C   UNL A   1      39.036  29.578  28.057  1.00  0.00     0.029 A 
ATOM     43  C   UNL A   1      39.073  30.008  29.451  1.00  0.00     0.049 A 
ATOM     44  H   UNL A   1      40.482  29.497  30.898  1.00  0.00     0.167 HD
ATOM     45  C   UNL A   1      43.454  28.249  33.864  1.00  0.00     0.037 A 
ATOM     46  C   UNL A   1      38.182  30.828  30.040  1.00  0.00     0.037 A 
ATOM     47  C   UNL A   1      42.584  29.160  34.561  1.00  0.00     0.049 A 
ATOM     48  C   UNL A   1      38.347  31.169  31.496  1.00  0.00     0.074 A 
ATOM     49  C   UNL A   1      42.672  29.608  35.868  1.00  0.00     0.029 A 
ATOM     50  N   UNL A   1      41.463  29.762  34.007  1.00  0.00    -0.354 N 
ATOM     51  N   UNL A   1      39.287  30.796  32.331  1.00  0.00    -0.248 NA
ATOM     52  C   UNL A   1      37.326  32.041  32.090  1.00  0.00     0.031 C 
ATOM     53  C   UNL A   1      41.576  30.440  36.120  1.00  0.00     0.029 A 
ATOM     54  C   UNL A   1      40.838  30.558  34.954  1.00  0.00     0.049 A 
ATOM     55  H   UNL A   1      41.158  29.643  33.079  1.00  0.00     0.167 HD
ATOM     56  C   UNL A   1      38.988  31.412  33.539  1.00  0.00     0.074 A 
ATOM     57  C   UNL A   1      37.787  32.192  33.324  1.00  0.00     0.031 C 
ATOM     58  C   UNL A   1      39.647  31.337  34.722  1.00  0.00     0.037 A 
BRANCH  45  59
ATOM     59  C   UNL A   1      44.601  27.641  34.619  1.00  0.00     0.057 A 
ATOM     60  C   UNL A   1      45.856  28.257  34.693  1.00  0.00     0.134 A 
ATOM     61  C   UNL A   1      44.434  26.435  35.313  1.00  0.00     0.134 A 
ATOM     62  F   UNL A   1      46.088  29.408  34.043  1.00  0.00    -0.206 F 
ATOM     63  C   UNL A   1      46.912  27.683  35.405  1.00  0.00     0.040 A 
ATOM     64  C   UNL A   1      45.473  25.865  36.052  1.00  0.00     0.040 A 
ATOM     65  F   UNL A   1      43.256  25.793  35.292  1.00  0.00    -0.206 F 
ATOM     66  C   UNL A   1      46.719  26.487  36.093  1.00  0.00     0.006 A 
ENDBRANCH  45  59
BRANCH  46  67
ATOM     67  C   UNL A   1      37.038  31.367  29.259  1.00  0.00     0.057 A 
ATOM     68  C   UNL A   1      35.931  30.568  28.948  1.00  0.00     0.134 A 
ATOM     69  C   UNL A   1      37.032  32.687  28.791  1.00  0.00     0.134 A 
ATOM     70  F   UNL A   1      35.887  29.290  29.349  1.00  0.00    -0.206 F 
ATOM     71  C   UNL A   1      34.870  31.057  28.184  1.00  0.00     0.040 A 
ATOM     72  C   UNL A   1      35.965  33.197  28.052  1.00  0.00     0.040 A 
ATOM     73  F   UNL A   1      38.061  33.504  29.057  1.00  0.00    -0.206 F 
ATOM     74  C   UNL A   1      34.883  32.377  27.738  1.00  0.00     0.006 A 
ENDBRANCH  46  67
BRANCH  58  75
ATOM     75  C   UNL A   1      39.111  32.155  35.860  1.00  0.00     0.057 A 
ATOM     76  C   UNL A   1      39.440  33.507  36.025  1.00  0.00     0.134 A 
ATOM     77  C   UNL A   1      38.223  31.589  36.786  1.00  0.00     0.134 A 
ATOM     78  F   UNL A   1      40.294  34.106  35.182  1.00  0.00    -0.206 F 
ATOM     79  C   UNL A   1      38.925  34.259  37.082  1.00  0.00     0.040 A 
ATOM     80  C   UNL A   1      37.679  32.339  37.830  1.00  0.00     0.040 A 
ATOM     81  F   UNL A   1      37.859  30.302  36.682  1.00  0.00    -0.206 F 
ATOM     82  C   UNL A   1      38.037  33.677  37.984  1.00  0.00     0.006 A 
ENDBRANCH  58  75
ENDBRANCH  32  33
ENDBRANCH  25  27
ENDBRANCH  24  25
ENDBRANCH  23  24
ENDBRANCH  22  23
ENDBRANCH  21  22
ENDBRANCH   1  21
TORSDOF 17
ENDMDL
MODEL 2
REMARK VINA RESULT:     -10.8      6.088     11.915
REMARK SMILES O=C(CNC(=O)OCc1ccccc1)NCC(=O)OCCOC(=O)c1ccc(-c2c3nc(c(-c4c(F)cccc4F)c4ccc([nH]4)c(-c4c(F)cccc4F)c4nc(c(-c5c(F)cccc5F)c5ccc2[nH]5)C=C4)C=C3)cc1
REMARK SMILES IDX 17 1 18 2 16 3 15 4 1 5 2 6 3 8 4 9 5 10 6 12 7 13 8 14 9 15
REMARK SMILES IDX 10 16 14 17 11 18 13 19 12 20 19 21 20 22 21 23 22 24 23 25
REMARK SMILES IDX 24 26 25 27 26 28 78 29 27 30 77 31 28 32 29 33 30 34 71 35
REMARK SMILES IDX 31 36 76 37 70 38 72 39 32 40 75 41 69 42 68 43 33 45 59 46
REMARK SMILES IDX 42 47 58 48 43 49 46 50 57 51 73 52 44 53 45 54 56 56 74 57
REMARK SMILES IDX 47 58 34 59 35 60 40 61 36 62 37 63 39 64 41 65 38 66 60 67
REMARK SMILES IDX 61 68 66 69 62 70 63 71 65 72 67 73 64 74 48 75 49 76 54 77
REMARK SMILES IDX 50 78 51 79 53 80 55 81 52 82
REMARK H PARENT 15 7 4 11 72 44 46 55
REMARK Flexibility Score: inf
ROOT
ATOM      1  C   UNL A   1      34.048  36.870  32.874  1.00  0.00     0.325 C 
ATOM      2  O   UNL A   1      34.035  37.785  33.689  1.00  0.00    -0.250 OA
ENDROOT
BRANCH   1   3
ATOM      3  C   UNL A   1      32.995  36.723  31.780  1.00  0.00     0.238 C 
BRANCH   3   4
ATOM      4  N   UNL A   1      33.517  36.534  30.437  1.00  0.00    -0.344 N 
ATOM      5  O   UNL A   1      33.297  34.254  30.421  1.00  0.00    -0.273 OA
ATOM      6  C   UNL A   1      33.577  35.297  29.838  1.00  0.00     0.240 C 
ATOM      7  H   UNL A   1      33.840  37.319  29.939  1.00  0.00     0.164 HD
BRANCH   6   8
ATOM      8  C   UNL A   1      34.044  35.321  28.383  1.00  0.00     0.219 C 
BRANCH   8   9
ATOM      9  N   UNL A   1      35.432  34.899  28.347  1.00  0.00    -0.312 N 
ATOM     10  C   UNL A   1      35.902  33.631  28.208  1.00  0.00     0.407 C 
ATOM     11  H   UNL A   1      36.108  35.609  28.434  1.00  0.00     0.167 HD
ATOM     12  O   UNL A   1      37.091  33.388  28.345  1.00  0.00    -0.225 OA
BRANCH  10  13
ATOM     13  O   UNL A   1      34.932  32.729  27.928  1.00  0.00    -0.445 OA
BRANCH  13  14
ATOM     14  C   UNL A   1      35.335  31.356  28.003  1.00  0.00     0.270 C 
BRANCH  14  15
ATOM     15  C   UNL A   1      34.261  30.425  27.493  1.00  0.00    -0.011 A 
ATOM     16  C   UNL A   1      32.963  30.892  27.243  1.00  0.00     0.007 A 
ATOM     17  C   UNL A   1      34.549  29.075  27.252  1.00  0.00     0.007 A 
ATOM     18  C   UNL A   1      31.974  30.021  26.779  1.00  0.00     0.000 A 
ATOM     19  C   UNL A   1      33.563  28.207  26.780  1.00  0.00     0.000 A 
ATOM     20  C   UNL A   1      32.275  28.679  26.547  1.00  0.00     0.000 A 
ENDBRANCH  14  15
ENDBRANCH  13  14
ENDBRANCH  10  13
ENDBRANCH   8   9
ENDBRANCH   6   8
ENDBRANCH   3   4
ENDBRANCH   1   3
BRANCH   1  21
ATOM     21  O   UNL A   1      34.968  35.868  32.845  1.00  0.00    -0.461 OA
BRANCH  21  22
ATOM     22  C   UNL A   1      34.869  34.866  33.875  1.00  0.00     0.274 C 
BRANCH  22  23
ATOM     23  C   UNL A   1      34.793  33.468  33.254  1.00  0.00     0.275 C 
BRANCH  23  24
ATOM     24  O   UNL A   1      36.034  33.086  32.627  1.00  0.00    -0.458 OA
BRANCH  24  25
ATOM     25  C   UNL A   1      36.817  32.255  33.352  1.00  0.00     0.338 C 
ATOM     26  O   UNL A   1      36.703  31.962  34.533  1.00  0.00    -0.246 OA
BRANCH  25  27
ATOM     27  C   UNL A   1      37.796  31.597  32.471  1.00  0.00     0.060 A 
ATOM     28  C   UNL A   1      38.965  31.109  33.057  1.00  0.00     0.016 A 
ATOM     29  C   UNL A   1      37.625  31.557  31.086  1.00  0.00     0.016 A 
ATOM     30  C   UNL A   1      39.993  30.618  32.260  1.00  0.00     0.010 A 
ATOM     31  C   UNL A   1      38.652  31.043  30.287  1.00  0.00     0.010 A 
ATOM     32  C   UNL A   1      39.854  30.596  30.867  1.00  0.00    -0.014 A 
BRANCH  32  33
ATOM     33  C   UNL A   1      41.000  30.170  30.027  1.00  0.00     0.031 A 
ATOM     34  C   UNL A   1      41.022  28.787  29.436  1.00  0.00     0.074 A 
ATOM     35  C   UNL A   1      41.998  31.034  29.763  1.00  0.00     0.049 A 
ATOM     36  N   UNL A   1      41.953  28.204  28.726  1.00  0.00    -0.248 NA
ATOM     37  C   UNL A   1      39.836  27.949  29.678  1.00  0.00     0.031 C 
ATOM     38  C   UNL A   1      42.069  32.415  30.240  1.00  0.00     0.029 A 
ATOM     39  N   UNL A   1      43.143  30.876  29.023  1.00  0.00    -0.354 N 
ATOM     40  C   UNL A   1      41.479  26.926  28.456  1.00  0.00     0.074 A 
ATOM     41  C   UNL A   1      40.188  26.810  29.101  1.00  0.00     0.031 C 
ATOM     42  C   UNL A   1      43.193  32.982  29.775  1.00  0.00     0.029 A 
ATOM     43  C   UNL A   1      43.946  31.990  29.013  1.00  0.00     0.049 A 
ATOM     44  H   UNL A   1      43.366  30.045  28.545  1.00  0.00     0.167 HD
ATOM     45  C   UNL A   1      42.063  25.943  27.728  1.00  0.00     0.037 A 
ATOM     46  C   UNL A   1      45.166  32.180  28.474  1.00  0.00     0.037 A 
ATOM     47  C   UNL A   1      43.339  26.073  27.072  1.00  0.00     0.049 A 
ATOM     48  C   UNL A   1      45.821  31.052  27.726  1.00  0.00     0.074 A 
ATOM     49  C   UNL A   1      44.009  25.141  26.298  1.00  0.00     0.029 A 
ATOM     50  N   UNL A   1      44.138  27.206  27.115  1.00  0.00    -0.354 N 
ATOM     51  N   UNL A   1      45.363  29.849  27.476  1.00  0.00    -0.248 NA
ATOM     52  C   UNL A   1      47.164  31.307  27.189  1.00  0.00     0.031 C 
ATOM     53  C   UNL A   1      45.236  25.693  25.916  1.00  0.00     0.029 A 
ATOM     54  C   UNL A   1      45.306  26.988  26.401  1.00  0.00     0.049 A 
ATOM     55  H   UNL A   1      43.909  28.041  27.582  1.00  0.00     0.167 HD
ATOM     56  C   UNL A   1      46.347  29.215  26.727  1.00  0.00     0.074 A 
ATOM     57  C   UNL A   1      47.420  30.172  26.555  1.00  0.00     0.031 C 
ATOM     58  C   UNL A   1      46.361  27.954  26.229  1.00  0.00     0.037 A 
BRANCH  45  59
ATOM     59  C   UNL A   1      41.340  24.631  27.628  1.00  0.00     0.057 A 
ATOM     60  C   UNL A   1      40.241  24.448  26.780  1.00  0.00     0.134 A 
ATOM     61  C   UNL A   1      41.775  23.523  28.367  1.00  0.00     0.134 A 
ATOM     62  F   UNL A   1      39.766  25.470  26.053  1.00  0.00    -0.206 F 
ATOM     63  C   UNL A   1      39.582  23.219  26.692  1.00  0.00     0.040 A 
ATOM     64  C   UNL A   1      41.143  22.281  28.266  1.00  0.00     0.040 A 
ATOM     65  F   UNL A   1      42.827  23.624  29.194  1.00  0.00    -0.206 F 
ATOM     66  C   UNL A   1      40.038  22.130  27.431  1.00  0.00     0.006 A 
ENDBRANCH  45  59
BRANCH  46  67
ATOM     67  C   UNL A   1      45.858  33.484  28.642  1.00  0.00     0.057 A 
ATOM     68  C   UNL A   1      46.666  33.739  29.757  1.00  0.00     0.134 A 
ATOM     69  C   UNL A   1      45.715  34.511  27.701  1.00  0.00     0.134 A 
ATOM     70  F   UNL A   1      46.824  32.803  30.703  1.00  0.00    -0.206 F 
ATOM     71  C   UNL A   1      47.290  34.974  29.939  1.00  0.00     0.040 A 
ATOM     72  C   UNL A   1      46.357  35.740  27.856  1.00  0.00     0.040 A 
ATOM     73  F   UNL A   1      44.958  34.330  26.609  1.00  0.00    -0.206 F 
ATOM     74  C   UNL A   1      47.140  35.978  28.983  1.00  0.00     0.006 A 
ENDBRANCH  46  67
BRANCH  58  75
ATOM     75  C   UNL A   1      47.554  27.553  25.411  1.00  0.00     0.057 A 
ATOM     76  C   UNL A   1      48.677  26.940  25.983  1.00  0.00     0.134 A 
ATOM     77  C   UNL A   1      47.563  27.750  24.023  1.00  0.00     0.134 A 
ATOM     78  F   UNL A   1      48.737  26.734  27.308  1.00  0.00    -0.206 F 
ATOM     79  C   UNL A   1      49.775  26.561  25.209  1.00  0.00     0.040 A 
ATOM     80  C   UNL A   1      48.643  27.349  23.236  1.00  0.00     0.040 A 
ATOM     81  F   UNL A   1      46.518  28.323  23.410  1.00  0.00    -0.206 F 
ATOM     82  C   UNL A   1      49.756  26.759  23.831  1.00  0.00     0.006 A 
ENDBRANCH  58  75
ENDBRANCH  32  33
ENDBRANCH  25  27
ENDBRANCH  24  25
ENDBRANCH  23  24
ENDBRANCH  22  23
ENDBRANCH  21  22
ENDBRANCH   1  21
TORSDOF 17
ENDMDL
MODEL 3
REMARK VINA RESULT:     -10.8      6.071     11.770
REMARK SMILES O=C(CNC(=O)OCc1ccccc1)NCC(=O)OCCOC(=O)c1ccc(-c2c3nc(c(-c4c(F)cccc4F)c4ccc([nH]4)c(-c4c(F)cccc4F)c4nc(c(-c5c(F)cccc5F)c5ccc2[nH]5)C=C4)C=C3)cc1
REMARK SMILES IDX 17 1 18 2 16 3 15 4 1 5 2 6 3 8 4 9 5 10 6 12 7 13 8 14 9 15
REMARK SMILES IDX 10 16 14 17 11 18 13 19 12 20 19 21 20 22 21 23 22 24 23 25
REMARK SMILES IDX 24 26 25 27 26 28 78 29 27 30 77 31 28 32 29 33 30 34 71 35
REMARK SMILES IDX 31 36 76 37 70 38 72 39 32 40 75 41 69 42 68 43 33 45 59 46
REMARK SMILES IDX 42 47 58 48 43 49 46 50 57 51 73 52 44 53 45 54 56 56 74 57
REMARK SMILES IDX 47 58 34 59 35 60 40 61 36 62 37 63 39 64 41 65 38 66 60 67
REMARK SMILES IDX 61 68 66 69 62 70 63 71 65 72 67 73 64 74 48 75 49 76 54 77
REMARK SMILES IDX 50 78 51 79 53 80 55 81 52 82
REMARK H PARENT 15 7 4 11 72 44 46 55
REMARK Flexibility Score: inf
ROOT
ATOM      1  C   UNL A   1      34.000  36.953  32.721  1.00  0.00     0.325 C 
ATOM      2  O   UNL A   1      34.029  37.950  33.433  1.00  0.00    -0.250 OA
ENDROOT
BRANCH   1   3
ATOM      3  C   UNL A   1      32.906  36.707  31.688  1.00  0.00     0.238 C 
BRANCH   3   4
ATOM      4  N   UNL A   1      33.373  36.479  30.330  1.00  0.00    -0.344 N 
ATOM      5  O   UNL A   1      33.378  34.193  30.468  1.00  0.00    -0.273 OA
ATOM      6  C   UNL A   1      33.522  35.217  29.805  1.00  0.00     0.240 C 
ATOM      7  H   UNL A   1      33.590  37.256  29.767  1.00  0.00     0.164 HD
BRANCH   6   8
ATOM      8  C   UNL A   1      33.909  35.188  28.327  1.00  0.00     0.219 C 
BRANCH   8   9
ATOM      9  N   UNL A   1      35.293  34.765  28.230  1.00  0.00    -0.312 N 
ATOM     10  C   UNL A   1      35.757  33.494  28.097  1.00  0.00     0.407 C 
ATOM     11  H   UNL A   1      35.972  35.477  28.264  1.00  0.00     0.167 HD
ATOM     12  O   UNL A   1      36.952  33.254  28.178  1.00  0.00    -0.225 OA
BRANCH  10  13
ATOM     13  O   UNL A   1      34.775  32.585  27.891  1.00  0.00    -0.445 OA
BRANCH  13  14
ATOM     14  C   UNL A   1      35.177  31.214  28.004  1.00  0.00     0.270 C 
BRANCH  14  15
ATOM     15  C   UNL A   1      34.145  30.276  27.428  1.00  0.00    -0.011 A 
ATOM     16  C   UNL A   1      32.895  30.750  27.007  1.00  0.00     0.007 A 
ATOM     17  C   UNL A   1      34.425  28.908  27.298  1.00  0.00     0.007 A 
ATOM     18  C   UNL A   1      31.943  29.871  26.483  1.00  0.00     0.000 A 
ATOM     19  C   UNL A   1      33.476  28.032  26.767  1.00  0.00     0.000 A 
ATOM     20  C   UNL A   1      32.235  28.513  26.363  1.00  0.00     0.000 A 
ENDBRANCH  14  15
ENDBRANCH  13  14
ENDBRANCH  10  13
ENDBRANCH   8   9
ENDBRANCH   6   8
ENDBRANCH   3   4
ENDBRANCH   1   3
BRANCH   1  21
ATOM     21  O   UNL A   1      34.906  35.938  32.768  1.00  0.00    -0.461 OA
BRANCH  21  22
ATOM     22  C   UNL A   1      34.792  35.016  33.867  1.00  0.00     0.274 C 
BRANCH  22  23
ATOM     23  C   UNL A   1      34.739  33.575  33.354  1.00  0.00     0.275 C 
BRANCH  23  24
ATOM     24  O   UNL A   1      35.968  33.184  32.710  1.00  0.00    -0.458 OA
BRANCH  24  25
ATOM     25  C   UNL A   1      36.767  32.367  33.434  1.00  0.00     0.338 C 
ATOM     26  O   UNL A   1      36.682  32.104  34.624  1.00  0.00    -0.246 OA
BRANCH  25  27
ATOM     27  C   UNL A   1      37.721  31.685  32.545  1.00  0.00     0.060 A 
ATOM     28  C   UNL A   1      38.738  30.937  33.142  1.00  0.00     0.016 A 
ATOM     29  C   UNL A   1      37.688  31.862  31.161  1.00  0.00     0.016 A 
ATOM     30  C   UNL A   1      39.756  30.399  32.364  1.00  0.00     0.010 A 
ATOM     31  C   UNL A   1      38.703  31.302  30.377  1.00  0.00     0.010 A 
ATOM     32  C   UNL A   1      39.758  30.590  30.977  1.00  0.00    -0.014 A 
BRANCH  32  33
ATOM     33  C   UNL A   1      40.907  30.100  30.176  1.00  0.00     0.031 A 
ATOM     34  C   UNL A   1      42.075  31.008  29.908  1.00  0.00     0.074 A 
ATOM     35  C   UNL A   1      40.920  28.831  29.725  1.00  0.00     0.049 A 
ATOM     36  N   UNL A   1      43.144  30.793  29.185  1.00  0.00    -0.248 NA
ATOM     37  C   UNL A   1      42.031  32.338  30.536  1.00  0.00     0.031 C 
ATOM     38  C   UNL A   1      39.869  27.841  29.958  1.00  0.00     0.029 A 
ATOM     39  N   UNL A   1      41.855  28.158  28.980  1.00  0.00    -0.354 N 
ATOM     40  C   UNL A   1      43.889  31.964  29.253  1.00  0.00     0.074 A 
ATOM     41  C   UNL A   1      43.137  32.896  30.065  1.00  0.00     0.031 C 
ATOM     42  C   UNL A   1      40.219  26.684  29.374  1.00  0.00     0.029 A 
ATOM     43  C   UNL A   1      41.492  26.867  28.683  1.00  0.00     0.049 A 
ATOM     44  H   UNL A   1      42.703  28.561  28.686  1.00  0.00     0.167 HD
ATOM     45  C   UNL A   1      45.095  32.232  28.696  1.00  0.00     0.037 A 
ATOM     46  C   UNL A   1      42.104  25.945  27.916  1.00  0.00     0.037 A 
ATOM     47  C   UNL A   1      45.847  31.292  27.905  1.00  0.00     0.049 A 
ATOM     48  C   UNL A   1      43.411  26.290  27.255  1.00  0.00     0.074 A 
ATOM     49  C   UNL A   1      47.086  31.462  27.311  1.00  0.00     0.029 A 
ATOM     50  N   UNL A   1      45.430  30.005  27.599  1.00  0.00    -0.354 N 
ATOM     51  N   UNL A   1      44.107  27.399  27.327  1.00  0.00    -0.248 NA
ATOM     52  C   UNL A   1      44.015  25.255  26.405  1.00  0.00     0.031 C 
ATOM     53  C   UNL A   1      47.394  30.296  26.601  1.00  0.00     0.029 A 
ATOM     54  C   UNL A   1      46.376  29.378  26.802  1.00  0.00     0.049 A 
ATOM     55  H   UNL A   1      44.588  29.597  27.902  1.00  0.00     0.167 HD
ATOM     56  C   UNL A   1      45.243  27.185  26.558  1.00  0.00     0.074 A 
ATOM     57  C   UNL A   1      45.149  25.836  26.039  1.00  0.00     0.031 C 
ATOM     58  C   UNL A   1      46.272  28.030  26.302  1.00  0.00     0.037 A 
BRANCH  45  59
ATOM     59  C   UNL A   1      45.662  33.607  28.897  1.00  0.00     0.057 A 
ATOM     60  C   UNL A   1      46.505  33.916  29.973  1.00  0.00     0.134 A 
ATOM     61  C   UNL A   1      45.387  34.630  27.980  1.00  0.00     0.134 A 
ATOM     62  F   UNL A   1      46.800  32.987  30.894  1.00  0.00    -0.206 F 
ATOM     63  C   UNL A   1      47.031  35.199  30.144  1.00  0.00     0.040 A 
ATOM     64  C   UNL A   1      45.929  35.909  28.124  1.00  0.00     0.040 A 
ATOM     65  F   UNL A   1      44.593  34.403  26.922  1.00  0.00    -0.206 F 
ATOM     66  C   UNL A   1      46.749  36.198  29.214  1.00  0.00     0.006 A 
ENDBRANCH  45  59
BRANCH  46  67
ATOM     67  C   UNL A   1      41.478  24.613  27.711  1.00  0.00     0.057 A 
ATOM     68  C   UNL A   1      40.428  24.437  26.802  1.00  0.00     0.134 A 
ATOM     69  C   UNL A   1      41.902  23.489  28.431  1.00  0.00     0.134 A 
ATOM     70  F   UNL A   1      39.962  25.479  26.099  1.00  0.00    -0.206 F 
ATOM     71  C   UNL A   1      39.810  23.197  26.631  1.00  0.00     0.040 A 
ATOM     72  C   UNL A   1      41.314  22.238  28.248  1.00  0.00     0.040 A 
ATOM     73  F   UNL A   1      42.906  23.590  29.315  1.00  0.00    -0.206 F 
ATOM     74  C   UNL A   1      40.257  22.091  27.352  1.00  0.00     0.006 A 
ENDBRANCH  46  67
BRANCH  58  75
ATOM     75  C   UNL A   1      47.400  27.506  25.461  1.00  0.00     0.057 A 
ATOM     76  C   UNL A   1      47.422  27.657  24.069  1.00  0.00     0.134 A 
ATOM     77  C   UNL A   1      48.497  26.870  26.060  1.00  0.00     0.134 A 
ATOM     78  F   UNL A   1      46.397  28.244  23.432  1.00  0.00    -0.206 F 
ATOM     79  C   UNL A   1      48.482  27.173  23.300  1.00  0.00     0.040 A 
ATOM     80  C   UNL A   1      49.576  26.409  25.304  1.00  0.00     0.040 A 
ATOM     81  F   UNL A   1      48.543  26.700  27.389  1.00  0.00    -0.206 F 
ATOM     82  C   UNL A   1      49.566  26.554  23.919  1.00  0.00     0.006 A 
ENDBRANCH  58  75
ENDBRANCH  32  33
ENDBRANCH  25  27
ENDBRANCH  24  25
ENDBRANCH  23  24
ENDBRANCH  22  23
ENDBRANCH  21  22
ENDBRANCH   1  21
TORSDOF 17
ENDMDL
