MODEL 1
REMARK VINA RESULT:     -12.3      0.000      0.000
REMARK SMILES Cc1ccc(Nc2c(Cl)cccc2Cl)c(CC(=O)OCCOC(=O)c2ccc(-c3c4nc(c(-c5c(F)cccc5F)c5ccc([nH]5)c(-c5c(F)cccc5F)c5nc(c(-c6c(F)cccc6F)c6ccc3[nH]6)C=C5)C=C4)cc2)c1
REMARK SMILES IDX 20 1 19 2 17 3 18 4 16 5 15 6 1 7 2 8 3 9 79 10 4 11 5 12
REMARK SMILES IDX 6 13 7 15 8 16 13 17 9 18 10 19 12 20 14 21 11 22 21 23
REMARK SMILES IDX 22 24 23 25 24 26 25 27 26 28 78 29 27 30 77 31 28 32 29 33
REMARK SMILES IDX 30 34 71 35 31 36 76 37 70 38 72 39 32 40 75 41 69 42 68 43
REMARK SMILES IDX 33 45 59 46 42 47 58 48 43 49 46 50 57 51 73 52 44 53 45 54
REMARK SMILES IDX 56 56 74 57 47 58 34 59 35 60 40 61 36 62 37 63 39 64 41 65
REMARK SMILES IDX 38 66 60 67 61 68 66 69 62 70 63 71 65 72 67 73 64 74 48 75
REMARK SMILES IDX 49 76 54 77 50 78 51 79 53 80 55 81 52 82
REMARK H PARENT 6 14 72 44 46 55
REMARK Flexibility Score: inf
ROOT
ATOM      1  C   UNL A   1      33.476  30.027  26.721  1.00  0.00     0.274 C 
ENDROOT
BRANCH   1   2
ATOM      2  O   UNL A   1      32.449  29.524  27.561  1.00  0.00    -0.462 OA
BRANCH   2   3
ATOM      3  C   UNL A   1      31.967  28.274  27.301  1.00  0.00     0.310 C 
ATOM      4  O   UNL A   1      31.068  27.723  27.888  1.00  0.00    -0.252 OA
BRANCH   3   5
ATOM      5  C   UNL A   1      32.766  27.688  26.152  1.00  0.00     0.160 C 
BRANCH   5   6
ATOM      6  C   UNL A   1      31.809  27.087  25.159  1.00  0.00    -0.013 A 
ATOM      7  C   UNL A   1      28.986  28.590  23.107  1.00  0.00     0.044 C 
ATOM      8  C   UNL A   1      29.905  27.586  23.730  1.00  0.00    -0.051 A 
ATOM      9  C   UNL A   1      29.651  26.219  23.634  1.00  0.00     0.005 A 
ATOM     10  C   UNL A   1      30.999  28.011  24.474  1.00  0.00     0.009 A 
ATOM     11  C   UNL A   1      30.477  25.290  24.277  1.00  0.00     0.026 A 
ATOM     12  C   UNL A   1      31.563  25.697  25.059  1.00  0.00     0.042 A 
BRANCH  12  13
ATOM     13  N   UNL A   1      32.314  24.743  25.773  1.00  0.00    -0.353 N 
ATOM     14  H   UNL A   1      32.661  25.047  26.643  1.00  0.00     0.167 HD
BRANCH  13  15
ATOM     15  C   UNL A   1      32.644  23.406  25.426  1.00  0.00     0.076 A 
ATOM     16  C   UNL A   1      31.738  22.351  25.639  1.00  0.00     0.066 A 
ATOM     17  C   UNL A   1      33.793  23.114  24.664  1.00  0.00     0.066 A 
ATOM     18  Cl  UNL A   1      30.279  22.576  26.543  1.00  0.00    -0.082 Cl
ATOM     19  C   UNL A   1      31.981  21.070  25.123  1.00  0.00     0.023 A 
ATOM     20  C   UNL A   1      33.997  21.855  24.084  1.00  0.00     0.023 A 
ATOM     21  Cl  UNL A   1      35.100  24.229  24.532  1.00  0.00    -0.082 Cl
ATOM     22  C   UNL A   1      33.094  20.830  24.321  1.00  0.00     0.003 A 
ENDBRANCH  13  15
ENDBRANCH  12  13
ENDBRANCH   5   6
ENDBRANCH   3   5
ENDBRANCH   2   3
ENDBRANCH   1   2
BRANCH   1  23
ATOM     23  C   UNL A   1      34.439  30.884  27.558  1.00  0.00     0.275 C 
BRANCH  23  24
ATOM     24  O   UNL A   1      35.664  30.246  28.093  1.00  0.00    -0.458 OA
BRANCH  24  25
ATOM     25  C   UNL A   1      36.904  30.759  28.342  1.00  0.00     0.338 C 
ATOM     26  O   UNL A   1      37.128  31.961  28.377  1.00  0.00    -0.246 OA
BRANCH  25  27
ATOM     27  C   UNL A   1      37.973  29.801  28.642  1.00  0.00     0.060 A 
ATOM     28  C   UNL A   1      37.856  28.829  29.653  1.00  0.00     0.016 A 
ATOM     29  C   UNL A   1      39.038  29.788  27.769  1.00  0.00     0.016 A 
ATOM     30  C   UNL A   1      38.762  27.772  29.678  1.00  0.00     0.010 A 
ATOM     31  C   UNL A   1      39.692  28.612  27.587  1.00  0.00     0.010 A 
ATOM     32  C   UNL A   1      39.655  27.664  28.611  1.00  0.00    -0.014 A 
BRANCH  32  33
ATOM     33  C   UNL A   1      40.855  26.849  28.597  1.00  0.00     0.031 A 
ATOM     34  C   UNL A   1      40.820  25.416  28.317  1.00  0.00     0.074 A 
ATOM     35  C   UNL A   1      41.979  27.589  28.737  1.00  0.00     0.049 A 
ATOM     36  N   UNL A   1      41.528  24.551  28.956  1.00  0.00    -0.248 NA
ATOM     37  C   UNL A   1      39.968  24.823  27.288  1.00  0.00     0.031 C 
ATOM     38  C   UNL A   1      43.376  27.272  28.545  1.00  0.00     0.029 A 
ATOM     39  N   UNL A   1      42.005  28.916  29.197  1.00  0.00    -0.354 N 
ATOM     40  C   UNL A   1      41.510  23.407  28.188  1.00  0.00     0.074 A 
ATOM     41  C   UNL A   1      40.391  23.552  27.287  1.00  0.00     0.031 C 
ATOM     42  C   UNL A   1      44.114  28.223  29.160  1.00  0.00     0.029 A 
ATOM     43  C   UNL A   1      43.206  29.137  29.850  1.00  0.00     0.049 A 
ATOM     44  H   UNL A   1      41.287  29.578  29.076  1.00  0.00     0.167 HD
ATOM     45  C   UNL A   1      42.602  22.591  28.172  1.00  0.00     0.037 A 
ATOM     46  C   UNL A   1      43.123  29.380  31.190  1.00  0.00     0.037 A 
ATOM     47  C   UNL A   1      43.696  23.209  28.917  1.00  0.00     0.049 A 
ATOM     48  C   UNL A   1      43.622  28.183  31.957  1.00  0.00     0.074 A 
ATOM     49  C   UNL A   1      44.755  23.991  28.481  1.00  0.00     0.029 A 
ATOM     50  N   UNL A   1      43.572  23.446  30.282  1.00  0.00    -0.354 N 
ATOM     51  N   UNL A   1      43.651  26.971  31.472  1.00  0.00    -0.248 NA
ATOM     52  C   UNL A   1      44.186  28.269  33.297  1.00  0.00     0.031 C 
ATOM     53  C   UNL A   1      45.229  24.748  29.580  1.00  0.00     0.029 A 
ATOM     54  C   UNL A   1      44.460  24.428  30.686  1.00  0.00     0.049 A 
ATOM     55  H   UNL A   1      42.941  22.980  30.877  1.00  0.00     0.167 HD
ATOM     56  C   UNL A   1      44.283  26.144  32.357  1.00  0.00     0.074 A 
ATOM     57  C   UNL A   1      44.584  27.000  33.492  1.00  0.00     0.031 C 
ATOM     58  C   UNL A   1      44.540  24.832  32.079  1.00  0.00     0.037 A 
BRANCH  45  59
ATOM     59  C   UNL A   1      42.777  21.475  27.172  1.00  0.00     0.057 A 
ATOM     60  C   UNL A   1      42.034  20.282  27.252  1.00  0.00     0.134 A 
ATOM     61  C   UNL A   1      43.671  21.540  26.088  1.00  0.00     0.134 A 
ATOM     62  F   UNL A   1      41.101  20.090  28.192  1.00  0.00    -0.206 F 
ATOM     63  C   UNL A   1      42.213  19.211  26.368  1.00  0.00     0.040 A 
ATOM     64  C   UNL A   1      43.879  20.464  25.210  1.00  0.00     0.040 A 
ATOM     65  F   UNL A   1      44.364  22.660  25.831  1.00  0.00    -0.206 F 
ATOM     66  C   UNL A   1      43.152  19.290  25.353  1.00  0.00     0.006 A 
ENDBRANCH  45  59
BRANCH  46  67
ATOM     67  C   UNL A   1      41.951  30.251  31.561  1.00  0.00     0.057 A 
ATOM     68  C   UNL A   1      41.923  31.577  31.075  1.00  0.00     0.134 A 
ATOM     69  C   UNL A   1      40.743  29.759  32.067  1.00  0.00     0.134 A 
ATOM     70  F   UNL A   1      43.037  32.128  30.565  1.00  0.00    -0.206 F 
ATOM     71  C   UNL A   1      40.746  32.334  31.000  1.00  0.00     0.040 A 
ATOM     72  C   UNL A   1      39.558  30.517  32.016  1.00  0.00     0.040 A 
ATOM     73  F   UNL A   1      40.657  28.509  32.542  1.00  0.00    -0.206 F 
ATOM     74  C   UNL A   1      39.550  31.792  31.451  1.00  0.00     0.006 A 
ENDBRANCH  46  67
BRANCH  58  75
ATOM     75  C   UNL A   1      45.007  23.812  33.077  1.00  0.00     0.057 A 
ATOM     76  C   UNL A   1      46.282  23.820  33.652  1.00  0.00     0.134 A 
ATOM     77  C   UNL A   1      44.098  22.877  33.622  1.00  0.00     0.134 A 
ATOM     78  F   UNL A   1      47.202  24.731  33.308  1.00  0.00    -0.206 F 
ATOM     79  C   UNL A   1      46.648  22.922  34.659  1.00  0.00     0.040 A 
ATOM     80  C   UNL A   1      44.432  22.024  34.673  1.00  0.00     0.040 A 
ATOM     81  F   UNL A   1      42.836  22.770  33.179  1.00  0.00    -0.206 F 
ATOM     82  C   UNL A   1      45.718  22.033  35.184  1.00  0.00     0.006 A 
ENDBRANCH  58  75
ENDBRANCH  32  33
ENDBRANCH  25  27
ENDBRANCH  24  25
ENDBRANCH  23  24
ENDBRANCH   1  23
TORSDOF 14
ENDMDL
MODEL 2
REMARK VINA RESULT:     -12.2      1.225      2.841
REMARK SMILES Cc1ccc(Nc2c(Cl)cccc2Cl)c(CC(=O)OCCOC(=O)c2ccc(-c3c4nc(c(-c5c(F)cccc5F)c5ccc([nH]5)c(-c5c(F)cccc5F)c5nc(c(-c6c(F)cccc6F)c6ccc3[nH]6)C=C5)C=C4)cc2)c1
REMARK SMILES IDX 20 1 19 2 17 3 18 4 16 5 15 6 1 7 2 8 3 9 79 10 4 11 5 12
REMARK SMILES IDX 6 13 7 15 8 16 13 17 9 18 10 19 12 20 14 21 11 22 21 23
REMARK SMILES IDX 22 24 23 25 24 26 25 27 26 28 78 29 27 30 77 31 28 32 29 33
REMARK SMILES IDX 30 34 71 35 31 36 76 37 70 38 72 39 32 40 75 41 69 42 68 43
REMARK SMILES IDX 33 45 59 46 42 47 58 48 43 49 46 50 57 51 73 52 44 53 45 54
REMARK SMILES IDX 56 56 74 57 47 58 34 59 35 60 40 61 36 62 37 63 39 64 41 65
REMARK SMILES IDX 38 66 60 67 61 68 66 69 62 70 63 71 65 72 67 73 64 74 48 75
REMARK SMILES IDX 49 76 54 77 50 78 51 79 53 80 55 81 52 82
REMARK H PARENT 6 14 72 44 46 55
REMARK Flexibility Score: inf
ROOT
ATOM      1  C   UNL A   1      34.074  28.571  26.180  1.00  0.00     0.274 C 
ENDROOT
BRANCH   1   2
ATOM      2  O   UNL A   1      32.878  27.869  26.481  1.00  0.00    -0.462 OA
BRANCH   2   3
ATOM      3  C   UNL A   1      32.844  26.529  26.228  1.00  0.00     0.310 C 
ATOM      4  O   UNL A   1      31.946  25.774  26.514  1.00  0.00    -0.252 OA
BRANCH   3   5
ATOM      5  C   UNL A   1      34.138  26.144  25.535  1.00  0.00     0.160 C 
BRANCH   5   6
ATOM      6  C   UNL A   1      33.990  24.755  24.979  1.00  0.00    -0.013 A 
ATOM      7  C   UNL A   1      35.155  21.365  26.241  1.00  0.00     0.044 C 
ATOM      8  C   UNL A   1      34.583  22.425  25.353  1.00  0.00    -0.051 A 
ATOM      9  C   UNL A   1      34.266  22.157  24.021  1.00  0.00     0.005 A 
ATOM     10  C   UNL A   1      34.420  23.720  25.829  1.00  0.00     0.009 A 
ATOM     11  C   UNL A   1      33.796  23.171  23.180  1.00  0.00     0.026 A 
ATOM     12  C   UNL A   1      33.657  24.488  23.630  1.00  0.00     0.042 A 
BRANCH  12  13
ATOM     13  N   UNL A   1      33.277  25.504  22.730  1.00  0.00    -0.353 N 
ATOM     14  H   UNL A   1      33.819  25.563  21.910  1.00  0.00     0.167 HD
BRANCH  13  15
ATOM     15  C   UNL A   1      32.227  26.454  22.829  1.00  0.00     0.076 A 
ATOM     16  C   UNL A   1      30.914  26.062  23.144  1.00  0.00     0.066 A 
ATOM     17  C   UNL A   1      32.495  27.838  22.827  1.00  0.00     0.066 A 
ATOM     18  Cl  UNL A   1      30.452  24.394  23.197  1.00  0.00    -0.082 Cl
ATOM     19  C   UNL A   1      29.921  27.010  23.432  1.00  0.00     0.023 A 
ATOM     20  C   UNL A   1      31.524  28.781  23.190  1.00  0.00     0.023 A 
ATOM     21  Cl  UNL A   1      33.978  28.474  22.223  1.00  0.00    -0.082 Cl
ATOM     22  C   UNL A   1      30.233  28.366  23.485  1.00  0.00     0.003 A 
ENDBRANCH  13  15
ENDBRANCH  12  13
ENDBRANCH   5   6
ENDBRANCH   3   5
ENDBRANCH   2   3
ENDBRANCH   1   2
BRANCH   1  23
ATOM     23  C   UNL A   1      34.658  29.152  27.478  1.00  0.00     0.275 C 
BRANCH  23  24
ATOM     24  O   UNL A   1      35.763  30.134  27.374  1.00  0.00    -0.458 OA
BRANCH  24  25
ATOM     25  C   UNL A   1      36.654  30.581  28.306  1.00  0.00     0.338 C 
ATOM     26  O   UNL A   1      36.509  31.636  28.908  1.00  0.00    -0.246 OA
BRANCH  25  27
ATOM     27  C   UNL A   1      37.784  29.701  28.621  1.00  0.00     0.060 A 
ATOM     28  C   UNL A   1      37.783  28.834  29.729  1.00  0.00     0.016 A 
ATOM     29  C   UNL A   1      38.787  29.642  27.678  1.00  0.00     0.016 A 
ATOM     30  C   UNL A   1      38.737  27.822  29.792  1.00  0.00     0.010 A 
ATOM     31  C   UNL A   1      39.481  28.481  27.567  1.00  0.00     0.010 A 
ATOM     32  C   UNL A   1      39.559  27.642  28.680  1.00  0.00    -0.014 A 
BRANCH  32  33
ATOM     33  C   UNL A   1      40.792  26.878  28.659  1.00  0.00     0.031 A 
ATOM     34  C   UNL A   1      40.823  25.456  28.330  1.00  0.00     0.074 A 
ATOM     35  C   UNL A   1      41.882  27.659  28.846  1.00  0.00     0.049 A 
ATOM     36  N   UNL A   1      41.555  24.599  28.951  1.00  0.00    -0.248 NA
ATOM     37  C   UNL A   1      40.013  24.865  27.265  1.00  0.00     0.031 C 
ATOM     38  C   UNL A   1      43.294  27.406  28.668  1.00  0.00     0.029 A 
ATOM     39  N   UNL A   1      41.844  28.968  29.352  1.00  0.00    -0.354 N 
ATOM     40  C   UNL A   1      41.599  23.483  28.143  1.00  0.00     0.074 A 
ATOM     41  C   UNL A   1      40.489  23.613  27.228  1.00  0.00     0.031 C 
ATOM     42  C   UNL A   1      43.981  28.365  29.329  1.00  0.00     0.029 A 
ATOM     43  C   UNL A   1      43.023  29.216  30.034  1.00  0.00     0.049 A 
ATOM     44  H   UNL A   1      41.102  29.604  29.241  1.00  0.00     0.167 HD
ATOM     45  C   UNL A   1      42.724  22.714  28.119  1.00  0.00     0.037 A 
ATOM     46  C   UNL A   1      42.908  29.408  31.380  1.00  0.00     0.037 A 
ATOM     47  C   UNL A   1      43.778  23.350  28.905  1.00  0.00     0.049 A 
ATOM     48  C   UNL A   1      43.444  28.205  32.113  1.00  0.00     0.074 A 
ATOM     49  C   UNL A   1      44.810  24.190  28.516  1.00  0.00     0.029 A 
ATOM     50  N   UNL A   1      43.621  23.533  30.275  1.00  0.00    -0.354 N 
ATOM     51  N   UNL A   1      43.533  27.014  31.587  1.00  0.00    -0.248 NA
ATOM     52  C   UNL A   1      43.981  28.268  33.465  1.00  0.00     0.031 C 
ATOM     53  C   UNL A   1      45.233  24.926  29.649  1.00  0.00     0.029 A 
ATOM     54  C   UNL A   1      44.460  24.536  30.729  1.00  0.00     0.049 A 
ATOM     55  H   UNL A   1      43.000  23.021  30.842  1.00  0.00     0.167 HD
ATOM     56  C   UNL A   1      44.183  26.183  32.454  1.00  0.00     0.074 A 
ATOM     57  C   UNL A   1      44.429  27.010  33.624  1.00  0.00     0.031 C 
ATOM     58  C   UNL A   1      44.500  24.894  32.137  1.00  0.00     0.037 A 
BRANCH  45  59
ATOM     59  C   UNL A   1      42.962  21.642  27.084  1.00  0.00     0.057 A 
ATOM     60  C   UNL A   1      42.270  20.416  27.110  1.00  0.00     0.134 A 
ATOM     61  C   UNL A   1      43.870  21.783  26.019  1.00  0.00     0.134 A 
ATOM     62  F   UNL A   1      41.332  20.152  28.027  1.00  0.00    -0.206 F 
ATOM     63  C   UNL A   1      42.508  19.385  26.194  1.00  0.00     0.040 A 
ATOM     64  C   UNL A   1      44.138  20.748  25.108  1.00  0.00     0.040 A 
ATOM     65  F   UNL A   1      44.518  22.940  25.812  1.00  0.00    -0.206 F 
ATOM     66  C   UNL A   1      43.459  19.540  25.198  1.00  0.00     0.006 A 
ENDBRANCH  45  59
BRANCH  46  67
ATOM     67  C   UNL A   1      41.694  30.216  31.759  1.00  0.00     0.057 A 
ATOM     68  C   UNL A   1      40.624  29.553  32.400  1.00  0.00     0.134 A 
ATOM     69  C   UNL A   1      41.677  31.613  31.824  1.00  0.00     0.134 A 
ATOM     70  F   UNL A   1      40.565  28.211  32.393  1.00  0.00    -0.206 F 
ATOM     71  C   UNL A   1      39.651  30.229  33.148  1.00  0.00     0.040 A 
ATOM     72  C   UNL A   1      40.693  32.305  32.556  1.00  0.00     0.040 A 
ATOM     73  F   UNL A   1      42.652  32.338  31.259  1.00  0.00    -0.206 F 
ATOM     74  C   UNL A   1      39.699  31.613  33.248  1.00  0.00     0.006 A 
ENDBRANCH  46  67
BRANCH  58  75
ATOM     75  C   UNL A   1      44.992  23.859  33.107  1.00  0.00     0.057 A 
ATOM     76  C   UNL A   1      46.280  23.862  33.653  1.00  0.00     0.134 A 
ATOM     77  C   UNL A   1      44.098  22.913  33.658  1.00  0.00     0.134 A 
ATOM     78  F   UNL A   1      47.190  24.781  33.301  1.00  0.00    -0.206 F 
ATOM     79  C   UNL A   1      46.672  22.949  34.636  1.00  0.00     0.040 A 
ATOM     80  C   UNL A   1      44.459  22.045  34.687  1.00  0.00     0.040 A 
ATOM     81  F   UNL A   1      42.826  22.810  33.243  1.00  0.00    -0.206 F 
ATOM     82  C   UNL A   1      45.756  22.049  35.168  1.00  0.00     0.006 A 
ENDBRANCH  58  75
ENDBRANCH  32  33
ENDBRANCH  25  27
ENDBRANCH  24  25
ENDBRANCH  23  24
ENDBRANCH   1  23
TORSDOF 14
ENDMDL
MODEL 3
REMARK VINA RESULT:     -12.1      2.006      2.846
REMARK SMILES Cc1ccc(Nc2c(Cl)cccc2Cl)c(CC(=O)OCCOC(=O)c2ccc(-c3c4nc(c(-c5c(F)cccc5F)c5ccc([nH]5)c(-c5c(F)cccc5F)c5nc(c(-c6c(F)cccc6F)c6ccc3[nH]6)C=C5)C=C4)cc2)c1
REMARK SMILES IDX 20 1 19 2 17 3 18 4 16 5 15 6 1 7 2 8 3 9 79 10 4 11 5 12
REMARK SMILES IDX 6 13 7 15 8 16 13 17 9 18 10 19 12 20 14 21 11 22 21 23
REMARK SMILES IDX 22 24 23 25 24 26 25 27 26 28 78 29 27 30 77 31 28 32 29 33
REMARK SMILES IDX 30 34 71 35 31 36 76 37 70 38 72 39 32 40 75 41 69 42 68 43
REMARK SMILES IDX 33 45 59 46 42 47 58 48 43 49 46 50 57 51 73 52 44 53 45 54
REMARK SMILES IDX 56 56 74 57 47 58 34 59 35 60 40 61 36 62 37 63 39 64 41 65
REMARK SMILES IDX 38 66 60 67 61 68 66 69 62 70 63 71 65 72 67 73 64 74 48 75
REMARK SMILES IDX 49 76 54 77 50 78 51 79 53 80 55 81 52 82
REMARK H PARENT 6 14 72 44 46 55
REMARK Flexibility Score: inf
ROOT
ATOM      1  C   UNL A   1      33.697  28.231  27.044  1.00  0.00     0.274 C 
ENDROOT
BRANCH   1   2
ATOM      2  O   UNL A   1      32.877  27.647  26.044  1.00  0.00    -0.462 OA
BRANCH   2   3
ATOM      3  C   UNL A   1      32.827  26.285  25.976  1.00  0.00     0.310 C 
ATOM      4  O   UNL A   1      31.872  25.595  26.238  1.00  0.00    -0.252 OA
BRANCH   3   5
ATOM      5  C   UNL A   1      34.186  25.783  25.523  1.00  0.00     0.160 C 
BRANCH   5   6
ATOM      6  C   UNL A   1      34.012  25.016  24.241  1.00  0.00    -0.013 A 
ATOM      7  C   UNL A   1      32.448  25.946  20.905  1.00  0.00     0.044 C 
ATOM      8  C   UNL A   1      33.074  25.140  22.000  1.00  0.00    -0.051 A 
ATOM      9  C   UNL A   1      33.160  23.750  21.915  1.00  0.00     0.005 A 
ATOM     10  C   UNL A   1      33.524  25.766  23.156  1.00  0.00     0.009 A 
ATOM     11  C   UNL A   1      33.684  23.000  22.973  1.00  0.00     0.026 A 
ATOM     12  C   UNL A   1      34.111  23.607  24.158  1.00  0.00     0.042 A 
BRANCH  12  13
ATOM     13  N   UNL A   1      34.540  22.814  25.241  1.00  0.00    -0.353 N 
ATOM     14  H   UNL A   1      34.020  22.919  26.070  1.00  0.00     0.167 HD
BRANCH  13  15
ATOM     15  C   UNL A   1      35.611  21.884  25.313  1.00  0.00     0.076 A 
ATOM     16  C   UNL A   1      35.415  20.521  25.024  1.00  0.00     0.066 A 
ATOM     17  C   UNL A   1      36.943  22.318  25.467  1.00  0.00     0.066 A 
ATOM     18  Cl  UNL A   1      33.833  19.859  24.795  1.00  0.00    -0.082 Cl
ATOM     19  C   UNL A   1      36.501  19.641  24.905  1.00  0.00     0.023 A 
ATOM     20  C   UNL A   1      38.029  21.455  25.273  1.00  0.00     0.023 A 
ATOM     21  Cl  UNL A   1      37.322  23.889  26.063  1.00  0.00    -0.082 Cl
ATOM     22  C   UNL A   1      37.808  20.113  25.000  1.00  0.00     0.003 A 
ENDBRANCH  13  15
ENDBRANCH  12  13
ENDBRANCH   5   6
ENDBRANCH   3   5
ENDBRANCH   2   3
ENDBRANCH   1   2
BRANCH   1  23
ATOM     23  C   UNL A   1      33.685  29.759  26.878  1.00  0.00     0.275 C 
BRANCH  23  24
ATOM     24  O   UNL A   1      34.910  30.515  27.228  1.00  0.00    -0.458 OA
BRANCH  24  25
ATOM     25  C   UNL A   1      35.461  30.815  28.440  1.00  0.00     0.338 C 
ATOM     26  O   UNL A   1      34.903  31.529  29.262  1.00  0.00    -0.246 OA
BRANCH  25  27
ATOM     27  C   UNL A   1      36.745  30.185  28.762  1.00  0.00     0.060 A 
ATOM     28  C   UNL A   1      36.913  29.333  29.869  1.00  0.00     0.016 A 
ATOM     29  C   UNL A   1      37.745  30.333  27.827  1.00  0.00     0.016 A 
ATOM     30  C   UNL A   1      38.053  28.536  29.939  1.00  0.00     0.010 A 
ATOM     31  C   UNL A   1      38.663  29.339  27.720  1.00  0.00     0.010 A 
ATOM     32  C   UNL A   1      38.902  28.530  28.833  1.00  0.00    -0.014 A 
BRANCH  32  33
ATOM     33  C   UNL A   1      40.266  28.034  28.821  1.00  0.00     0.031 A 
ATOM     34  C   UNL A   1      40.614  26.727  28.272  1.00  0.00     0.074 A 
ATOM     35  C   UNL A   1      41.153  28.965  29.244  1.00  0.00     0.049 A 
ATOM     36  N   UNL A   1      41.463  25.930  28.822  1.00  0.00    -0.248 NA
ATOM     37  C   UNL A   1      40.023  26.191  27.047  1.00  0.00     0.031 C 
ATOM     38  C   UNL A   1      42.595  29.024  29.179  1.00  0.00     0.029 A 
ATOM     39  N   UNL A   1      40.808  30.130  29.947  1.00  0.00    -0.354 N 
ATOM     40  C   UNL A   1      41.795  25.006  27.855  1.00  0.00     0.074 A 
ATOM     41  C   UNL A   1      40.751  25.082  26.860  1.00  0.00     0.031 C 
ATOM     42  C   UNL A   1      43.019  29.964  30.054  1.00  0.00     0.029 A 
ATOM     43  C   UNL A   1      41.858  30.474  30.781  1.00  0.00     0.049 A 
ATOM     44  H   UNL A   1      39.959  30.621  29.861  1.00  0.00     0.167 HD
ATOM     45  C   UNL A   1      43.054  24.485  27.827  1.00  0.00     0.037 A 
ATOM     46  C   UNL A   1      41.610  30.397  32.120  1.00  0.00     0.037 A 
ATOM     47  C   UNL A   1      43.895  25.161  28.812  1.00  0.00     0.049 A 
ATOM     48  C   UNL A   1      42.330  29.209  32.704  1.00  0.00     0.074 A 
ATOM     49  C   UNL A   1      44.754  26.240  28.675  1.00  0.00     0.029 A 
ATOM     50  N   UNL A   1      43.606  25.063  30.170  1.00  0.00    -0.354 N 
ATOM     51  N   UNL A   1      42.702  28.170  32.006  1.00  0.00    -0.248 NA
ATOM     52  C   UNL A   1      42.745  29.132  34.098  1.00  0.00     0.031 C 
ATOM     53  C   UNL A   1      44.933  26.830  29.949  1.00  0.00     0.029 A 
ATOM     54  C   UNL A   1      44.183  26.112  30.864  1.00  0.00     0.049 A 
ATOM     55  H   UNL A   1      43.066  24.348  30.578  1.00  0.00     0.167 HD
ATOM     56  C   UNL A   1      43.447  27.339  32.793  1.00  0.00     0.074 A 
ATOM     57  C   UNL A   1      43.432  27.976  34.099  1.00  0.00     0.031 C 
ATOM     58  C   UNL A   1      44.047  26.213  32.308  1.00  0.00     0.037 A 
BRANCH  45  59
ATOM     59  C   UNL A   1      43.583  23.682  26.665  1.00  0.00     0.057 A 
ATOM     60  C   UNL A   1      44.251  24.289  25.585  1.00  0.00     0.134 A 
ATOM     61  C   UNL A   1      43.466  22.283  26.573  1.00  0.00     0.134 A 
ATOM     62  F   UNL A   1      44.494  25.604  25.551  1.00  0.00    -0.206 F 
ATOM     63  C   UNL A   1      44.707  23.575  24.470  1.00  0.00     0.040 A 
ATOM     64  C   UNL A   1      43.895  21.557  25.450  1.00  0.00     0.040 A 
ATOM     65  F   UNL A   1      42.947  21.566  27.582  1.00  0.00    -0.206 F 
ATOM     66  C   UNL A   1      44.513  22.206  24.389  1.00  0.00     0.006 A 
ENDBRANCH  45  59
BRANCH  46  67
ATOM     67  C   UNL A   1      40.231  30.875  32.494  1.00  0.00     0.057 A 
ATOM     68  C   UNL A   1      39.297  29.923  32.961  1.00  0.00     0.134 A 
ATOM     69  C   UNL A   1      39.906  32.216  32.725  1.00  0.00     0.134 A 
ATOM     70  F   UNL A   1      39.532  28.613  32.788  1.00  0.00    -0.206 F 
ATOM     71  C   UNL A   1      38.161  30.275  33.703  1.00  0.00     0.040 A 
ATOM     72  C   UNL A   1      38.758  32.582  33.451  1.00  0.00     0.040 A 
ATOM     73  F   UNL A   1      40.729  33.198  32.332  1.00  0.00    -0.206 F 
ATOM     74  C   UNL A   1      37.902  31.612  33.972  1.00  0.00     0.006 A 
ENDBRANCH  46  67
BRANCH  58  75
ATOM     75  C   UNL A   1      44.673  25.136  33.146  1.00  0.00     0.057 A 
ATOM     76  C   UNL A   1      46.052  24.912  33.213  1.00  0.00     0.134 A 
ATOM     77  C   UNL A   1      43.889  24.396  34.060  1.00  0.00     0.134 A 
ATOM     78  F   UNL A   1      46.917  25.629  32.482  1.00  0.00    -0.206 F 
ATOM     79  C   UNL A   1      46.610  23.974  34.086  1.00  0.00     0.040 A 
ATOM     80  C   UNL A   1      44.443  23.509  34.983  1.00  0.00     0.040 A 
ATOM     81  F   UNL A   1      42.555  24.523  34.120  1.00  0.00    -0.206 F 
ATOM     82  C   UNL A   1      45.808  23.282  34.985  1.00  0.00     0.006 A 
ENDBRANCH  58  75
ENDBRANCH  32  33
ENDBRANCH  25  27
ENDBRANCH  24  25
ENDBRANCH  23  24
ENDBRANCH   1  23
TORSDOF 14
ENDMDL
