MODEL 1
REMARK VINA RESULT:      -9.4      0.000      0.000
REMARK SMILES CCN(CC(=O)OCCOC(=O)c1ccc(-c2c3nc(c(-c4c(F)cccc4F)c4ccc([nH]4)c(-c4c(F)cccc4F)c4nc(c(-c5c(F)cccc5F)c5ccc2[nH]5)C=C4)C=C3)cc1)C(=O)[C@@H]1CC[NH2+][C@@H]1C
REMARK SMILES IDX 8 1 7 2 5 3 6 4 4 5 3 6 2 7 1 8 67 9 68 10 69 11 70 12 73 13
REMARK SMILES IDX 71 14 72 15 74 16 9 19 10 20 11 21 12 22 13 23 14 24 66 25
REMARK SMILES IDX 15 26 65 27 16 28 17 29 18 30 59 31 19 32 64 33 58 34 60 35
REMARK SMILES IDX 20 36 63 37 57 38 56 39 21 41 47 42 30 43 46 44 31 45 34 46
REMARK SMILES IDX 45 47 61 48 32 49 33 50 44 52 62 53 35 54 22 55 23 56 28 57
REMARK SMILES IDX 24 58 25 59 27 60 29 61 26 62 48 63 49 64 54 65 50 66 51 67
REMARK SMILES IDX 53 68 55 69 52 70 36 71 37 72 42 73 38 74 39 75 41 76 43 77
REMARK SMILES IDX 40 78
REMARK H PARENT 72 17 72 18 60 40 34 51
REMARK Flexibility Score: inf
ROOT
ATOM      1  C   UNL A   1      32.450  30.898  26.862  1.00  0.00     0.274 C 
ENDROOT
BRANCH   1   2
ATOM      2  O   UNL A   1      31.485  29.898  27.251  1.00  0.00    -0.461 OA
BRANCH   2   3
ATOM      3  C   UNL A   1      31.897  28.609  27.117  1.00  0.00     0.325 C 
ATOM      4  O   UNL A   1      31.459  27.662  27.765  1.00  0.00    -0.250 OA
BRANCH   3   5
ATOM      5  C   UNL A   1      32.911  28.405  25.991  1.00  0.00     0.242 C 
BRANCH   5   6
ATOM      6  N   UNL A   1      32.570  27.444  24.935  1.00  0.00    -0.331 N 
BRANCH   6   7
ATOM      7  C   UNL A   1      31.362  27.739  24.169  1.00  0.00     0.117 C 
ATOM      8  C   UNL A   1      30.329  26.637  24.367  1.00  0.00     0.027 C 
ENDBRANCH   6   7
BRANCH   6   9
ATOM      9  C   UNL A   1      33.310  26.315  24.578  1.00  0.00     0.232 C 
ATOM     10  O   UNL A   1      33.680  26.149  23.415  1.00  0.00    -0.274 OA
BRANCH   9  11
ATOM     11  C   UNL A   1      33.721  25.355  25.685  1.00  0.00     0.142 C 
ATOM     12  C   UNL A   1      35.003  24.601  25.332  1.00  0.00     0.081 C 
ATOM     13  C   UNL A   1      32.755  24.223  26.048  1.00  0.00     0.192 C 
ATOM     14  C   UNL A   1      34.928  23.313  26.138  1.00  0.00     0.261 C 
ATOM     15  N   UNL A   1      33.648  23.352  26.846  1.00  0.00    -0.343 N 
ATOM     16  C   UNL A   1      32.131  23.413  24.909  1.00  0.00     0.076 C 
ATOM     17  H   UNL A   1      33.773  23.738  27.781  1.00  0.00     0.346 HD
ATOM     18  H   UNL A   1      33.255  22.416  26.950  1.00  0.00     0.346 HD
ENDBRANCH   9  11
ENDBRANCH   6   9
ENDBRANCH   5   6
ENDBRANCH   3   5
ENDBRANCH   2   3
ENDBRANCH   1   2
BRANCH   1  19
ATOM     19  C   UNL A   1      31.868  32.300  27.037  1.00  0.00     0.275 C 
BRANCH  19  20
ATOM     20  O   UNL A   1      32.924  33.273  26.953  1.00  0.00    -0.458 OA
BRANCH  20  21
ATOM     21  C   UNL A   1      33.151  33.986  28.079  1.00  0.00     0.338 C 
ATOM     22  O   UNL A   1      32.473  34.917  28.497  1.00  0.00    -0.246 OA
BRANCH  21  23
ATOM     23  C   UNL A   1      34.365  33.495  28.768  1.00  0.00     0.060 A 
ATOM     24  C   UNL A   1      35.645  33.940  28.419  1.00  0.00     0.016 A 
ATOM     25  C   UNL A   1      34.222  32.503  29.742  1.00  0.00     0.016 A 
ATOM     26  C   UNL A   1      36.774  33.342  28.982  1.00  0.00     0.010 A 
ATOM     27  C   UNL A   1      35.351  31.968  30.368  1.00  0.00     0.010 A 
ATOM     28  C   UNL A   1      36.641  32.355  29.972  1.00  0.00    -0.014 A 
BRANCH  28  29
ATOM     29  C   UNL A   1      37.839  31.739  30.606  1.00  0.00     0.031 A 
ATOM     30  C   UNL A   1      38.627  30.668  29.897  1.00  0.00     0.074 A 
ATOM     31  C   UNL A   1      38.215  32.128  31.840  1.00  0.00     0.049 A 
ATOM     32  N   UNL A   1      39.664  29.987  30.323  1.00  0.00    -0.248 NA
ATOM     33  C   UNL A   1      38.209  30.322  28.531  1.00  0.00     0.031 C 
ATOM     34  C   UNL A   1      37.555  33.160  32.642  1.00  0.00     0.029 A 
ATOM     35  N   UNL A   1      39.238  31.687  32.643  1.00  0.00    -0.354 N 
ATOM     36  C   UNL A   1      40.025  29.148  29.277  1.00  0.00     0.074 A 
ATOM     37  C   UNL A   1      39.085  29.383  28.202  1.00  0.00     0.031 C 
ATOM     38  C   UNL A   1      38.190  33.276  33.818  1.00  0.00     0.029 A 
ATOM     39  C   UNL A   1      39.258  32.285  33.880  1.00  0.00     0.049 A 
ATOM     40  H   UNL A   1      39.893  31.009  32.360  1.00  0.00     0.167 HD
ATOM     41  C   UNL A   1      41.046  28.259  29.212  1.00  0.00     0.037 A 
ATOM     42  C   UNL A   1      40.018  32.037  34.962  1.00  0.00     0.037 A 
ATOM     43  C   UNL A   1      41.961  27.983  30.288  1.00  0.00     0.049 A 
ATOM     44  C   UNL A   1      41.057  30.956  34.912  1.00  0.00     0.074 A 
ATOM     45  C   UNL A   1      43.033  27.106  30.305  1.00  0.00     0.029 A 
ATOM     46  N   UNL A   1      41.899  28.561  31.545  1.00  0.00    -0.354 N 
ATOM     47  N   UNL A   1      41.401  30.190  33.907  1.00  0.00    -0.248 NA
ATOM     48  C   UNL A   1      41.802  30.697  36.152  1.00  0.00     0.031 C 
ATOM     49  C   UNL A   1      43.588  27.117  31.590  1.00  0.00     0.029 A 
ATOM     50  C   UNL A   1      42.888  28.031  32.358  1.00  0.00     0.049 A 
ATOM     51  H   UNL A   1      41.248  29.248  31.820  1.00  0.00     0.167 HD
ATOM     52  C   UNL A   1      42.409  29.366  34.387  1.00  0.00     0.074 A 
ATOM     53  C   UNL A   1      42.631  29.734  35.770  1.00  0.00     0.031 C 
ATOM     54  C   UNL A   1      43.091  28.392  33.737  1.00  0.00     0.037 A 
BRANCH  41  55
ATOM     55  C   UNL A   1      41.218  27.498  27.934  1.00  0.00     0.057 A 
ATOM     56  C   UNL A   1      40.596  26.259  27.731  1.00  0.00     0.134 A 
ATOM     57  C   UNL A   1      41.965  28.030  26.877  1.00  0.00     0.134 A 
ATOM     58  F   UNL A   1      39.878  25.689  28.711  1.00  0.00    -0.206 F 
ATOM     59  C   UNL A   1      40.718  25.573  26.521  1.00  0.00     0.040 A 
ATOM     60  C   UNL A   1      42.081  27.362  25.658  1.00  0.00     0.040 A 
ATOM     61  F   UNL A   1      42.582  29.214  27.010  1.00  0.00    -0.206 F 
ATOM     62  C   UNL A   1      41.457  26.130  25.477  1.00  0.00     0.006 A 
ENDBRANCH  41  55
BRANCH  42  63
ATOM     63  C   UNL A   1      39.784  32.805  36.209  1.00  0.00     0.057 A 
ATOM     64  C   UNL A   1      38.808  32.413  37.130  1.00  0.00     0.134 A 
ATOM     65  C   UNL A   1      40.544  33.941  36.512  1.00  0.00     0.134 A 
ATOM     66  F   UNL A   1      38.035  31.346  36.880  1.00  0.00    -0.206 F 
ATOM     67  C   UNL A   1      38.595  33.125  38.310  1.00  0.00     0.040 A 
ATOM     68  C   UNL A   1      40.356  34.649  37.699  1.00  0.00     0.040 A 
ATOM     69  F   UNL A   1      41.495  34.366  35.666  1.00  0.00    -0.206 F 
ATOM     70  C   UNL A   1      39.376  34.243  38.601  1.00  0.00     0.006 A 
ENDBRANCH  42  63
BRANCH  54  71
ATOM     71  C   UNL A   1      44.148  27.667  34.513  1.00  0.00     0.057 A 
ATOM     72  C   UNL A   1      43.876  26.463  35.175  1.00  0.00     0.134 A 
ATOM     73  C   UNL A   1      45.451  28.171  34.592  1.00  0.00     0.134 A 
ATOM     74  F   UNL A   1      42.642  25.937  35.151  1.00  0.00    -0.206 F 
ATOM     75  C   UNL A   1      44.860  25.796  35.907  1.00  0.00     0.040 A 
ATOM     76  C   UNL A   1      46.449  27.504  35.302  1.00  0.00     0.040 A 
ATOM     77  F   UNL A   1      45.776  29.318  33.975  1.00  0.00    -0.206 F 
ATOM     78  C   UNL A   1      46.152  26.315  35.968  1.00  0.00     0.006 A 
ENDBRANCH  54  71
ENDBRANCH  28  29
ENDBRANCH  21  23
ENDBRANCH  20  21
ENDBRANCH  19  20
ENDBRANCH   1  19
TORSDOF 15
ENDMDL
MODEL 2
REMARK VINA RESULT:      -9.4      4.387      7.222
REMARK SMILES CCN(CC(=O)OCCOC(=O)c1ccc(-c2c3nc(c(-c4c(F)cccc4F)c4ccc([nH]4)c(-c4c(F)cccc4F)c4nc(c(-c5c(F)cccc5F)c5ccc2[nH]5)C=C4)C=C3)cc1)C(=O)[C@@H]1CC[NH2+][C@@H]1C
REMARK SMILES IDX 8 1 7 2 5 3 6 4 4 5 3 6 2 7 1 8 67 9 68 10 69 11 70 12 73 13
REMARK SMILES IDX 71 14 72 15 74 16 9 19 10 20 11 21 12 22 13 23 14 24 66 25
REMARK SMILES IDX 15 26 65 27 16 28 17 29 18 30 59 31 19 32 64 33 58 34 60 35
REMARK SMILES IDX 20 36 63 37 57 38 56 39 21 41 47 42 30 43 46 44 31 45 34 46
REMARK SMILES IDX 45 47 61 48 32 49 33 50 44 52 62 53 35 54 22 55 23 56 28 57
REMARK SMILES IDX 24 58 25 59 27 60 29 61 26 62 48 63 49 64 54 65 50 66 51 67
REMARK SMILES IDX 53 68 55 69 52 70 36 71 37 72 42 73 38 74 39 75 41 76 43 77
REMARK SMILES IDX 40 78
REMARK H PARENT 72 17 72 18 60 40 34 51
REMARK Flexibility Score: inf
ROOT
ATOM      1  C   UNL A   1      34.401  33.879  31.207  1.00  0.00     0.274 C 
ENDROOT
BRANCH   1   2
ATOM      2  O   UNL A   1      34.491  32.789  30.266  1.00  0.00    -0.461 OA
BRANCH   2   3
ATOM      3  C   UNL A   1      34.303  33.129  28.962  1.00  0.00     0.325 C 
ATOM      4  O   UNL A   1      33.511  33.981  28.567  1.00  0.00    -0.250 OA
BRANCH   3   5
ATOM      5  C   UNL A   1      35.253  32.415  28.001  1.00  0.00     0.242 C 
BRANCH   5   6
ATOM      6  N   UNL A   1      34.913  31.043  27.603  1.00  0.00    -0.331 N 
BRANCH   6   7
ATOM      7  C   UNL A   1      35.957  30.042  27.810  1.00  0.00     0.117 C 
ATOM      8  C   UNL A   1      35.904  29.510  29.237  1.00  0.00     0.027 C 
ENDBRANCH   6   7
BRANCH   6   9
ATOM      9  C   UNL A   1      33.688  30.612  27.093  1.00  0.00     0.232 C 
ATOM     10  O   UNL A   1      32.670  31.288  27.247  1.00  0.00    -0.274 OA
BRANCH   9  11
ATOM     11  C   UNL A   1      33.673  29.335  26.265  1.00  0.00     0.142 C 
ATOM     12  C   UNL A   1      32.839  29.496  24.994  1.00  0.00     0.081 C 
ATOM     13  C   UNL A   1      33.076  28.075  26.900  1.00  0.00     0.192 C 
ATOM     14  C   UNL A   1      32.391  28.085  24.644  1.00  0.00     0.261 C 
ATOM     15  N   UNL A   1      32.913  27.220  25.702  1.00  0.00    -0.343 N 
ATOM     16  C   UNL A   1      31.734  28.199  27.626  1.00  0.00     0.076 C 
ATOM     17  H   UNL A   1      33.813  26.828  25.425  1.00  0.00     0.346 HD
ATOM     18  H   UNL A   1      32.283  26.440  25.887  1.00  0.00     0.346 HD
ENDBRANCH   9  11
ENDBRANCH   6   9
ENDBRANCH   5   6
ENDBRANCH   3   5
ENDBRANCH   2   3
ENDBRANCH   1   2
BRANCH   1  19
ATOM     19  C   UNL A   1      34.805  33.413  32.605  1.00  0.00     0.275 C 
BRANCH  19  20
ATOM     20  O   UNL A   1      35.452  32.131  32.516  1.00  0.00    -0.458 OA
BRANCH  20  21
ATOM     21  C   UNL A   1      36.605  32.010  33.213  1.00  0.00     0.338 C 
ATOM     22  O   UNL A   1      36.780  32.324  34.384  1.00  0.00    -0.246 OA
BRANCH  21  23
ATOM     23  C   UNL A   1      37.670  31.439  32.358  1.00  0.00     0.060 A 
ATOM     24  C   UNL A   1      38.691  30.641  32.884  1.00  0.00     0.016 A 
ATOM     25  C   UNL A   1      37.687  31.775  31.002  1.00  0.00     0.016 A 
ATOM     26  C   UNL A   1      39.762  30.249  32.078  1.00  0.00     0.010 A 
ATOM     27  C   UNL A   1      38.714  31.309  30.178  1.00  0.00     0.010 A 
ATOM     28  C   UNL A   1      39.781  30.569  30.711  1.00  0.00    -0.014 A 
BRANCH  28  29
ATOM     29  C   UNL A   1      40.899  30.123  29.835  1.00  0.00     0.031 A 
ATOM     30  C   UNL A   1      40.956  28.712  29.308  1.00  0.00     0.074 A 
ATOM     31  C   UNL A   1      41.887  30.984  29.523  1.00  0.00     0.049 A 
ATOM     32  N   UNL A   1      41.883  28.140  28.578  1.00  0.00    -0.248 NA
ATOM     33  C   UNL A   1      39.825  27.829  29.631  1.00  0.00     0.031 C 
ATOM     34  C   UNL A   1      41.959  32.383  29.951  1.00  0.00     0.029 A 
ATOM     35  N   UNL A   1      43.030  30.804  28.784  1.00  0.00    -0.354 N 
ATOM     36  C   UNL A   1      41.441  26.844  28.345  1.00  0.00     0.074 A 
ATOM     37  C   UNL A   1      40.175  26.700  29.030  1.00  0.00     0.031 C 
ATOM     38  C   UNL A   1      43.081  32.934  29.466  1.00  0.00     0.029 A 
ATOM     39  C   UNL A   1      43.839  31.914  28.749  1.00  0.00     0.049 A 
ATOM     40  H   UNL A   1      43.249  29.962  28.323  1.00  0.00     0.167 HD
ATOM     41  C   UNL A   1      42.032  25.859  27.627  1.00  0.00     0.037 A 
ATOM     42  C   UNL A   1      45.072  32.085  28.239  1.00  0.00     0.037 A 
ATOM     43  C   UNL A   1      43.310  25.973  26.977  1.00  0.00     0.049 A 
ATOM     44  C   UNL A   1      45.764  30.940  27.562  1.00  0.00     0.074 A 
ATOM     45  C   UNL A   1      43.980  25.027  26.217  1.00  0.00     0.029 A 
ATOM     46  N   UNL A   1      44.124  27.092  27.028  1.00  0.00    -0.354 N 
ATOM     47  N   UNL A   1      45.321  29.730  27.329  1.00  0.00    -0.248 NA
ATOM     48  C   UNL A   1      47.135  31.182  27.089  1.00  0.00     0.031 C 
ATOM     49  C   UNL A   1      45.223  25.558  25.853  1.00  0.00     0.029 A 
ATOM     50  C   UNL A   1      45.308  26.847  26.348  1.00  0.00     0.049 A 
ATOM     51  H   UNL A   1      43.897  27.937  27.481  1.00  0.00     0.167 HD
ATOM     52  C   UNL A   1      46.350  29.069  26.674  1.00  0.00     0.074 A 
ATOM     53  C   UNL A   1      47.436  30.016  26.534  1.00  0.00     0.031 C 
ATOM     54  C   UNL A   1      46.389  27.790  26.228  1.00  0.00     0.037 A 
BRANCH  41  55
ATOM     55  C   UNL A   1      41.307  24.552  27.522  1.00  0.00     0.057 A 
ATOM     56  C   UNL A   1      40.238  24.378  26.634  1.00  0.00     0.134 A 
ATOM     57  C   UNL A   1      41.716  23.443  28.272  1.00  0.00     0.134 A 
ATOM     58  F   UNL A   1      39.791  25.405  25.897  1.00  0.00    -0.206 F 
ATOM     59  C   UNL A   1      39.596  23.145  26.501  1.00  0.00     0.040 A 
ATOM     60  C   UNL A   1      41.092  22.203  28.138  1.00  0.00     0.040 A 
ATOM     61  F   UNL A   1      42.735  23.548  29.139  1.00  0.00    -0.206 F 
ATOM     62  C   UNL A   1      40.028  22.051  27.251  1.00  0.00     0.006 A 
ENDBRANCH  41  55
BRANCH  42  63
ATOM     63  C   UNL A   1      45.751  33.394  28.397  1.00  0.00     0.057 A 
ATOM     64  C   UNL A   1      46.549  33.667  29.512  1.00  0.00     0.134 A 
ATOM     65  C   UNL A   1      45.627  34.395  27.426  1.00  0.00     0.134 A 
ATOM     66  F   UNL A   1      46.684  32.754  30.485  1.00  0.00    -0.206 F 
ATOM     67  C   UNL A   1      47.199  34.893  29.658  1.00  0.00     0.040 A 
ATOM     68  C   UNL A   1      46.290  35.616  27.548  1.00  0.00     0.040 A 
ATOM     69  F   UNL A   1      44.875  34.191  26.334  1.00  0.00    -0.206 F 
ATOM     70  C   UNL A   1      47.078  35.868  28.669  1.00  0.00     0.006 A 
ENDBRANCH  42  63
BRANCH  54  71
ATOM     71  C   UNL A   1      47.642  27.349  25.535  1.00  0.00     0.057 A 
ATOM     72  C   UNL A   1      47.792  27.460  24.147  1.00  0.00     0.134 A 
ATOM     73  C   UNL A   1      48.713  26.817  26.264  1.00  0.00     0.134 A 
ATOM     74  F   UNL A   1      46.796  27.946  23.392  1.00  0.00    -0.206 F 
ATOM     75  C   UNL A   1      48.957  27.037  23.505  1.00  0.00     0.040 A 
ATOM     76  C   UNL A   1      49.891  26.411  25.636  1.00  0.00     0.040 A 
ATOM     77  F   UNL A   1      48.633  26.689  27.597  1.00  0.00    -0.206 F 
ATOM     78  C   UNL A   1      50.012  26.514  24.251  1.00  0.00     0.006 A 
ENDBRANCH  54  71
ENDBRANCH  28  29
ENDBRANCH  21  23
ENDBRANCH  20  21
ENDBRANCH  19  20
ENDBRANCH   1  19
TORSDOF 15
ENDMDL
MODEL 3
REMARK VINA RESULT:      -9.4      4.664      9.405
REMARK SMILES CCN(CC(=O)OCCOC(=O)c1ccc(-c2c3nc(c(-c4c(F)cccc4F)c4ccc([nH]4)c(-c4c(F)cccc4F)c4nc(c(-c5c(F)cccc5F)c5ccc2[nH]5)C=C4)C=C3)cc1)C(=O)[C@@H]1CC[NH2+][C@@H]1C
REMARK SMILES IDX 8 1 7 2 5 3 6 4 4 5 3 6 2 7 1 8 67 9 68 10 69 11 70 12 73 13
REMARK SMILES IDX 71 14 72 15 74 16 9 19 10 20 11 21 12 22 13 23 14 24 66 25
REMARK SMILES IDX 15 26 65 27 16 28 17 29 18 30 59 31 19 32 64 33 58 34 60 35
REMARK SMILES IDX 20 36 63 37 57 38 56 39 21 41 47 42 30 43 46 44 31 45 34 46
REMARK SMILES IDX 45 47 61 48 32 49 33 50 44 52 62 53 35 54 22 55 23 56 28 57
REMARK SMILES IDX 24 58 25 59 27 60 29 61 26 62 48 63 49 64 54 65 50 66 51 67
REMARK SMILES IDX 53 68 55 69 52 70 36 71 37 72 42 73 38 74 39 75 41 76 43 77
REMARK SMILES IDX 40 78
REMARK H PARENT 72 17 72 18 60 40 34 51
REMARK Flexibility Score: inf
ROOT
ATOM      1  C   UNL A   1      37.859  19.896  24.806  1.00  0.00     0.274 C 
ENDROOT
BRANCH   1   2
ATOM      2  O   UNL A   1      36.755  20.711  25.250  1.00  0.00    -0.461 OA
BRANCH   2   3
ATOM      3  C   UNL A   1      36.705  21.962  24.719  1.00  0.00     0.325 C 
ATOM      4  O   UNL A   1      36.823  22.222  23.524  1.00  0.00    -0.250 OA
BRANCH   3   5
ATOM      5  C   UNL A   1      36.381  23.049  25.744  1.00  0.00     0.242 C 
BRANCH   5   6
ATOM      6  N   UNL A   1      34.965  23.309  26.035  1.00  0.00    -0.331 N 
BRANCH   6   7
ATOM      7  C   UNL A   1      34.372  22.494  27.093  1.00  0.00     0.117 C 
ATOM      8  C   UNL A   1      33.553  21.360  26.491  1.00  0.00     0.027 C 
ENDBRANCH   6   7
BRANCH   6   9
ATOM      9  C   UNL A   1      34.163  24.276  25.429  1.00  0.00     0.232 C 
ATOM     10  O   UNL A   1      33.652  25.177  26.096  1.00  0.00    -0.274 OA
BRANCH   9  11
ATOM     11  C   UNL A   1      34.020  24.234  23.914  1.00  0.00     0.142 C 
ATOM     12  C   UNL A   1      33.613  25.595  23.347  1.00  0.00     0.081 C 
ATOM     13  C   UNL A   1      32.968  23.294  23.318  1.00  0.00     0.192 C 
ATOM     14  C   UNL A   1      32.910  25.273  22.037  1.00  0.00     0.261 C 
ATOM     15  N   UNL A   1      32.896  23.813  21.934  1.00  0.00    -0.343 N 
ATOM     16  C   UNL A   1      31.568  23.291  23.939  1.00  0.00     0.076 C 
ATOM     17  H   UNL A   1      33.699  23.490  21.394  1.00  0.00     0.346 HD
ATOM     18  H   UNL A   1      32.055  23.485  21.459  1.00  0.00     0.346 HD
ENDBRANCH   9  11
ENDBRANCH   6   9
ENDBRANCH   5   6
ENDBRANCH   3   5
ENDBRANCH   2   3
ENDBRANCH   1   2
BRANCH   1  19
ATOM     19  C   UNL A   1      39.161  20.357  25.459  1.00  0.00     0.275 C 
BRANCH  19  20
ATOM     20  O   UNL A   1      39.918  19.209  25.885  1.00  0.00    -0.458 OA
BRANCH  20  21
ATOM     21  C   UNL A   1      41.253  19.398  25.990  1.00  0.00     0.338 C 
ATOM     22  O   UNL A   1      42.123  18.569  25.752  1.00  0.00    -0.246 OA
BRANCH  21  23
ATOM     23  C   UNL A   1      41.547  20.774  26.450  1.00  0.00     0.060 A 
ATOM     24  C   UNL A   1      42.041  21.754  25.583  1.00  0.00     0.016 A 
ATOM     25  C   UNL A   1      41.395  21.068  27.807  1.00  0.00     0.016 A 
ATOM     26  C   UNL A   1      42.452  22.991  26.082  1.00  0.00     0.010 A 
ATOM     27  C   UNL A   1      41.726  22.337  28.290  1.00  0.00     0.010 A 
ATOM     28  C   UNL A   1      42.290  23.302  27.441  1.00  0.00    -0.014 A 
BRANCH  28  29
ATOM     29  C   UNL A   1      42.690  24.632  27.976  1.00  0.00     0.031 A 
ATOM     30  C   UNL A   1      41.666  25.711  28.221  1.00  0.00     0.074 A 
ATOM     31  C   UNL A   1      43.989  24.887  28.226  1.00  0.00     0.049 A 
ATOM     32  N   UNL A   1      41.846  26.943  28.633  1.00  0.00    -0.248 NA
ATOM     33  C   UNL A   1      40.257  25.362  27.986  1.00  0.00     0.031 C 
ATOM     34  C   UNL A   1      45.090  23.938  28.047  1.00  0.00     0.029 A 
ATOM     35  N   UNL A   1      44.607  26.031  28.672  1.00  0.00    -0.354 N 
ATOM     36  C   UNL A   1      40.579  27.506  28.718  1.00  0.00     0.074 A 
ATOM     37  C   UNL A   1      39.637  26.494  28.292  1.00  0.00     0.031 C 
ATOM     38  C   UNL A   1      46.244  24.534  28.382  1.00  0.00     0.029 A 
ATOM     39  C   UNL A   1      45.975  25.923  28.736  1.00  0.00     0.049 A 
ATOM     40  H   UNL A   1      44.117  26.847  28.921  1.00  0.00     0.167 HD
ATOM     41  C   UNL A   1      40.227  28.753  29.113  1.00  0.00     0.037 A 
ATOM     42  C   UNL A   1      46.916  26.847  29.005  1.00  0.00     0.037 A 
ATOM     43  C   UNL A   1      41.155  29.783  29.497  1.00  0.00     0.049 A 
ATOM     44  C   UNL A   1      46.509  28.257  29.312  1.00  0.00     0.074 A 
ATOM     45  C   UNL A   1      40.884  31.074  29.923  1.00  0.00     0.029 A 
ATOM     46  N   UNL A   1      42.533  29.651  29.479  1.00  0.00    -0.354 N 
ATOM     47  N   UNL A   1      45.307  28.766  29.412  1.00  0.00    -0.248 NA
ATOM     48  C   UNL A   1      47.594  29.225  29.529  1.00  0.00     0.031 C 
ATOM     49  C   UNL A   1      42.102  31.737  30.113  1.00  0.00     0.029 A 
ATOM     50  C   UNL A   1      43.128  30.847  29.847  1.00  0.00     0.049 A 
ATOM     51  H   UNL A   1      43.019  28.828  29.239  1.00  0.00     0.167 HD
ATOM     52  C   UNL A   1      45.487  30.108  29.714  1.00  0.00     0.074 A 
ATOM     53  C   UNL A   1      46.915  30.333  29.795  1.00  0.00     0.031 C 
ATOM     54  C   UNL A   1      44.549  31.067  29.909  1.00  0.00     0.037 A 
BRANCH  41  55
ATOM     55  C   UNL A   1      38.766  29.084  29.131  1.00  0.00     0.057 A 
ATOM     56  C   UNL A   1      38.005  28.971  30.301  1.00  0.00     0.134 A 
ATOM     57  C   UNL A   1      38.127  29.572  27.985  1.00  0.00     0.134 A 
ATOM     58  F   UNL A   1      38.556  28.498  31.428  1.00  0.00    -0.206 F 
ATOM     59  C   UNL A   1      36.655  29.328  30.328  1.00  0.00     0.040 A 
ATOM     60  C   UNL A   1      36.783  29.945  28.003  1.00  0.00     0.040 A 
ATOM     61  F   UNL A   1      38.804  29.703  26.834  1.00  0.00    -0.206 F 
ATOM     62  C   UNL A   1      36.043  29.823  29.177  1.00  0.00     0.006 A 
ENDBRANCH  41  55
BRANCH  42  63
ATOM     63  C   UNL A   1      48.348  26.466  28.946  1.00  0.00     0.057 A 
ATOM     64  C   UNL A   1      49.006  25.942  30.063  1.00  0.00     0.134 A 
ATOM     65  C   UNL A   1      49.085  26.606  27.764  1.00  0.00     0.134 A 
ATOM     66  F   UNL A   1      48.355  25.808  31.228  1.00  0.00    -0.206 F 
ATOM     67  C   UNL A   1      50.349  25.570  30.007  1.00  0.00     0.040 A 
ATOM     68  C   UNL A   1      50.422  26.217  27.688  1.00  0.00     0.040 A 
ATOM     69  F   UNL A   1      48.508  27.104  26.660  1.00  0.00    -0.206 F 
ATOM     70  C   UNL A   1      51.059  25.699  28.814  1.00  0.00     0.006 A 
ENDBRANCH  42  63
BRANCH  54  71
ATOM     71  C   UNL A   1      45.042  32.442  30.240  1.00  0.00     0.057 A 
ATOM     72  C   UNL A   1      45.310  32.828  31.560  1.00  0.00     0.134 A 
ATOM     73  C   UNL A   1      45.262  33.387  29.230  1.00  0.00     0.134 A 
ATOM     74  F   UNL A   1      45.104  31.974  32.573  1.00  0.00    -0.206 F 
ATOM     75  C   UNL A   1      45.758  34.115  31.865  1.00  0.00     0.040 A 
ATOM     76  C   UNL A   1      45.730  34.668  29.521  1.00  0.00     0.040 A 
ATOM     77  F   UNL A   1      45.029  33.076  27.946  1.00  0.00    -0.206 F 
ATOM     78  C   UNL A   1      45.973  35.037  30.843  1.00  0.00     0.006 A 
ENDBRANCH  54  71
ENDBRANCH  28  29
ENDBRANCH  21  23
ENDBRANCH  20  21
ENDBRANCH  19  20
ENDBRANCH   1  19
TORSDOF 15
ENDMDL
