MODEL 1
REMARK VINA RESULT:     -13.4      0.000      0.000
REMARK SMILES O=C(OCCOC(=O)[C@H]1Sc2[nH]c(=O)sc2[C@H]2c3cc(Br)cc(Br)c3OC(=O)[C@H]21)c1ccc(-c2c3nc(c(-c4c(F)cccc4F)c4ccc([nH]4)c(-c4c(F)cccc4F)c4nc(c(-c5c(F)cccc5F)c5ccc2[nH]5)C=C4)C=C3)cc1
REMARK SMILES IDX 4 1 3 2 2 3 1 4 30 5 31 6 83 7 32 8 82 9 33 10 34 11 35 12
REMARK SMILES IDX 76 13 36 14 81 15 75 16 77 17 37 18 80 19 74 20 73 21 38 23
REMARK SMILES IDX 64 24 47 25 63 26 48 27 51 28 62 29 78 30 49 31 50 32 61 34
REMARK SMILES IDX 79 35 52 36 39 37 40 38 45 39 41 40 42 41 44 42 46 43 43 44
REMARK SMILES IDX 65 45 66 46 71 47 67 48 68 49 70 50 72 51 69 52 53 53 54 54
REMARK SMILES IDX 59 55 55 56 56 57 58 58 60 59 57 60 5 61 6 62 7 63 8 64 9 65
REMARK SMILES IDX 10 66 29 67 11 68 17 69 27 70 12 71 16 72 18 73 26 74 28 75
REMARK SMILES IDX 13 76 15 78 19 79 25 80 14 81 20 82 23 83 21 84 22 85 24 86
REMARK H PARENT 77 22 51 33 12 77
REMARK Flexibility Score: inf
ROOT
ATOM      1  C   UNL A   1      45.654  21.108  36.543  1.00  0.00     0.275 C 
ENDROOT
BRANCH   1   2
ATOM      2  O   UNL A   1      46.459  22.235  36.300  1.00  0.00    -0.458 OA
BRANCH   2   3
ATOM      3  C   UNL A   1      45.797  23.385  36.341  1.00  0.00     0.338 C 
ATOM      4  O   UNL A   1      44.998  23.629  37.241  1.00  0.00    -0.246 OA
BRANCH   3   5
ATOM      5  C   UNL A   1      46.195  24.500  35.389  1.00  0.00     0.060 A 
ATOM      6  C   UNL A   1      46.997  26.123  35.163  1.00  0.00     0.016 A 
ATOM      7  C   UNL A   1      45.843  23.805  33.961  1.00  0.00     0.016 A 
ATOM      8  C   UNL A   1      47.107  26.880  33.491  1.00  0.00     0.010 A 
ATOM      9  C   UNL A   1      46.176  24.826  32.313  1.00  0.00     0.010 A 
ATOM     10  C   UNL A   1      46.386  26.335  31.999  1.00  0.00    -0.014 A 
BRANCH  10  11
ATOM     11  C   UNL A   1      45.947  25.589  30.407  1.00  0.00     0.031 A 
ATOM     12  C   UNL A   1      47.149  26.138  29.735  1.00  0.00     0.074 A 
ATOM     13  C   UNL A   1      44.967  24.722  29.644  1.00  0.00     0.049 A 
ATOM     14  N   UNL A   1      47.227  27.434  29.642  1.00  0.00    -0.248 NA
ATOM     15  C   UNL A   1      48.549  25.576  29.823  1.00  0.00     0.031 C 
ATOM     16  C   UNL A   1      43.699  23.916  29.883  1.00  0.00     0.029 A 
ATOM     17  N   UNL A   1      44.930  24.362  28.237  1.00  0.00    -0.354 N 
ATOM     18  C   UNL A   1      48.434  27.658  29.050  1.00  0.00     0.074 A 
ATOM     19  C   UNL A   1      49.305  26.656  29.564  1.00  0.00     0.031 C 
ATOM     20  C   UNL A   1      43.335  22.957  28.971  1.00  0.00     0.029 A 
ATOM     21  C   UNL A   1      44.139  23.145  27.793  1.00  0.00     0.049 A 
ATOM     22  H   UNL A   1      45.415  24.904  27.574  1.00  0.00     0.167 HD
ATOM     23  C   UNL A   1      48.390  28.221  27.822  1.00  0.00     0.037 A 
ATOM     24  C   UNL A   1      43.633  22.759  26.529  1.00  0.00     0.037 A 
ATOM     25  C   UNL A   1      47.044  28.716  27.560  1.00  0.00     0.049 A 
ATOM     26  C   UNL A   1      43.850  23.925  25.637  1.00  0.00     0.074 A 
ATOM     27  C   UNL A   1      46.205  29.582  28.243  1.00  0.00     0.029 A 
ATOM     28  N   UNL A   1      46.227  27.811  26.932  1.00  0.00    -0.354 N 
ATOM     29  N   UNL A   1      43.148  25.018  25.765  1.00  0.00    -0.248 NA
ATOM     30  C   UNL A   1      45.246  24.051  25.231  1.00  0.00     0.031 C 
ATOM     31  C   UNL A   1      44.900  29.005  28.196  1.00  0.00     0.029 A 
ATOM     32  C   UNL A   1      44.913  27.937  27.307  1.00  0.00     0.049 A 
ATOM     33  H   UNL A   1      46.549  27.142  26.284  1.00  0.00     0.167 HD
ATOM     34  C   UNL A   1      44.112  25.982  25.999  1.00  0.00     0.074 A 
ATOM     35  C   UNL A   1      45.400  25.306  25.676  1.00  0.00     0.031 C 
ATOM     36  C   UNL A   1      43.867  27.051  26.830  1.00  0.00     0.037 A 
BRANCH  23  37
ATOM     37  C   UNL A   1      49.387  27.895  26.770  1.00  0.00     0.057 A 
ATOM     38  C   UNL A   1      50.244  28.919  26.384  1.00  0.00     0.134 A 
ATOM     39  C   UNL A   1      49.488  26.681  26.054  1.00  0.00     0.134 A 
ATOM     40  F   UNL A   1      50.176  30.117  26.980  1.00  0.00    -0.206 F 
ATOM     41  C   UNL A   1      51.185  28.744  25.373  1.00  0.00     0.040 A 
ATOM     42  C   UNL A   1      50.457  26.477  25.072  1.00  0.00     0.040 A 
ATOM     43  F   UNL A   1      48.627  25.668  26.232  1.00  0.00    -0.206 F 
ATOM     44  C   UNL A   1      51.308  27.515  24.728  1.00  0.00     0.006 A 
ENDBRANCH  23  37
BRANCH  24  45
ATOM     45  C   UNL A   1      43.543  21.365  25.863  1.00  0.00     0.057 A 
ATOM     46  C   UNL A   1      44.603  20.623  25.250  1.00  0.00     0.134 A 
ATOM     47  C   UNL A   1      42.398  20.603  26.106  1.00  0.00     0.134 A 
ATOM     48  F   UNL A   1      45.758  21.212  24.897  1.00  0.00    -0.206 F 
ATOM     49  C   UNL A   1      44.534  19.219  25.009  1.00  0.00     0.040 A 
ATOM     50  C   UNL A   1      42.328  19.213  25.899  1.00  0.00     0.040 A 
ATOM     51  F   UNL A   1      41.318  21.185  26.637  1.00  0.00    -0.206 F 
ATOM     52  C   UNL A   1      43.402  18.504  25.380  1.00  0.00     0.006 A 
ENDBRANCH  24  45
BRANCH  36  53
ATOM     53  C   UNL A   1      42.443  27.356  27.303  1.00  0.00     0.057 A 
ATOM     54  C   UNL A   1      41.902  27.176  28.591  1.00  0.00     0.134 A 
ATOM     55  C   UNL A   1      41.628  28.070  26.427  1.00  0.00     0.134 A 
ATOM     56  F   UNL A   1      42.614  26.620  29.562  1.00  0.00    -0.206 F 
ATOM     57  C   UNL A   1      40.622  27.626  28.970  1.00  0.00     0.040 A 
ATOM     58  C   UNL A   1      40.359  28.544  26.787  1.00  0.00     0.040 A 
ATOM     59  F   UNL A   1      42.088  28.388  25.209  1.00  0.00    -0.206 F 
ATOM     60  C   UNL A   1      39.839  28.308  28.054  1.00  0.00     0.006 A 
ENDBRANCH  36  53
ENDBRANCH  10  11
ENDBRANCH   3   5
ENDBRANCH   2   3
ENDBRANCH   1   2
BRANCH   1  61
ATOM     61  C   UNL A   1      46.448  20.068  37.385  1.00  0.00     0.274 C 
BRANCH  61  62
ATOM     62  O   UNL A   1      45.655  18.935  37.959  1.00  0.00    -0.461 OA
BRANCH  62  63
ATOM     63  C   UNL A   1      45.981  18.224  39.098  1.00  0.00     0.320 C 
ATOM     64  O   UNL A   1      47.151  17.934  39.322  1.00  0.00    -0.251 OA
BRANCH  63  65
ATOM     65  C   UNL A   1      44.626  17.955  40.226  1.00  0.00     0.178 C 
ATOM     66  S   UNL A   1      43.730  16.539  39.313  1.00  0.00    -0.091 SA
ATOM     67  C   UNL A   1      44.650  17.978  42.116  1.00  0.00     0.137 C 
ATOM     68  C   UNL A   1      42.986  15.451  40.366  1.00  0.00     0.091 A 
ATOM     69  C   UNL A   1      43.880  16.161  42.609  1.00  0.00     0.082 C 
ATOM     70  C   UNL A   1      46.394  18.391  43.445  1.00  0.00     0.317 C 
ATOM     71  N   UNL A   1      42.191  14.456  39.850  1.00  0.00    -0.307 N 
ATOM     72  C   UNL A   1      43.075  15.367  41.682  1.00  0.00     0.049 A 
ATOM     73  C   UNL A   1      44.919  15.229  43.924  1.00  0.00     0.007 A 
ATOM     74  O   UNL A   1      46.714  17.336  44.523  1.00  0.00    -0.425 OA
ATOM     75  O   UNL A   1      47.353  19.204  43.479  1.00  0.00    -0.251 OA
ATOM     76  C   UNL A   1      41.525  13.654  40.745  1.00  0.00     0.305 A 
ATOM     77  H   UNL A   1      42.103  14.323  38.879  1.00  0.00     0.171 HD
ATOM     78  S   UNL A   1      41.808  14.310  42.335  1.00  0.00    -0.078 S 
ATOM     79  C   UNL A   1      44.892  13.881  44.063  1.00  0.00     0.024 A 
ATOM     80  C   UNL A   1      46.260  15.889  44.664  1.00  0.00     0.148 A 
ATOM     81  O   UNL A   1      40.874  12.650  40.530  1.00  0.00    -0.257 OA
ATOM     82  C   UNL A   1      46.009  13.309  44.769  1.00  0.00     0.019 A 
ATOM     83  C   UNL A   1      47.302  15.313  45.336  1.00  0.00     0.062 A 
ATOM     84  Br  UNL A   1      46.046  11.426  44.945  1.00  0.00    -0.051 Br
ATOM     85  C   UNL A   1      47.152  13.973  45.380  1.00  0.00     0.035 A 
ATOM     86  Br  UNL A   1      48.619  16.317  46.298  1.00  0.00    -0.047 Br
ENDBRANCH  63  65
ENDBRANCH  62  63
ENDBRANCH  61  62
ENDBRANCH   1  61
TORSDOF 11
ENDMDL
MODEL 2
REMARK VINA RESULT:     -13.2     14.703     22.742
REMARK SMILES O=C(OCCOC(=O)[C@H]1Sc2[nH]c(=O)sc2[C@H]2c3cc(Br)cc(Br)c3OC(=O)[C@H]21)c1ccc(-c2c3nc(c(-c4c(F)cccc4F)c4ccc([nH]4)c(-c4c(F)cccc4F)c4nc(c(-c5c(F)cccc5F)c5ccc2[nH]5)C=C4)C=C3)cc1
REMARK SMILES IDX 4 1 3 2 2 3 1 4 30 5 31 6 83 7 32 8 82 9 33 10 34 11 35 12
REMARK SMILES IDX 76 13 36 14 81 15 75 16 77 17 37 18 80 19 74 20 73 21 38 23
REMARK SMILES IDX 64 24 47 25 63 26 48 27 51 28 62 29 78 30 49 31 50 32 61 34
REMARK SMILES IDX 79 35 52 36 39 37 40 38 45 39 41 40 42 41 44 42 46 43 43 44
REMARK SMILES IDX 65 45 66 46 71 47 67 48 68 49 70 50 72 51 69 52 53 53 54 54
REMARK SMILES IDX 59 55 55 56 56 57 58 58 60 59 57 60 5 61 6 62 7 63 8 64 9 65
REMARK SMILES IDX 10 66 29 67 11 68 17 69 27 70 12 71 16 72 18 73 26 74 28 75
REMARK SMILES IDX 13 76 15 78 19 79 25 80 14 81 20 82 23 83 21 84 22 85 24 86
REMARK H PARENT 77 22 51 33 12 77
REMARK Flexibility Score: inf
ROOT
ATOM      1  C   UNL A   1      43.492  39.400  26.729  1.00  0.00     0.275 C 
ENDROOT
BRANCH   1   2
ATOM      2  O   UNL A   1      44.406  38.820  27.628  1.00  0.00    -0.458 OA
BRANCH   2   3
ATOM      3  C   UNL A   1      44.453  37.496  27.563  1.00  0.00     0.338 C 
ATOM      4  O   UNL A   1      44.659  36.916  26.501  1.00  0.00    -0.246 OA
BRANCH   3   5
ATOM      5  C   UNL A   1      44.475  36.695  28.854  1.00  0.00     0.060 A 
ATOM      6  C   UNL A   1      45.454  36.039  30.248  1.00  0.00     0.016 A 
ATOM      7  C   UNL A   1      42.880  36.491  29.098  1.00  0.00     0.016 A 
ATOM      8  C   UNL A   1      44.640  35.068  31.579  1.00  0.00     0.010 A 
ATOM      9  C   UNL A   1      42.294  35.494  30.689  1.00  0.00     0.010 A 
ATOM     10  C   UNL A   1      42.992  34.499  31.661  1.00  0.00    -0.014 A 
BRANCH  10  11
ATOM     11  C   UNL A   1      41.220  34.221  31.913  1.00  0.00     0.031 A 
ATOM     12  C   UNL A   1      41.347  34.269  33.389  1.00  0.00     0.074 A 
ATOM     13  C   UNL A   1      39.867  34.019  31.263  1.00  0.00     0.049 A 
ATOM     14  N   UNL A   1      42.055  33.330  33.946  1.00  0.00    -0.248 NA
ATOM     15  C   UNL A   1      41.460  35.520  34.230  1.00  0.00     0.031 C 
ATOM     16  C   UNL A   1      39.239  33.968  29.878  1.00  0.00     0.029 A 
ATOM     17  N   UNL A   1      38.568  33.757  31.861  1.00  0.00    -0.354 N 
ATOM     18  C   UNL A   1      42.056  33.647  35.271  1.00  0.00     0.074 A 
ATOM     19  C   UNL A   1      42.096  35.069  35.325  1.00  0.00     0.031 C 
ATOM     20  C   UNL A   1      37.883  34.134  29.752  1.00  0.00     0.029 A 
ATOM     21  C   UNL A   1      37.305  34.035  31.066  1.00  0.00     0.049 A 
ATOM     22  H   UNL A   1      38.507  33.400  32.775  1.00  0.00     0.167 HD
ATOM     23  C   UNL A   1      41.432  32.767  36.086  1.00  0.00     0.037 A 
ATOM     24  C   UNL A   1      35.976  33.573  31.216  1.00  0.00     0.037 A 
ATOM     25  C   UNL A   1      41.161  31.535  35.357  1.00  0.00     0.049 A 
ATOM     26  C   UNL A   1      36.033  32.521  32.261  1.00  0.00     0.074 A 
ATOM     27  C   UNL A   1      41.966  30.661  34.643  1.00  0.00     0.029 A 
ATOM     28  N   UNL A   1      39.932  31.503  34.748  1.00  0.00    -0.354 N 
ATOM     29  N   UNL A   1      36.582  31.361  32.028  1.00  0.00    -0.248 NA
ATOM     30  C   UNL A   1      36.168  33.087  33.600  1.00  0.00     0.031 C 
ATOM     31  C   UNL A   1      41.244  30.316  33.461  1.00  0.00     0.029 A 
ATOM     32  C   UNL A   1      39.942  30.788  33.576  1.00  0.00     0.049 A 
ATOM     33  H   UNL A   1      39.130  31.946  35.111  1.00  0.00     0.167 HD
ATOM     34  C   UNL A   1      37.583  31.292  32.980  1.00  0.00     0.074 A 
ATOM     35  C   UNL A   1      37.284  32.414  33.914  1.00  0.00     0.031 C 
ATOM     36  C   UNL A   1      38.778  30.665  32.717  1.00  0.00     0.037 A 
BRANCH  23  37
ATOM     37  C   UNL A   1      40.702  33.203  37.304  1.00  0.00     0.057 A 
ATOM     38  C   UNL A   1      41.212  32.773  38.525  1.00  0.00     0.134 A 
ATOM     39  C   UNL A   1      39.488  33.925  37.345  1.00  0.00     0.134 A 
ATOM     40  F   UNL A   1      42.333  32.039  38.567  1.00  0.00    -0.206 F 
ATOM     41  C   UNL A   1      40.584  33.078  39.729  1.00  0.00     0.040 A 
ATOM     42  C   UNL A   1      38.874  34.278  38.546  1.00  0.00     0.040 A 
ATOM     43  F   UNL A   1      38.821  34.272  36.235  1.00  0.00    -0.206 F 
ATOM     44  C   UNL A   1      39.424  33.849  39.745  1.00  0.00     0.006 A 
ENDBRANCH  23  37
BRANCH  24  45
ATOM     45  C   UNL A   1      34.627  34.305  31.020  1.00  0.00     0.057 A 
ATOM     46  C   UNL A   1      34.054  35.314  31.860  1.00  0.00     0.134 A 
ATOM     47  C   UNL A   1      34.008  34.202  29.772  1.00  0.00     0.134 A 
ATOM     48  F   UNL A   1      34.492  35.513  33.115  1.00  0.00    -0.206 F 
ATOM     49  C   UNL A   1      33.023  36.197  31.425  1.00  0.00     0.040 A 
ATOM     50  C   UNL A   1      33.010  35.085  29.321  1.00  0.00     0.040 A 
ATOM     51  F   UNL A   1      34.419  33.270  28.906  1.00  0.00    -0.206 F 
ATOM     52  C   UNL A   1      32.531  36.108  30.129  1.00  0.00     0.006 A 
ENDBRANCH  24  45
BRANCH  36  53
ATOM     53  C   UNL A   1      38.939  29.791  31.470  1.00  0.00     0.057 A 
ATOM     54  C   UNL A   1      39.705  30.058  30.318  1.00  0.00     0.134 A 
ATOM     55  C   UNL A   1      38.431  28.495  31.540  1.00  0.00     0.134 A 
ATOM     56  F   UNL A   1      40.348  31.210  30.175  1.00  0.00    -0.206 F 
ATOM     57  C   UNL A   1      39.910  29.125  29.284  1.00  0.00     0.040 A 
ATOM     58  C   UNL A   1      38.638  27.543  30.532  1.00  0.00     0.040 A 
ATOM     59  F   UNL A   1      37.776  28.102  32.640  1.00  0.00    -0.206 F 
ATOM     60  C   UNL A   1      39.362  27.857  29.387  1.00  0.00     0.006 A 
ENDBRANCH  36  53
ENDBRANCH  10  11
ENDBRANCH   3   5
ENDBRANCH   2   3
ENDBRANCH   1   2
BRANCH   1  61
ATOM     61  C   UNL A   1      44.103  40.695  26.120  1.00  0.00     0.274 C 
BRANCH  61  62
ATOM     62  O   UNL A   1      43.336  41.328  25.001  1.00  0.00    -0.461 OA
BRANCH  62  63
ATOM     63  C   UNL A   1      43.682  42.498  24.354  1.00  0.00     0.320 C 
ATOM     64  O   UNL A   1      43.832  43.531  24.998  1.00  0.00    -0.251 OA
BRANCH  63  65
ATOM     65  C   UNL A   1      44.046  42.314  22.617  1.00  0.00     0.178 C 
ATOM     66  S   UNL A   1      42.299  42.582  21.897  1.00  0.00    -0.091 SA
ATOM     67  C   UNL A   1      45.554  42.934  21.661  1.00  0.00     0.137 C 
ATOM     68  C   UNL A   1      42.323  43.337  20.389  1.00  0.00     0.091 A 
ATOM     69  C   UNL A   1      44.730  44.043  20.168  1.00  0.00     0.082 C 
ATOM     70  C   UNL A   1      47.313  44.040  22.474  1.00  0.00     0.317 C 
ATOM     71  N   UNL A   1      41.150  43.474  19.689  1.00  0.00    -0.307 N 
ATOM     72  C   UNL A   1      43.339  43.885  19.745  1.00  0.00     0.049 A 
ATOM     73  C   UNL A   1      45.543  45.767  19.967  1.00  0.00     0.007 A 
ATOM     74  O   UNL A   1      47.671  45.376  21.793  1.00  0.00    -0.425 OA
ATOM     75  O   UNL A   1      48.053  43.974  23.488  1.00  0.00    -0.251 OA
ATOM     76  C   UNL A   1      41.228  44.003  18.423  1.00  0.00     0.305 A 
ATOM     77  H   UNL A   1      40.287  43.205  20.079  1.00  0.00     0.171 HD
ATOM     78  S   UNL A   1      42.919  44.191  18.047  1.00  0.00    -0.078 S 
ATOM     79  C   UNL A   1      44.903  46.820  19.401  1.00  0.00     0.024 A 
ATOM     80  C   UNL A   1      46.861  46.265  20.858  1.00  0.00     0.148 A 
ATOM     81  O   UNL A   1      40.326  44.328  17.676  1.00  0.00    -0.257 OA
ATOM     82  C   UNL A   1      45.456  48.115  19.703  1.00  0.00     0.019 A 
ATOM     83  C   UNL A   1      47.364  47.509  21.119  1.00  0.00     0.062 A 
ATOM     84  Br  UNL A   1      44.570  49.622  18.980  1.00  0.00    -0.051 Br
ATOM     85  C   UNL A   1      46.621  48.456  20.509  1.00  0.00     0.035 A 
ATOM     86  Br  UNL A   1      49.040  47.806  21.996  1.00  0.00    -0.047 Br
ENDBRANCH  63  65
ENDBRANCH  62  63
ENDBRANCH  61  62
ENDBRANCH   1  61
TORSDOF 11
ENDMDL
MODEL 3
REMARK VINA RESULT:     -13.2      9.912     14.798
REMARK SMILES O=C(OCCOC(=O)[C@H]1Sc2[nH]c(=O)sc2[C@H]2c3cc(Br)cc(Br)c3OC(=O)[C@H]21)c1ccc(-c2c3nc(c(-c4c(F)cccc4F)c4ccc([nH]4)c(-c4c(F)cccc4F)c4nc(c(-c5c(F)cccc5F)c5ccc2[nH]5)C=C4)C=C3)cc1
REMARK SMILES IDX 4 1 3 2 2 3 1 4 30 5 31 6 83 7 32 8 82 9 33 10 34 11 35 12
REMARK SMILES IDX 76 13 36 14 81 15 75 16 77 17 37 18 80 19 74 20 73 21 38 23
REMARK SMILES IDX 64 24 47 25 63 26 48 27 51 28 62 29 78 30 49 31 50 32 61 34
REMARK SMILES IDX 79 35 52 36 39 37 40 38 45 39 41 40 42 41 44 42 46 43 43 44
REMARK SMILES IDX 65 45 66 46 71 47 67 48 68 49 70 50 72 51 69 52 53 53 54 54
REMARK SMILES IDX 59 55 55 56 56 57 58 58 60 59 57 60 5 61 6 62 7 63 8 64 9 65
REMARK SMILES IDX 10 66 29 67 11 68 17 69 27 70 12 71 16 72 18 73 26 74 28 75
REMARK SMILES IDX 13 76 15 78 19 79 25 80 14 81 20 82 23 83 21 84 22 85 24 86
REMARK H PARENT 77 22 51 33 12 77
REMARK Flexibility Score: inf
ROOT
ATOM      1  C   UNL A   1      44.488  30.496  26.937  1.00  0.00     0.275 C 
ENDROOT
BRANCH   1   2
ATOM      2  O   UNL A   1      45.203  31.125  27.973  1.00  0.00    -0.458 OA
BRANCH   2   3
ATOM      3  C   UNL A   1      45.164  32.451  27.922  1.00  0.00     0.338 C 
ATOM      4  O   UNL A   1      45.098  33.046  26.850  1.00  0.00    -0.246 OA
BRANCH   3   5
ATOM      5  C   UNL A   1      44.974  33.233  29.209  1.00  0.00     0.060 A 
ATOM      6  C   UNL A   1      45.705  34.331  30.471  1.00  0.00     0.016 A 
ATOM      7  C   UNL A   1      43.365  33.092  29.403  1.00  0.00     0.016 A 
ATOM      8  C   UNL A   1      44.688  34.935  31.878  1.00  0.00     0.010 A 
ATOM      9  C   UNL A   1      42.528  33.950  30.962  1.00  0.00     0.010 A 
ATOM     10  C   UNL A   1      43.063  34.479  32.323  1.00  0.00    -0.014 A 
BRANCH  10  11
ATOM     11  C   UNL A   1      41.280  34.281  32.575  1.00  0.00     0.031 A 
ATOM     12  C   UNL A   1      41.406  34.358  34.050  1.00  0.00     0.074 A 
ATOM     13  C   UNL A   1      39.921  34.122  31.926  1.00  0.00     0.049 A 
ATOM     14  N   UNL A   1      42.072  33.402  34.631  1.00  0.00    -0.248 NA
ATOM     15  C   UNL A   1      41.569  35.621  34.863  1.00  0.00     0.031 C 
ATOM     16  C   UNL A   1      39.296  34.065  30.541  1.00  0.00     0.029 A 
ATOM     17  N   UNL A   1      38.611  33.928  32.525  1.00  0.00    -0.354 N 
ATOM     18  C   UNL A   1      42.083  33.749  35.949  1.00  0.00     0.074 A 
ATOM     19  C   UNL A   1      42.183  35.169  35.970  1.00  0.00     0.031 C 
ATOM     20  C   UNL A   1      37.948  34.285  30.406  1.00  0.00     0.029 A 
ATOM     21  C   UNL A   1      37.363  34.240  31.720  1.00  0.00     0.049 A 
ATOM     22  H   UNL A   1      38.533  33.594  33.447  1.00  0.00     0.167 HD
ATOM     23  C   UNL A   1      41.421  32.914  36.781  1.00  0.00     0.037 A 
ATOM     24  C   UNL A   1      36.016  33.837  31.875  1.00  0.00     0.037 A 
ATOM     25  C   UNL A   1      41.100  31.678  36.079  1.00  0.00     0.049 A 
ATOM     26  C   UNL A   1      36.026  32.808  32.944  1.00  0.00     0.074 A 
ATOM     27  C   UNL A   1      41.869  30.756  35.388  1.00  0.00     0.029 A 
ATOM     28  N   UNL A   1      39.872  31.684  35.467  1.00  0.00    -0.354 N 
ATOM     29  N   UNL A   1      36.526  31.621  32.739  1.00  0.00    -0.248 NA
ATOM     30  C   UNL A   1      36.181  33.398  34.270  1.00  0.00     0.031 C 
ATOM     31  C   UNL A   1      41.136  30.414  34.211  1.00  0.00     0.029 A 
ATOM     32  C   UNL A   1      39.855  30.943  34.311  1.00  0.00     0.049 A 
ATOM     33  H   UNL A   1      39.089  32.169  35.818  1.00  0.00     0.167 HD
ATOM     34  C   UNL A   1      37.521  31.532  33.696  1.00  0.00     0.074 A 
ATOM     35  C   UNL A   1      37.267  32.686  34.604  1.00  0.00     0.031 C 
ATOM     36  C   UNL A   1      38.690  30.849  33.451  1.00  0.00     0.037 A 
BRANCH  23  37
ATOM     37  C   UNL A   1      40.707  33.408  37.987  1.00  0.00     0.057 A 
ATOM     38  C   UNL A   1      41.185  32.971  39.218  1.00  0.00     0.134 A 
ATOM     39  C   UNL A   1      39.533  34.195  38.007  1.00  0.00     0.134 A 
ATOM     40  F   UNL A   1      42.264  32.179  39.280  1.00  0.00    -0.206 F 
ATOM     41  C   UNL A   1      40.565  33.329  40.412  1.00  0.00     0.040 A 
ATOM     42  C   UNL A   1      38.931  34.599  39.197  1.00  0.00     0.040 A 
ATOM     43  F   UNL A   1      38.893  34.559  36.886  1.00  0.00    -0.206 F 
ATOM     44  C   UNL A   1      39.448  34.161  40.407  1.00  0.00     0.006 A 
ENDBRANCH  23  37
BRANCH  24  45
ATOM     45  C   UNL A   1      34.699  34.621  31.659  1.00  0.00     0.057 A 
ATOM     46  C   UNL A   1      34.212  35.734  32.419  1.00  0.00     0.134 A 
ATOM     47  C   UNL A   1      34.026  34.436  30.449  1.00  0.00     0.134 A 
ATOM     48  F   UNL A   1      34.710  36.024  33.633  1.00  0.00    -0.206 F 
ATOM     49  C   UNL A   1      33.212  36.628  31.938  1.00  0.00     0.040 A 
ATOM     50  C   UNL A   1      33.057  35.327  29.952  1.00  0.00     0.040 A 
ATOM     51  F   UNL A   1      34.353  33.407  29.662  1.00  0.00    -0.206 F 
ATOM     52  C   UNL A   1      32.663  36.445  30.675  1.00  0.00     0.006 A 
ENDBRANCH  24  45
BRANCH  36  53
ATOM     53  C   UNL A   1      38.816  29.942  32.225  1.00  0.00     0.057 A 
ATOM     54  C   UNL A   1      39.661  30.106  31.110  1.00  0.00     0.134 A 
ATOM     55  C   UNL A   1      38.172  28.708  32.286  1.00  0.00     0.134 A 
ATOM     56  F   UNL A   1      40.428  31.181  30.984  1.00  0.00    -0.206 F 
ATOM     57  C   UNL A   1      39.815  29.139  30.098  1.00  0.00     0.040 A 
ATOM     58  C   UNL A   1      38.324  27.722  31.301  1.00  0.00     0.040 A 
ATOM     59  F   UNL A   1      37.426  28.405  33.357  1.00  0.00    -0.206 F 
ATOM     60  C   UNL A   1      39.132  27.937  30.190  1.00  0.00     0.006 A 
ENDBRANCH  36  53
ENDBRANCH  10  11
ENDBRANCH   3   5
ENDBRANCH   2   3
ENDBRANCH   1   2
BRANCH   1  61
ATOM     61  C   UNL A   1      43.208  29.826  27.516  1.00  0.00     0.274 C 
BRANCH  61  62
ATOM     62  O   UNL A   1      42.251  29.254  26.517  1.00  0.00    -0.461 OA
BRANCH  62  63
ATOM     63  C   UNL A   1      41.086  28.576  26.820  1.00  0.00     0.320 C 
ATOM     64  O   UNL A   1      39.999  29.092  26.581  1.00  0.00    -0.251 OA
BRANCH  63  65
ATOM     65  C   UNL A   1      41.320  26.900  27.383  1.00  0.00     0.178 C 
ATOM     66  S   UNL A   1      41.623  26.041  25.705  1.00  0.00    -0.091 SA
ATOM     67  C   UNL A   1      42.238  26.294  28.920  1.00  0.00     0.137 C 
ATOM     68  C   UNL A   1      42.696  24.745  25.821  1.00  0.00     0.091 A 
ATOM     69  C   UNL A   1      43.594  24.983  28.160  1.00  0.00     0.082 C 
ATOM     70  C   UNL A   1      43.251  27.538  30.471  1.00  0.00     0.317 C 
ATOM     71  N   UNL A   1      42.907  23.949  24.721  1.00  0.00    -0.307 N 
ATOM     72  C   UNL A   1      43.442  24.365  26.843  1.00  0.00     0.049 A 
ATOM     73  C   UNL A   1      45.371  25.258  28.825  1.00  0.00     0.007 A 
ATOM     74  O   UNL A   1      44.726  27.210  30.774  1.00  0.00    -0.425 OA
ATOM     75  O   UNL A   1      43.009  28.599  31.102  1.00  0.00    -0.251 OA
ATOM     76  C   UNL A   1      43.710  22.847  24.884  1.00  0.00     0.305 A 
ATOM     77  H   UNL A   1      42.499  24.162  23.850  1.00  0.00     0.171 HD
ATOM     78  S   UNL A   1      44.090  22.734  26.581  1.00  0.00    -0.078 S 
ATOM     79  C   UNL A   1      46.478  24.856  28.154  1.00  0.00     0.024 A 
ATOM     80  C   UNL A   1      45.745  26.393  29.989  1.00  0.00     0.148 A 
ATOM     81  O   UNL A   1      44.132  22.080  24.041  1.00  0.00    -0.257 OA
ATOM     82  C   UNL A   1      47.707  25.495  28.549  1.00  0.00     0.019 A 
ATOM     83  C   UNL A   1      46.930  26.975  30.342  1.00  0.00     0.062 A 
ATOM     84  Br  UNL A   1      49.274  25.006  27.609  1.00  0.00    -0.051 Br
ATOM     85  C   UNL A   1      47.937  26.494  29.584  1.00  0.00     0.035 A 
ATOM     86  Br  UNL A   1      47.136  28.098  31.880  1.00  0.00    -0.047 Br
ENDBRANCH  63  65
ENDBRANCH  62  63
ENDBRANCH  61  62
ENDBRANCH   1  61
TORSDOF 11
ENDMDL
