MODEL 1
REMARK VINA RESULT:      -9.3      0.000      0.000
REMARK SMILES CC(=O)N1CCC[C@H]1COCC(=O)OCCOC(=O)c1ccc(-c2c3nc(c(-c4c(F)cccc4F)c4ccc([nH]4)c(-c4c(F)cccc4F)c4nc(c(-c5c(F)cccc5F)c5ccc2[nH]5)C=C4)C=C3)cc1
REMARK SMILES IDX 15 1 14 2 12 3 13 4 11 5 10 6 9 7 8 8 4 9 5 10 6 11 7 12
REMARK SMILES IDX 2 13 1 14 3 15 16 16 17 17 18 18 19 19 20 20 21 21 73 22
REMARK SMILES IDX 22 23 72 24 23 25 24 26 25 27 66 28 26 29 71 30 65 31 67 32
REMARK SMILES IDX 27 33 70 34 64 35 63 36 28 38 54 39 37 40 53 41 38 42 41 43
REMARK SMILES IDX 52 44 68 45 39 46 40 47 51 49 69 50 42 51 29 52 30 53 35 54
REMARK SMILES IDX 31 55 32 56 34 57 36 58 33 59 55 60 56 61 61 62 57 63 58 64
REMARK SMILES IDX 60 65 62 66 59 67 43 68 44 69 49 70 45 71 46 72 48 73 50 74
REMARK SMILES IDX 47 75
REMARK H PARENT 67 37 41 48
REMARK Flexibility Score: inf
ROOT
ATOM      1  C   UNL A   1      44.962  19.408  24.832  1.00  0.00     0.274 C 
ENDROOT
BRANCH   1   2
ATOM      2  O   UNL A   1      44.718  20.651  24.142  1.00  0.00    -0.460 OA
BRANCH   2   3
ATOM      3  C   UNL A   1      45.499  21.684  24.544  1.00  0.00     0.332 C 
ATOM      4  O   UNL A   1      46.421  21.595  25.351  1.00  0.00    -0.250 OA
BRANCH   3   5
ATOM      5  C   UNL A   1      45.083  23.036  23.958  1.00  0.00     0.282 C 
BRANCH   5   6
ATOM      6  O   UNL A   1      45.636  24.286  24.297  1.00  0.00    -0.368 OA
BRANCH   6   7
ATOM      7  C   UNL A   1      44.933  25.080  25.256  1.00  0.00     0.186 C 
BRANCH   7   8
ATOM      8  C   UNL A   1      45.129  26.616  25.172  1.00  0.00     0.111 C 
ATOM      9  N   UNL A   1      44.048  27.409  25.783  1.00  0.00    -0.338 N 
ATOM     10  C   UNL A   1      44.576  28.368  26.738  1.00  0.00     0.120 C 
ATOM     11  C   UNL A   1      46.008  28.561  26.282  1.00  0.00     0.024 C 
ATOM     12  C   UNL A   1      46.401  27.157  25.844  1.00  0.00     0.029 C 
BRANCH   9  13
ATOM     13  C   UNL A   1      42.754  27.371  25.315  1.00  0.00     0.219 C 
ATOM     14  C   UNL A   1      41.912  28.601  25.537  1.00  0.00     0.114 C 
ATOM     15  O   UNL A   1      42.299  26.402  24.713  1.00  0.00    -0.275 OA
ENDBRANCH   9  13
ENDBRANCH   7   8
ENDBRANCH   6   7
ENDBRANCH   5   6
ENDBRANCH   3   5
ENDBRANCH   2   3
ENDBRANCH   1   2
BRANCH   1  16
ATOM     16  C   UNL A   1      43.687  18.591  25.026  1.00  0.00     0.275 C 
BRANCH  16  17
ATOM     17  O   UNL A   1      43.057  18.902  26.281  1.00  0.00    -0.458 OA
BRANCH  17  18
ATOM     18  C   UNL A   1      41.835  19.473  26.166  1.00  0.00     0.338 C 
ATOM     19  O   UNL A   1      40.835  18.968  25.693  1.00  0.00    -0.246 OA
BRANCH  18  20
ATOM     20  C   UNL A   1      41.865  20.852  26.680  1.00  0.00     0.060 A 
ATOM     21  C   UNL A   1      41.922  21.936  25.804  1.00  0.00     0.016 A 
ATOM     22  C   UNL A   1      41.987  21.051  28.056  1.00  0.00     0.016 A 
ATOM     23  C   UNL A   1      42.189  23.214  26.298  1.00  0.00     0.010 A 
ATOM     24  C   UNL A   1      42.172  22.343  28.554  1.00  0.00     0.010 A 
ATOM     25  C   UNL A   1      42.312  23.433  27.679  1.00  0.00    -0.014 A 
BRANCH  25  26
ATOM     26  C   UNL A   1      42.595  24.791  28.213  1.00  0.00     0.031 A 
ATOM     27  C   UNL A   1      43.980  25.162  28.673  1.00  0.00     0.074 A 
ATOM     28  C   UNL A   1      41.602  25.696  28.306  1.00  0.00     0.049 A 
ATOM     29  N   UNL A   1      44.381  26.238  29.303  1.00  0.00    -0.248 NA
ATOM     30  C   UNL A   1      45.055  24.195  28.391  1.00  0.00     0.031 C 
ATOM     31  C   UNL A   1      40.220  25.484  27.874  1.00  0.00     0.029 A 
ATOM     32  N   UNL A   1      41.602  26.977  28.801  1.00  0.00    -0.354 N 
ATOM     33  C   UNL A   1      45.740  26.062  29.533  1.00  0.00     0.074 A 
ATOM     34  C   UNL A   1      46.098  24.775  28.972  1.00  0.00     0.031 C 
ATOM     35  C   UNL A   1      39.511  26.600  28.104  1.00  0.00     0.029 A 
ATOM     36  C   UNL A   1      40.370  27.581  28.759  1.00  0.00     0.049 A 
ATOM     37  H   UNL A   1      42.408  27.420  29.151  1.00  0.00     0.167 HD
ATOM     38  C   UNL A   1      46.607  26.894  30.157  1.00  0.00     0.037 A 
ATOM     39  C   UNL A   1      39.962  28.774  29.229  1.00  0.00     0.037 A 
ATOM     40  C   UNL A   1      46.265  28.188  30.686  1.00  0.00     0.049 A 
ATOM     41  C   UNL A   1      40.933  29.663  29.945  1.00  0.00     0.074 A 
ATOM     42  C   UNL A   1      47.088  29.111  31.311  1.00  0.00     0.029 A 
ATOM     43  N   UNL A   1      44.997  28.747  30.648  1.00  0.00    -0.354 N 
ATOM     44  N   UNL A   1      42.206  29.469  30.183  1.00  0.00    -0.248 NA
ATOM     45  C   UNL A   1      40.405  30.928  30.476  1.00  0.00     0.031 C 
ATOM     46  C   UNL A   1      46.312  30.219  31.672  1.00  0.00     0.029 A 
ATOM     47  C   UNL A   1      45.012  29.997  31.248  1.00  0.00     0.049 A 
ATOM     48  H   UNL A   1      44.203  28.320  30.253  1.00  0.00     0.167 HD
ATOM     49  C   UNL A   1      42.633  30.584  30.889  1.00  0.00     0.074 A 
ATOM     50  C   UNL A   1      41.489  31.460  31.025  1.00  0.00     0.031 C 
ATOM     51  C   UNL A   1      43.865  30.854  31.385  1.00  0.00     0.037 A 
BRANCH  38  52
ATOM     52  C   UNL A   1      48.020  26.422  30.324  1.00  0.00     0.057 A 
ATOM     53  C   UNL A   1      48.432  25.705  31.452  1.00  0.00     0.134 A 
ATOM     54  C   UNL A   1      48.966  26.645  29.315  1.00  0.00     0.134 A 
ATOM     55  F   UNL A   1      47.576  25.471  32.459  1.00  0.00    -0.206 F 
ATOM     56  C   UNL A   1      49.740  25.232  31.576  1.00  0.00     0.040 A 
ATOM     57  C   UNL A   1      50.271  26.164  29.420  1.00  0.00     0.040 A 
ATOM     58  F   UNL A   1      48.631  27.321  28.205  1.00  0.00    -0.206 F 
ATOM     59  C   UNL A   1      50.662  25.457  30.555  1.00  0.00     0.006 A 
ENDBRANCH  38  52
BRANCH  39  60
ATOM     60  C   UNL A   1      38.546  29.178  29.062  1.00  0.00     0.057 A 
ATOM     61  C   UNL A   1      37.643  29.097  30.127  1.00  0.00     0.134 A 
ATOM     62  C   UNL A   1      38.070  29.674  27.843  1.00  0.00     0.134 A 
ATOM     63  F   UNL A   1      38.040  28.609  31.311  1.00  0.00    -0.206 F 
ATOM     64  C   UNL A   1      36.313  29.494  29.985  1.00  0.00     0.040 A 
ATOM     65  C   UNL A   1      36.748  30.094  27.692  1.00  0.00     0.040 A 
ATOM     66  F   UNL A   1      38.891  29.776  26.787  1.00  0.00    -0.206 F 
ATOM     67  C   UNL A   1      35.865  30.001  28.766  1.00  0.00     0.006 A 
ENDBRANCH  39  60
BRANCH  51  68
ATOM     68  C   UNL A   1      44.032  32.152  32.110  1.00  0.00     0.057 A 
ATOM     69  C   UNL A   1      43.842  32.246  33.493  1.00  0.00     0.134 A 
ATOM     70  C   UNL A   1      44.404  33.314  31.423  1.00  0.00     0.134 A 
ATOM     71  F   UNL A   1      43.470  31.170  34.203  1.00  0.00    -0.206 F 
ATOM     72  C   UNL A   1      43.998  33.458  34.168  1.00  0.00     0.040 A 
ATOM     73  C   UNL A   1      44.578  34.528  32.089  1.00  0.00     0.040 A 
ATOM     74  F   UNL A   1      44.602  33.286  30.096  1.00  0.00    -0.206 F 
ATOM     75  C   UNL A   1      44.372  34.602  33.465  1.00  0.00     0.006 A 
ENDBRANCH  51  68
ENDBRANCH  25  26
ENDBRANCH  18  20
ENDBRANCH  17  18
ENDBRANCH  16  17
ENDBRANCH   1  16
TORSDOF 15
ENDMDL
MODEL 2
REMARK VINA RESULT:      -9.2      0.707      6.587
REMARK SMILES CC(=O)N1CCC[C@H]1COCC(=O)OCCOC(=O)c1ccc(-c2c3nc(c(-c4c(F)cccc4F)c4ccc([nH]4)c(-c4c(F)cccc4F)c4nc(c(-c5c(F)cccc5F)c5ccc2[nH]5)C=C4)C=C3)cc1
REMARK SMILES IDX 15 1 14 2 12 3 13 4 11 5 10 6 9 7 8 8 4 9 5 10 6 11 7 12
REMARK SMILES IDX 2 13 1 14 3 15 16 16 17 17 18 18 19 19 20 20 21 21 73 22
REMARK SMILES IDX 22 23 72 24 23 25 24 26 25 27 66 28 26 29 71 30 65 31 67 32
REMARK SMILES IDX 27 33 70 34 64 35 63 36 28 38 54 39 37 40 53 41 38 42 41 43
REMARK SMILES IDX 52 44 68 45 39 46 40 47 51 49 69 50 42 51 29 52 30 53 35 54
REMARK SMILES IDX 31 55 32 56 34 57 36 58 33 59 55 60 56 61 61 62 57 63 58 64
REMARK SMILES IDX 60 65 62 66 59 67 43 68 44 69 49 70 45 71 46 72 48 73 50 74
REMARK SMILES IDX 47 75
REMARK H PARENT 67 37 41 48
REMARK Flexibility Score: inf
ROOT
ATOM      1  C   UNL A   1      44.788  19.427  24.869  1.00  0.00     0.274 C 
ENDROOT
BRANCH   1   2
ATOM      2  O   UNL A   1      44.610  20.696  24.207  1.00  0.00    -0.460 OA
BRANCH   2   3
ATOM      3  C   UNL A   1      45.488  21.659  24.582  1.00  0.00     0.332 C 
ATOM      4  O   UNL A   1      46.448  21.481  25.328  1.00  0.00    -0.250 OA
BRANCH   3   5
ATOM      5  C   UNL A   1      45.140  23.052  24.053  1.00  0.00     0.282 C 
BRANCH   5   6
ATOM      6  O   UNL A   1      45.457  24.273  24.677  1.00  0.00    -0.368 OA
BRANCH   6   7
ATOM      7  C   UNL A   1      44.375  25.151  24.999  1.00  0.00     0.186 C 
BRANCH   7   8
ATOM      8  C   UNL A   1      44.695  26.667  25.056  1.00  0.00     0.111 C 
ATOM      9  N   UNL A   1      43.737  27.470  25.834  1.00  0.00    -0.338 N 
ATOM     10  C   UNL A   1      44.415  28.275  26.835  1.00  0.00     0.120 C 
ATOM     11  C   UNL A   1      45.821  28.405  26.283  1.00  0.00     0.024 C 
ATOM     12  C   UNL A   1      46.057  27.030  25.671  1.00  0.00     0.029 C 
BRANCH   9  13
ATOM     13  C   UNL A   1      42.412  27.584  25.474  1.00  0.00     0.219 C 
ATOM     14  C   UNL A   1      41.792  28.954  25.580  1.00  0.00     0.114 C 
ATOM     15  O   UNL A   1      41.759  26.633  25.054  1.00  0.00    -0.275 OA
ENDBRANCH   9  13
ENDBRANCH   7   8
ENDBRANCH   6   7
ENDBRANCH   5   6
ENDBRANCH   3   5
ENDBRANCH   2   3
ENDBRANCH   1   2
BRANCH   1  16
ATOM     16  C   UNL A   1      43.481  18.648  24.994  1.00  0.00     0.275 C 
BRANCH  16  17
ATOM     17  O   UNL A   1      42.820  18.940  26.239  1.00  0.00    -0.458 OA
BRANCH  17  18
ATOM     18  C   UNL A   1      41.648  19.604  26.106  1.00  0.00     0.338 C 
ATOM     19  O   UNL A   1      40.633  19.194  25.576  1.00  0.00    -0.246 OA
BRANCH  18  20
ATOM     20  C   UNL A   1      41.758  20.955  26.680  1.00  0.00     0.060 A 
ATOM     21  C   UNL A   1      41.851  22.074  25.853  1.00  0.00     0.016 A 
ATOM     22  C   UNL A   1      41.918  21.083  28.060  1.00  0.00     0.016 A 
ATOM     23  C   UNL A   1      42.193  23.313  26.397  1.00  0.00     0.010 A 
ATOM     24  C   UNL A   1      42.179  22.341  28.612  1.00  0.00     0.010 A 
ATOM     25  C   UNL A   1      42.354  23.462  27.783  1.00  0.00    -0.014 A 
BRANCH  25  26
ATOM     26  C   UNL A   1      42.716  24.779  28.371  1.00  0.00     0.031 A 
ATOM     27  C   UNL A   1      41.666  25.836  28.589  1.00  0.00     0.074 A 
ATOM     28  C   UNL A   1      43.997  25.039  28.698  1.00  0.00     0.049 A 
ATOM     29  N   UNL A   1      41.816  27.088  28.946  1.00  0.00    -0.248 NA
ATOM     30  C   UNL A   1      40.266  25.437  28.373  1.00  0.00     0.031 C 
ATOM     31  C   UNL A   1      45.111  24.099  28.567  1.00  0.00     0.029 A 
ATOM     32  N   UNL A   1      44.577  26.175  29.202  1.00  0.00    -0.354 N 
ATOM     33  C   UNL A   1      40.541  27.638  28.955  1.00  0.00     0.074 A 
ATOM     34  C   UNL A   1      39.625  26.583  28.571  1.00  0.00     0.031 C 
ATOM     35  C   UNL A   1      46.237  24.689  28.998  1.00  0.00     0.029 A 
ATOM     36  C   UNL A   1      45.936  26.068  29.371  1.00  0.00     0.049 A 
ATOM     37  H   UNL A   1      44.070  26.989  29.421  1.00  0.00     0.167 HD
ATOM     38  C   UNL A   1      40.169  28.905  29.253  1.00  0.00     0.037 A 
ATOM     39  C   UNL A   1      46.848  26.983  29.747  1.00  0.00     0.037 A 
ATOM     40  C   UNL A   1      41.069  29.949  29.668  1.00  0.00     0.049 A 
ATOM     41  C   UNL A   1      46.415  28.387  30.040  1.00  0.00     0.074 A 
ATOM     42  C   UNL A   1      40.774  31.257  30.016  1.00  0.00     0.029 A 
ATOM     43  N   UNL A   1      42.442  29.802  29.797  1.00  0.00    -0.354 N 
ATOM     44  N   UNL A   1      45.210  28.901  30.014  1.00  0.00    -0.248 NA
ATOM     45  C   UNL A   1      47.472  29.346  30.395  1.00  0.00     0.031 C 
ATOM     46  C   UNL A   1      41.972  31.908  30.334  1.00  0.00     0.029 A 
ATOM     47  C   UNL A   1      43.008  30.999  30.209  1.00  0.00     0.049 A 
ATOM     48  H   UNL A   1      42.940  28.972  29.623  1.00  0.00     0.167 HD
ATOM     49  C   UNL A   1      45.361  30.238  30.348  1.00  0.00     0.074 A 
ATOM     50  C   UNL A   1      46.772  30.454  30.592  1.00  0.00     0.031 C 
ATOM     51  C   UNL A   1      44.414  31.202  30.439  1.00  0.00     0.037 A 
BRANCH  38  52
ATOM     52  C   UNL A   1      38.715  29.248  29.121  1.00  0.00     0.057 A 
ATOM     53  C   UNL A   1      38.142  29.576  27.888  1.00  0.00     0.134 A 
ATOM     54  C   UNL A   1      37.871  29.198  30.238  1.00  0.00     0.134 A 
ATOM     55  F   UNL A   1      38.901  29.654  26.784  1.00  0.00    -0.206 F 
ATOM     56  C   UNL A   1      36.778  29.850  27.770  1.00  0.00     0.040 A 
ATOM     57  C   UNL A   1      36.504  29.454  30.129  1.00  0.00     0.040 A 
ATOM     58  F   UNL A   1      38.359  28.884  31.447  1.00  0.00    -0.206 F 
ATOM     59  C   UNL A   1      35.954  29.784  28.893  1.00  0.00     0.006 A 
ENDBRANCH  38  52
BRANCH  39  60
ATOM     60  C   UNL A   1      48.276  26.597  29.833  1.00  0.00     0.057 A 
ATOM     61  C   UNL A   1      49.156  26.851  28.777  1.00  0.00     0.134 A 
ATOM     62  C   UNL A   1      48.797  25.986  30.980  1.00  0.00     0.134 A 
ATOM     63  F   UNL A   1      48.707  27.415  27.647  1.00  0.00    -0.206 F 
ATOM     64  C   UNL A   1      50.506  26.510  28.856  1.00  0.00     0.040 A 
ATOM     65  C   UNL A   1      50.148  25.658  31.082  1.00  0.00     0.040 A 
ATOM     66  F   UNL A   1      48.000  25.719  32.026  1.00  0.00    -0.206 F 
ATOM     67  C   UNL A   1      51.007  25.918  30.015  1.00  0.00     0.006 A 
ENDBRANCH  39  60
BRANCH  51  68
ATOM     68  C   UNL A   1      44.877  32.571  30.827  1.00  0.00     0.057 A 
ATOM     69  C   UNL A   1      44.976  32.956  32.170  1.00  0.00     0.134 A 
ATOM     70  C   UNL A   1      45.244  33.507  29.853  1.00  0.00     0.134 A 
ATOM     71  F   UNL A   1      44.623  32.108  33.147  1.00  0.00    -0.206 F 
ATOM     72  C   UNL A   1      45.408  34.233  32.530  1.00  0.00     0.040 A 
ATOM     73  C   UNL A   1      45.692  34.782  30.201  1.00  0.00     0.040 A 
ATOM     74  F   UNL A   1      45.172  33.197  28.550  1.00  0.00    -0.206 F 
ATOM     75  C   UNL A   1      45.772  35.148  31.544  1.00  0.00     0.006 A 
ENDBRANCH  51  68
ENDBRANCH  25  26
ENDBRANCH  18  20
ENDBRANCH  17  18
ENDBRANCH  16  17
ENDBRANCH   1  16
TORSDOF 15
ENDMDL
MODEL 3
REMARK VINA RESULT:      -8.6      4.941     10.752
REMARK SMILES CC(=O)N1CCC[C@H]1COCC(=O)OCCOC(=O)c1ccc(-c2c3nc(c(-c4c(F)cccc4F)c4ccc([nH]4)c(-c4c(F)cccc4F)c4nc(c(-c5c(F)cccc5F)c5ccc2[nH]5)C=C4)C=C3)cc1
REMARK SMILES IDX 15 1 14 2 12 3 13 4 11 5 10 6 9 7 8 8 4 9 5 10 6 11 7 12
REMARK SMILES IDX 2 13 1 14 3 15 16 16 17 17 18 18 19 19 20 20 21 21 73 22
REMARK SMILES IDX 22 23 72 24 23 25 24 26 25 27 66 28 26 29 71 30 65 31 67 32
REMARK SMILES IDX 27 33 70 34 64 35 63 36 28 38 54 39 37 40 53 41 38 42 41 43
REMARK SMILES IDX 52 44 68 45 39 46 40 47 51 49 69 50 42 51 29 52 30 53 35 54
REMARK SMILES IDX 31 55 32 56 34 57 36 58 33 59 55 60 56 61 61 62 57 63 58 64
REMARK SMILES IDX 60 65 62 66 59 67 43 68 44 69 49 70 45 71 46 72 48 73 50 74
REMARK SMILES IDX 47 75
REMARK H PARENT 67 37 41 48
REMARK Flexibility Score: inf
ROOT
ATOM      1  C   UNL A   1      33.546  35.133  29.011  1.00  0.00     0.274 C 
ENDROOT
BRANCH   1   2
ATOM      2  O   UNL A   1      32.736  35.247  30.198  1.00  0.00    -0.460 OA
BRANCH   2   3
ATOM      3  C   UNL A   1      32.851  36.431  30.850  1.00  0.00     0.332 C 
ATOM      4  O   UNL A   1      32.894  37.531  30.305  1.00  0.00    -0.250 OA
BRANCH   3   5
ATOM      5  C   UNL A   1      33.008  36.288  32.366  1.00  0.00     0.282 C 
BRANCH   5   6
ATOM      6  O   UNL A   1      34.226  36.304  33.073  1.00  0.00    -0.368 OA
BRANCH   6   7
ATOM      7  C   UNL A   1      34.656  35.080  33.675  1.00  0.00     0.186 C 
BRANCH   7   8
ATOM      8  C   UNL A   1      35.510  34.130  32.798  1.00  0.00     0.111 C 
ATOM      9  N   UNL A   1      36.528  33.361  33.534  1.00  0.00    -0.338 N 
ATOM     10  C   UNL A   1      36.415  31.939  33.259  1.00  0.00     0.120 C 
ATOM     11  C   UNL A   1      35.712  31.900  31.916  1.00  0.00     0.024 C 
ATOM     12  C   UNL A   1      34.724  33.052  32.034  1.00  0.00     0.029 C 
BRANCH   9  13
ATOM     13  C   UNL A   1      37.569  33.970  34.199  1.00  0.00     0.219 C 
ATOM     14  C   UNL A   1      37.958  33.389  35.535  1.00  0.00     0.114 C 
ATOM     15  O   UNL A   1      38.185  34.922  33.727  1.00  0.00    -0.275 OA
ENDBRANCH   9  13
ENDBRANCH   7   8
ENDBRANCH   6   7
ENDBRANCH   5   6
ENDBRANCH   3   5
ENDBRANCH   2   3
ENDBRANCH   1   2
BRANCH   1  16
ATOM     16  C   UNL A   1      33.436  33.755  28.361  1.00  0.00     0.275 C 
BRANCH  16  17
ATOM     17  O   UNL A   1      34.686  33.046  28.435  1.00  0.00    -0.458 OA
BRANCH  17  18
ATOM     18  C   UNL A   1      34.628  31.767  27.994  1.00  0.00     0.338 C 
ATOM     19  O   UNL A   1      33.696  31.233  27.425  1.00  0.00    -0.246 OA
BRANCH  18  20
ATOM     20  C   UNL A   1      35.876  31.057  28.320  1.00  0.00     0.060 A 
ATOM     21  C   UNL A   1      35.849  29.721  28.721  1.00  0.00     0.016 A 
ATOM     22  C   UNL A   1      37.066  31.783  28.367  1.00  0.00     0.016 A 
ATOM     23  C   UNL A   1      36.997  29.133  29.253  1.00  0.00     0.010 A 
ATOM     24  C   UNL A   1      38.234  31.167  28.824  1.00  0.00     0.010 A 
ATOM     25  C   UNL A   1      38.204  29.847  29.305  1.00  0.00    -0.014 A 
BRANCH  25  26
ATOM     26  C   UNL A   1      39.433  29.228  29.869  1.00  0.00     0.031 A 
ATOM     27  C   UNL A   1      40.052  29.765  31.133  1.00  0.00     0.074 A 
ATOM     28  C   UNL A   1      40.011  28.189  29.237  1.00  0.00     0.049 A 
ATOM     29  N   UNL A   1      41.197  29.455  31.687  1.00  0.00    -0.248 NA
ATOM     30  C   UNL A   1      39.286  30.786  31.867  1.00  0.00     0.031 C 
ATOM     31  C   UNL A   1      39.506  27.550  28.022  1.00  0.00     0.029 A 
ATOM     32  N   UNL A   1      41.155  27.490  29.529  1.00  0.00    -0.354 N 
ATOM     33  C   UNL A   1      41.312  30.269  32.807  1.00  0.00     0.074 A 
ATOM     34  C   UNL A   1      40.118  31.087  32.856  1.00  0.00     0.031 C 
ATOM     35  C   UNL A   1      40.324  26.542  27.682  1.00  0.00     0.029 A 
ATOM     36  C   UNL A   1      41.445  26.506  28.616  1.00  0.00     0.049 A 
ATOM     37  H   UNL A   1      41.715  27.675  30.317  1.00  0.00     0.167 HD
ATOM     38  C   UNL A   1      42.322  30.331  33.707  1.00  0.00     0.037 A 
ATOM     39  C   UNL A   1      42.510  25.690  28.513  1.00  0.00     0.037 A 
ATOM     40  C   UNL A   1      43.496  29.498  33.683  1.00  0.00     0.049 A 
ATOM     41  C   UNL A   1      43.629  25.800  29.503  1.00  0.00     0.074 A 
ATOM     42  C   UNL A   1      44.558  29.475  34.573  1.00  0.00     0.029 A 
ATOM     43  N   UNL A   1      43.761  28.535  32.722  1.00  0.00    -0.354 N 
ATOM     44  N   UNL A   1      43.739  26.597  30.538  1.00  0.00    -0.248 NA
ATOM     45  C   UNL A   1      44.783  24.913  29.301  1.00  0.00     0.031 C 
ATOM     46  C   UNL A   1      45.476  28.513  34.136  1.00  0.00     0.029 A 
ATOM     47  C   UNL A   1      44.974  27.920  32.990  1.00  0.00     0.049 A 
ATOM     48  H   UNL A   1      43.174  28.320  31.961  1.00  0.00     0.167 HD
ATOM     49  C   UNL A   1      44.969  26.308  31.109  1.00  0.00     0.074 A 
ATOM     50  C   UNL A   1      45.562  25.250  30.319  1.00  0.00     0.031 C 
ATOM     51  C   UNL A   1      45.556  26.875  32.190  1.00  0.00     0.037 A 
BRANCH  38  52
ATOM     52  C   UNL A   1      42.216  31.356  34.796  1.00  0.00     0.057 A 
ATOM     53  C   UNL A   1      42.682  32.664  34.628  1.00  0.00     0.134 A 
ATOM     54  C   UNL A   1      41.590  31.040  36.009  1.00  0.00     0.134 A 
ATOM     55  F   UNL A   1      43.302  33.025  33.494  1.00  0.00    -0.206 F 
ATOM     56  C   UNL A   1      42.537  33.623  35.633  1.00  0.00     0.040 A 
ATOM     57  C   UNL A   1      41.425  31.993  37.014  1.00  0.00     0.040 A 
ATOM     58  F   UNL A   1      41.116  29.804  36.229  1.00  0.00    -0.206 F 
ATOM     59  C   UNL A   1      41.902  33.289  36.828  1.00  0.00     0.006 A 
ENDBRANCH  38  52
BRANCH  39  60
ATOM     60  C   UNL A   1      42.577  24.714  27.400  1.00  0.00     0.057 A 
ATOM     61  C   UNL A   1      43.121  25.070  26.162  1.00  0.00     0.134 A 
ATOM     62  C   UNL A   1      42.120  23.400  27.556  1.00  0.00     0.134 A 
ATOM     63  F   UNL A   1      43.554  26.321  25.951  1.00  0.00    -0.206 F 
ATOM     64  C   UNL A   1      43.206  24.153  25.115  1.00  0.00     0.040 A 
ATOM     65  C   UNL A   1      42.218  22.467  26.524  1.00  0.00     0.040 A 
ATOM     66  F   UNL A   1      41.590  23.002  28.723  1.00  0.00    -0.206 F 
ATOM     67  C   UNL A   1      42.761  22.844  25.298  1.00  0.00     0.006 A 
ENDBRANCH  39  60
BRANCH  51  68
ATOM     68  C   UNL A   1      46.903  26.352  32.581  1.00  0.00     0.057 A 
ATOM     69  C   UNL A   1      48.080  26.906  32.065  1.00  0.00     0.134 A 
ATOM     70  C   UNL A   1      47.025  25.297  33.493  1.00  0.00     0.134 A 
ATOM     71  F   UNL A   1      48.026  27.908  31.175  1.00  0.00    -0.206 F 
ATOM     72  C   UNL A   1      49.335  26.417  32.429  1.00  0.00     0.040 A 
ATOM     73  C   UNL A   1      48.275  24.809  33.877  1.00  0.00     0.040 A 
ATOM     74  F   UNL A   1      45.933  24.726  34.023  1.00  0.00    -0.206 F 
ATOM     75  C   UNL A   1      49.434  25.368  33.342  1.00  0.00     0.006 A 
ENDBRANCH  51  68
ENDBRANCH  25  26
ENDBRANCH  18  20
ENDBRANCH  17  18
ENDBRANCH  16  17
ENDBRANCH   1  16
TORSDOF 15
ENDMDL
