MODEL 1
REMARK VINA RESULT:     -12.3      0.000      0.000
REMARK SMILES C[N@@H+]1CCO[C@H](c2noc(-c3ccccc3C(=O)OCCOC(=O)c3ccc(-c4c5nc(c(-c6c(F)cccc6F)c6ccc([nH]6)c(-c6c(F)cccc6F)c6nc(c(-c7c(F)cccc7F)c7ccc4[nH]7)C=C6)C=C5)cc3)n2)C1
REMARK SMILES IDX 20 1 19 2 17 3 18 4 16 5 11 6 12 7 13 8 15 9 14 10 10 11
REMARK SMILES IDX 7 12 8 13 79 14 9 15 6 16 1 17 2 18 3 19 80 20 4 22 5 23
REMARK SMILES IDX 21 24 22 25 23 26 24 27 25 28 26 29 78 30 27 31 77 32 28 33
REMARK SMILES IDX 29 34 30 35 71 36 31 37 76 38 70 39 72 40 32 41 75 42 69 43
REMARK SMILES IDX 68 44 33 46 59 47 42 48 58 49 43 50 46 51 57 52 73 53 44 54
REMARK SMILES IDX 45 55 56 57 74 58 47 59 34 60 35 61 40 62 36 63 37 64 39 65
REMARK SMILES IDX 41 66 38 67 60 68 61 69 66 70 62 71 63 72 65 73 67 74 64 75
REMARK SMILES IDX 48 76 49 77 54 78 50 79 51 80 53 81 55 82 52 83
REMARK H PARENT 2 21 72 45 46 56
REMARK Flexibility Score: inf
ROOT
ATOM      1  C   UNL A   1      32.929  29.308  24.302  1.00  0.00     0.275 C 
ENDROOT
BRANCH   1   2
ATOM      2  O   UNL A   1      33.225  27.898  24.348  1.00  0.00    -0.458 OA
BRANCH   2   3
ATOM      3  C   UNL A   1      33.341  27.255  23.158  1.00  0.00     0.339 C 
ATOM      4  O   UNL A   1      33.983  27.620  22.192  1.00  0.00    -0.246 OA
BRANCH   3   5
ATOM      5  C   UNL A   1      32.664  25.933  23.224  1.00  0.00     0.072 A 
ATOM      6  C   UNL A   1      31.267  25.787  23.162  1.00  0.00     0.054 A 
ATOM      7  C   UNL A   1      30.717  24.496  23.266  1.00  0.00     0.015 A 
ATOM      8  C   UNL A   1      31.541  23.377  23.417  1.00  0.00     0.001 A 
ATOM      9  C   UNL A   1      33.483  24.796  23.332  1.00  0.00     0.016 A 
ATOM     10  C   UNL A   1      32.923  23.525  23.445  1.00  0.00     0.001 A 
BRANCH   6  11
ATOM     11  C   UNL A   1      30.406  26.930  22.916  1.00  0.00     0.258 A 
ATOM     12  C   UNL A   1      29.539  28.760  22.387  1.00  0.00     0.206 A 
ATOM     13  N   UNL A   1      28.761  28.332  23.395  1.00  0.00    -0.059 NA
ATOM     14  N   UNL A   1      30.534  27.886  22.026  1.00  0.00    -0.189 NA
ATOM     15  O   UNL A   1      29.344  27.111  23.755  1.00  0.00    -0.334 OA
BRANCH  12  16
ATOM     16  C   UNL A   1      29.374  30.105  21.744  1.00  0.00     0.245 C 
ATOM     17  C   UNL A   1      29.106  33.610  23.233  1.00  0.00     0.332 C 
ATOM     18  N   UNL A   1      29.177  32.582  22.196  1.00  0.00    -0.333 N 
ATOM     19  C   UNL A   1      27.949  32.564  21.379  1.00  0.00     0.290 C 
ATOM     20  C   UNL A   1      29.363  31.241  22.806  1.00  0.00     0.303 C 
ATOM     21  H   UNL A   1      29.973  32.806  21.599  1.00  0.00     0.348 HD
ATOM     22  C   UNL A   1      28.008  31.434  20.341  1.00  0.00     0.222 C 
ATOM     23  O   UNL A   1      28.146  30.157  20.976  1.00  0.00    -0.358 OA
ENDBRANCH  12  16
ENDBRANCH   6  11
ENDBRANCH   3   5
ENDBRANCH   2   3
ENDBRANCH   1   2
BRANCH   1  24
ATOM     24  C   UNL A   1      31.791  29.646  25.261  1.00  0.00     0.275 C 
BRANCH  24  25
ATOM     25  O   UNL A   1      32.309  29.751  26.599  1.00  0.00    -0.458 OA
BRANCH  25  26
ATOM     26  C   UNL A   1      32.781  30.972  26.932  1.00  0.00     0.338 C 
ATOM     27  O   UNL A   1      32.189  32.037  26.937  1.00  0.00    -0.246 OA
BRANCH  26  28
ATOM     28  C   UNL A   1      34.159  30.833  27.416  1.00  0.00     0.060 A 
ATOM     29  C   UNL A   1      34.630  29.551  27.679  1.00  0.00     0.016 A 
ATOM     30  C   UNL A   1      34.915  31.951  27.754  1.00  0.00     0.016 A 
ATOM     31  C   UNL A   1      35.825  29.374  28.368  1.00  0.00     0.010 A 
ATOM     32  C   UNL A   1      36.159  31.769  28.370  1.00  0.00     0.010 A 
ATOM     33  C   UNL A   1      36.610  30.480  28.719  1.00  0.00    -0.014 A 
BRANCH  33  34
ATOM     34  C   UNL A   1      37.863  30.297  29.503  1.00  0.00     0.031 A 
ATOM     35  C   UNL A   1      39.014  29.524  28.912  1.00  0.00     0.074 A 
ATOM     36  C   UNL A   1      37.990  30.839  30.732  1.00  0.00     0.049 A 
ATOM     37  N   UNL A   1      40.104  29.086  29.491  1.00  0.00    -0.248 NA
ATOM     38  C   UNL A   1      38.921  29.188  27.482  1.00  0.00     0.031 C 
ATOM     39  C   UNL A   1      36.986  31.664  31.406  1.00  0.00     0.029 A 
ATOM     40  N   UNL A   1      39.026  30.781  31.632  1.00  0.00    -0.354 N 
ATOM     41  C   UNL A   1      40.797  28.383  28.513  1.00  0.00     0.074 A 
ATOM     42  C   UNL A   1      40.003  28.444  27.304  1.00  0.00     0.031 C 
ATOM     43  C   UNL A   1      37.466  32.062  32.593  1.00  0.00     0.029 A 
ATOM     44  C   UNL A   1      38.771  31.448  32.807  1.00  0.00     0.049 A 
ATOM     45  H   UNL A   1      39.871  30.308  31.453  1.00  0.00     0.167 HD
ATOM     46  C   UNL A   1      41.989  27.746  28.613  1.00  0.00     0.037 A 
ATOM     47  C   UNL A   1      39.484  31.518  33.948  1.00  0.00     0.037 A 
ATOM     48  C   UNL A   1      42.801  27.731  29.802  1.00  0.00     0.049 A 
ATOM     49  C   UNL A   1      40.777  30.760  34.050  1.00  0.00     0.074 A 
ATOM     50  C   UNL A   1      44.017  27.101  30.010  1.00  0.00     0.029 A 
ATOM     51  N   UNL A   1      42.490  28.395  30.978  1.00  0.00    -0.354 N 
ATOM     52  N   UNL A   1      41.386  30.035  33.143  1.00  0.00    -0.248 NA
ATOM     53  C   UNL A   1      41.473  30.813  35.344  1.00  0.00     0.031 C 
ATOM     54  C   UNL A   1      44.429  27.365  31.320  1.00  0.00     0.029 A 
ATOM     55  C   UNL A   1      43.489  28.190  31.916  1.00  0.00     0.049 A 
ATOM     56  H   UNL A   1      41.678  28.932  31.126  1.00  0.00     0.167 HD
ATOM     57  C   UNL A   1      42.542  29.562  33.749  1.00  0.00     0.074 A 
ATOM     58  C   UNL A   1      42.561  30.099  35.094  1.00  0.00     0.031 C 
ATOM     59  C   UNL A   1      43.498  28.748  33.242  1.00  0.00     0.037 A 
BRANCH  46  60
ATOM     60  C   UNL A   1      42.482  26.993  27.413  1.00  0.00     0.057 A 
ATOM     61  C   UNL A   1      42.167  25.645  27.200  1.00  0.00     0.134 A 
ATOM     62  C   UNL A   1      43.240  27.641  26.428  1.00  0.00     0.134 A 
ATOM     63  F   UNL A   1      41.457  24.961  28.110  1.00  0.00    -0.206 F 
ATOM     64  C   UNL A   1      42.601  24.965  26.059  1.00  0.00     0.040 A 
ATOM     65  C   UNL A   1      43.659  26.980  25.272  1.00  0.00     0.040 A 
ATOM     66  F   UNL A   1      43.572  28.934  26.566  1.00  0.00    -0.206 F 
ATOM     67  C   UNL A   1      43.342  25.636  25.087  1.00  0.00     0.006 A 
ENDBRANCH  46  60
BRANCH  47  68
ATOM     68  C   UNL A   1      38.969  32.291  35.107  1.00  0.00     0.057 A 
ATOM     69  C   UNL A   1      39.231  33.659  35.240  1.00  0.00     0.134 A 
ATOM     70  C   UNL A   1      38.227  31.677  36.124  1.00  0.00     0.134 A 
ATOM     71  F   UNL A   1      39.959  34.300  34.313  1.00  0.00    -0.206 F 
ATOM     72  C   UNL A   1      38.791  34.385  36.348  1.00  0.00     0.040 A 
ATOM     73  C   UNL A   1      37.754  32.396  37.222  1.00  0.00     0.040 A 
ATOM     74  F   UNL A   1      37.941  30.368  36.059  1.00  0.00    -0.206 F 
ATOM     75  C   UNL A   1      38.044  33.753  37.341  1.00  0.00     0.006 A 
ENDBRANCH  47  68
BRANCH  59  76
ATOM     76  C   UNL A   1      44.665  28.434  34.130  1.00  0.00     0.057 A 
ATOM     77  C   UNL A   1      45.801  29.251  34.172  1.00  0.00     0.134 A 
ATOM     78  C   UNL A   1      44.639  27.312  34.967  1.00  0.00     0.134 A 
ATOM     79  F   UNL A   1      45.893  30.331  33.383  1.00  0.00    -0.206 F 
ATOM     80  C   UNL A   1      46.883  28.947  35.000  1.00  0.00     0.040 A 
ATOM     81  C   UNL A   1      45.704  27.011  35.816  1.00  0.00     0.040 A 
ATOM     82  F   UNL A   1      43.575  26.493  34.977  1.00  0.00    -0.206 F 
ATOM     83  C   UNL A   1      46.834  27.827  35.828  1.00  0.00     0.006 A 
ENDBRANCH  59  76
ENDBRANCH  33  34
ENDBRANCH  26  28
ENDBRANCH  25  26
ENDBRANCH  24  25
ENDBRANCH   1  24
TORSDOF 13
ENDMDL
MODEL 2
REMARK VINA RESULT:     -11.8      1.654      3.900
REMARK SMILES C[N@@H+]1CCO[C@H](c2noc(-c3ccccc3C(=O)OCCOC(=O)c3ccc(-c4c5nc(c(-c6c(F)cccc6F)c6ccc([nH]6)c(-c6c(F)cccc6F)c6nc(c(-c7c(F)cccc7F)c7ccc4[nH]7)C=C6)C=C5)cc3)n2)C1
REMARK SMILES IDX 20 1 19 2 17 3 18 4 16 5 11 6 12 7 13 8 15 9 14 10 10 11
REMARK SMILES IDX 7 12 8 13 79 14 9 15 6 16 1 17 2 18 3 19 80 20 4 22 5 23
REMARK SMILES IDX 21 24 22 25 23 26 24 27 25 28 26 29 78 30 27 31 77 32 28 33
REMARK SMILES IDX 29 34 30 35 71 36 31 37 76 38 70 39 72 40 32 41 75 42 69 43
REMARK SMILES IDX 68 44 33 46 59 47 42 48 58 49 43 50 46 51 57 52 73 53 44 54
REMARK SMILES IDX 45 55 56 57 74 58 47 59 34 60 35 61 40 62 36 63 37 64 39 65
REMARK SMILES IDX 41 66 38 67 60 68 61 69 66 70 62 71 63 72 65 73 67 74 64 75
REMARK SMILES IDX 48 76 49 77 54 78 50 79 51 80 53 81 55 82 52 83
REMARK H PARENT 2 21 72 45 46 56
REMARK Flexibility Score: inf
ROOT
ATOM      1  C   UNL A   1      32.698  29.126  24.855  1.00  0.00     0.275 C 
ENDROOT
BRANCH   1   2
ATOM      2  O   UNL A   1      32.474  29.252  23.436  1.00  0.00    -0.458 OA
BRANCH   2   3
ATOM      3  C   UNL A   1      31.895  28.198  22.808  1.00  0.00     0.339 C 
ATOM      4  O   UNL A   1      32.462  27.235  22.327  1.00  0.00    -0.246 OA
BRANCH   3   5
ATOM      5  C   UNL A   1      30.414  28.303  22.891  1.00  0.00     0.072 A 
ATOM      6  C   UNL A   1      29.626  27.404  23.632  1.00  0.00     0.054 A 
ATOM      7  C   UNL A   1      28.228  27.565  23.622  1.00  0.00     0.015 A 
ATOM      8  C   UNL A   1      27.632  28.605  22.901  1.00  0.00     0.001 A 
ATOM      9  C   UNL A   1      29.806  29.369  22.207  1.00  0.00     0.016 A 
ATOM     10  C   UNL A   1      28.420  29.509  22.197  1.00  0.00     0.001 A 
BRANCH   6  11
ATOM     11  C   UNL A   1      30.238  26.376  24.454  1.00  0.00     0.258 A 
ATOM     12  C   UNL A   1      30.955  24.616  25.328  1.00  0.00     0.206 A 
ATOM     13  N   UNL A   1      30.855  25.456  26.371  1.00  0.00    -0.059 NA
ATOM     14  N   UNL A   1      30.636  25.173  24.115  1.00  0.00    -0.189 NA
ATOM     15  O   UNL A   1      30.367  26.632  25.789  1.00  0.00    -0.334 OA
BRANCH  12  16
ATOM     16  C   UNL A   1      31.330  23.171  25.477  1.00  0.00     0.245 C 
ATOM     17  C   UNL A   1      34.010  21.452  27.584  1.00  0.00     0.332 C 
ATOM     18  N   UNL A   1      32.886  21.569  26.657  1.00  0.00    -0.333 N 
ATOM     19  C   UNL A   1      33.234  21.034  25.328  1.00  0.00     0.290 C 
ATOM     20  C   UNL A   1      32.479  22.989  26.509  1.00  0.00     0.303 C 
ATOM     21  H   UNL A   1      32.114  21.026  27.045  1.00  0.00     0.348 HD
ATOM     22  C   UNL A   1      32.069  21.227  24.346  1.00  0.00     0.222 C 
ATOM     23  O   UNL A   1      31.740  22.615  24.203  1.00  0.00    -0.358 OA
ENDBRANCH  12  16
ENDBRANCH   6  11
ENDBRANCH   3   5
ENDBRANCH   2   3
ENDBRANCH   1   2
BRANCH   1  24
ATOM     24  C   UNL A   1      31.771  30.059  25.628  1.00  0.00     0.275 C 
BRANCH  24  25
ATOM     25  O   UNL A   1      32.288  30.256  26.954  1.00  0.00    -0.458 OA
BRANCH  25  26
ATOM     26  C   UNL A   1      32.897  31.445  27.156  1.00  0.00     0.338 C 
ATOM     27  O   UNL A   1      32.421  32.564  27.068  1.00  0.00    -0.246 OA
BRANCH  26  28
ATOM     28  C   UNL A   1      34.267  31.206  27.623  1.00  0.00     0.060 A 
ATOM     29  C   UNL A   1      34.628  29.900  27.935  1.00  0.00     0.016 A 
ATOM     30  C   UNL A   1      35.124  32.265  27.900  1.00  0.00     0.016 A 
ATOM     31  C   UNL A   1      35.817  29.647  28.612  1.00  0.00     0.010 A 
ATOM     32  C   UNL A   1      36.359  32.001  28.503  1.00  0.00     0.010 A 
ATOM     33  C   UNL A   1      36.702  30.693  28.902  1.00  0.00    -0.014 A 
BRANCH  33  34
ATOM     34  C   UNL A   1      37.950  30.433  29.674  1.00  0.00     0.031 A 
ATOM     35  C   UNL A   1      39.067  29.635  29.051  1.00  0.00     0.074 A 
ATOM     36  C   UNL A   1      38.103  30.928  30.919  1.00  0.00     0.049 A 
ATOM     37  N   UNL A   1      40.140  29.134  29.609  1.00  0.00    -0.248 NA
ATOM     38  C   UNL A   1      38.955  29.353  27.610  1.00  0.00     0.031 C 
ATOM     39  C   UNL A   1      37.134  31.768  31.626  1.00  0.00     0.029 A 
ATOM     40  N   UNL A   1      39.138  30.797  31.812  1.00  0.00    -0.354 N 
ATOM     41  C   UNL A   1      40.801  28.437  28.604  1.00  0.00     0.074 A 
ATOM     42  C   UNL A   1      40.006  28.572  27.403  1.00  0.00     0.031 C 
ATOM     43  C   UNL A   1      37.635  32.106  32.824  1.00  0.00     0.029 A 
ATOM     44  C   UNL A   1      38.914  31.433  33.010  1.00  0.00     0.049 A 
ATOM     45  H   UNL A   1      39.963  30.297  31.613  1.00  0.00     0.167 HD
ATOM     46  C   UNL A   1      41.966  27.751  28.677  1.00  0.00     0.037 A 
ATOM     47  C   UNL A   1      39.633  31.435  34.150  1.00  0.00     0.037 A 
ATOM     48  C   UNL A   1      42.781  27.662  29.862  1.00  0.00     0.049 A 
ATOM     49  C   UNL A   1      40.895  30.623  34.220  1.00  0.00     0.074 A 
ATOM     50  C   UNL A   1      43.972  26.977  30.042  1.00  0.00     0.029 A 
ATOM     51  N   UNL A   1      42.501  28.298  31.061  1.00  0.00    -0.354 N 
ATOM     52  N   UNL A   1      41.471  29.905  33.286  1.00  0.00    -0.248 NA
ATOM     53  C   UNL A   1      41.597  30.604  35.512  1.00  0.00     0.031 C 
ATOM     54  C   UNL A   1      44.398  27.179  31.359  1.00  0.00     0.029 A 
ATOM     55  C   UNL A   1      43.494  28.021  31.986  1.00  0.00     0.049 A 
ATOM     56  H   UNL A   1      41.712  28.862  31.230  1.00  0.00     0.167 HD
ATOM     57  C   UNL A   1      42.609  29.366  33.870  1.00  0.00     0.074 A 
ATOM     58  C   UNL A   1      42.654  29.855  35.232  1.00  0.00     0.031 C 
ATOM     59  C   UNL A   1      43.530  28.532  33.330  1.00  0.00     0.037 A 
BRANCH  46  60
ATOM     60  C   UNL A   1      42.425  27.019  27.450  1.00  0.00     0.057 A 
ATOM     61  C   UNL A   1      43.223  27.630  26.475  1.00  0.00     0.134 A 
ATOM     62  C   UNL A   1      42.108  25.666  27.268  1.00  0.00     0.134 A 
ATOM     63  F   UNL A   1      43.552  28.927  26.581  1.00  0.00    -0.206 F 
ATOM     64  C   UNL A   1      43.676  26.927  25.356  1.00  0.00     0.040 A 
ATOM     65  C   UNL A   1      42.574  24.946  26.168  1.00  0.00     0.040 A 
ATOM     66  F   UNL A   1      41.353  25.017  28.168  1.00  0.00    -0.206 F 
ATOM     67  C   UNL A   1      43.358  25.578  25.205  1.00  0.00     0.006 A 
ENDBRANCH  46  60
BRANCH  47  68
ATOM     68  C   UNL A   1      39.154  32.189  35.337  1.00  0.00     0.057 A 
ATOM     69  C   UNL A   1      39.499  33.531  35.531  1.00  0.00     0.134 A 
ATOM     70  C   UNL A   1      38.364  31.579  36.319  1.00  0.00     0.134 A 
ATOM     71  F   UNL A   1      40.275  34.164  34.639  1.00  0.00    -0.206 F 
ATOM     72  C   UNL A   1      39.091  34.234  36.666  1.00  0.00     0.040 A 
ATOM     73  C   UNL A   1      37.923  32.277  37.444  1.00  0.00     0.040 A 
ATOM     74  F   UNL A   1      37.998  30.294  36.195  1.00  0.00    -0.206 F 
ATOM     75  C   UNL A   1      38.295  33.608  37.624  1.00  0.00     0.006 A 
ENDBRANCH  47  68
BRANCH  59  76
ATOM     76  C   UNL A   1      44.686  28.141  34.201  1.00  0.00     0.057 A 
ATOM     77  C   UNL A   1      45.855  28.910  34.267  1.00  0.00     0.134 A 
ATOM     78  C   UNL A   1      44.618  26.993  35.000  1.00  0.00     0.134 A 
ATOM     79  F   UNL A   1      45.988  30.012  33.514  1.00  0.00    -0.206 F 
ATOM     80  C   UNL A   1      46.927  28.535  35.078  1.00  0.00     0.040 A 
ATOM     81  C   UNL A   1      45.673  26.622  35.834  1.00  0.00     0.040 A 
ATOM     82  F   UNL A   1      43.522  26.219  34.988  1.00  0.00    -0.206 F 
ATOM     83  C   UNL A   1      46.836  27.391  35.868  1.00  0.00     0.006 A 
ENDBRANCH  59  76
ENDBRANCH  33  34
ENDBRANCH  26  28
ENDBRANCH  25  26
ENDBRANCH  24  25
ENDBRANCH   1  24
TORSDOF 13
ENDMDL
MODEL 3
REMARK VINA RESULT:     -11.8      4.888      9.645
REMARK SMILES C[N@@H+]1CCO[C@H](c2noc(-c3ccccc3C(=O)OCCOC(=O)c3ccc(-c4c5nc(c(-c6c(F)cccc6F)c6ccc([nH]6)c(-c6c(F)cccc6F)c6nc(c(-c7c(F)cccc7F)c7ccc4[nH]7)C=C6)C=C5)cc3)n2)C1
REMARK SMILES IDX 20 1 19 2 17 3 18 4 16 5 11 6 12 7 13 8 15 9 14 10 10 11
REMARK SMILES IDX 7 12 8 13 79 14 9 15 6 16 1 17 2 18 3 19 80 20 4 22 5 23
REMARK SMILES IDX 21 24 22 25 23 26 24 27 25 28 26 29 78 30 27 31 77 32 28 33
REMARK SMILES IDX 29 34 30 35 71 36 31 37 76 38 70 39 72 40 32 41 75 42 69 43
REMARK SMILES IDX 68 44 33 46 59 47 42 48 58 49 43 50 46 51 57 52 73 53 44 54
REMARK SMILES IDX 45 55 56 57 74 58 47 59 34 60 35 61 40 62 36 63 37 64 39 65
REMARK SMILES IDX 41 66 38 67 60 68 61 69 66 70 62 71 63 72 65 73 67 74 64 75
REMARK SMILES IDX 48 76 49 77 54 78 50 79 51 80 53 81 55 82 52 83
REMARK H PARENT 2 21 72 45 46 56
REMARK Flexibility Score: inf
ROOT
ATOM      1  C   UNL A   1      36.535  22.374  23.609  1.00  0.00     0.275 C 
ENDROOT
BRANCH   1   2
ATOM      2  O   UNL A   1      35.768  23.357  24.332  1.00  0.00    -0.458 OA
BRANCH   2   3
ATOM      3  C   UNL A   1      34.697  23.894  23.694  1.00  0.00     0.339 C 
ATOM      4  O   UNL A   1      34.537  23.988  22.492  1.00  0.00    -0.246 OA
BRANCH   3   5
ATOM      5  C   UNL A   1      33.643  24.255  24.679  1.00  0.00     0.072 A 
ATOM      6  C   UNL A   1      32.569  23.403  24.994  1.00  0.00     0.054 A 
ATOM      7  C   UNL A   1      31.602  23.848  25.914  1.00  0.00     0.015 A 
ATOM      8  C   UNL A   1      31.710  25.106  26.515  1.00  0.00     0.001 A 
ATOM      9  C   UNL A   1      33.764  25.499  25.322  1.00  0.00     0.016 A 
ATOM     10  C   UNL A   1      32.792  25.929  26.223  1.00  0.00     0.001 A 
BRANCH   6  11
ATOM     11  C   UNL A   1      32.494  22.062  24.445  1.00  0.00     0.258 A 
ATOM     12  C   UNL A   1      32.750  20.055  23.908  1.00  0.00     0.206 A 
ATOM     13  N   UNL A   1      32.087  20.571  22.859  1.00  0.00    -0.059 NA
ATOM     14  N   UNL A   1      32.966  20.940  24.935  1.00  0.00    -0.189 NA
ATOM     15  O   UNL A   1      31.922  21.915  23.214  1.00  0.00    -0.334 OA
BRANCH  12  16
ATOM     16  C   UNL A   1      33.263  18.646  23.936  1.00  0.00     0.245 C 
ATOM     17  C   UNL A   1      32.000  15.524  25.733  1.00  0.00     0.332 C 
ATOM     18  N   UNL A   1      32.850  16.333  24.861  1.00  0.00    -0.333 N 
ATOM     19  C   UNL A   1      34.244  16.351  25.343  1.00  0.00     0.290 C 
ATOM     20  C   UNL A   1      32.349  17.729  24.797  1.00  0.00     0.303 C 
ATOM     21  H   UNL A   1      32.822  15.911  23.932  1.00  0.00     0.348 HD
ATOM     22  C   UNL A   1      35.109  17.260  24.459  1.00  0.00     0.222 C 
ATOM     23  O   UNL A   1      34.613  18.604  24.462  1.00  0.00    -0.358 OA
ENDBRANCH  12  16
ENDBRANCH   6  11
ENDBRANCH   3   5
ENDBRANCH   2   3
ENDBRANCH   1   2
BRANCH   1  24
ATOM     24  C   UNL A   1      37.049  21.294  24.556  1.00  0.00     0.275 C 
BRANCH  24  25
ATOM     25  O   UNL A   1      37.521  21.907  25.768  1.00  0.00    -0.458 OA
BRANCH  25  26
ATOM     26  C   UNL A   1      38.796  21.607  26.097  1.00  0.00     0.338 C 
ATOM     27  O   UNL A   1      39.410  20.576  25.887  1.00  0.00    -0.246 OA
BRANCH  26  28
ATOM     28  C   UNL A   1      39.426  22.793  26.688  1.00  0.00     0.060 A 
ATOM     29  C   UNL A   1      39.001  24.042  26.249  1.00  0.00     0.016 A 
ATOM     30  C   UNL A   1      40.521  22.674  27.538  1.00  0.00     0.016 A 
ATOM     31  C   UNL A   1      39.723  25.183  26.583  1.00  0.00     0.010 A 
ATOM     32  C   UNL A   1      41.196  23.831  27.944  1.00  0.00     0.010 A 
ATOM     33  C   UNL A   1      40.829  25.094  27.439  1.00  0.00    -0.014 A 
BRANCH  33  34
ATOM     34  C   UNL A   1      41.636  26.306  27.755  1.00  0.00     0.031 A 
ATOM     35  C   UNL A   1      41.048  27.400  28.610  1.00  0.00     0.074 A 
ATOM     36  C   UNL A   1      42.902  26.425  27.304  1.00  0.00     0.049 A 
ATOM     37  N   UNL A   1      41.501  28.607  28.840  1.00  0.00    -0.248 NA
ATOM     38  C   UNL A   1      39.777  27.098  29.288  1.00  0.00     0.031 C 
ATOM     39  C   UNL A   1      43.623  25.422  26.519  1.00  0.00     0.029 A 
ATOM     40  N   UNL A   1      43.810  27.445  27.448  1.00  0.00    -0.354 N 
ATOM     41  C   UNL A   1      40.547  29.223  29.642  1.00  0.00     0.074 A 
ATOM     42  C   UNL A   1      39.487  28.261  29.855  1.00  0.00     0.031 C 
ATOM     43  C   UNL A   1      44.869  25.859  26.282  1.00  0.00     0.029 A 
ATOM     44  C   UNL A   1      45.007  27.209  26.814  1.00  0.00     0.049 A 
ATOM     45  H   UNL A   1      43.622  28.267  27.957  1.00  0.00     0.167 HD
ATOM     46  C   UNL A   1      40.557  30.476  30.157  1.00  0.00     0.037 A 
ATOM     47  C   UNL A   1      46.078  28.007  26.637  1.00  0.00     0.037 A 
ATOM     48  C   UNL A   1      41.638  31.413  29.986  1.00  0.00     0.049 A 
ATOM     49  C   UNL A   1      46.042  29.410  27.174  1.00  0.00     0.074 A 
ATOM     50  C   UNL A   1      41.736  32.712  30.455  1.00  0.00     0.029 A 
ATOM     51  N   UNL A   1      42.818  31.141  29.312  1.00  0.00    -0.354 N 
ATOM     52  N   UNL A   1      45.102  30.008  27.866  1.00  0.00    -0.248 NA
ATOM     53  C   UNL A   1      47.208  30.258  26.886  1.00  0.00     0.031 C 
ATOM     54  C   UNL A   1      42.967  33.235  30.042  1.00  0.00     0.029 A 
ATOM     55  C   UNL A   1      43.650  32.248  29.350  1.00  0.00     0.049 A 
ATOM     56  H   UNL A   1      43.032  30.288  28.870  1.00  0.00     0.167 HD
ATOM     57  C   UNL A   1      45.570  31.291  28.111  1.00  0.00     0.074 A 
ATOM     58  C   UNL A   1      46.886  31.380  27.512  1.00  0.00     0.031 C 
ATOM     59  C   UNL A   1      44.962  32.310  28.765  1.00  0.00     0.037 A 
BRANCH  46  60
ATOM     60  C   UNL A   1      39.355  30.921  30.937  1.00  0.00     0.057 A 
ATOM     61  C   UNL A   1      39.271  30.766  32.326  1.00  0.00     0.134 A 
ATOM     62  C   UNL A   1      38.288  31.565  30.294  1.00  0.00     0.134 A 
ATOM     63  F   UNL A   1      40.251  30.146  33.001  1.00  0.00    -0.206 F 
ATOM     64  C   UNL A   1      38.163  31.219  33.046  1.00  0.00     0.040 A 
ATOM     65  C   UNL A   1      37.188  32.045  31.005  1.00  0.00     0.040 A 
ATOM     66  F   UNL A   1      38.308  31.753  28.966  1.00  0.00    -0.206 F 
ATOM     67  C   UNL A   1      37.121  31.869  32.385  1.00  0.00     0.006 A 
ENDBRANCH  46  60
BRANCH  47  68
ATOM     68  C   UNL A   1      47.257  27.521  25.875  1.00  0.00     0.057 A 
ATOM     69  C   UNL A   1      47.316  27.634  24.482  1.00  0.00     0.134 A 
ATOM     70  C   UNL A   1      48.340  26.907  26.517  1.00  0.00     0.134 A 
ATOM     71  F   UNL A   1      46.298  28.188  23.806  1.00  0.00    -0.206 F 
ATOM     72  C   UNL A   1      48.398  27.140  23.752  1.00  0.00     0.040 A 
ATOM     73  C   UNL A   1      49.443  26.436  25.805  1.00  0.00     0.040 A 
ATOM     74  F   UNL A   1      48.347  26.767  27.851  1.00  0.00    -0.206 F 
ATOM     75  C   UNL A   1      49.470  26.543  24.416  1.00  0.00     0.006 A 
ENDBRANCH  47  68
BRANCH  59  76
ATOM     76  C   UNL A   1      45.737  33.586  28.907  1.00  0.00     0.057 A 
ATOM     77  C   UNL A   1      46.606  33.806  29.983  1.00  0.00     0.134 A 
ATOM     78  C   UNL A   1      45.628  34.595  27.942  1.00  0.00     0.134 A 
ATOM     79  F   UNL A   1      46.743  32.884  30.948  1.00  0.00    -0.206 F 
ATOM     80  C   UNL A   1      47.320  34.998  30.108  1.00  0.00     0.040 A 
ATOM     81  C   UNL A   1      46.355  35.781  28.044  1.00  0.00     0.040 A 
ATOM     82  F   UNL A   1      44.818  34.441  26.884  1.00  0.00    -0.206 F 
ATOM     83  C   UNL A   1      47.199  35.988  29.134  1.00  0.00     0.006 A 
ENDBRANCH  59  76
ENDBRANCH  33  34
ENDBRANCH  26  28
ENDBRANCH  25  26
ENDBRANCH  24  25
ENDBRANCH   1  24
TORSDOF 13
ENDMDL
