MODEL 1
REMARK VINA RESULT:     -11.4      0.000      0.000
REMARK SMILES C[C@H](NC(=O)c1cc(S(=O)(=O)N(C)C)cs1)C(=O)OCCOC(=O)c1ccc(-c2c3nc(c(-c4c(F)cccc4F)c4ccc([nH]4)c(-c4c(F)cccc4F)c4nc(c(-c5c(F)cccc5F)c5ccc2[nH]5)C=C4)C=C3)cc1
REMARK SMILES IDX 20 1 19 2 17 3 18 4 2 5 1 6 3 7 4 8 5 10 6 11 7 12 16 13
REMARK SMILES IDX 8 14 15 15 9 16 10 17 11 18 12 19 13 20 14 21 21 22 22 23
REMARK SMILES IDX 23 24 24 25 25 26 26 27 78 28 27 29 77 30 28 31 29 32 30 33
REMARK SMILES IDX 71 34 31 35 76 36 70 37 72 38 32 39 75 40 69 41 68 42 33 44
REMARK SMILES IDX 59 45 42 46 58 47 43 48 46 49 57 50 73 51 44 52 45 53 56 55
REMARK SMILES IDX 74 56 47 57 34 58 35 59 40 60 36 61 37 62 39 63 41 64 38 65
REMARK SMILES IDX 60 66 61 67 66 68 62 69 63 70 65 71 67 72 64 73 48 74 49 75
REMARK SMILES IDX 54 76 50 77 51 78 53 79 55 80 52 81
REMARK H PARENT 3 9 72 43 46 54
REMARK Flexibility Score: inf
ROOT
ATOM      1  C   UNL A   1      34.084  22.399  25.942  1.00  0.00     0.274 C 
ENDROOT
BRANCH   1   2
ATOM      2  O   UNL A   1      32.838  22.604  25.230  1.00  0.00    -0.461 OA
BRANCH   2   3
ATOM      3  C   UNL A   1      32.196  23.767  25.520  1.00  0.00     0.328 C 
ATOM      4  O   UNL A   1      31.948  24.150  26.661  1.00  0.00    -0.250 OA
BRANCH   3   5
ATOM      5  C   UNL A   1      31.775  24.590  24.289  1.00  0.00     0.189 C 
ATOM      6  C   UNL A   1      30.813  23.722  23.479  1.00  0.00     0.043 C 
BRANCH   5   7
ATOM      7  N   UNL A   1      32.803  25.139  23.395  1.00  0.00    -0.338 N 
ATOM      8  C   UNL A   1      32.829  26.388  22.797  1.00  0.00     0.262 C 
ATOM      9  H   UNL A   1      33.566  24.547  23.199  1.00  0.00     0.164 HD
ATOM     10  O   UNL A   1      33.566  26.566  21.830  1.00  0.00    -0.268 OA
BRANCH   8  11
ATOM     11  C   UNL A   1      32.025  27.433  23.392  1.00  0.00     0.093 A 
ATOM     12  C   UNL A   1      30.647  27.517  23.424  1.00  0.00     0.047 A 
ATOM     13  S   UNL A   1      32.695  28.664  24.306  1.00  0.00    -0.137 S 
ATOM     14  C   UNL A   1      30.065  29.057  23.467  1.00  0.00     0.094 A 
ATOM     15  C   UNL A   1      31.195  29.520  24.362  1.00  0.00     0.087 A 
BRANCH  14  16
ATOM     16  S   UNL A   1      28.092  30.157  22.454  1.00  0.00     0.243 S 
ATOM     17  O   UNL A   1      27.987  30.054  20.985  1.00  0.00    -0.207 OA
ATOM     18  O   UNL A   1      26.830  29.775  23.118  1.00  0.00    -0.207 OA
BRANCH  16  19
ATOM     19  N   UNL A   1      27.866  32.074  22.525  1.00  0.00    -0.204 NA
ATOM     20  C   UNL A   1      28.993  32.847  23.191  1.00  0.00     0.124 C 
ATOM     21  C   UNL A   1      27.934  32.536  21.068  1.00  0.00     0.124 C 
ENDBRANCH  16  19
ENDBRANCH  14  16
ENDBRANCH   8  11
ENDBRANCH   5   7
ENDBRANCH   3   5
ENDBRANCH   2   3
ENDBRANCH   1   2
BRANCH   1  22
ATOM     22  C   UNL A   1      35.044  21.506  25.153  1.00  0.00     0.275 C 
BRANCH  22  23
ATOM     23  O   UNL A   1      36.103  21.045  26.009  1.00  0.00    -0.458 OA
BRANCH  23  24
ATOM     24  C   UNL A   1      37.271  20.963  25.350  1.00  0.00     0.338 C 
ATOM     25  O   UNL A   1      37.575  20.140  24.499  1.00  0.00    -0.246 OA
BRANCH  24  26
ATOM     26  C   UNL A   1      38.230  21.985  25.779  1.00  0.00     0.060 A 
ATOM     27  C   UNL A   1      39.783  21.658  26.625  1.00  0.00     0.016 A 
ATOM     28  C   UNL A   1      37.596  23.689  25.685  1.00  0.00     0.016 A 
ATOM     29  C   UNL A   1      40.809  23.050  27.205  1.00  0.00     0.010 A 
ATOM     30  C   UNL A   1      38.561  25.071  26.333  1.00  0.00     0.010 A 
ATOM     31  C   UNL A   1      40.218  24.789  27.074  1.00  0.00    -0.014 A 
BRANCH  31  32
ATOM     32  C   UNL A   1      41.077  25.957  27.496  1.00  0.00     0.031 A 
ATOM     33  C   UNL A   1      40.566  26.953  28.512  1.00  0.00     0.074 A 
ATOM     34  C   UNL A   1      42.279  26.175  26.924  1.00  0.00     0.049 A 
ATOM     35  N   UNL A   1      40.983  28.167  28.770  1.00  0.00    -0.248 NA
ATOM     36  C   UNL A   1      39.349  26.600  29.252  1.00  0.00     0.031 C 
ATOM     37  C   UNL A   1      42.860  25.426  25.810  1.00  0.00     0.029 A 
ATOM     38  N   UNL A   1      43.261  27.089  27.219  1.00  0.00    -0.354 N 
ATOM     39  C   UNL A   1      39.988  28.739  29.557  1.00  0.00     0.074 A 
ATOM     40  C   UNL A   1      38.902  27.792  29.613  1.00  0.00     0.031 C 
ATOM     41  C   UNL A   1      44.145  25.767  25.650  1.00  0.00     0.029 A 
ATOM     42  C   UNL A   1      44.436  26.882  26.531  1.00  0.00     0.049 A 
ATOM     43  H   UNL A   1      43.136  27.823  27.864  1.00  0.00     0.167 HD
ATOM     44  C   UNL A   1      40.012  29.899  30.257  1.00  0.00     0.037 A 
ATOM     45  C   UNL A   1      45.609  27.540  26.586  1.00  0.00     0.037 A 
ATOM     46  C   UNL A   1      41.202  30.697  30.375  1.00  0.00     0.049 A 
ATOM     47  C   UNL A   1      45.678  28.744  27.479  1.00  0.00     0.074 A 
ATOM     48  C   UNL A   1      41.423  31.821  31.144  1.00  0.00     0.029 A 
ATOM     49  N   UNL A   1      42.401  30.396  29.741  1.00  0.00    -0.354 N 
ATOM     50  N   UNL A   1      44.731  29.281  28.213  1.00  0.00    -0.248 NA
ATOM     51  C   UNL A   1      46.964  29.442  27.544  1.00  0.00     0.031 C 
ATOM     52  C   UNL A   1      42.753  32.215  30.956  1.00  0.00     0.029 A 
ATOM     53  C   UNL A   1      43.373  31.305  30.112  1.00  0.00     0.049 A 
ATOM     54  H   UNL A   1      42.539  29.645  29.118  1.00  0.00     0.167 HD
ATOM     55  C   UNL A   1      45.311  30.368  28.847  1.00  0.00     0.074 A 
ATOM     56  C   UNL A   1      46.700  30.393  28.429  1.00  0.00     0.031 C 
ATOM     57  C   UNL A   1      44.751  31.270  29.690  1.00  0.00     0.037 A 
BRANCH  44  58
ATOM     58  C   UNL A   1      38.754  30.317  30.979  1.00  0.00     0.057 A 
ATOM     59  C   UNL A   1      37.784  31.151  30.398  1.00  0.00     0.134 A 
ATOM     60  C   UNL A   1      38.524  29.910  32.300  1.00  0.00     0.134 A 
ATOM     61  F   UNL A   1      37.927  31.585  29.136  1.00  0.00    -0.206 F 
ATOM     62  C   UNL A   1      36.688  31.627  31.123  1.00  0.00     0.040 A 
ATOM     63  C   UNL A   1      37.406  30.340  33.021  1.00  0.00     0.040 A 
ATOM     64  F   UNL A   1      39.389  29.094  32.923  1.00  0.00    -0.206 F 
ATOM     65  C   UNL A   1      36.496  31.220  32.440  1.00  0.00     0.006 A 
ENDBRANCH  44  58
BRANCH  45  66
ATOM     66  C   UNL A   1      46.790  27.062  25.814  1.00  0.00     0.057 A 
ATOM     67  C   UNL A   1      47.592  26.020  26.300  1.00  0.00     0.134 A 
ATOM     68  C   UNL A   1      47.136  27.599  24.567  1.00  0.00     0.134 A 
ATOM     69  F   UNL A   1      47.326  25.463  27.491  1.00  0.00    -0.206 F 
ATOM     70  C   UNL A   1      48.699  25.546  25.590  1.00  0.00     0.040 A 
ATOM     71  C   UNL A   1      48.218  27.110  23.828  1.00  0.00     0.040 A 
ATOM     72  F   UNL A   1      46.408  28.589  24.029  1.00  0.00    -0.206 F 
ATOM     73  C   UNL A   1      49.008  26.087  24.344  1.00  0.00     0.006 A 
ENDBRANCH  45  66
BRANCH  57  74
ATOM     74  C   UNL A   1      45.672  32.300  30.267  1.00  0.00     0.057 A 
ATOM     75  C   UNL A   1      46.375  32.086  31.458  1.00  0.00     0.134 A 
ATOM     76  C   UNL A   1      45.863  33.518  29.603  1.00  0.00     0.134 A 
ATOM     77  F   UNL A   1      46.220  30.943  32.144  1.00  0.00    -0.206 F 
ATOM     78  C   UNL A   1      47.211  33.065  31.989  1.00  0.00     0.040 A 
ATOM     79  C   UNL A   1      46.724  34.490  30.106  1.00  0.00     0.040 A 
ATOM     80  F   UNL A   1      45.224  33.775  28.451  1.00  0.00    -0.206 F 
ATOM     81  C   UNL A   1      47.392  34.270  31.310  1.00  0.00     0.006 A 
ENDBRANCH  57  74
ENDBRANCH  31  32
ENDBRANCH  24  26
ENDBRANCH  23  24
ENDBRANCH  22  23
ENDBRANCH   1  22
TORSDOF 15
ENDMDL
MODEL 2
REMARK VINA RESULT:     -10.9      4.150      8.785
REMARK SMILES C[C@H](NC(=O)c1cc(S(=O)(=O)N(C)C)cs1)C(=O)OCCOC(=O)c1ccc(-c2c3nc(c(-c4c(F)cccc4F)c4ccc([nH]4)c(-c4c(F)cccc4F)c4nc(c(-c5c(F)cccc5F)c5ccc2[nH]5)C=C4)C=C3)cc1
REMARK SMILES IDX 20 1 19 2 17 3 18 4 2 5 1 6 3 7 4 8 5 10 6 11 7 12 16 13
REMARK SMILES IDX 8 14 15 15 9 16 10 17 11 18 12 19 13 20 14 21 21 22 22 23
REMARK SMILES IDX 23 24 24 25 25 26 26 27 78 28 27 29 77 30 28 31 29 32 30 33
REMARK SMILES IDX 71 34 31 35 76 36 70 37 72 38 32 39 75 40 69 41 68 42 33 44
REMARK SMILES IDX 59 45 42 46 58 47 43 48 46 49 57 50 73 51 44 52 45 53 56 55
REMARK SMILES IDX 74 56 47 57 34 58 35 59 40 60 36 61 37 62 39 63 41 64 38 65
REMARK SMILES IDX 60 66 61 67 66 68 62 69 63 70 65 71 67 72 64 73 48 74 49 75
REMARK SMILES IDX 54 76 50 77 51 78 53 79 55 80 52 81
REMARK H PARENT 3 9 72 43 46 54
REMARK Flexibility Score: inf
ROOT
ATOM      1  C   UNL A   1      38.689  22.647  26.123  1.00  0.00     0.274 C 
ENDROOT
BRANCH   1   2
ATOM      2  O   UNL A   1      37.643  21.728  25.717  1.00  0.00    -0.461 OA
BRANCH   2   3
ATOM      3  C   UNL A   1      36.734  22.243  24.847  1.00  0.00     0.328 C 
ATOM      4  O   UNL A   1      37.027  22.921  23.865  1.00  0.00    -0.250 OA
BRANCH   3   5
ATOM      5  C   UNL A   1      35.267  21.922  25.190  1.00  0.00     0.189 C 
ATOM      6  C   UNL A   1      35.148  21.946  26.713  1.00  0.00     0.043 C 
BRANCH   5   7
ATOM      7  N   UNL A   1      34.653  20.691  24.675  1.00  0.00    -0.338 N 
ATOM      8  C   UNL A   1      33.311  20.449  24.432  1.00  0.00     0.262 C 
ATOM      9  H   UNL A   1      35.271  19.949  24.479  1.00  0.00     0.164 HD
ATOM     10  O   UNL A   1      32.928  19.286  24.329  1.00  0.00    -0.268 OA
BRANCH   8  11
ATOM     11  C   UNL A   1      32.445  21.594  24.251  1.00  0.00     0.093 A 
ATOM     12  C   UNL A   1      32.213  22.297  23.085  1.00  0.00     0.047 A 
ATOM     13  S   UNL A   1      31.435  22.149  25.464  1.00  0.00    -0.137 S 
ATOM     14  C   UNL A   1      31.833  23.881  23.316  1.00  0.00     0.094 A 
ATOM     15  C   UNL A   1      31.034  23.567  24.563  1.00  0.00     0.087 A 
BRANCH  14  16
ATOM     16  S   UNL A   1      32.369  25.956  22.076  1.00  0.00     0.243 S 
ATOM     17  O   UNL A   1      33.653  25.950  21.347  1.00  0.00    -0.207 OA
ATOM     18  O   UNL A   1      31.257  26.403  21.216  1.00  0.00    -0.207 OA
BRANCH  16  19
ATOM     19  N   UNL A   1      32.685  27.623  22.999  1.00  0.00    -0.204 NA
ATOM     20  C   UNL A   1      33.806  28.485  22.439  1.00  0.00     0.124 C 
ATOM     21  C   UNL A   1      31.432  28.463  22.743  1.00  0.00     0.124 C 
ENDBRANCH  16  19
ENDBRANCH  14  16
ENDBRANCH   8  11
ENDBRANCH   5   7
ENDBRANCH   3   5
ENDBRANCH   2   3
ENDBRANCH   1   2
BRANCH   1  22
ATOM     22  C   UNL A   1      39.810  21.928  26.875  1.00  0.00     0.275 C 
BRANCH  22  23
ATOM     23  O   UNL A   1      40.851  22.859  27.214  1.00  0.00    -0.458 OA
BRANCH  23  24
ATOM     24  C   UNL A   1      41.937  22.689  26.441  1.00  0.00     0.338 C 
ATOM     25  O   UNL A   1      42.277  21.662  25.873  1.00  0.00    -0.246 OA
BRANCH  24  26
ATOM     26  C   UNL A   1      42.757  23.901  26.351  1.00  0.00     0.060 A 
ATOM     27  C   UNL A   1      42.657  25.121  25.034  1.00  0.00     0.016 A 
ATOM     28  C   UNL A   1      44.151  23.947  27.520  1.00  0.00     0.016 A 
ATOM     29  C   UNL A   1      43.836  26.514  24.999  1.00  0.00     0.010 A 
ATOM     30  C   UNL A   1      45.376  25.272  27.445  1.00  0.00     0.010 A 
ATOM     31  C   UNL A   1      45.225  26.617  26.204  1.00  0.00    -0.014 A 
BRANCH  31  32
ATOM     32  C   UNL A   1      46.175  27.790  26.226  1.00  0.00     0.031 A 
ATOM     33  C   UNL A   1      47.655  27.578  26.009  1.00  0.00     0.074 A 
ATOM     34  C   UNL A   1      45.734  29.033  26.514  1.00  0.00     0.049 A 
ATOM     35  N   UNL A   1      48.661  28.365  26.300  1.00  0.00    -0.248 NA
ATOM     36  C   UNL A   1      48.085  26.263  25.519  1.00  0.00     0.031 C 
ATOM     37  C   UNL A   1      44.378  29.403  26.918  1.00  0.00     0.029 A 
ATOM     38  N   UNL A   1      46.382  30.244  26.483  1.00  0.00    -0.354 N 
ATOM     39  C   UNL A   1      49.798  27.571  26.180  1.00  0.00     0.074 A 
ATOM     40  C   UNL A   1      49.343  26.226  25.927  1.00  0.00     0.031 C 
ATOM     41  C   UNL A   1      44.243  30.734  26.905  1.00  0.00     0.029 A 
ATOM     42  C   UNL A   1      45.546  31.324  26.660  1.00  0.00     0.049 A 
ATOM     43  H   UNL A   1      47.354  30.330  26.348  1.00  0.00     0.167 HD
ATOM     44  C   UNL A   1      51.101  27.939  26.174  1.00  0.00     0.037 A 
ATOM     45  C   UNL A   1      45.810  32.644  26.654  1.00  0.00     0.037 A 
ATOM     46  C   UNL A   1      51.507  29.318  26.182  1.00  0.00     0.049 A 
ATOM     47  C   UNL A   1      47.244  33.055  26.499  1.00  0.00     0.074 A 
ATOM     48  C   UNL A   1      52.772  29.854  26.052  1.00  0.00     0.029 A 
ATOM     49  N   UNL A   1      50.620  30.385  26.261  1.00  0.00    -0.354 N 
ATOM     50  N   UNL A   1      48.312  32.298  26.394  1.00  0.00    -0.248 NA
ATOM     51  C   UNL A   1      47.518  34.494  26.478  1.00  0.00     0.031 C 
ATOM     52  C   UNL A   1      52.653  31.248  26.076  1.00  0.00     0.029 A 
ATOM     53  C   UNL A   1      51.309  31.579  26.168  1.00  0.00     0.049 A 
ATOM     54  H   UNL A   1      49.644  30.303  26.367  1.00  0.00     0.167 HD
ATOM     55  C   UNL A   1      49.384  33.167  26.268  1.00  0.00     0.074 A 
ATOM     56  C   UNL A   1      48.830  34.508  26.285  1.00  0.00     0.031 C 
ATOM     57  C   UNL A   1      50.706  32.889  26.159  1.00  0.00     0.037 A 
BRANCH  44  58
ATOM     58  C   UNL A   1      52.145  26.851  26.095  1.00  0.00     0.057 A 
ATOM     59  C   UNL A   1      52.823  26.364  27.225  1.00  0.00     0.134 A 
ATOM     60  C   UNL A   1      52.508  26.303  24.858  1.00  0.00     0.134 A 
ATOM     61  F   UNL A   1      52.535  26.834  28.448  1.00  0.00    -0.206 F 
ATOM     62  C   UNL A   1      53.872  25.445  27.119  1.00  0.00     0.040 A 
ATOM     63  C   UNL A   1      53.523  25.347  24.743  1.00  0.00     0.040 A 
ATOM     64  F   UNL A   1      51.893  26.694  23.731  1.00  0.00    -0.206 F 
ATOM     65  C   UNL A   1      54.223  24.933  25.873  1.00  0.00     0.006 A 
ENDBRANCH  44  58
BRANCH  45  66
ATOM     66  C   UNL A   1      44.710  33.643  26.763  1.00  0.00     0.057 A 
ATOM     67  C   UNL A   1      44.357  34.190  28.005  1.00  0.00     0.134 A 
ATOM     68  C   UNL A   1      44.004  34.104  25.644  1.00  0.00     0.134 A 
ATOM     69  F   UNL A   1      44.984  33.790  29.121  1.00  0.00    -0.206 F 
ATOM     70  C   UNL A   1      43.337  35.137  28.133  1.00  0.00     0.040 A 
ATOM     71  C   UNL A   1      43.006  35.078  25.752  1.00  0.00     0.040 A 
ATOM     72  F   UNL A   1      44.293  33.638  24.420  1.00  0.00    -0.206 F 
ATOM     73  C   UNL A   1      42.664  35.590  27.001  1.00  0.00     0.006 A 
ENDBRANCH  45  66
BRANCH  57  74
ATOM     74  C   UNL A   1      51.618  34.062  25.969  1.00  0.00     0.057 A 
ATOM     75  C   UNL A   1      52.038  34.479  24.702  1.00  0.00     0.134 A 
ATOM     76  C   UNL A   1      52.063  34.789  27.080  1.00  0.00     0.134 A 
ATOM     77  F   UNL A   1      51.653  33.811  23.603  1.00  0.00    -0.206 F 
ATOM     78  C   UNL A   1      52.904  35.560  24.547  1.00  0.00     0.040 A 
ATOM     79  C   UNL A   1      52.900  35.893  26.935  1.00  0.00     0.040 A 
ATOM     80  F   UNL A   1      51.684  34.443  28.319  1.00  0.00    -0.206 F 
ATOM     81  C   UNL A   1      53.331  36.274  25.666  1.00  0.00     0.006 A 
ENDBRANCH  57  74
ENDBRANCH  31  32
ENDBRANCH  24  26
ENDBRANCH  23  24
ENDBRANCH  22  23
ENDBRANCH   1  22
TORSDOF 15
ENDMDL
MODEL 3
REMARK VINA RESULT:     -10.8      1.927      6.787
REMARK SMILES C[C@H](NC(=O)c1cc(S(=O)(=O)N(C)C)cs1)C(=O)OCCOC(=O)c1ccc(-c2c3nc(c(-c4c(F)cccc4F)c4ccc([nH]4)c(-c4c(F)cccc4F)c4nc(c(-c5c(F)cccc5F)c5ccc2[nH]5)C=C4)C=C3)cc1
REMARK SMILES IDX 20 1 19 2 17 3 18 4 2 5 1 6 3 7 4 8 5 10 6 11 7 12 16 13
REMARK SMILES IDX 8 14 15 15 9 16 10 17 11 18 12 19 13 20 14 21 21 22 22 23
REMARK SMILES IDX 23 24 24 25 25 26 26 27 78 28 27 29 77 30 28 31 29 32 30 33
REMARK SMILES IDX 71 34 31 35 76 36 70 37 72 38 32 39 75 40 69 41 68 42 33 44
REMARK SMILES IDX 59 45 42 46 58 47 43 48 46 49 57 50 73 51 44 52 45 53 56 55
REMARK SMILES IDX 74 56 47 57 34 58 35 59 40 60 36 61 37 62 39 63 41 64 38 65
REMARK SMILES IDX 60 66 61 67 66 68 62 69 63 70 65 71 67 72 64 73 48 74 49 75
REMARK SMILES IDX 54 76 50 77 51 78 53 79 55 80 52 81
REMARK H PARENT 3 9 72 43 46 54
REMARK Flexibility Score: inf
ROOT
ATOM      1  C   UNL A   1      34.451  21.958  26.236  1.00  0.00     0.274 C 
ENDROOT
BRANCH   1   2
ATOM      2  O   UNL A   1      33.101  21.995  25.709  1.00  0.00    -0.461 OA
BRANCH   2   3
ATOM      3  C   UNL A   1      32.388  23.106  26.038  1.00  0.00     0.328 C 
ATOM      4  O   UNL A   1      31.945  23.331  27.162  1.00  0.00    -0.250 OA
BRANCH   3   5
ATOM      5  C   UNL A   1      32.152  24.083  24.872  1.00  0.00     0.189 C 
ATOM      6  C   UNL A   1      30.697  23.918  24.437  1.00  0.00     0.043 C 
BRANCH   5   7
ATOM      7  N   UNL A   1      33.022  24.027  23.690  1.00  0.00    -0.338 N 
ATOM      8  C   UNL A   1      33.152  24.973  22.686  1.00  0.00     0.262 C 
ATOM      9  H   UNL A   1      33.578  23.219  23.600  1.00  0.00     0.164 HD
ATOM     10  O   UNL A   1      33.652  24.635  21.616  1.00  0.00    -0.268 OA
BRANCH   8  11
ATOM     11  C   UNL A   1      32.743  26.328  22.985  1.00  0.00     0.093 A 
ATOM     12  C   UNL A   1      33.463  27.293  23.662  1.00  0.00     0.047 A 
ATOM     13  S   UNL A   1      31.331  26.989  22.377  1.00  0.00    -0.137 S 
ATOM     14  C   UNL A   1      32.533  28.386  24.469  1.00  0.00     0.094 A 
ATOM     15  C   UNL A   1      31.487  28.391  23.374  1.00  0.00     0.087 A 
BRANCH  14  16
ATOM     16  S   UNL A   1      32.784  29.560  26.634  1.00  0.00     0.243 S 
ATOM     17  O   UNL A   1      31.883  30.710  26.844  1.00  0.00    -0.207 OA
ATOM     18  O   UNL A   1      32.764  28.635  27.784  1.00  0.00    -0.207 OA
BRANCH  16  19
ATOM     19  N   UNL A   1      34.407  30.508  27.078  1.00  0.00    -0.204 NA
ATOM     20  C   UNL A   1      34.248  31.674  28.041  1.00  0.00     0.124 C 
ATOM     21  C   UNL A   1      35.249  29.507  27.873  1.00  0.00     0.124 C 
ENDBRANCH  16  19
ENDBRANCH  14  16
ENDBRANCH   8  11
ENDBRANCH   5   7
ENDBRANCH   3   5
ENDBRANCH   2   3
ENDBRANCH   1   2
BRANCH   1  22
ATOM     22  C   UNL A   1      35.416  21.268  25.269  1.00  0.00     0.275 C 
BRANCH  22  23
ATOM     23  O   UNL A   1      36.490  20.654  25.999  1.00  0.00    -0.458 OA
BRANCH  23  24
ATOM     24  C   UNL A   1      37.652  20.732  25.329  1.00  0.00     0.338 C 
ATOM     25  O   UNL A   1      38.046  19.971  24.458  1.00  0.00    -0.246 OA
BRANCH  24  26
ATOM     26  C   UNL A   1      38.481  21.855  25.773  1.00  0.00     0.060 A 
ATOM     27  C   UNL A   1      39.957  21.714  26.791  1.00  0.00     0.016 A 
ATOM     28  C   UNL A   1      37.734  23.491  25.490  1.00  0.00     0.016 A 
ATOM     29  C   UNL A   1      40.810  23.222  27.364  1.00  0.00     0.010 A 
ATOM     30  C   UNL A   1      38.520  24.988  26.124  1.00  0.00     0.010 A 
ATOM     31  C   UNL A   1      40.106  24.894  27.045  1.00  0.00    -0.014 A 
BRANCH  31  32
ATOM     32  C   UNL A   1      40.826  26.154  27.462  1.00  0.00     0.031 A 
ATOM     33  C   UNL A   1      42.208  26.456  26.927  1.00  0.00     0.074 A 
ATOM     34  C   UNL A   1      40.286  26.992  28.371  1.00  0.00     0.049 A 
ATOM     35  N   UNL A   1      43.114  27.283  27.384  1.00  0.00    -0.248 NA
ATOM     36  C   UNL A   1      42.694  25.639  25.810  1.00  0.00     0.031 C 
ATOM     37  C   UNL A   1      39.049  26.780  29.121  1.00  0.00     0.029 A 
ATOM     38  N   UNL A   1      40.699  28.227  28.810  1.00  0.00    -0.354 N 
ATOM     39  C   UNL A   1      44.289  26.948  26.716  1.00  0.00     0.074 A 
ATOM     40  C   UNL A   1      44.004  25.769  25.937  1.00  0.00     0.031 C 
ATOM     41  C   UNL A   1      38.703  27.904  29.762  1.00  0.00     0.029 A 
ATOM     42  C   UNL A   1      39.780  28.865  29.612  1.00  0.00     0.049 A 
ATOM     43  H   UNL A   1      41.571  28.617  28.572  1.00  0.00     0.167 HD
ATOM     44  C   UNL A   1      45.466  27.617  26.668  1.00  0.00     0.037 A 
ATOM     45  C   UNL A   1      39.817  30.081  30.188  1.00  0.00     0.037 A 
ATOM     46  C   UNL A   1      45.632  28.916  27.260  1.00  0.00     0.049 A 
ATOM     47  C   UNL A   1      41.072  30.885  30.011  1.00  0.00     0.074 A 
ATOM     48  C   UNL A   1      46.713  29.773  27.191  1.00  0.00     0.029 A 
ATOM     49  N   UNL A   1      44.640  29.572  27.981  1.00  0.00    -0.354 N 
ATOM     50  N   UNL A   1      42.178  30.558  29.384  1.00  0.00    -0.248 NA
ATOM     51  C   UNL A   1      41.095  32.214  30.627  1.00  0.00     0.031 C 
ATOM     52  C   UNL A   1      46.383  30.938  27.892  1.00  0.00     0.029 A 
ATOM     53  C   UNL A   1      45.078  30.828  28.351  1.00  0.00     0.049 A 
ATOM     54  H   UNL A   1      43.756  29.195  28.196  1.00  0.00     0.167 HD
ATOM     55  C   UNL A   1      43.023  31.649  29.508  1.00  0.00     0.074 A 
ATOM     56  C   UNL A   1      42.286  32.656  30.249  1.00  0.00     0.031 C 
ATOM     57  C   UNL A   1      44.294  31.807  29.063  1.00  0.00     0.037 A 
BRANCH  44  58
ATOM     58  C   UNL A   1      46.610  26.985  25.913  1.00  0.00     0.057 A 
ATOM     59  C   UNL A   1      47.488  26.058  26.497  1.00  0.00     0.134 A 
ATOM     60  C   UNL A   1      46.864  27.341  24.581  1.00  0.00     0.134 A 
ATOM     61  F   UNL A   1      47.315  25.662  27.767  1.00  0.00    -0.206 F 
ATOM     62  C   UNL A   1      48.614  25.578  25.820  1.00  0.00     0.040 A 
ATOM     63  C   UNL A   1      47.959  26.830  23.877  1.00  0.00     0.040 A 
ATOM     64  F   UNL A   1      46.060  28.203  23.940  1.00  0.00    -0.206 F 
ATOM     65  C   UNL A   1      48.850  25.963  24.504  1.00  0.00     0.006 A 
ENDBRANCH  44  58
BRANCH  45  66
ATOM     66  C   UNL A   1      38.642  30.608  30.938  1.00  0.00     0.057 A 
ATOM     67  C   UNL A   1      38.526  30.412  32.322  1.00  0.00     0.134 A 
ATOM     68  C   UNL A   1      37.624  31.341  30.314  1.00  0.00     0.134 A 
ATOM     69  F   UNL A   1      39.459  29.711  32.984  1.00  0.00    -0.206 F 
ATOM     70  C   UNL A   1      37.440  30.905  33.049  1.00  0.00     0.040 A 
ATOM     71  C   UNL A   1      36.551  31.873  31.036  1.00  0.00     0.040 A 
ATOM     72  F   UNL A   1      37.672  31.582  28.996  1.00  0.00    -0.206 F 
ATOM     73  C   UNL A   1      36.452  31.646  32.406  1.00  0.00     0.006 A 
ENDBRANCH  45  66
BRANCH  57  74
ATOM     74  C   UNL A   1      44.919  33.146  29.302  1.00  0.00     0.057 A 
ATOM     75  C   UNL A   1      45.693  33.413  30.436  1.00  0.00     0.134 A 
ATOM     76  C   UNL A   1      44.751  34.173  28.366  1.00  0.00     0.134 A 
ATOM     77  F   UNL A   1      45.877  32.470  31.373  1.00  0.00    -0.206 F 
ATOM     78  C   UNL A   1      46.250  34.672  30.651  1.00  0.00     0.040 A 
ATOM     79  C   UNL A   1      45.333  35.425  28.552  1.00  0.00     0.040 A 
ATOM     80  F   UNL A   1      44.029  33.972  27.253  1.00  0.00    -0.206 F 
ATOM     81  C   UNL A   1      46.075  35.681  29.703  1.00  0.00     0.006 A 
ENDBRANCH  57  74
ENDBRANCH  31  32
ENDBRANCH  24  26
ENDBRANCH  23  24
ENDBRANCH  22  23
ENDBRANCH   1  22
TORSDOF 15
ENDMDL
