MODEL 1
REMARK VINA RESULT:     -10.1      0.000      0.000
REMARK SMILES Cc1cc(C)c2c(c1)C=C(C(=O)OCCOC(=O)c1ccc(-c3c4nc(c(-c5c(F)cccc5F)c5ccc([nH]5)c(-c5c(F)cccc5F)c5nc(c(-c6c(F)cccc6F)c6ccc3[nH]6)C=C5)C=C4)cc1)[C@@H](C(F)(F)F)O2
REMARK SMILES IDX 15 1 14 2 13 3 11 4 12 5 10 6 1 7 2 8 3 9 8 10 4 11 7 12
REMARK SMILES IDX 5 13 6 14 9 15 78 16 73 17 74 18 75 19 76 20 77 21 16 22
REMARK SMILES IDX 17 23 18 24 19 25 20 26 72 27 21 28 71 29 22 30 23 31 24 32
REMARK SMILES IDX 65 33 25 34 70 35 64 36 66 37 26 38 69 39 63 40 62 41 27 43
REMARK SMILES IDX 53 44 36 45 52 46 37 47 40 48 51 49 67 50 38 51 39 52 50 54
REMARK SMILES IDX 68 55 41 56 28 57 29 58 34 59 30 60 31 61 33 62 35 63 32 64
REMARK SMILES IDX 54 65 55 66 60 67 56 68 57 69 59 70 61 71 58 72 42 73 43 74
REMARK SMILES IDX 48 75 44 76 45 77 47 78 49 79 46 80
REMARK H PARENT 66 42 40 53
REMARK Flexibility Score: inf
ROOT
ATOM      1  C   UNL A   1      33.818  33.422  28.295  1.00  0.00     0.275 C 
ENDROOT
BRANCH   1   2
ATOM      2  C   UNL A   1      34.449  34.610  29.022  1.00  0.00     0.275 C 
BRANCH   2   3
ATOM      3  O   UNL A   1      34.197  34.549  30.443  1.00  0.00    -0.459 OA
BRANCH   3   4
ATOM      4  C   UNL A   1      34.807  33.534  31.096  1.00  0.00     0.338 C 
ATOM      5  O   UNL A   1      34.403  32.386  31.203  1.00  0.00    -0.246 OA
BRANCH   4   6
ATOM      6  C   UNL A   1      36.091  33.981  31.665  1.00  0.00     0.087 C 
ATOM      7  C   UNL A   1      42.151  33.570  30.667  1.00  0.00     0.044 C 
ATOM      8  C   UNL A   1      40.905  33.959  31.408  1.00  0.00    -0.050 A 
ATOM      9  C   UNL A   1      40.969  34.466  32.711  1.00  0.00     0.010 A 
ATOM     10  C   UNL A   1      39.653  33.746  30.830  1.00  0.00     0.015 A 
ATOM     11  C   UNL A   1      39.801  34.789  33.424  1.00  0.00    -0.008 A 
ATOM     12  C   UNL A   1      38.483  34.049  31.537  1.00  0.00     0.018 A 
ATOM     13  C   UNL A   1      39.899  35.328  34.822  1.00  0.00     0.048 C 
ATOM     14  C   UNL A   1      38.550  34.581  32.825  1.00  0.00     0.130 A 
ATOM     15  C   UNL A   1      37.195  33.763  30.943  1.00  0.00     0.027 C 
ATOM     16  O   UNL A   1      37.436  34.924  33.544  1.00  0.00    -0.475 OA
ATOM     17  C   UNL A   1      36.124  34.514  33.066  1.00  0.00     0.316 C 
BRANCH  17  18
ATOM     18  C   UNL A   1      35.527  33.504  34.059  1.00  0.00     0.430 C 
ATOM     19  F   UNL A   1      35.983  32.251  33.823  1.00  0.00    -0.167 F 
ATOM     20  F   UNL A   1      35.867  33.804  35.337  1.00  0.00    -0.167 F 
ATOM     21  F   UNL A   1      34.176  33.464  34.001  1.00  0.00    -0.167 F 
ENDBRANCH  17  18
ENDBRANCH   4   6
ENDBRANCH   3   4
ENDBRANCH   2   3
ENDBRANCH   1   2
BRANCH   1  22
ATOM     22  O   UNL A   1      34.833  32.665  27.609  1.00  0.00    -0.458 OA
BRANCH  22  23
ATOM     23  C   UNL A   1      34.803  31.330  27.818  1.00  0.00     0.338 C 
ATOM     24  O   UNL A   1      33.987  30.529  27.392  1.00  0.00    -0.246 OA
BRANCH  23  25
ATOM     25  C   UNL A   1      35.973  30.913  28.608  1.00  0.00     0.060 A 
ATOM     26  C   UNL A   1      37.193  31.532  28.370  1.00  0.00     0.016 A 
ATOM     27  C   UNL A   1      35.911  29.789  29.426  1.00  0.00     0.016 A 
ATOM     28  C   UNL A   1      38.373  30.934  28.801  1.00  0.00     0.010 A 
ATOM     29  C   UNL A   1      37.088  29.283  29.993  1.00  0.00     0.010 A 
ATOM     30  C   UNL A   1      38.343  29.812  29.642  1.00  0.00    -0.014 A 
BRANCH  30  31
ATOM     31  C   UNL A   1      39.617  29.190  30.115  1.00  0.00     0.031 A 
ATOM     32  C   UNL A   1      40.277  29.663  31.388  1.00  0.00     0.074 A 
ATOM     33  C   UNL A   1      40.176  28.170  29.428  1.00  0.00     0.049 A 
ATOM     34  N   UNL A   1      41.461  29.371  31.865  1.00  0.00    -0.248 NA
ATOM     35  C   UNL A   1      39.512  30.598  32.231  1.00  0.00     0.031 C 
ATOM     36  C   UNL A   1      39.630  27.565  28.211  1.00  0.00     0.029 A 
ATOM     37  N   UNL A   1      41.319  27.444  29.665  1.00  0.00    -0.354 N 
ATOM     38  C   UNL A   1      41.605  30.126  33.024  1.00  0.00     0.074 A 
ATOM     39  C   UNL A   1      40.392  30.899  33.176  1.00  0.00     0.031 C 
ATOM     40  C   UNL A   1      40.391  26.521  27.854  1.00  0.00     0.029 A 
ATOM     41  C   UNL A   1      41.545  26.453  28.739  1.00  0.00     0.049 A 
ATOM     42  H   UNL A   1      41.919  27.618  30.426  1.00  0.00     0.167 HD
ATOM     43  C   UNL A   1      42.650  30.166  33.885  1.00  0.00     0.037 A 
ATOM     44  C   UNL A   1      42.583  25.610  28.583  1.00  0.00     0.037 A 
ATOM     45  C   UNL A   1      43.831  29.348  33.767  1.00  0.00     0.049 A 
ATOM     46  C   UNL A   1      43.755  25.712  29.515  1.00  0.00     0.074 A 
ATOM     47  C   UNL A   1      44.942  29.314  34.592  1.00  0.00     0.029 A 
ATOM     48  N   UNL A   1      44.041  28.403  32.774  1.00  0.00    -0.354 N 
ATOM     49  N   UNL A   1      43.909  26.487  30.559  1.00  0.00    -0.248 NA
ATOM     50  C   UNL A   1      44.908  24.849  29.228  1.00  0.00     0.031 C 
ATOM     51  C   UNL A   1      45.841  28.376  34.077  1.00  0.00     0.029 A 
ATOM     52  C   UNL A   1      45.271  27.792  32.959  1.00  0.00     0.049 A 
ATOM     53  H   UNL A   1      43.410  28.197  32.046  1.00  0.00     0.167 HD
ATOM     54  C   UNL A   1      45.172  26.202  31.059  1.00  0.00     0.074 A 
ATOM     55  C   UNL A   1      45.732  25.164  30.217  1.00  0.00     0.031 C 
ATOM     56  C   UNL A   1      45.813  26.758  32.116  1.00  0.00     0.037 A 
BRANCH  43  57
ATOM     57  C   UNL A   1      42.584  31.137  35.030  1.00  0.00     0.057 A 
ATOM     58  C   UNL A   1      43.043  32.454  34.915  1.00  0.00     0.134 A 
ATOM     59  C   UNL A   1      41.986  30.765  36.243  1.00  0.00     0.134 A 
ATOM     60  F   UNL A   1      43.633  32.874  33.786  1.00  0.00    -0.206 F 
ATOM     61  C   UNL A   1      42.924  33.363  35.971  1.00  0.00     0.040 A 
ATOM     62  C   UNL A   1      41.839  31.670  37.295  1.00  0.00     0.040 A 
ATOM     63  F   UNL A   1      41.516  29.521  36.416  1.00  0.00    -0.206 F 
ATOM     64  C   UNL A   1      42.312  32.974  37.161  1.00  0.00     0.006 A 
ENDBRANCH  43  57
BRANCH  44  65
ATOM     65  C   UNL A   1      42.574  24.623  27.471  1.00  0.00     0.057 A 
ATOM     66  C   UNL A   1      43.101  24.946  26.217  1.00  0.00     0.134 A 
ATOM     67  C   UNL A   1      42.066  23.328  27.642  1.00  0.00     0.134 A 
ATOM     68  F   UNL A   1      43.579  26.177  25.982  1.00  0.00    -0.206 F 
ATOM     69  C   UNL A   1      43.125  24.019  25.173  1.00  0.00     0.040 A 
ATOM     70  C   UNL A   1      42.112  22.382  26.618  1.00  0.00     0.040 A 
ATOM     71  F   UNL A   1      41.547  22.954  28.821  1.00  0.00    -0.206 F 
ATOM     72  C   UNL A   1      42.640  22.729  25.376  1.00  0.00     0.006 A 
ENDBRANCH  44  65
BRANCH  56  73
ATOM     73  C   UNL A   1      47.183  26.245  32.438  1.00  0.00     0.057 A 
ATOM     74  C   UNL A   1      47.380  25.203  33.353  1.00  0.00     0.134 A 
ATOM     75  C   UNL A   1      48.309  26.750  31.777  1.00  0.00     0.134 A 
ATOM     76  F   UNL A   1      46.342  24.686  34.029  1.00  0.00    -0.206 F 
ATOM     77  C   UNL A   1      48.653  24.689  33.607  1.00  0.00     0.040 A 
ATOM     78  C   UNL A   1      49.583  26.228  32.004  1.00  0.00     0.040 A 
ATOM     79  F   UNL A   1      48.186  27.742  30.883  1.00  0.00    -0.206 F 
ATOM     80  C   UNL A   1      49.756  25.195  32.924  1.00  0.00     0.006 A 
ENDBRANCH  56  73
ENDBRANCH  30  31
ENDBRANCH  23  25
ENDBRANCH  22  23
ENDBRANCH   1  22
TORSDOF 12
ENDMDL
MODEL 2
REMARK VINA RESULT:     -10.1      4.234     10.699
REMARK SMILES Cc1cc(C)c2c(c1)C=C(C(=O)OCCOC(=O)c1ccc(-c3c4nc(c(-c5c(F)cccc5F)c5ccc([nH]5)c(-c5c(F)cccc5F)c5nc(c(-c6c(F)cccc6F)c6ccc3[nH]6)C=C5)C=C4)cc1)[C@@H](C(F)(F)F)O2
REMARK SMILES IDX 15 1 14 2 13 3 11 4 12 5 10 6 1 7 2 8 3 9 8 10 4 11 7 12
REMARK SMILES IDX 5 13 6 14 9 15 78 16 73 17 74 18 75 19 76 20 77 21 16 22
REMARK SMILES IDX 17 23 18 24 19 25 20 26 72 27 21 28 71 29 22 30 23 31 24 32
REMARK SMILES IDX 65 33 25 34 70 35 64 36 66 37 26 38 69 39 63 40 62 41 27 43
REMARK SMILES IDX 53 44 36 45 52 46 37 47 40 48 51 49 67 50 38 51 39 52 50 54
REMARK SMILES IDX 68 55 41 56 28 57 29 58 34 59 30 60 31 61 33 62 35 63 32 64
REMARK SMILES IDX 54 65 55 66 60 67 56 68 57 69 59 70 61 71 58 72 42 73 43 74
REMARK SMILES IDX 48 75 44 76 45 77 47 78 49 79 46 80
REMARK H PARENT 66 42 40 53
REMARK Flexibility Score: inf
ROOT
ATOM      1  C   UNL A   1      40.802  20.505  26.464  1.00  0.00     0.275 C 
ENDROOT
BRANCH   1   2
ATOM      2  C   UNL A   1      42.213  20.383  27.040  1.00  0.00     0.275 C 
BRANCH   2   3
ATOM      3  O   UNL A   1      43.214  20.674  26.040  1.00  0.00    -0.459 OA
BRANCH   3   4
ATOM      4  C   UNL A   1      43.318  21.975  25.686  1.00  0.00     0.338 C 
ATOM      5  O   UNL A   1      42.649  22.560  24.847  1.00  0.00    -0.246 OA
BRANCH   4   6
ATOM      6  C   UNL A   1      44.356  22.649  26.485  1.00  0.00     0.087 C 
ATOM      7  C   UNL A   1      44.986  26.156  31.505  1.00  0.00     0.044 C 
ATOM      8  C   UNL A   1      45.439  25.431  30.271  1.00  0.00    -0.050 A 
ATOM      9  C   UNL A   1      46.725  25.624  29.751  1.00  0.00     0.010 A 
ATOM     10  C   UNL A   1      44.550  24.609  29.578  1.00  0.00     0.015 A 
ATOM     11  C   UNL A   1      47.136  24.981  28.570  1.00  0.00    -0.008 A 
ATOM     12  C   UNL A   1      44.944  23.976  28.392  1.00  0.00     0.018 A 
ATOM     13  C   UNL A   1      48.520  25.208  28.034  1.00  0.00     0.048 C 
ATOM     14  C   UNL A   1      46.235  24.147  27.892  1.00  0.00     0.130 A 
ATOM     15  C   UNL A   1      43.987  23.177  27.657  1.00  0.00     0.027 C 
ATOM     16  O   UNL A   1      46.678  23.524  26.755  1.00  0.00    -0.475 OA
ATOM     17  C   UNL A   1      45.722  22.843  25.896  1.00  0.00     0.316 C 
BRANCH  17  18
ATOM     18  C   UNL A   1      45.646  23.585  24.551  1.00  0.00     0.430 C 
ATOM     19  F   UNL A   1      46.834  24.151  24.231  1.00  0.00    -0.167 F 
ATOM     20  F   UNL A   1      45.334  22.742  23.536  1.00  0.00    -0.167 F 
ATOM     21  F   UNL A   1      44.716  24.567  24.559  1.00  0.00    -0.167 F 
ENDBRANCH  17  18
ENDBRANCH   4   6
ENDBRANCH   3   4
ENDBRANCH   2   3
ENDBRANCH   1   2
BRANCH   1  22
ATOM     22  O   UNL A   1      40.022  21.425  27.251  1.00  0.00    -0.458 OA
BRANCH  22  23
ATOM     23  C   UNL A   1      39.451  22.440  26.563  1.00  0.00     0.338 C 
ATOM     24  O   UNL A   1      38.474  22.388  25.837  1.00  0.00    -0.246 OA
BRANCH  23  25
ATOM     25  C   UNL A   1      40.142  23.705  26.861  1.00  0.00     0.060 A 
ATOM     26  C   UNL A   1      40.683  23.889  28.126  1.00  0.00     0.016 A 
ATOM     27  C   UNL A   1      40.077  24.773  25.970  1.00  0.00     0.016 A 
ATOM     28  C   UNL A   1      40.999  25.169  28.569  1.00  0.00     0.010 A 
ATOM     29  C   UNL A   1      40.549  26.031  26.367  1.00  0.00     0.010 A 
ATOM     30  C   UNL A   1      40.962  26.262  27.692  1.00  0.00    -0.014 A 
BRANCH  30  31
ATOM     31  C   UNL A   1      41.322  27.630  28.174  1.00  0.00     0.031 A 
ATOM     32  C   UNL A   1      42.756  28.104  28.140  1.00  0.00     0.074 A 
ATOM     33  C   UNL A   1      40.364  28.475  28.613  1.00  0.00     0.049 A 
ATOM     34  N   UNL A   1      43.286  29.178  28.669  1.00  0.00    -0.248 NA
ATOM     35  C   UNL A   1      43.725  27.253  27.429  1.00  0.00     0.031 C 
ATOM     36  C   UNL A   1      38.929  28.184  28.656  1.00  0.00     0.029 A 
ATOM     37  N   UNL A   1      40.448  29.761  29.090  1.00  0.00    -0.354 N 
ATOM     38  C   UNL A   1      44.650  29.102  28.408  1.00  0.00     0.074 A 
ATOM     39  C   UNL A   1      44.870  27.872  27.681  1.00  0.00     0.031 C 
ATOM     40  C   UNL A   1      38.266  29.277  29.058  1.00  0.00     0.029 A 
ATOM     41  C   UNL A   1      39.229  30.307  29.419  1.00  0.00     0.049 A 
ATOM     42  H   UNL A   1      41.299  30.246  29.186  1.00  0.00     0.167 HD
ATOM     43  C   UNL A   1      45.626  29.982  28.738  1.00  0.00     0.037 A 
ATOM     44  C   UNL A   1      38.914  31.485  29.992  1.00  0.00     0.037 A 
ATOM     45  C   UNL A   1      45.395  31.238  29.406  1.00  0.00     0.049 A 
ATOM     46  C   UNL A   1      40.017  32.417  30.401  1.00  0.00     0.074 A 
ATOM     47  C   UNL A   1      46.319  32.197  29.780  1.00  0.00     0.029 A 
ATOM     48  N   UNL A   1      44.148  31.718  29.777  1.00  0.00    -0.354 N 
ATOM     49  N   UNL A   1      41.308  32.294  30.217  1.00  0.00    -0.248 NA
ATOM     50  C   UNL A   1      39.623  33.633  31.125  1.00  0.00     0.031 C 
ATOM     51  C   UNL A   1      45.637  33.241  30.411  1.00  0.00     0.029 A 
ATOM     52  C   UNL A   1      44.282  32.954  30.388  1.00  0.00     0.049 A 
ATOM     53  H   UNL A   1      43.295  31.250  29.628  1.00  0.00     0.167 HD
ATOM     54  C   UNL A   1      41.882  33.417  30.796  1.00  0.00     0.074 A 
ATOM     55  C   UNL A   1      40.795  34.223  31.315  1.00  0.00     0.031 C 
ATOM     56  C   UNL A   1      43.192  33.746  30.896  1.00  0.00     0.037 A 
BRANCH  43  57
ATOM     57  C   UNL A   1      47.045  29.619  28.402  1.00  0.00     0.057 A 
ATOM     58  C   UNL A   1      47.611  29.906  27.155  1.00  0.00     0.134 A 
ATOM     59  C   UNL A   1      47.876  29.035  29.369  1.00  0.00     0.134 A 
ATOM     60  F   UNL A   1      46.870  30.455  26.181  1.00  0.00    -0.206 F 
ATOM     61  C   UNL A   1      48.949  29.612  26.875  1.00  0.00     0.040 A 
ATOM     62  C   UNL A   1      49.220  28.760  29.110  1.00  0.00     0.040 A 
ATOM     63  F   UNL A   1      47.401  28.743  30.589  1.00  0.00    -0.206 F 
ATOM     64  C   UNL A   1      49.759  29.046  27.858  1.00  0.00     0.006 A 
ENDBRANCH  43  57
BRANCH  44  65
ATOM     65  C   UNL A   1      37.490  31.826  30.247  1.00  0.00     0.057 A 
ATOM     66  C   UNL A   1      36.858  31.437  31.432  1.00  0.00     0.134 A 
ATOM     67  C   UNL A   1      36.736  32.570  29.329  1.00  0.00     0.134 A 
ATOM     68  F   UNL A   1      37.517  30.702  32.339  1.00  0.00    -0.206 F 
ATOM     69  C   UNL A   1      35.529  31.776  31.697  1.00  0.00     0.040 A 
ATOM     70  C   UNL A   1      35.419  32.943  29.595  1.00  0.00     0.040 A 
ATOM     71  F   UNL A   1      37.284  32.975  28.174  1.00  0.00    -0.206 F 
ATOM     72  C   UNL A   1      34.810  32.541  30.781  1.00  0.00     0.006 A 
ENDBRANCH  44  65
BRANCH  56  73
ATOM     73  C   UNL A   1      43.528  35.040  31.573  1.00  0.00     0.057 A 
ATOM     74  C   UNL A   1      43.687  36.227  30.849  1.00  0.00     0.134 A 
ATOM     75  C   UNL A   1      43.628  35.112  32.968  1.00  0.00     0.134 A 
ATOM     76  F   UNL A   1      43.616  36.221  29.508  1.00  0.00    -0.206 F 
ATOM     77  C   UNL A   1      43.942  37.441  31.488  1.00  0.00     0.040 A 
ATOM     78  C   UNL A   1      43.859  36.323  33.620  1.00  0.00     0.040 A 
ATOM     79  F   UNL A   1      43.478  34.010  33.719  1.00  0.00    -0.206 F 
ATOM     80  C   UNL A   1      44.019  37.492  32.878  1.00  0.00     0.006 A 
ENDBRANCH  56  73
ENDBRANCH  30  31
ENDBRANCH  23  25
ENDBRANCH  22  23
ENDBRANCH   1  22
TORSDOF 12
ENDMDL
MODEL 3
REMARK VINA RESULT:     -10.0      5.276      9.298
REMARK SMILES Cc1cc(C)c2c(c1)C=C(C(=O)OCCOC(=O)c1ccc(-c3c4nc(c(-c5c(F)cccc5F)c5ccc([nH]5)c(-c5c(F)cccc5F)c5nc(c(-c6c(F)cccc6F)c6ccc3[nH]6)C=C5)C=C4)cc1)[C@@H](C(F)(F)F)O2
REMARK SMILES IDX 15 1 14 2 13 3 11 4 12 5 10 6 1 7 2 8 3 9 8 10 4 11 7 12
REMARK SMILES IDX 5 13 6 14 9 15 78 16 73 17 74 18 75 19 76 20 77 21 16 22
REMARK SMILES IDX 17 23 18 24 19 25 20 26 72 27 21 28 71 29 22 30 23 31 24 32
REMARK SMILES IDX 65 33 25 34 70 35 64 36 66 37 26 38 69 39 63 40 62 41 27 43
REMARK SMILES IDX 53 44 36 45 52 46 37 47 40 48 51 49 67 50 38 51 39 52 50 54
REMARK SMILES IDX 68 55 41 56 28 57 29 58 34 59 30 60 31 61 33 62 35 63 32 64
REMARK SMILES IDX 54 65 55 66 60 67 56 68 57 69 59 70 61 71 58 72 42 73 43 74
REMARK SMILES IDX 48 75 44 76 45 77 47 78 49 79 46 80
REMARK H PARENT 66 42 40 53
REMARK Flexibility Score: inf
ROOT
ATOM      1  C   UNL A   1      36.522  20.541  24.993  1.00  0.00     0.275 C 
ENDROOT
BRANCH   1   2
ATOM      2  C   UNL A   1      35.192  21.292  24.910  1.00  0.00     0.275 C 
BRANCH   2   3
ATOM      3  O   UNL A   1      35.397  22.721  24.877  1.00  0.00    -0.459 OA
BRANCH   3   4
ATOM      4  C   UNL A   1      35.188  23.308  23.677  1.00  0.00     0.338 C 
ATOM      5  O   UNL A   1      35.705  23.002  22.613  1.00  0.00    -0.246 OA
BRANCH   4   6
ATOM      6  C   UNL A   1      34.195  24.391  23.796  1.00  0.00     0.087 C 
ATOM      7  C   UNL A   1      32.766  29.179  27.390  1.00  0.00     0.044 C 
ATOM      8  C   UNL A   1      32.582  28.207  26.261  1.00  0.00    -0.050 A 
ATOM      9  C   UNL A   1      31.384  28.157  25.539  1.00  0.00     0.010 A 
ATOM     10  C   UNL A   1      33.584  27.281  25.966  1.00  0.00     0.015 A 
ATOM     11  C   UNL A   1      31.193  27.216  24.511  1.00  0.00    -0.008 A 
ATOM     12  C   UNL A   1      33.398  26.330  24.955  1.00  0.00     0.018 A 
ATOM     13  C   UNL A   1      29.896  27.183  23.755  1.00  0.00     0.048 C 
ATOM     14  C   UNL A   1      32.214  26.301  24.218  1.00  0.00     0.130 A 
ATOM     15  C   UNL A   1      34.425  25.341  24.707  1.00  0.00     0.027 C 
ATOM     16  O   UNL A   1      31.998  25.412  23.198  1.00  0.00    -0.475 OA
ATOM     17  C   UNL A   1      32.920  24.303  23.011  1.00  0.00     0.316 C 
BRANCH  17  18
ATOM     18  C   UNL A   1      32.179  22.987  23.302  1.00  0.00     0.430 C 
ATOM     19  F   UNL A   1      32.242  22.664  24.616  1.00  0.00    -0.167 F 
ATOM     20  F   UNL A   1      30.862  23.080  22.991  1.00  0.00    -0.167 F 
ATOM     21  F   UNL A   1      32.686  21.947  22.602  1.00  0.00    -0.167 F 
ENDBRANCH  17  18
ENDBRANCH   4   6
ENDBRANCH   3   4
ENDBRANCH   2   3
ENDBRANCH   1   2
BRANCH   1  22
ATOM     22  O   UNL A   1      37.619  21.473  24.972  1.00  0.00    -0.458 OA
BRANCH  22  23
ATOM     23  C   UNL A   1      38.692  21.124  25.717  1.00  0.00     0.338 C 
ATOM     24  O   UNL A   1      39.217  20.026  25.795  1.00  0.00    -0.246 OA
BRANCH  23  25
ATOM     25  C   UNL A   1      39.232  22.304  26.412  1.00  0.00     0.060 A 
ATOM     26  C   UNL A   1      38.706  23.554  26.113  1.00  0.00     0.016 A 
ATOM     27  C   UNL A   1      40.377  22.201  27.197  1.00  0.00     0.016 A 
ATOM     28  C   UNL A   1      39.413  24.705  26.445  1.00  0.00     0.010 A 
ATOM     29  C   UNL A   1      40.998  23.365  27.667  1.00  0.00     0.010 A 
ATOM     30  C   UNL A   1      40.559  24.636  27.249  1.00  0.00    -0.014 A 
BRANCH  30  31
ATOM     31  C   UNL A   1      41.301  25.881  27.615  1.00  0.00     0.031 A 
ATOM     32  C   UNL A   1      40.658  26.927  28.495  1.00  0.00     0.074 A 
ATOM     33  C   UNL A   1      42.570  26.070  27.194  1.00  0.00     0.049 A 
ATOM     34  N   UNL A   1      41.070  28.138  28.776  1.00  0.00    -0.248 NA
ATOM     35  C   UNL A   1      39.379  26.572  29.131  1.00  0.00     0.031 C 
ATOM     36  C   UNL A   1      43.346  25.127  26.385  1.00  0.00     0.029 A 
ATOM     37  N   UNL A   1      43.443  27.111  27.404  1.00  0.00    -0.354 N 
ATOM     38  C   UNL A   1      40.078  28.706  29.569  1.00  0.00     0.074 A 
ATOM     39  C   UNL A   1      39.038  27.711  29.717  1.00  0.00     0.031 C 
ATOM     40  C   UNL A   1      44.593  25.595  26.232  1.00  0.00     0.029 A 
ATOM     41  C   UNL A   1      44.675  26.922  26.824  1.00  0.00     0.049 A 
ATOM     42  H   UNL A   1      43.207  27.915  27.921  1.00  0.00     0.167 HD
ATOM     43  C   UNL A   1      40.042  29.940  30.127  1.00  0.00     0.037 A 
ATOM     44  C   UNL A   1      45.743  27.738  26.732  1.00  0.00     0.037 A 
ATOM     45  C   UNL A   1      41.107  30.905  30.031  1.00  0.00     0.049 A 
ATOM     46  C   UNL A   1      45.657  29.121  27.308  1.00  0.00     0.074 A 
ATOM     47  C   UNL A   1      41.165  32.180  30.565  1.00  0.00     0.029 A 
ATOM     48  N   UNL A   1      42.311  30.691  29.378  1.00  0.00    -0.354 N 
ATOM     49  N   UNL A   1      44.681  29.671  27.986  1.00  0.00    -0.248 NA
ATOM     50  C   UNL A   1      46.806  30.008  27.077  1.00  0.00     0.031 C 
ATOM     51  C   UNL A   1      42.388  32.752  30.204  1.00  0.00     0.029 A 
ATOM     52  C   UNL A   1      43.112  31.817  29.484  1.00  0.00     0.049 A 
ATOM     53  H   UNL A   1      42.560  29.862  28.908  1.00  0.00     0.167 HD
ATOM     54  C   UNL A   1      45.097  30.964  28.270  1.00  0.00     0.074 A 
ATOM     55  C   UNL A   1      46.426  31.108  27.711  1.00  0.00     0.031 C 
ATOM     56  C   UNL A   1      44.433  31.945  28.927  1.00  0.00     0.037 A 
BRANCH  43  57
ATOM     57  C   UNL A   1      38.804  30.336  30.881  1.00  0.00     0.057 A 
ATOM     58  C   UNL A   1      37.719  30.960  30.254  1.00  0.00     0.134 A 
ATOM     59  C   UNL A   1      38.671  30.024  32.242  1.00  0.00     0.134 A 
ATOM     60  F   UNL A   1      37.782  31.295  28.957  1.00  0.00    -0.206 F 
ATOM     61  C   UNL A   1      36.551  31.273  30.957  1.00  0.00     0.040 A 
ATOM     62  C   UNL A   1      37.501  30.309  32.947  1.00  0.00     0.040 A 
ATOM     63  F   UNL A   1      39.669  29.417  32.901  1.00  0.00    -0.206 F 
ATOM     64  C   UNL A   1      36.437  30.938  32.305  1.00  0.00     0.006 A 
ENDBRANCH  43  57
BRANCH  44  65
ATOM     65  C   UNL A   1      46.969  27.276  26.029  1.00  0.00     0.057 A 
ATOM     66  C   UNL A   1      47.998  26.633  26.725  1.00  0.00     0.134 A 
ATOM     67  C   UNL A   1      47.130  27.439  24.647  1.00  0.00     0.134 A 
ATOM     68  F   UNL A   1      47.915  26.469  28.053  1.00  0.00    -0.206 F 
ATOM     69  C   UNL A   1      49.142  26.168  26.073  1.00  0.00     0.040 A 
ATOM     70  C   UNL A   1      48.252  26.951  23.978  1.00  0.00     0.040 A 
ATOM     71  F   UNL A   1      46.180  28.046  23.921  1.00  0.00    -0.206 F 
ATOM     72  C   UNL A   1      49.265  26.316  24.693  1.00  0.00     0.006 A 
ENDBRANCH  44  65
BRANCH  56  73
ATOM     73  C   UNL A   1      45.136  33.257  29.098  1.00  0.00     0.057 A 
ATOM     74  C   UNL A   1      46.004  33.490  30.172  1.00  0.00     0.134 A 
ATOM     75  C   UNL A   1      44.997  34.272  28.144  1.00  0.00     0.134 A 
ATOM     76  F   UNL A   1      46.169  32.561  31.126  1.00  0.00    -0.206 F 
ATOM     77  C   UNL A   1      46.702  34.692  30.296  1.00  0.00     0.040 A 
ATOM     78  C   UNL A   1      45.707  35.469  28.244  1.00  0.00     0.040 A 
ATOM     79  F   UNL A   1      44.187  34.107  27.087  1.00  0.00    -0.206 F 
ATOM     80  C   UNL A   1      46.561  35.681  29.325  1.00  0.00     0.006 A 
ENDBRANCH  56  73
ENDBRANCH  30  31
ENDBRANCH  23  25
ENDBRANCH  22  23
ENDBRANCH   1  22
TORSDOF 12
ENDMDL
