MODEL 1
REMARK VINA RESULT:     -11.7      0.000      0.000
REMARK SMILES O=C(Cn1c2ccccc2c(=O)c2ccccc21)N[C@@H](Cc1ccccc1)C(=O)OCCOC(=O)c1ccc(-c2c3nc(c(-c4c(F)cccc4F)c4ccc([nH]4)c(-c4c(F)cccc4F)c4nc(c(-c5c(F)cccc5F)c5ccc2[nH]5)C=C4)C=C3)cc1
REMARK SMILES IDX 31 1 30 2 28 3 29 4 20 5 19 6 1 7 2 8 3 10 4 11 5 12 18 13
REMARK SMILES IDX 6 14 10 15 13 16 17 17 7 18 9 19 11 20 14 21 16 22 8 23
REMARK SMILES IDX 12 24 15 25 21 26 22 27 23 28 27 29 24 30 26 31 25 32 32 33
REMARK SMILES IDX 33 34 34 35 35 36 36 37 37 38 89 39 38 40 88 41 39 42 40 43
REMARK SMILES IDX 41 44 82 45 42 46 87 47 81 48 83 49 43 50 86 51 80 52 79 53
REMARK SMILES IDX 44 55 70 56 53 57 69 58 54 59 57 60 68 61 84 62 55 63 56 64
REMARK SMILES IDX 67 66 85 67 58 68 45 69 46 70 51 71 47 72 48 73 50 74 52 75
REMARK SMILES IDX 49 76 71 77 72 78 77 79 73 80 74 81 76 82 78 83 75 84 59 85
REMARK SMILES IDX 60 86 65 87 61 88 62 89 64 90 66 91 63 92
REMARK H PARENT 19 9 83 54 57 65
REMARK Flexibility Score: inf
ROOT
ATOM      1  C   UNL A   1      41.106  20.718  27.481  1.00  0.00     0.274 C 
ENDROOT
BRANCH   1   2
ATOM      2  O   UNL A   1      40.171  21.803  27.647  1.00  0.00    -0.461 OA
BRANCH   2   3
ATOM      3  C   UNL A   1      39.454  22.144  26.540  1.00  0.00     0.329 C 
ATOM      4  O   UNL A   1      39.331  21.427  25.548  1.00  0.00    -0.250 OA
BRANCH   3   5
ATOM      5  C   UNL A   1      38.889  23.571  26.596  1.00  0.00     0.196 C 
BRANCH   5   6
ATOM      6  N   UNL A   1      37.424  23.728  26.706  1.00  0.00    -0.341 N 
ATOM      7  O   UNL A   1      37.105  23.629  24.444  1.00  0.00    -0.273 OA
ATOM      8  C   UNL A   1      36.625  23.736  25.576  1.00  0.00     0.240 C 
ATOM      9  H   UNL A   1      37.012  23.828  27.594  1.00  0.00     0.164 HD
BRANCH   8  10
ATOM     10  C   UNL A   1      35.133  24.067  25.747  1.00  0.00     0.222 C 
BRANCH  10  11
ATOM     11  N   UNL A   1      34.336  24.305  24.526  1.00  0.00    -0.331 N 
ATOM     12  C   UNL A   1      33.682  23.192  23.937  1.00  0.00     0.053 A 
ATOM     13  C   UNL A   1      33.981  25.600  24.101  1.00  0.00     0.053 A 
ATOM     14  C   UNL A   1      33.398  22.002  24.625  1.00  0.00     0.027 A 
ATOM     15  C   UNL A   1      33.182  23.309  22.625  1.00  0.00     0.046 A 
ATOM     16  C   UNL A   1      33.582  25.792  22.762  1.00  0.00     0.046 A 
ATOM     17  C   UNL A   1      33.906  26.711  24.947  1.00  0.00     0.027 A 
ATOM     18  C   UNL A   1      32.633  20.988  24.032  1.00  0.00     0.002 A 
ATOM     19  C   UNL A   1      32.437  22.291  22.018  1.00  0.00     0.014 A 
ATOM     20  C   UNL A   1      33.372  24.595  21.917  1.00  0.00     0.197 A 
ATOM     21  C   UNL A   1      33.268  27.054  22.245  1.00  0.00     0.014 A 
ATOM     22  C   UNL A   1      33.531  27.972  24.452  1.00  0.00     0.002 A 
ATOM     23  C   UNL A   1      32.153  21.131  22.731  1.00  0.00     0.001 A 
ATOM     24  O   UNL A   1      33.258  24.675  20.699  1.00  0.00    -0.288 OA
ATOM     25  C   UNL A   1      33.253  28.152  23.098  1.00  0.00     0.001 A 
ENDBRANCH  10  11
ENDBRANCH   8  10
ENDBRANCH   5   6
BRANCH   5  26
ATOM     26  C   UNL A   1      39.655  24.375  27.666  1.00  0.00     0.072 C 
BRANCH  26  27
ATOM     27  C   UNL A   1      40.065  25.762  27.227  1.00  0.00    -0.045 A 
ATOM     28  C   UNL A   1      39.600  26.888  27.915  1.00  0.00     0.004 A 
ATOM     29  C   UNL A   1      40.937  25.939  26.142  1.00  0.00     0.004 A 
ATOM     30  C   UNL A   1      40.026  28.164  27.543  1.00  0.00     0.000 A 
ATOM     31  C   UNL A   1      41.379  27.212  25.786  1.00  0.00     0.000 A 
ATOM     32  C   UNL A   1      40.924  28.325  26.488  1.00  0.00     0.000 A 
ENDBRANCH  26  27
ENDBRANCH   5  26
ENDBRANCH   3   5
ENDBRANCH   2   3
ENDBRANCH   1   2
BRANCH   1  33
ATOM     33  C   UNL A   1      42.563  21.211  27.472  1.00  0.00     0.275 C 
BRANCH  33  34
ATOM     34  O   UNL A   1      42.681  22.644  27.336  1.00  0.00    -0.458 OA
BRANCH  34  35
ATOM     35  C   UNL A   1      43.058  23.036  26.098  1.00  0.00     0.338 C 
ATOM     36  O   UNL A   1      42.653  22.566  25.050  1.00  0.00    -0.246 OA
BRANCH  35  37
ATOM     37  C   UNL A   1      43.956  24.200  26.113  1.00  0.00     0.060 A 
ATOM     38  C   UNL A   1      44.346  24.848  24.941  1.00  0.00     0.016 A 
ATOM     39  C   UNL A   1      44.323  24.712  27.363  1.00  0.00     0.016 A 
ATOM     40  C   UNL A   1      45.129  26.004  25.029  1.00  0.00     0.010 A 
ATOM     41  C   UNL A   1      45.103  25.858  27.452  1.00  0.00     0.010 A 
ATOM     42  C   UNL A   1      45.523  26.501  26.283  1.00  0.00    -0.014 A 
BRANCH  42  43
ATOM     43  C   UNL A   1      46.425  27.666  26.382  1.00  0.00     0.031 A 
ATOM     44  C   UNL A   1      47.907  27.446  26.377  1.00  0.00     0.074 A 
ATOM     45  C   UNL A   1      45.916  28.904  26.507  1.00  0.00     0.049 A 
ATOM     46  N   UNL A   1      48.873  28.327  26.340  1.00  0.00    -0.248 NA
ATOM     47  C   UNL A   1      48.364  26.049  26.431  1.00  0.00     0.031 C 
ATOM     48  C   UNL A   1      44.492  29.227  26.595  1.00  0.00     0.029 A 
ATOM     49  N   UNL A   1      46.544  30.118  26.586  1.00  0.00    -0.354 N 
ATOM     50  C   UNL A   1      50.050  27.591  26.333  1.00  0.00     0.074 A 
ATOM     51  C   UNL A   1      49.681  26.197  26.436  1.00  0.00     0.031 C 
ATOM     52  C   UNL A   1      44.355  30.561  26.701  1.00  0.00     0.029 A 
ATOM     53  C   UNL A   1      45.678  31.179  26.683  1.00  0.00     0.049 A 
ATOM     54  H   UNL A   1      47.524  30.221  26.575  1.00  0.00     0.167 HD
ATOM     55  C   UNL A   1      51.322  28.040  26.222  1.00  0.00     0.037 A 
ATOM     56  C   UNL A   1      45.934  32.499  26.730  1.00  0.00     0.037 A 
ATOM     57  C   UNL A   1      51.683  29.430  26.153  1.00  0.00     0.049 A 
ATOM     58  C   UNL A   1      47.358  32.975  26.633  1.00  0.00     0.074 A 
ATOM     59  C   UNL A   1      52.936  29.993  25.994  1.00  0.00     0.029 A 
ATOM     60  N   UNL A   1      50.780  30.478  26.258  1.00  0.00    -0.354 N 
ATOM     61  N   UNL A   1      48.458  32.273  26.502  1.00  0.00    -0.248 NA
ATOM     62  C   UNL A   1      47.572  34.428  26.674  1.00  0.00     0.031 C 
ATOM     63  C   UNL A   1      52.795  31.387  26.037  1.00  0.00     0.029 A 
ATOM     64  C   UNL A   1      51.450  31.687  26.190  1.00  0.00     0.049 A 
ATOM     65  H   UNL A   1      49.807  30.376  26.364  1.00  0.00     0.167 HD
ATOM     66  C   UNL A   1      49.491  33.196  26.416  1.00  0.00     0.074 A 
ATOM     67  C   UNL A   1      48.884  34.509  26.500  1.00  0.00     0.031 C 
ATOM     68  C   UNL A   1      50.822  32.980  26.276  1.00  0.00     0.037 A 
BRANCH  55  69
ATOM     69  C   UNL A   1      52.403  27.003  26.158  1.00  0.00     0.057 A 
ATOM     70  C   UNL A   1      52.753  26.396  24.947  1.00  0.00     0.134 A 
ATOM     71  C   UNL A   1      53.103  26.611  27.307  1.00  0.00     0.134 A 
ATOM     72  F   UNL A   1      52.121  26.726  23.812  1.00  0.00    -0.206 F 
ATOM     73  C   UNL A   1      53.769  25.440  24.881  1.00  0.00     0.040 A 
ATOM     74  C   UNL A   1      54.133  25.672  27.250  1.00  0.00     0.040 A 
ATOM     75  F   UNL A   1      52.824  27.168  28.496  1.00  0.00    -0.206 F 
ATOM     76  C   UNL A   1      54.468  25.082  26.033  1.00  0.00     0.006 A 
ENDBRANCH  55  69
BRANCH  56  77
ATOM     77  C   UNL A   1      44.818  33.471  26.813  1.00  0.00     0.057 A 
ATOM     78  C   UNL A   1      44.166  33.936  25.666  1.00  0.00     0.134 A 
ATOM     79  C   UNL A   1      44.366  33.942  28.052  1.00  0.00     0.134 A 
ATOM     80  F   UNL A   1      44.555  33.524  24.452  1.00  0.00    -0.206 F 
ATOM     81  C   UNL A   1      43.100  34.834  25.748  1.00  0.00     0.040 A 
ATOM     82  C   UNL A   1      43.291  34.826  28.148  1.00  0.00     0.040 A 
ATOM     83  F   UNL A   1      44.941  33.516  29.186  1.00  0.00    -0.206 F 
ATOM     84  C   UNL A   1      42.656  35.277  26.992  1.00  0.00     0.006 A 
ENDBRANCH  56  77
BRANCH  68  85
ATOM     85  C   UNL A   1      51.699  34.192  26.186  1.00  0.00     0.057 A 
ATOM     86  C   UNL A   1      52.051  34.727  24.940  1.00  0.00     0.134 A 
ATOM     87  C   UNL A   1      52.215  34.811  27.330  1.00  0.00     0.134 A 
ATOM     88  F   UNL A   1      51.593  34.175  23.807  1.00  0.00    -0.206 F 
ATOM     89  C   UNL A   1      52.889  35.838  24.837  1.00  0.00     0.040 A 
ATOM     90  C   UNL A   1      53.037  35.936  27.240  1.00  0.00     0.040 A 
ATOM     91  F   UNL A   1      51.900  34.354  28.551  1.00  0.00    -0.206 F 
ATOM     92  C   UNL A   1      53.379  36.448  25.990  1.00  0.00     0.006 A 
ENDBRANCH  68  85
ENDBRANCH  42  43
ENDBRANCH  35  37
ENDBRANCH  34  35
ENDBRANCH  33  34
ENDBRANCH   1  33
TORSDOF 16
ENDMDL
MODEL 2
REMARK VINA RESULT:     -11.6      4.555     11.125
REMARK SMILES O=C(Cn1c2ccccc2c(=O)c2ccccc21)N[C@@H](Cc1ccccc1)C(=O)OCCOC(=O)c1ccc(-c2c3nc(c(-c4c(F)cccc4F)c4ccc([nH]4)c(-c4c(F)cccc4F)c4nc(c(-c5c(F)cccc5F)c5ccc2[nH]5)C=C4)C=C3)cc1
REMARK SMILES IDX 31 1 30 2 28 3 29 4 20 5 19 6 1 7 2 8 3 10 4 11 5 12 18 13
REMARK SMILES IDX 6 14 10 15 13 16 17 17 7 18 9 19 11 20 14 21 16 22 8 23
REMARK SMILES IDX 12 24 15 25 21 26 22 27 23 28 27 29 24 30 26 31 25 32 32 33
REMARK SMILES IDX 33 34 34 35 35 36 36 37 37 38 89 39 38 40 88 41 39 42 40 43
REMARK SMILES IDX 41 44 82 45 42 46 87 47 81 48 83 49 43 50 86 51 80 52 79 53
REMARK SMILES IDX 44 55 70 56 53 57 69 58 54 59 57 60 68 61 84 62 55 63 56 64
REMARK SMILES IDX 67 66 85 67 58 68 45 69 46 70 51 71 47 72 48 73 50 74 52 75
REMARK SMILES IDX 49 76 71 77 72 78 77 79 73 80 74 81 76 82 78 83 75 84 59 85
REMARK SMILES IDX 60 86 65 87 61 88 62 89 64 90 66 91 63 92
REMARK H PARENT 19 9 83 54 57 65
REMARK Flexibility Score: inf
ROOT
ATOM      1  C   UNL A   1      41.366  20.001  26.325  1.00  0.00     0.274 C 
ENDROOT
BRANCH   1   2
ATOM      2  O   UNL A   1      42.264  20.812  27.108  1.00  0.00    -0.461 OA
BRANCH   2   3
ATOM      3  C   UNL A   1      43.017  21.708  26.411  1.00  0.00     0.329 C 
ATOM      4  O   UNL A   1      43.213  21.650  25.198  1.00  0.00    -0.250 OA
BRANCH   3   5
ATOM      5  C   UNL A   1      43.698  22.756  27.303  1.00  0.00     0.196 C 
BRANCH   5   6
ATOM      6  N   UNL A   1      44.348  23.907  26.642  1.00  0.00    -0.341 N 
ATOM      7  O   UNL A   1      46.338  22.811  26.386  1.00  0.00    -0.273 OA
ATOM      8  C   UNL A   1      45.663  23.830  26.216  1.00  0.00     0.240 C 
ATOM      9  H   UNL A   1      43.840  24.737  26.503  1.00  0.00     0.164 HD
BRANCH   8  10
ATOM     10  C   UNL A   1      46.328  25.110  25.686  1.00  0.00     0.222 C 
BRANCH  10  11
ATOM     11  N   UNL A   1      47.701  25.413  26.144  1.00  0.00    -0.331 N 
ATOM     12  C   UNL A   1      48.610  25.943  25.193  1.00  0.00     0.053 A 
ATOM     13  C   UNL A   1      48.045  25.461  27.507  1.00  0.00     0.053 A 
ATOM     14  C   UNL A   1      48.214  26.572  24.001  1.00  0.00     0.027 A 
ATOM     15  C   UNL A   1      49.987  25.952  25.495  1.00  0.00     0.046 A 
ATOM     16  C   UNL A   1      49.404  25.358  27.871  1.00  0.00     0.046 A 
ATOM     17  C   UNL A   1      47.133  25.699  28.541  1.00  0.00     0.027 A 
ATOM     18  C   UNL A   1      49.151  27.193  23.164  1.00  0.00     0.002 A 
ATOM     19  C   UNL A   1      50.931  26.550  24.652  1.00  0.00     0.014 A 
ATOM     20  C   UNL A   1      50.420  25.395  26.795  1.00  0.00     0.197 A 
ATOM     21  C   UNL A   1      49.825  25.339  29.205  1.00  0.00     0.014 A 
ATOM     22  C   UNL A   1      47.553  25.746  29.881  1.00  0.00     0.002 A 
ATOM     23  C   UNL A   1      50.507  27.184  23.488  1.00  0.00     0.001 A 
ATOM     24  O   UNL A   1      51.587  25.078  26.997  1.00  0.00    -0.288 OA
ATOM     25  C   UNL A   1      48.889  25.525  30.216  1.00  0.00     0.001 A 
ENDBRANCH  10  11
ENDBRANCH   8  10
ENDBRANCH   5   6
BRANCH   5  26
ATOM     26  C   UNL A   1      42.718  23.186  28.413  1.00  0.00     0.072 C 
BRANCH  26  27
ATOM     27  C   UNL A   1      43.379  23.827  29.613  1.00  0.00    -0.045 A 
ATOM     28  C   UNL A   1      43.425  25.220  29.735  1.00  0.00     0.004 A 
ATOM     29  C   UNL A   1      43.931  23.035  30.632  1.00  0.00     0.004 A 
ATOM     30  C   UNL A   1      43.985  25.807  30.870  1.00  0.00     0.000 A 
ATOM     31  C   UNL A   1      44.470  23.624  31.775  1.00  0.00     0.000 A 
ATOM     32  C   UNL A   1      44.495  25.010  31.894  1.00  0.00     0.000 A 
ENDBRANCH  26  27
ENDBRANCH   5  26
ENDBRANCH   3   5
ENDBRANCH   2   3
ENDBRANCH   1   2
BRANCH   1  33
ATOM     33  C   UNL A   1      40.009  20.690  26.109  1.00  0.00     0.275 C 
BRANCH  33  34
ATOM     34  O   UNL A   1      39.760  21.768  27.038  1.00  0.00    -0.458 OA
BRANCH  34  35
ATOM     35  C   UNL A   1      39.069  22.796  26.496  1.00  0.00     0.338 C 
ATOM     36  O   UNL A   1      38.045  22.697  25.846  1.00  0.00    -0.246 OA
BRANCH  35  37
ATOM     37  C   UNL A   1      39.617  24.111  26.859  1.00  0.00     0.060 A 
ATOM     38  C   UNL A   1      40.237  24.938  25.922  1.00  0.00     0.016 A 
ATOM     39  C   UNL A   1      39.394  24.561  28.166  1.00  0.00     0.016 A 
ATOM     40  C   UNL A   1      40.657  26.214  26.311  1.00  0.00     0.010 A 
ATOM     41  C   UNL A   1      39.813  25.827  28.554  1.00  0.00     0.010 A 
ATOM     42  C   UNL A   1      40.460  26.655  27.631  1.00  0.00    -0.014 A 
BRANCH  42  43
ATOM     43  C   UNL A   1      40.981  27.964  28.073  1.00  0.00     0.031 A 
ATOM     44  C   UNL A   1      40.024  29.001  28.577  1.00  0.00     0.074 A 
ATOM     45  C   UNL A   1      42.297  28.228  27.992  1.00  0.00     0.049 A 
ATOM     46  N   UNL A   1      40.275  30.166  29.115  1.00  0.00    -0.248 NA
ATOM     47  C   UNL A   1      38.591  28.691  28.447  1.00  0.00     0.031 C 
ATOM     48  C   UNL A   1      43.309  27.320  27.452  1.00  0.00     0.029 A 
ATOM     49  N   UNL A   1      43.003  29.341  28.361  1.00  0.00    -0.354 N 
ATOM     50  C   UNL A   1      39.036  30.712  29.419  1.00  0.00     0.074 A 
ATOM     51  C   UNL A   1      38.033  29.784  28.946  1.00  0.00     0.031 C 
ATOM     52  C   UNL A   1      44.514  27.911  27.540  1.00  0.00     0.029 A 
ATOM     53  C   UNL A   1      44.354  29.231  28.144  1.00  0.00     0.049 A 
ATOM     54  H   UNL A   1      42.583  30.145  28.744  1.00  0.00     0.167 HD
ATOM     55  C   UNL A   1      38.762  31.872  30.061  1.00  0.00     0.037 A 
ATOM     56  C   UNL A   1      45.346  30.095  28.426  1.00  0.00     0.037 A 
ATOM     57  C   UNL A   1      39.764  32.806  30.500  1.00  0.00     0.049 A 
ATOM     58  C   UNL A   1      45.016  31.391  29.114  1.00  0.00     0.074 A 
ATOM     59  C   UNL A   1      39.601  33.988  31.198  1.00  0.00     0.029 A 
ATOM     60  N   UNL A   1      41.124  32.664  30.261  1.00  0.00    -0.354 N 
ATOM     61  N   UNL A   1      43.852  31.846  29.510  1.00  0.00    -0.248 NA
ATOM     62  C   UNL A   1      46.143  32.286  29.410  1.00  0.00     0.031 C 
ATOM     63  C   UNL A   1      40.861  34.580  31.352  1.00  0.00     0.029 A 
ATOM     64  C   UNL A   1      41.810  33.748  30.778  1.00  0.00     0.049 A 
ATOM     65  H   UNL A   1      41.538  31.903  29.792  1.00  0.00     0.167 HD
ATOM     66  C   UNL A   1      44.106  33.063  30.126  1.00  0.00     0.074 A 
ATOM     67  C   UNL A   1      45.539  33.272  30.060  1.00  0.00     0.031 C 
ATOM     68  C   UNL A   1      43.237  33.931  30.699  1.00  0.00     0.037 A 
BRANCH  55  69
ATOM     69  C   UNL A   1      37.319  32.174  30.329  1.00  0.00     0.057 A 
ATOM     70  C   UNL A   1      36.688  31.719  31.492  1.00  0.00     0.134 A 
ATOM     71  C   UNL A   1      36.554  32.927  29.427  1.00  0.00     0.134 A 
ATOM     72  F   UNL A   1      37.363  30.994  32.395  1.00  0.00    -0.206 F 
ATOM     73  C   UNL A   1      35.347  32.010  31.753  1.00  0.00     0.040 A 
ATOM     74  C   UNL A   1      35.219  33.241  29.687  1.00  0.00     0.040 A 
ATOM     75  F   UNL A   1      37.107  33.405  28.301  1.00  0.00    -0.206 F 
ATOM     76  C   UNL A   1      34.612  32.780  30.853  1.00  0.00     0.006 A 
ENDBRANCH  55  69
BRANCH  56  77
ATOM     77  C   UNL A   1      46.752  29.742  28.116  1.00  0.00     0.057 A 
ATOM     78  C   UNL A   1      47.631  29.299  29.110  1.00  0.00     0.134 A 
ATOM     79  C   UNL A   1      47.242  29.822  26.807  1.00  0.00     0.134 A 
ATOM     80  F   UNL A   1      47.222  29.203  30.383  1.00  0.00    -0.206 F 
ATOM     81  C   UNL A   1      48.948  28.945  28.813  1.00  0.00     0.040 A 
ATOM     82  C   UNL A   1      48.550  29.455  26.493  1.00  0.00     0.040 A 
ATOM     83  F   UNL A   1      46.438  30.223  25.811  1.00  0.00    -0.206 F 
ATOM     84  C   UNL A   1      49.409  29.018  27.500  1.00  0.00     0.006 A 
ENDBRANCH  56  77
BRANCH  68  85
ATOM     85  C   UNL A   1      43.819  35.168  31.312  1.00  0.00     0.057 A 
ATOM     86  C   UNL A   1      44.239  35.172  32.648  1.00  0.00     0.134 A 
ATOM     87  C   UNL A   1      43.938  36.360  30.589  1.00  0.00     0.134 A 
ATOM     88  F   UNL A   1      44.146  34.062  33.395  1.00  0.00    -0.206 F 
ATOM     89  C   UNL A   1      44.758  36.322  33.243  1.00  0.00     0.040 A 
ATOM     90  C   UNL A   1      44.474  37.511  31.167  1.00  0.00     0.040 A 
ATOM     91  F   UNL A   1      43.566  36.413  29.300  1.00  0.00    -0.206 F 
ATOM     92  C   UNL A   1      44.882  37.495  32.499  1.00  0.00     0.006 A 
ENDBRANCH  68  85
ENDBRANCH  42  43
ENDBRANCH  35  37
ENDBRANCH  34  35
ENDBRANCH  33  34
ENDBRANCH   1  33
TORSDOF 16
ENDMDL
MODEL 3
REMARK VINA RESULT:     -11.6      4.671      8.596
REMARK SMILES O=C(Cn1c2ccccc2c(=O)c2ccccc21)N[C@@H](Cc1ccccc1)C(=O)OCCOC(=O)c1ccc(-c2c3nc(c(-c4c(F)cccc4F)c4ccc([nH]4)c(-c4c(F)cccc4F)c4nc(c(-c5c(F)cccc5F)c5ccc2[nH]5)C=C4)C=C3)cc1
REMARK SMILES IDX 31 1 30 2 28 3 29 4 20 5 19 6 1 7 2 8 3 10 4 11 5 12 18 13
REMARK SMILES IDX 6 14 10 15 13 16 17 17 7 18 9 19 11 20 14 21 16 22 8 23
REMARK SMILES IDX 12 24 15 25 21 26 22 27 23 28 27 29 24 30 26 31 25 32 32 33
REMARK SMILES IDX 33 34 34 35 35 36 36 37 37 38 89 39 38 40 88 41 39 42 40 43
REMARK SMILES IDX 41 44 82 45 42 46 87 47 81 48 83 49 43 50 86 51 80 52 79 53
REMARK SMILES IDX 44 55 70 56 53 57 69 58 54 59 57 60 68 61 84 62 55 63 56 64
REMARK SMILES IDX 67 66 85 67 58 68 45 69 46 70 51 71 47 72 48 73 50 74 52 75
REMARK SMILES IDX 49 76 71 77 72 78 77 79 73 80 74 81 76 82 78 83 75 84 59 85
REMARK SMILES IDX 60 86 65 87 61 88 62 89 64 90 66 91 63 92
REMARK H PARENT 19 9 83 54 57 65
REMARK Flexibility Score: inf
ROOT
ATOM      1  C   UNL A   1      32.142  28.121  26.476  1.00  0.00     0.274 C 
ENDROOT
BRANCH   1   2
ATOM      2  O   UNL A   1      31.273  27.097  27.002  1.00  0.00    -0.461 OA
BRANCH   2   3
ATOM      3  C   UNL A   1      31.346  25.883  26.388  1.00  0.00     0.329 C 
ATOM      4  O   UNL A   1      31.373  24.808  26.984  1.00  0.00    -0.250 OA
BRANCH   3   5
ATOM      5  C   UNL A   1      31.500  25.981  24.863  1.00  0.00     0.196 C 
BRANCH   5   6
ATOM      6  N   UNL A   1      32.373  24.993  24.194  1.00  0.00    -0.341 N 
ATOM      7  O   UNL A   1      34.254  25.721  25.270  1.00  0.00    -0.273 OA
ATOM      8  C   UNL A   1      33.727  24.941  24.471  1.00  0.00     0.240 C 
ATOM      9  H   UNL A   1      31.985  24.365  23.543  1.00  0.00     0.164 HD
BRANCH   8  10
ATOM     10  C   UNL A   1      34.604  24.004  23.624  1.00  0.00     0.222 C 
BRANCH  10  11
ATOM     11  N   UNL A   1      35.099  22.764  24.257  1.00  0.00    -0.331 N 
ATOM     12  C   UNL A   1      36.377  22.801  24.872  1.00  0.00     0.053 A 
ATOM     13  C   UNL A   1      34.259  21.664  24.513  1.00  0.00     0.053 A 
ATOM     14  C   UNL A   1      37.012  23.986  25.279  1.00  0.00     0.027 A 
ATOM     15  C   UNL A   1      37.012  21.588  25.203  1.00  0.00     0.046 A 
ATOM     16  C   UNL A   1      34.842  20.399  24.738  1.00  0.00     0.046 A 
ATOM     17  C   UNL A   1      32.870  21.751  24.653  1.00  0.00     0.027 A 
ATOM     18  C   UNL A   1      38.214  23.953  25.999  1.00  0.00     0.002 A 
ATOM     19  C   UNL A   1      38.225  21.548  25.902  1.00  0.00     0.014 A 
ATOM     20  C   UNL A   1      36.313  20.324  24.884  1.00  0.00     0.197 A 
ATOM     21  C   UNL A   1      34.077  19.245  24.943  1.00  0.00     0.014 A 
ATOM     22  C   UNL A   1      32.097  20.609  24.922  1.00  0.00     0.002 A 
ATOM     23  C   UNL A   1      38.819  22.737  26.312  1.00  0.00     0.001 A 
ATOM     24  O   UNL A   1      36.912  19.255  24.845  1.00  0.00    -0.288 OA
ATOM     25  C   UNL A   1      32.693  19.353  25.025  1.00  0.00     0.001 A 
ENDBRANCH  10  11
ENDBRANCH   8  10
ENDBRANCH   5   6
BRANCH   5  26
ATOM     26  C   UNL A   1      30.102  26.069  24.219  1.00  0.00     0.072 C 
BRANCH  26  27
ATOM     27  C   UNL A   1      29.818  27.384  23.529  1.00  0.00    -0.045 A 
ATOM     28  C   UNL A   1      30.866  28.150  23.006  1.00  0.00     0.004 A 
ATOM     29  C   UNL A   1      28.500  27.842  23.378  1.00  0.00     0.004 A 
ATOM     30  C   UNL A   1      30.596  29.334  22.319  1.00  0.00     0.000 A 
ATOM     31  C   UNL A   1      28.231  29.014  22.673  1.00  0.00     0.000 A 
ATOM     32  C   UNL A   1      29.280  29.759  22.142  1.00  0.00     0.000 A 
ENDBRANCH  26  27
ENDBRANCH   5  26
ENDBRANCH   3   5
ENDBRANCH   2   3
ENDBRANCH   1   2
BRANCH   1  33
ATOM     33  C   UNL A   1      33.157  28.607  27.524  1.00  0.00     0.275 C 
BRANCH  33  34
ATOM     34  O   UNL A   1      34.244  29.370  26.956  1.00  0.00    -0.458 OA
BRANCH  34  35
ATOM     35  C   UNL A   1      34.767  30.278  27.811  1.00  0.00     0.338 C 
ATOM     36  O   UNL A   1      34.179  31.240  28.271  1.00  0.00    -0.246 OA
BRANCH  35  37
ATOM     37  C   UNL A   1      36.129  29.940  28.246  1.00  0.00     0.060 A 
ATOM     38  C   UNL A   1      36.394  29.425  29.515  1.00  0.00     0.016 A 
ATOM     39  C   UNL A   1      37.152  30.046  27.295  1.00  0.00     0.016 A 
ATOM     40  C   UNL A   1      37.700  29.039  29.836  1.00  0.00     0.010 A 
ATOM     41  C   UNL A   1      38.450  29.666  27.614  1.00  0.00     0.010 A 
ATOM     42  C   UNL A   1      38.732  29.173  28.892  1.00  0.00    -0.014 A 
BRANCH  42  43
ATOM     43  C   UNL A   1      40.128  28.854  29.253  1.00  0.00     0.031 A 
ATOM     44  C   UNL A   1      40.704  27.531  28.850  1.00  0.00     0.074 A 
ATOM     45  C   UNL A   1      40.858  29.731  29.964  1.00  0.00     0.049 A 
ATOM     46  N   UNL A   1      41.932  27.094  28.965  1.00  0.00    -0.248 NA
ATOM     47  C   UNL A   1      39.772  26.565  28.248  1.00  0.00     0.031 C 
ATOM     48  C   UNL A   1      40.377  31.017  30.470  1.00  0.00     0.029 A 
ATOM     49  N   UNL A   1      42.160  29.668  30.385  1.00  0.00    -0.354 N 
ATOM     50  C   UNL A   1      41.927  25.818  28.419  1.00  0.00     0.074 A 
ATOM     51  C   UNL A   1      40.564  25.524  28.034  1.00  0.00     0.031 C 
ATOM     52  C   UNL A   1      41.380  31.630  31.123  1.00  0.00     0.029 A 
ATOM     53  C   UNL A   1      42.568  30.782  31.075  1.00  0.00     0.049 A 
ATOM     54  H   UNL A   1      42.747  28.897  30.210  1.00  0.00     0.167 HD
ATOM     55  C   UNL A   1      42.972  24.980  28.231  1.00  0.00     0.037 A 
ATOM     56  C   UNL A   1      43.775  31.084  31.588  1.00  0.00     0.037 A 
ATOM     57  C   UNL A   1      44.320  25.265  28.645  1.00  0.00     0.049 A 
ATOM     58  C   UNL A   1      44.917  30.125  31.391  1.00  0.00     0.074 A 
ATOM     59  C   UNL A   1      45.462  24.507  28.465  1.00  0.00     0.029 A 
ATOM     60  N   UNL A   1      44.697  26.403  29.345  1.00  0.00    -0.354 N 
ATOM     61  N   UNL A   1      44.932  28.973  30.764  1.00  0.00    -0.248 NA
ATOM     62  C   UNL A   1      46.214  30.517  31.959  1.00  0.00     0.031 C 
ATOM     63  C   UNL A   1      46.527  25.172  29.086  1.00  0.00     0.029 A 
ATOM     64  C   UNL A   1      46.052  26.357  29.624  1.00  0.00     0.049 A 
ATOM     65  H   UNL A   1      44.091  27.134  29.604  1.00  0.00     0.167 HD
ATOM     66  C   UNL A   1      46.241  28.516  30.837  1.00  0.00     0.074 A 
ATOM     67  C   UNL A   1      46.993  29.521  31.561  1.00  0.00     0.031 C 
ATOM     68  C   UNL A   1      46.776  27.371  30.346  1.00  0.00     0.037 A 
BRANCH  55  69
ATOM     69  C   UNL A   1      42.685  23.684  27.535  1.00  0.00     0.057 A 
ATOM     70  C   UNL A   1      42.752  23.579  26.142  1.00  0.00     0.134 A 
ATOM     71  C   UNL A   1      42.346  22.530  28.257  1.00  0.00     0.134 A 
ATOM     72  F   UNL A   1      43.070  24.645  25.393  1.00  0.00    -0.206 F 
ATOM     73  C   UNL A   1      42.499  22.370  25.490  1.00  0.00     0.040 A 
ATOM     74  C   UNL A   1      42.110  21.313  27.618  1.00  0.00     0.040 A 
ATOM     75  F   UNL A   1      42.280  22.563  29.597  1.00  0.00    -0.206 F 
ATOM     76  C   UNL A   1      42.185  21.231  26.230  1.00  0.00     0.006 A 
ENDBRANCH  55  69
BRANCH  56  77
ATOM     77  C   UNL A   1      43.986  32.377  32.282  1.00  0.00     0.057 A 
ATOM     78  C   UNL A   1      44.373  33.527  31.585  1.00  0.00     0.134 A 
ATOM     79  C   UNL A   1      43.786  32.491  33.663  1.00  0.00     0.134 A 
ATOM     80  F   UNL A   1      44.582  33.479  30.263  1.00  0.00    -0.206 F 
ATOM     81  C   UNL A   1      44.550  34.748  32.238  1.00  0.00     0.040 A 
ATOM     82  C   UNL A   1      43.943  33.710  34.324  1.00  0.00     0.040 A 
ATOM     83  F   UNL A   1      43.398  31.426  34.378  1.00  0.00    -0.206 F 
ATOM     84  C   UNL A   1      44.329  34.843  33.610  1.00  0.00     0.006 A 
ENDBRANCH  56  77
BRANCH  68  85
ATOM     85  C   UNL A   1      48.244  27.163  30.564  1.00  0.00     0.057 A 
ATOM     86  C   UNL A   1      49.177  27.645  29.638  1.00  0.00     0.134 A 
ATOM     87  C   UNL A   1      48.730  26.462  31.673  1.00  0.00     0.134 A 
ATOM     88  F   UNL A   1      48.774  28.320  28.551  1.00  0.00    -0.206 F 
ATOM     89  C   UNL A   1      50.546  27.437  29.809  1.00  0.00     0.040 A 
ATOM     90  C   UNL A   1      50.098  26.265  31.866  1.00  0.00     0.040 A 
ATOM     91  F   UNL A   1      47.885  25.989  32.602  1.00  0.00    -0.206 F 
ATOM     92  C   UNL A   1      51.009  26.749  30.930  1.00  0.00     0.006 A 
ENDBRANCH  68  85
ENDBRANCH  42  43
ENDBRANCH  35  37
ENDBRANCH  34  35
ENDBRANCH  33  34
ENDBRANCH   1  33
TORSDOF 16
ENDMDL
