MODEL 1
REMARK VINA RESULT:      -9.8      0.000      0.000
REMARK SMILES CC(=O)Oc1ccccc1SCCCCCC(=O)OCCOC(=O)c1ccc(-c2c3nc(c(-c4c(F)cccc4F)c4ccc([nH]4)c(-c4c(F)cccc4F)c4nc(c(-c5c(F)cccc5F)c5ccc2[nH]5)C=C4)C=C3)cc1
REMARK SMILES IDX 16 1 15 2 14 3 13 4 12 5 11 6 10 7 5 8 6 9 7 10 9 11 8 12
REMARK SMILES IDX 4 13 2 14 1 15 3 16 17 17 18 18 19 19 20 20 21 21 22 22
REMARK SMILES IDX 23 23 24 24 25 25 26 26 78 27 27 28 77 29 28 30 29 31 30 32
REMARK SMILES IDX 71 33 31 34 76 35 70 36 72 37 32 38 75 39 69 40 68 41 33 43
REMARK SMILES IDX 59 44 42 45 58 46 43 47 46 48 57 49 73 50 44 51 45 52 56 54
REMARK SMILES IDX 74 55 47 56 34 57 35 58 40 59 36 60 37 61 39 62 41 63 38 64
REMARK SMILES IDX 60 65 61 66 66 67 62 68 63 69 65 70 67 71 64 72 48 73 49 74
REMARK SMILES IDX 54 75 50 76 51 77 53 78 55 79 52 80
REMARK H PARENT 72 42 46 53
REMARK Flexibility Score: inf
ROOT
ATOM      1  C   UNL A   1      39.470  21.202  25.815  1.00  0.00     0.123 C 
ENDROOT
BRANCH   1   2
ATOM      2  C   UNL A   1      39.097  22.608  26.334  1.00  0.00     0.012 C 
BRANCH   2   3
ATOM      3  C   UNL A   1      37.814  23.286  25.796  1.00  0.00     0.001 C 
BRANCH   3   4
ATOM      4  C   UNL A   1      36.439  22.596  25.728  1.00  0.00     0.011 C 
BRANCH   4   5
ATOM      5  C   UNL A   1      35.209  22.858  26.630  1.00  0.00     0.075 C 
BRANCH   5   6
ATOM      6  S   UNL A   1      33.867  21.696  27.121  1.00  0.00    -0.122 SA
BRANCH   6   7
ATOM      7  C   UNL A   1      33.226  20.953  25.639  1.00  0.00     0.050 A 
ATOM      8  C   UNL A   1      32.856  21.582  24.441  1.00  0.00     0.144 A 
ATOM      9  C   UNL A   1      32.514  20.818  23.313  1.00  0.00     0.048 A 
ATOM     10  C   UNL A   1      32.423  19.426  23.412  1.00  0.00     0.004 A 
ATOM     11  C   UNL A   1      32.992  19.570  25.745  1.00  0.00     0.019 A 
ATOM     12  C   UNL A   1      32.593  18.809  24.646  1.00  0.00     0.001 A 
BRANCH   8  13
ATOM     13  O   UNL A   1      32.624  22.977  24.361  1.00  0.00    -0.426 OA
BRANCH  13  14
ATOM     14  C   UNL A   1      31.302  23.294  24.423  1.00  0.00     0.308 C 
ATOM     15  C   UNL A   1      30.653  23.121  25.742  1.00  0.00     0.139 C 
ATOM     16  O   UNL A   1      30.638  23.707  23.483  1.00  0.00    -0.252 OA
ENDBRANCH  13  14
ENDBRANCH   8  13
ENDBRANCH   6   7
ENDBRANCH   5   6
ENDBRANCH   4   5
ENDBRANCH   3   4
ENDBRANCH   2   3
ENDBRANCH   1   2
BRANCH   1  17
ATOM     17  C   UNL A   1      40.578  20.542  26.582  1.00  0.00     0.305 C 
ATOM     18  O   UNL A   1      40.758  20.689  27.784  1.00  0.00    -0.252 OA
BRANCH  17  19
ATOM     19  O   UNL A   1      41.361  19.814  25.748  1.00  0.00    -0.462 OA
BRANCH  19  20
ATOM     20  C   UNL A   1      42.745  19.765  26.122  1.00  0.00     0.274 C 
BRANCH  20  21
ATOM     21  C   UNL A   1      43.498  20.901  25.420  1.00  0.00     0.275 C 
BRANCH  21  22
ATOM     22  O   UNL A   1      43.510  22.072  26.265  1.00  0.00    -0.458 OA
BRANCH  22  23
ATOM     23  C   UNL A   1      43.169  23.242  25.679  1.00  0.00     0.338 C 
ATOM     24  O   UNL A   1      43.166  23.505  24.489  1.00  0.00    -0.246 OA
BRANCH  23  25
ATOM     25  C   UNL A   1      42.868  24.242  26.716  1.00  0.00     0.060 A 
ATOM     26  C   UNL A   1      41.993  23.963  27.771  1.00  0.00     0.016 A 
ATOM     27  C   UNL A   1      43.422  25.514  26.577  1.00  0.00     0.016 A 
ATOM     28  C   UNL A   1      41.649  24.975  28.674  1.00  0.00     0.010 A 
ATOM     29  C   UNL A   1      43.129  26.501  27.518  1.00  0.00     0.010 A 
ATOM     30  C   UNL A   1      42.227  26.249  28.568  1.00  0.00    -0.014 A 
BRANCH  30  31
ATOM     31  C   UNL A   1      41.928  27.343  29.533  1.00  0.00     0.031 A 
ATOM     32  C   UNL A   1      42.649  27.385  30.855  1.00  0.00     0.074 A 
ATOM     33  C   UNL A   1      40.942  28.224  29.272  1.00  0.00     0.049 A 
ATOM     34  N   UNL A   1      42.349  28.045  31.945  1.00  0.00    -0.248 NA
ATOM     35  C   UNL A   1      43.857  26.551  30.973  1.00  0.00     0.031 C 
ATOM     36  C   UNL A   1      40.190  28.311  28.019  1.00  0.00     0.029 A 
ATOM     37  N   UNL A   1      40.373  29.193  30.065  1.00  0.00    -0.354 N 
ATOM     38  C   UNL A   1      43.293  27.662  32.892  1.00  0.00     0.074 A 
ATOM     39  C   UNL A   1      44.179  26.717  32.249  1.00  0.00     0.031 C 
ATOM     40  C   UNL A   1      39.251  29.263  28.132  1.00  0.00     0.029 A 
ATOM     41  C   UNL A   1      39.278  29.795  29.489  1.00  0.00     0.049 A 
ATOM     42  H   UNL A   1      40.714  29.431  30.957  1.00  0.00     0.167 HD
ATOM     43  C   UNL A   1      43.397  28.061  34.182  1.00  0.00     0.037 A 
ATOM     44  C   UNL A   1      38.359  30.630  30.013  1.00  0.00     0.037 A 
ATOM     45  C   UNL A   1      42.529  29.035  34.793  1.00  0.00     0.049 A 
ATOM     46  C   UNL A   1      38.475  31.022  31.462  1.00  0.00     0.074 A 
ATOM     47  C   UNL A   1      42.582  29.549  36.077  1.00  0.00     0.029 A 
ATOM     48  N   UNL A   1      41.452  29.638  34.162  1.00  0.00    -0.354 N 
ATOM     49  N   UNL A   1      39.377  30.667  32.345  1.00  0.00    -0.248 NA
ATOM     50  C   UNL A   1      37.440  31.921  31.992  1.00  0.00     0.031 C 
ATOM     51  C   UNL A   1      41.500  30.418  36.242  1.00  0.00     0.029 A 
ATOM     52  C   UNL A   1      40.815  30.497  35.040  1.00  0.00     0.049 A 
ATOM     53  H   UNL A   1      41.181  29.479  33.229  1.00  0.00     0.167 HD
ATOM     54  C   UNL A   1      39.042  31.331  33.519  1.00  0.00     0.074 A 
ATOM     55  C   UNL A   1      37.859  32.113  33.235  1.00  0.00     0.031 C 
ATOM     56  C   UNL A   1      39.658  31.295  34.725  1.00  0.00     0.037 A 
BRANCH  43  57
ATOM     57  C   UNL A   1      44.454  27.430  35.042  1.00  0.00     0.057 A 
ATOM     58  C   UNL A   1      45.724  27.993  35.204  1.00  0.00     0.134 A 
ATOM     59  C   UNL A   1      44.158  26.282  35.791  1.00  0.00     0.134 A 
ATOM     60  F   UNL A   1      46.076  29.088  34.512  1.00  0.00    -0.206 F 
ATOM     61  C   UNL A   1      46.667  27.433  36.070  1.00  0.00     0.040 A 
ATOM     62  C   UNL A   1      45.081  25.727  36.680  1.00  0.00     0.040 A 
ATOM     63  F   UNL A   1      42.956  25.694  35.691  1.00  0.00    -0.206 F 
ATOM     64  C   UNL A   1      46.342  26.303  36.819  1.00  0.00     0.006 A 
ENDBRANCH  43  57
BRANCH  44  65
ATOM     65  C   UNL A   1      37.214  31.108  29.192  1.00  0.00     0.057 A 
ATOM     66  C   UNL A   1      37.171  32.418  28.702  1.00  0.00     0.134 A 
ATOM     67  C   UNL A   1      36.114  30.285  28.915  1.00  0.00     0.134 A 
ATOM     68  F   UNL A   1      38.182  33.265  28.949  1.00  0.00    -0.206 F 
ATOM     69  C   UNL A   1      36.065  32.904  28.000  1.00  0.00     0.040 A 
ATOM     70  C   UNL A   1      35.018  30.745  28.184  1.00  0.00     0.040 A 
ATOM     71  F   UNL A   1      36.091  29.016  29.349  1.00  0.00    -0.206 F 
ATOM     72  C   UNL A   1      34.985  32.063  27.736  1.00  0.00     0.006 A 
ENDBRANCH  44  65
BRANCH  56  73
ATOM     73  C   UNL A   1      39.115  32.181  35.806  1.00  0.00     0.057 A 
ATOM     74  C   UNL A   1      38.230  31.709  36.783  1.00  0.00     0.134 A 
ATOM     75  C   UNL A   1      39.543  33.512  35.906  1.00  0.00     0.134 A 
ATOM     76  F   UNL A   1      37.772  30.450  36.734  1.00  0.00    -0.206 F 
ATOM     77  C   UNL A   1      37.778  32.535  37.813  1.00  0.00     0.040 A 
ATOM     78  C   UNL A   1      39.123  34.337  36.948  1.00  0.00     0.040 A 
ATOM     79  F   UNL A   1      40.399  34.022  35.007  1.00  0.00    -0.206 F 
ATOM     80  C   UNL A   1      38.234  33.850  37.903  1.00  0.00     0.006 A 
ENDBRANCH  56  73
ENDBRANCH  30  31
ENDBRANCH  23  25
ENDBRANCH  22  23
ENDBRANCH  21  22
ENDBRANCH  20  21
ENDBRANCH  19  20
ENDBRANCH  17  19
ENDBRANCH   1  17
TORSDOF 19
ENDMDL
MODEL 2
REMARK VINA RESULT:      -9.8      5.142      7.617
REMARK SMILES CC(=O)Oc1ccccc1SCCCCCC(=O)OCCOC(=O)c1ccc(-c2c3nc(c(-c4c(F)cccc4F)c4ccc([nH]4)c(-c4c(F)cccc4F)c4nc(c(-c5c(F)cccc5F)c5ccc2[nH]5)C=C4)C=C3)cc1
REMARK SMILES IDX 16 1 15 2 14 3 13 4 12 5 11 6 10 7 5 8 6 9 7 10 9 11 8 12
REMARK SMILES IDX 4 13 2 14 1 15 3 16 17 17 18 18 19 19 20 20 21 21 22 22
REMARK SMILES IDX 23 23 24 24 25 25 26 26 78 27 27 28 77 29 28 30 29 31 30 32
REMARK SMILES IDX 71 33 31 34 76 35 70 36 72 37 32 38 75 39 69 40 68 41 33 43
REMARK SMILES IDX 59 44 42 45 58 46 43 47 46 48 57 49 73 50 44 51 45 52 56 54
REMARK SMILES IDX 74 55 47 56 34 57 35 58 40 59 36 60 37 61 39 62 41 63 38 64
REMARK SMILES IDX 60 65 61 66 66 67 62 68 63 69 65 70 67 71 64 72 48 73 49 74
REMARK SMILES IDX 54 75 50 76 51 77 53 78 55 79 52 80
REMARK H PARENT 72 42 46 53
REMARK Flexibility Score: inf
ROOT
ATOM      1  C   UNL A   1      41.071  22.309  26.407  1.00  0.00     0.123 C 
ENDROOT
BRANCH   1   2
ATOM      2  C   UNL A   1      40.062  23.125  27.246  1.00  0.00     0.012 C 
BRANCH   2   3
ATOM      3  C   UNL A   1      39.011  23.992  26.513  1.00  0.00     0.001 C 
BRANCH   3   4
ATOM      4  C   UNL A   1      37.752  23.425  25.830  1.00  0.00     0.011 C 
BRANCH   4   5
ATOM      5  C   UNL A   1      36.306  23.970  25.920  1.00  0.00     0.075 C 
BRANCH   5   6
ATOM      6  S   UNL A   1      35.083  24.230  24.569  1.00  0.00    -0.122 SA
BRANCH   6   7
ATOM      7  C   UNL A   1      33.792  25.274  25.202  1.00  0.00     0.050 A 
ATOM      8  C   UNL A   1      32.608  24.896  25.854  1.00  0.00     0.144 A 
ATOM      9  C   UNL A   1      31.771  25.867  26.427  1.00  0.00     0.048 A 
ATOM     10  C   UNL A   1      32.049  27.226  26.248  1.00  0.00     0.004 A 
ATOM     11  C   UNL A   1      33.969  26.641  24.922  1.00  0.00     0.019 A 
ATOM     12  C   UNL A   1      33.109  27.611  25.436  1.00  0.00     0.001 A 
BRANCH   8  13
ATOM     13  O   UNL A   1      32.107  23.572  25.800  1.00  0.00    -0.426 OA
BRANCH  13  14
ATOM     14  C   UNL A   1      31.941  23.023  27.035  1.00  0.00     0.308 C 
ATOM     15  C   UNL A   1      33.164  22.501  27.684  1.00  0.00     0.139 C 
ATOM     16  O   UNL A   1      30.873  22.943  27.625  1.00  0.00    -0.252 OA
ENDBRANCH  13  14
ENDBRANCH   8  13
ENDBRANCH   6   7
ENDBRANCH   5   6
ENDBRANCH   4   5
ENDBRANCH   3   4
ENDBRANCH   2   3
ENDBRANCH   1   2
BRANCH   1  17
ATOM     17  C   UNL A   1      41.156  20.862  26.793  1.00  0.00     0.305 C 
ATOM     18  O   UNL A   1      40.788  20.420  27.874  1.00  0.00    -0.252 OA
BRANCH  17  19
ATOM     19  O   UNL A   1      41.737  20.142  25.801  1.00  0.00    -0.462 OA
BRANCH  19  20
ATOM     20  C   UNL A   1      42.015  18.777  26.141  1.00  0.00     0.274 C 
BRANCH  20  21
ATOM     21  C   UNL A   1      43.473  18.457  25.790  1.00  0.00     0.275 C 
BRANCH  21  22
ATOM     22  O   UNL A   1      43.772  18.942  24.464  1.00  0.00    -0.458 OA
BRANCH  22  23
ATOM     23  C   UNL A   1      45.020  19.423  24.265  1.00  0.00     0.338 C 
ATOM     24  O   UNL A   1      46.023  18.792  23.977  1.00  0.00    -0.246 OA
BRANCH  23  25
ATOM     25  C   UNL A   1      45.040  20.868  24.539  1.00  0.00     0.060 A 
ATOM     26  C   UNL A   1      44.608  21.799  23.590  1.00  0.00     0.016 A 
ATOM     27  C   UNL A   1      45.580  21.295  25.752  1.00  0.00     0.016 A 
ATOM     28  C   UNL A   1      44.745  23.168  23.847  1.00  0.00     0.010 A 
ATOM     29  C   UNL A   1      45.653  22.660  26.032  1.00  0.00     0.010 A 
ATOM     30  C   UNL A   1      45.251  23.613  25.078  1.00  0.00    -0.014 A 
BRANCH  30  31
ATOM     31  C   UNL A   1      45.372  25.058  25.415  1.00  0.00     0.031 A 
ATOM     32  C   UNL A   1      46.722  25.725  25.352  1.00  0.00     0.074 A 
ATOM     33  C   UNL A   1      44.304  25.737  25.880  1.00  0.00     0.049 A 
ATOM     34  N   UNL A   1      47.113  26.859  25.874  1.00  0.00    -0.248 NA
ATOM     35  C   UNL A   1      47.778  25.004  24.623  1.00  0.00     0.031 C 
ATOM     36  C   UNL A   1      42.938  25.217  25.960  1.00  0.00     0.029 A 
ATOM     37  N   UNL A   1      44.207  27.001  26.412  1.00  0.00    -0.354 N 
ATOM     38  C   UNL A   1      48.471  26.960  25.587  1.00  0.00     0.074 A 
ATOM     39  C   UNL A   1      48.835  25.775  24.842  1.00  0.00     0.031 C 
ATOM     40  C   UNL A   1      42.146  26.143  26.523  1.00  0.00     0.029 A 
ATOM     41  C   UNL A   1      42.960  27.285  26.919  1.00  0.00     0.049 A 
ATOM     42  H   UNL A   1      44.957  27.639  26.430  1.00  0.00     0.167 HD
ATOM     43  C   UNL A   1      49.330  27.949  25.930  1.00  0.00     0.037 A 
ATOM     44  C   UNL A   1      42.535  28.316  27.675  1.00  0.00     0.037 A 
ATOM     45  C   UNL A   1      48.939  29.141  26.637  1.00  0.00     0.049 A 
ATOM     46  C   UNL A   1      43.521  29.380  28.077  1.00  0.00     0.074 A 
ATOM     47  C   UNL A   1      49.720  30.230  26.984  1.00  0.00     0.029 A 
ATOM     48  N   UNL A   1      47.659  29.398  27.105  1.00  0.00    -0.354 N 
ATOM     49  N   UNL A   1      44.798  29.473  27.790  1.00  0.00    -0.248 NA
ATOM     50  C   UNL A   1      43.015  30.475  28.914  1.00  0.00     0.031 C 
ATOM     51  C   UNL A   1      48.927  31.118  27.716  1.00  0.00     0.029 A 
ATOM     52  C   UNL A   1      47.637  30.615  27.764  1.00  0.00     0.049 A 
ATOM     53  H   UNL A   1      46.884  28.803  26.986  1.00  0.00     0.167 HD
ATOM     54  C   UNL A   1      45.233  30.655  28.377  1.00  0.00     0.074 A 
ATOM     55  C   UNL A   1      44.086  31.247  29.029  1.00  0.00     0.031 C 
ATOM     56  C   UNL A   1      46.473  31.202  28.376  1.00  0.00     0.037 A 
BRANCH  43  57
ATOM     57  C   UNL A   1      50.782  27.786  25.585  1.00  0.00     0.057 A 
ATOM     58  C   UNL A   1      51.297  28.122  24.328  1.00  0.00     0.134 A 
ATOM     59  C   UNL A   1      51.695  27.366  26.564  1.00  0.00     0.134 A 
ATOM     60  F   UNL A   1      50.480  28.523  23.342  1.00  0.00    -0.206 F 
ATOM     61  C   UNL A   1      52.665  28.036  24.053  1.00  0.00     0.040 A 
ATOM     62  C   UNL A   1      53.066  27.301  26.310  1.00  0.00     0.040 A 
ATOM     63  F   UNL A   1      51.271  27.036  27.794  1.00  0.00    -0.206 F 
ATOM     64  C   UNL A   1      53.554  27.636  25.049  1.00  0.00     0.006 A 
ENDBRANCH  43  57
BRANCH  44  65
ATOM     65  C   UNL A   1      41.128  28.372  28.157  1.00  0.00     0.057 A 
ATOM     66  C   UNL A   1      40.778  27.901  29.428  1.00  0.00     0.134 A 
ATOM     67  C   UNL A   1      40.092  28.852  27.345  1.00  0.00     0.134 A 
ATOM     68  F   UNL A   1      41.719  27.408  30.248  1.00  0.00    -0.206 F 
ATOM     69  C   UNL A   1      39.450  27.872  29.861  1.00  0.00     0.040 A 
ATOM     70  C   UNL A   1      38.765  28.863  27.778  1.00  0.00     0.040 A 
ATOM     71  F   UNL A   1      40.355  29.324  26.118  1.00  0.00    -0.206 F 
ATOM     72  C   UNL A   1      38.439  28.358  29.034  1.00  0.00     0.006 A 
ENDBRANCH  44  65
BRANCH  56  73
ATOM     73  C   UNL A   1      46.640  32.539  29.034  1.00  0.00     0.057 A 
ATOM     74  C   UNL A   1      47.034  32.669  30.371  1.00  0.00     0.134 A 
ATOM     75  C   UNL A   1      46.468  33.715  28.291  1.00  0.00     0.134 A 
ATOM     76  F   UNL A   1      47.201  31.582  31.139  1.00  0.00    -0.206 F 
ATOM     77  C   UNL A   1      47.236  33.922  30.951  1.00  0.00     0.040 A 
ATOM     78  C   UNL A   1      46.697  34.972  28.850  1.00  0.00     0.040 A 
ATOM     79  F   UNL A   1      46.100  33.659  27.001  1.00  0.00    -0.206 F 
ATOM     80  C   UNL A   1      47.079  35.077  30.185  1.00  0.00     0.006 A 
ENDBRANCH  56  73
ENDBRANCH  30  31
ENDBRANCH  23  25
ENDBRANCH  22  23
ENDBRANCH  21  22
ENDBRANCH  20  21
ENDBRANCH  19  20
ENDBRANCH  17  19
ENDBRANCH   1  17
TORSDOF 19
ENDMDL
MODEL 3
REMARK VINA RESULT:      -9.6      4.939      7.400
REMARK SMILES CC(=O)Oc1ccccc1SCCCCCC(=O)OCCOC(=O)c1ccc(-c2c3nc(c(-c4c(F)cccc4F)c4ccc([nH]4)c(-c4c(F)cccc4F)c4nc(c(-c5c(F)cccc5F)c5ccc2[nH]5)C=C4)C=C3)cc1
REMARK SMILES IDX 16 1 15 2 14 3 13 4 12 5 11 6 10 7 5 8 6 9 7 10 9 11 8 12
REMARK SMILES IDX 4 13 2 14 1 15 3 16 17 17 18 18 19 19 20 20 21 21 22 22
REMARK SMILES IDX 23 23 24 24 25 25 26 26 78 27 27 28 77 29 28 30 29 31 30 32
REMARK SMILES IDX 71 33 31 34 76 35 70 36 72 37 32 38 75 39 69 40 68 41 33 43
REMARK SMILES IDX 59 44 42 45 58 46 43 47 46 48 57 49 73 50 44 51 45 52 56 54
REMARK SMILES IDX 74 55 47 56 34 57 35 58 40 59 36 60 37 61 39 62 41 63 38 64
REMARK SMILES IDX 60 65 61 66 66 67 62 68 63 69 65 70 67 71 64 72 48 73 49 74
REMARK SMILES IDX 54 75 50 76 51 77 53 78 55 79 52 80
REMARK H PARENT 72 42 46 53
REMARK Flexibility Score: inf
ROOT
ATOM      1  C   UNL A   1      40.596  21.869  26.476  1.00  0.00     0.123 C 
ENDROOT
BRANCH   1   2
ATOM      2  C   UNL A   1      39.696  22.972  27.077  1.00  0.00     0.012 C 
BRANCH   2   3
ATOM      3  C   UNL A   1      38.791  23.794  26.130  1.00  0.00     0.001 C 
BRANCH   3   4
ATOM      4  C   UNL A   1      37.253  23.712  26.121  1.00  0.00     0.011 C 
BRANCH   4   5
ATOM      5  C   UNL A   1      36.379  22.481  25.781  1.00  0.00     0.075 C 
BRANCH   5   6
ATOM      6  S   UNL A   1      35.065  22.316  24.501  1.00  0.00    -0.122 SA
BRANCH   6   7
ATOM      7  C   UNL A   1      33.623  23.171  25.091  1.00  0.00     0.050 A 
ATOM      8  C   UNL A   1      32.991  24.294  24.537  1.00  0.00     0.144 A 
ATOM      9  C   UNL A   1      31.765  24.746  25.053  1.00  0.00     0.048 A 
ATOM     10  C   UNL A   1      31.227  24.153  26.200  1.00  0.00     0.004 A 
ATOM     11  C   UNL A   1      33.131  22.688  26.318  1.00  0.00     0.019 A 
ATOM     12  C   UNL A   1      31.946  23.172  26.871  1.00  0.00     0.001 A 
BRANCH   8  13
ATOM     13  O   UNL A   1      33.628  25.126  23.585  1.00  0.00    -0.426 OA
BRANCH  13  14
ATOM     14  C   UNL A   1      33.180  24.913  22.317  1.00  0.00     0.308 C 
ATOM     15  C   UNL A   1      32.254  25.931  21.775  1.00  0.00     0.139 C 
ATOM     16  O   UNL A   1      33.492  23.960  21.618  1.00  0.00    -0.252 OA
ENDBRANCH  13  14
ENDBRANCH   8  13
ENDBRANCH   6   7
ENDBRANCH   5   6
ENDBRANCH   4   5
ENDBRANCH   3   4
ENDBRANCH   2   3
ENDBRANCH   1   2
BRANCH   1  17
ATOM     17  C   UNL A   1      41.695  21.412  27.391  1.00  0.00     0.305 C 
ATOM     18  O   UNL A   1      42.447  22.172  27.988  1.00  0.00    -0.252 OA
BRANCH  17  19
ATOM     19  O   UNL A   1      41.757  20.058  27.414  1.00  0.00    -0.462 OA
BRANCH  19  20
ATOM     20  C   UNL A   1      41.630  19.434  26.130  1.00  0.00     0.274 C 
BRANCH  20  21
ATOM     21  C   UNL A   1      42.835  18.515  25.893  1.00  0.00     0.275 C 
BRANCH  21  22
ATOM     22  O   UNL A   1      43.418  18.800  24.604  1.00  0.00    -0.458 OA
BRANCH  22  23
ATOM     23  C   UNL A   1      44.700  19.230  24.604  1.00  0.00     0.338 C 
ATOM     24  O   UNL A   1      45.712  18.556  24.519  1.00  0.00    -0.246 OA
BRANCH  23  25
ATOM     25  C   UNL A   1      44.729  20.686  24.822  1.00  0.00     0.060 A 
ATOM     26  C   UNL A   1      44.281  21.581  23.845  1.00  0.00     0.016 A 
ATOM     27  C   UNL A   1      45.295  21.158  26.006  1.00  0.00     0.016 A 
ATOM     28  C   UNL A   1      44.428  22.958  24.046  1.00  0.00     0.010 A 
ATOM     29  C   UNL A   1      45.377  22.532  26.230  1.00  0.00     0.010 A 
ATOM     30  C   UNL A   1      44.959  23.449  25.248  1.00  0.00    -0.014 A 
BRANCH  30  31
ATOM     31  C   UNL A   1      45.091  24.906  25.526  1.00  0.00     0.031 A 
ATOM     32  C   UNL A   1      46.444  25.561  25.430  1.00  0.00     0.074 A 
ATOM     33  C   UNL A   1      44.029  25.609  25.967  1.00  0.00     0.049 A 
ATOM     34  N   UNL A   1      46.846  26.713  25.903  1.00  0.00    -0.248 NA
ATOM     35  C   UNL A   1      47.493  24.804  24.725  1.00  0.00     0.031 C 
ATOM     36  C   UNL A   1      42.660  25.103  26.075  1.00  0.00     0.029 A 
ATOM     37  N   UNL A   1      43.943  26.895  26.448  1.00  0.00    -0.354 N 
ATOM     38  C   UNL A   1      48.203  26.792  25.607  1.00  0.00     0.074 A 
ATOM     39  C   UNL A   1      48.556  25.576  24.908  1.00  0.00     0.031 C 
ATOM     40  C   UNL A   1      41.877  26.055  26.603  1.00  0.00     0.029 A 
ATOM     41  C   UNL A   1      42.700  27.207  26.948  1.00  0.00     0.049 A 
ATOM     42  H   UNL A   1      44.697  27.528  26.437  1.00  0.00     0.167 HD
ATOM     43  C   UNL A   1      49.069  27.789  25.905  1.00  0.00     0.037 A 
ATOM     44  C   UNL A   1      42.285  28.271  27.665  1.00  0.00     0.037 A 
ATOM     45  C   UNL A   1      48.690  29.011  26.565  1.00  0.00     0.049 A 
ATOM     46  C   UNL A   1      43.280  29.343  28.018  1.00  0.00     0.074 A 
ATOM     47  C   UNL A   1      49.479  30.108  26.865  1.00  0.00     0.029 A 
ATOM     48  N   UNL A   1      47.414  29.295  27.028  1.00  0.00    -0.354 N 
ATOM     49  N   UNL A   1      44.556  29.417  27.722  1.00  0.00    -0.248 NA
ATOM     50  C   UNL A   1      42.784  30.475  28.813  1.00  0.00     0.031 C 
ATOM     51  C   UNL A   1      48.695  31.030  27.563  1.00  0.00     0.029 A 
ATOM     52  C   UNL A   1      47.402  30.537  27.637  1.00  0.00     0.049 A 
ATOM     53  H   UNL A   1      46.634  28.701  26.937  1.00  0.00     0.167 HD
ATOM     54  C   UNL A   1      45.002  30.619  28.259  1.00  0.00     0.074 A 
ATOM     55  C   UNL A   1      43.861  31.243  28.892  1.00  0.00     0.031 C 
ATOM     56  C   UNL A   1      46.245  31.157  28.231  1.00  0.00     0.037 A 
BRANCH  43  57
ATOM     57  C   UNL A   1      50.519  27.602  25.561  1.00  0.00     0.057 A 
ATOM     58  C   UNL A   1      51.027  27.865  24.284  1.00  0.00     0.134 A 
ATOM     59  C   UNL A   1      51.437  27.236  26.556  1.00  0.00     0.134 A 
ATOM     60  F   UNL A   1      50.203  28.212  23.282  1.00  0.00    -0.206 F 
ATOM     61  C   UNL A   1      52.392  27.760  24.005  1.00  0.00     0.040 A 
ATOM     62  C   UNL A   1      52.806  27.154  26.297  1.00  0.00     0.040 A 
ATOM     63  F   UNL A   1      51.020  26.978  27.805  1.00  0.00    -0.206 F 
ATOM     64  C   UNL A   1      53.287  27.414  25.016  1.00  0.00     0.006 A 
ENDBRANCH  43  57
BRANCH  44  65
ATOM     65  C   UNL A   1      40.881  28.355  28.150  1.00  0.00     0.057 A 
ATOM     66  C   UNL A   1      39.868  28.894  27.348  1.00  0.00     0.134 A 
ATOM     67  C   UNL A   1      40.525  27.945  29.442  1.00  0.00     0.134 A 
ATOM     68  F   UNL A   1      40.146  29.325  26.108  1.00  0.00    -0.206 F 
ATOM     69  C   UNL A   1      38.564  29.054  27.822  1.00  0.00     0.040 A 
ATOM     70  C   UNL A   1      39.218  28.066  29.916  1.00  0.00     0.040 A 
ATOM     71  F   UNL A   1      41.443  27.416  30.263  1.00  0.00    -0.206 F 
ATOM     72  C   UNL A   1      38.236  28.636  29.110  1.00  0.00     0.006 A 
ENDBRANCH  44  65
BRANCH  56  73
ATOM     73  C   UNL A   1      46.423  32.519  28.833  1.00  0.00     0.057 A 
ATOM     74  C   UNL A   1      46.209  33.692  28.100  1.00  0.00     0.134 A 
ATOM     75  C   UNL A   1      46.749  32.651  30.190  1.00  0.00     0.134 A 
ATOM     76  F   UNL A   1      45.908  33.633  26.794  1.00  0.00    -0.206 F 
ATOM     77  C   UNL A   1      46.327  34.950  28.692  1.00  0.00     0.040 A 
ATOM     78  C   UNL A   1      46.839  33.901  30.800  1.00  0.00     0.040 A 
ATOM     79  F   UNL A   1      46.957  31.565  30.949  1.00  0.00    -0.206 F 
ATOM     80  C   UNL A   1      46.632  35.056  30.049  1.00  0.00     0.006 A 
ENDBRANCH  56  73
ENDBRANCH  30  31
ENDBRANCH  23  25
ENDBRANCH  22  23
ENDBRANCH  21  22
ENDBRANCH  20  21
ENDBRANCH  19  20
ENDBRANCH  17  19
ENDBRANCH   1  17
TORSDOF 19
ENDMDL
