MODEL 1
REMARK VINA RESULT:     -10.7      0.000      0.000
REMARK SMILES CN(C)C(=O)CSc1ccc(C(=O)OCCOC(=O)c2ccc(-c3c4nc(c(-c5c(F)cccc5F)c5ccc([nH]5)c(-c5c(F)cccc5F)c5nc(c(-c6c(F)cccc6F)c6ccc3[nH]6)C=C5)C=C4)cc2)cc1
REMARK SMILES IDX 15 1 14 2 12 3 13 4 11 5 8 6 9 7 75 8 10 9 74 10 7 11 6 12
REMARK SMILES IDX 4 13 1 14 2 15 3 16 5 17 16 18 17 19 18 20 19 21 20 22 21 23
REMARK SMILES IDX 73 24 22 25 72 26 23 27 24 28 25 29 66 30 26 31 71 32 65 33
REMARK SMILES IDX 67 34 27 35 70 36 64 37 63 38 28 40 54 41 37 42 53 43 38 44
REMARK SMILES IDX 41 45 52 46 68 47 39 48 40 49 51 51 69 52 42 53 29 54 30 55
REMARK SMILES IDX 35 56 31 57 32 58 34 59 36 60 33 61 55 62 56 63 61 64 57 65
REMARK SMILES IDX 58 66 60 67 62 68 59 69 43 70 44 71 49 72 45 73 46 74 48 75
REMARK SMILES IDX 50 76 47 77
REMARK H PARENT 67 39 41 50
REMARK Flexibility Score: inf
ROOT
ATOM      1  C   UNL A   1      42.481  20.788  26.198  1.00  0.00     0.275 C 
ENDROOT
BRANCH   1   2
ATOM      2  O   UNL A   1      41.133  20.991  25.728  1.00  0.00    -0.458 OA
BRANCH   2   3
ATOM      3  C   UNL A   1      40.238  21.390  26.667  1.00  0.00     0.338 C 
ATOM      4  O   UNL A   1      40.440  21.499  27.866  1.00  0.00    -0.246 OA
BRANCH   3   5
ATOM      5  C   UNL A   1      38.961  21.800  26.029  1.00  0.00     0.060 A 
ATOM      6  C   UNL A   1      36.522  22.462  24.810  1.00  0.00     0.008 A 
ATOM      7  C   UNL A   1      37.048  21.177  24.670  1.00  0.00     0.016 A 
ATOM      8  C   UNL A   1      37.212  23.407  25.579  1.00  0.00     0.016 A 
ATOM      9  C   UNL A   1      38.270  20.853  25.260  1.00  0.00     0.017 A 
ATOM     10  C   UNL A   1      38.430  23.082  26.184  1.00  0.00     0.017 A 
BRANCH   6  11
ATOM     11  S   UNL A   1      34.959  22.848  24.054  1.00  0.00    -0.116 SA
BRANCH  11  12
ATOM     12  C   UNL A   1      34.650  24.509  24.752  1.00  0.00     0.175 C 
BRANCH  12  13
ATOM     13  C   UNL A   1      34.099  25.487  23.724  1.00  0.00     0.232 C 
ATOM     14  C   UNL A   1      33.293  27.694  23.108  1.00  0.00     0.146 C 
ATOM     15  N   UNL A   1      33.670  26.743  24.139  1.00  0.00    -0.348 N 
ATOM     16  C   UNL A   1      33.631  27.212  25.515  1.00  0.00     0.146 C 
ATOM     17  O   UNL A   1      34.033  25.151  22.537  1.00  0.00    -0.274 OA
ENDBRANCH  12  13
ENDBRANCH  11  12
ENDBRANCH   6  11
ENDBRANCH   3   5
ENDBRANCH   2   3
ENDBRANCH   1   2
BRANCH   1  18
ATOM     18  C   UNL A   1      43.462  21.610  25.362  1.00  0.00     0.275 C 
BRANCH  18  19
ATOM     19  O   UNL A   1      42.836  22.844  24.974  1.00  0.00    -0.458 OA
BRANCH  19  20
ATOM     20  C   UNL A   1      43.617  23.948  25.030  1.00  0.00     0.338 C 
ATOM     21  O   UNL A   1      44.642  24.163  24.408  1.00  0.00    -0.246 OA
BRANCH  20  22
ATOM     22  C   UNL A   1      43.047  24.899  26.002  1.00  0.00     0.060 A 
ATOM     23  C   UNL A   1      43.364  26.255  25.928  1.00  0.00     0.016 A 
ATOM     24  C   UNL A   1      42.265  24.422  27.055  1.00  0.00     0.016 A 
ATOM     25  C   UNL A   1      42.955  27.129  26.936  1.00  0.00     0.010 A 
ATOM     26  C   UNL A   1      41.790  25.314  28.023  1.00  0.00     0.010 A 
ATOM     27  C   UNL A   1      42.157  26.673  27.995  1.00  0.00    -0.014 A 
BRANCH  27  28
ATOM     28  C   UNL A   1      41.758  27.589  29.101  1.00  0.00     0.031 A 
ATOM     29  C   UNL A   1      42.559  27.624  30.378  1.00  0.00     0.074 A 
ATOM     30  C   UNL A   1      40.689  28.403  28.977  1.00  0.00     0.049 A 
ATOM     31  N   UNL A   1      42.278  28.199  31.520  1.00  0.00    -0.248 NA
ATOM     32  C   UNL A   1      43.842  26.903  30.371  1.00  0.00     0.031 C 
ATOM     33  C   UNL A   1      39.841  28.519  27.792  1.00  0.00     0.029 A 
ATOM     34  N   UNL A   1      40.141  29.298  29.865  1.00  0.00    -0.354 N 
ATOM     35  C   UNL A   1      43.309  27.854  32.384  1.00  0.00     0.074 A 
ATOM     36  C   UNL A   1      44.228  27.026  31.633  1.00  0.00     0.031 C 
ATOM     37  C   UNL A   1      38.907  29.459  28.009  1.00  0.00     0.029 A 
ATOM     38  C   UNL A   1      39.038  29.954  29.375  1.00  0.00     0.049 A 
ATOM     39  H   UNL A   1      40.504  29.453  30.767  1.00  0.00     0.167 HD
ATOM     40  C   UNL A   1      43.476  28.194  33.685  1.00  0.00     0.037 A 
ATOM     41  C   UNL A   1      38.202  30.829  29.966  1.00  0.00     0.037 A 
ATOM     42  C   UNL A   1      42.605  29.076  34.415  1.00  0.00     0.049 A 
ATOM     43  C   UNL A   1      38.403  31.190  31.410  1.00  0.00     0.074 A 
ATOM     44  C   UNL A   1      42.706  29.493  35.732  1.00  0.00     0.029 A 
ATOM     45  N   UNL A   1      41.487  29.699  33.885  1.00  0.00    -0.354 N 
ATOM     46  N   UNL A   1      39.341  30.797  32.236  1.00  0.00    -0.248 NA
ATOM     47  C   UNL A   1      37.413  32.095  32.011  1.00  0.00     0.031 C 
ATOM     48  C   UNL A   1      41.635  30.352  36.004  1.00  0.00     0.029 A 
ATOM     49  C   UNL A   1      40.886  30.493  34.848  1.00  0.00     0.049 A 
ATOM     50  H   UNL A   1      41.168  29.594  32.959  1.00  0.00     0.167 HD
ATOM     51  C   UNL A   1      39.053  31.403  33.452  1.00  0.00     0.074 A 
ATOM     52  C   UNL A   1      37.870  32.212  33.250  1.00  0.00     0.031 C 
ATOM     53  C   UNL A   1      39.707  31.289  34.634  1.00  0.00     0.037 A 
BRANCH  40  54
ATOM     54  C   UNL A   1      44.633  27.581  34.416  1.00  0.00     0.057 A 
ATOM     55  C   UNL A   1      44.538  26.339  35.055  1.00  0.00     0.134 A 
ATOM     56  C   UNL A   1      45.872  28.233  34.447  1.00  0.00     0.134 A 
ATOM     57  F   UNL A   1      43.375  25.672  35.074  1.00  0.00    -0.206 F 
ATOM     58  C   UNL A   1      45.631  25.777  35.718  1.00  0.00     0.040 A 
ATOM     59  C   UNL A   1      46.978  27.671  35.087  1.00  0.00     0.040 A 
ATOM     60  F   UNL A   1      46.031  29.423  33.849  1.00  0.00    -0.206 F 
ATOM     61  C   UNL A   1      46.857  26.440  35.729  1.00  0.00     0.006 A 
ENDBRANCH  40  54
BRANCH  41  62
ATOM     62  C   UNL A   1      37.065  31.396  29.199  1.00  0.00     0.057 A 
ATOM     63  C   UNL A   1      35.907  30.646  28.965  1.00  0.00     0.134 A 
ATOM     64  C   UNL A   1      37.107  32.699  28.688  1.00  0.00     0.134 A 
ATOM     65  F   UNL A   1      35.820  29.382  29.407  1.00  0.00    -0.206 F 
ATOM     66  C   UNL A   1      34.830  31.171  28.250  1.00  0.00     0.040 A 
ATOM     67  C   UNL A   1      36.028  33.245  27.992  1.00  0.00     0.040 A 
ATOM     68  F   UNL A   1      38.191  33.465  28.877  1.00  0.00    -0.206 F 
ATOM     69  C   UNL A   1      34.886  32.478  27.768  1.00  0.00     0.006 A 
ENDBRANCH  41  62
BRANCH  53  70
ATOM     70  C   UNL A   1      39.160  32.067  35.791  1.00  0.00     0.057 A 
ATOM     71  C   UNL A   1      38.268  31.491  36.704  1.00  0.00     0.134 A 
ATOM     72  C   UNL A   1      39.550  33.393  36.010  1.00  0.00     0.134 A 
ATOM     73  F   UNL A   1      37.848  30.228  36.538  1.00  0.00    -0.206 F 
ATOM     74  C   UNL A   1      37.767  32.215  37.786  1.00  0.00     0.040 A 
ATOM     75  C   UNL A   1      39.070  34.121  37.100  1.00  0.00     0.040 A 
ATOM     76  F   UNL A   1      40.406  34.000  35.175  1.00  0.00    -0.206 F 
ATOM     77  C   UNL A   1      38.172  33.534  37.989  1.00  0.00     0.006 A 
ENDBRANCH  53  70
ENDBRANCH  27  28
ENDBRANCH  20  22
ENDBRANCH  19  20
ENDBRANCH  18  19
ENDBRANCH   1  18
TORSDOF 14
ENDMDL
MODEL 2
REMARK VINA RESULT:     -10.6      1.216      1.799
REMARK SMILES CN(C)C(=O)CSc1ccc(C(=O)OCCOC(=O)c2ccc(-c3c4nc(c(-c5c(F)cccc5F)c5ccc([nH]5)c(-c5c(F)cccc5F)c5nc(c(-c6c(F)cccc6F)c6ccc3[nH]6)C=C5)C=C4)cc2)cc1
REMARK SMILES IDX 15 1 14 2 12 3 13 4 11 5 8 6 9 7 75 8 10 9 74 10 7 11 6 12
REMARK SMILES IDX 4 13 1 14 2 15 3 16 5 17 16 18 17 19 18 20 19 21 20 22 21 23
REMARK SMILES IDX 73 24 22 25 72 26 23 27 24 28 25 29 66 30 26 31 71 32 65 33
REMARK SMILES IDX 67 34 27 35 70 36 64 37 63 38 28 40 54 41 37 42 53 43 38 44
REMARK SMILES IDX 41 45 52 46 68 47 39 48 40 49 51 51 69 52 42 53 29 54 30 55
REMARK SMILES IDX 35 56 31 57 32 58 34 59 36 60 33 61 55 62 56 63 61 64 57 65
REMARK SMILES IDX 58 66 60 67 62 68 59 69 43 70 44 71 49 72 45 73 46 74 48 75
REMARK SMILES IDX 50 76 47 77
REMARK H PARENT 67 39 41 50
REMARK Flexibility Score: inf
ROOT
ATOM      1  C   UNL A   1      42.377  20.601  26.353  1.00  0.00     0.275 C 
ENDROOT
BRANCH   1   2
ATOM      2  O   UNL A   1      41.093  21.245  26.476  1.00  0.00    -0.458 OA
BRANCH   2   3
ATOM      3  C   UNL A   1      40.042  20.564  25.955  1.00  0.00     0.338 C 
ATOM      4  O   UNL A   1      39.979  19.360  25.760  1.00  0.00    -0.246 OA
BRANCH   3   5
ATOM      5  C   UNL A   1      38.886  21.471  25.741  1.00  0.00     0.060 A 
ATOM      6  C   UNL A   1      36.638  23.092  25.308  1.00  0.00     0.008 A 
ATOM      7  C   UNL A   1      36.670  21.792  24.802  1.00  0.00     0.016 A 
ATOM      8  C   UNL A   1      37.726  23.569  26.048  1.00  0.00     0.016 A 
ATOM      9  C   UNL A   1      37.796  20.993  25.000  1.00  0.00     0.017 A 
ATOM     10  C   UNL A   1      38.849  22.766  26.262  1.00  0.00     0.017 A 
BRANCH   6  11
ATOM     11  S   UNL A   1      35.188  24.089  25.046  1.00  0.00    -0.116 SA
BRANCH  11  12
ATOM     12  C   UNL A   1      33.874  22.867  25.394  1.00  0.00     0.175 C 
BRANCH  12  13
ATOM     13  C   UNL A   1      33.138  22.419  24.138  1.00  0.00     0.232 C 
ATOM     14  C   UNL A   1      32.152  20.682  22.757  1.00  0.00     0.146 C 
ATOM     15  N   UNL A   1      32.985  21.061  23.883  1.00  0.00    -0.348 N 
ATOM     16  C   UNL A   1      33.533  19.983  24.691  1.00  0.00     0.146 C 
ATOM     17  O   UNL A   1      32.694  23.267  23.357  1.00  0.00    -0.274 OA
ENDBRANCH  12  13
ENDBRANCH  11  12
ENDBRANCH   6  11
ENDBRANCH   3   5
ENDBRANCH   2   3
ENDBRANCH   1   2
BRANCH   1  18
ATOM     18  C   UNL A   1      43.308  21.440  25.478  1.00  0.00     0.275 C 
BRANCH  18  19
ATOM     19  O   UNL A   1      42.629  22.644  25.082  1.00  0.00    -0.458 OA
BRANCH  19  20
ATOM     20  C   UNL A   1      43.383  23.767  25.053  1.00  0.00     0.338 C 
ATOM     21  O   UNL A   1      44.368  23.981  24.369  1.00  0.00    -0.246 OA
BRANCH  20  22
ATOM     22  C   UNL A   1      42.839  24.743  26.015  1.00  0.00     0.060 A 
ATOM     23  C   UNL A   1      43.245  26.076  25.969  1.00  0.00     0.016 A 
ATOM     24  C   UNL A   1      41.991  24.307  27.033  1.00  0.00     0.016 A 
ATOM     25  C   UNL A   1      42.856  26.965  26.971  1.00  0.00     0.010 A 
ATOM     26  C   UNL A   1      41.539  25.218  27.994  1.00  0.00     0.010 A 
ATOM     27  C   UNL A   1      41.992  26.551  27.995  1.00  0.00    -0.014 A 
BRANCH  27  28
ATOM     28  C   UNL A   1      41.612  27.480  29.098  1.00  0.00     0.031 A 
ATOM     29  C   UNL A   1      42.417  27.508  30.372  1.00  0.00     0.074 A 
ATOM     30  C   UNL A   1      40.558  28.312  28.972  1.00  0.00     0.049 A 
ATOM     31  N   UNL A   1      42.149  28.095  31.512  1.00  0.00    -0.248 NA
ATOM     32  C   UNL A   1      43.688  26.765  30.366  1.00  0.00     0.031 C 
ATOM     33  C   UNL A   1      39.709  28.436  27.789  1.00  0.00     0.029 A 
ATOM     34  N   UNL A   1      40.027  29.221  29.857  1.00  0.00    -0.354 N 
ATOM     35  C   UNL A   1      43.178  27.736  32.375  1.00  0.00     0.074 A 
ATOM     36  C   UNL A   1      44.080  26.888  31.626  1.00  0.00     0.031 C 
ATOM     37  C   UNL A   1      38.791  29.393  28.003  1.00  0.00     0.029 A 
ATOM     38  C   UNL A   1      38.935  29.894  29.366  1.00  0.00     0.049 A 
ATOM     39  H   UNL A   1      40.396  29.375  30.757  1.00  0.00     0.167 HD
ATOM     40  C   UNL A   1      43.354  28.081  33.673  1.00  0.00     0.037 A 
ATOM     41  C   UNL A   1      38.115  30.786  29.954  1.00  0.00     0.037 A 
ATOM     42  C   UNL A   1      42.501  28.982  34.401  1.00  0.00     0.049 A 
ATOM     43  C   UNL A   1      38.328  31.151  31.395  1.00  0.00     0.074 A 
ATOM     44  C   UNL A   1      42.613  29.405  35.716  1.00  0.00     0.029 A 
ATOM     45  N   UNL A   1      41.392  29.621  33.870  1.00  0.00    -0.354 N 
ATOM     46  N   UNL A   1      39.260  30.747  32.221  1.00  0.00    -0.248 NA
ATOM     47  C   UNL A   1      37.355  32.077  31.994  1.00  0.00     0.031 C 
ATOM     48  C   UNL A   1      41.557  30.283  35.986  1.00  0.00     0.029 A 
ATOM     49  C   UNL A   1      40.808  30.431  34.830  1.00  0.00     0.049 A 
ATOM     50  H   UNL A   1      41.068  29.516  32.946  1.00  0.00     0.167 HD
ATOM     51  C   UNL A   1      38.987  31.365  33.434  1.00  0.00     0.074 A 
ATOM     52  C   UNL A   1      37.817  32.193  33.231  1.00  0.00     0.031 C 
ATOM     53  C   UNL A   1      39.642  31.246  34.615  1.00  0.00     0.037 A 
BRANCH  40  54
ATOM     54  C   UNL A   1      44.502  27.452  34.405  1.00  0.00     0.057 A 
ATOM     55  C   UNL A   1      44.418  26.172  34.965  1.00  0.00     0.134 A 
ATOM     56  C   UNL A   1      45.723  28.130  34.516  1.00  0.00     0.134 A 
ATOM     57  F   UNL A   1      43.272  25.478  34.905  1.00  0.00    -0.206 F 
ATOM     58  C   UNL A   1      45.503  25.597  35.629  1.00  0.00     0.040 A 
ATOM     59  C   UNL A   1      46.821  27.556  35.158  1.00  0.00     0.040 A 
ATOM     60  F   UNL A   1      45.870  29.357  33.996  1.00  0.00    -0.206 F 
ATOM     61  C   UNL A   1      46.711  26.286  35.721  1.00  0.00     0.006 A 
ENDBRANCH  40  54
BRANCH  41  62
ATOM     62  C   UNL A   1      36.987  31.369  29.187  1.00  0.00     0.057 A 
ATOM     63  C   UNL A   1      37.033  32.689  28.726  1.00  0.00     0.134 A 
ATOM     64  C   UNL A   1      35.841  30.620  28.892  1.00  0.00     0.134 A 
ATOM     65  F   UNL A   1      38.093  33.463  29.001  1.00  0.00    -0.206 F 
ATOM     66  C   UNL A   1      35.979  33.245  28.000  1.00  0.00     0.040 A 
ATOM     67  C   UNL A   1      34.790  31.156  28.147  1.00  0.00     0.040 A 
ATOM     68  F   UNL A   1      35.737  29.350  29.310  1.00  0.00    -0.206 F 
ATOM     69  C   UNL A   1      34.857  32.474  27.701  1.00  0.00     0.006 A 
ENDBRANCH  41  62
BRANCH  53  70
ATOM     70  C   UNL A   1      39.112  32.040  35.769  1.00  0.00     0.057 A 
ATOM     71  C   UNL A   1      38.217  31.483  36.691  1.00  0.00     0.134 A 
ATOM     72  C   UNL A   1      39.521  33.362  35.977  1.00  0.00     0.134 A 
ATOM     73  F   UNL A   1      37.778  30.225  36.537  1.00  0.00    -0.206 F 
ATOM     74  C   UNL A   1      37.732  32.222  37.771  1.00  0.00     0.040 A 
ATOM     75  C   UNL A   1      39.057  34.105  37.064  1.00  0.00     0.040 A 
ATOM     76  F   UNL A   1      40.381  33.951  35.133  1.00  0.00    -0.206 F 
ATOM     77  C   UNL A   1      38.156  33.536  37.962  1.00  0.00     0.006 A 
ENDBRANCH  53  70
ENDBRANCH  27  28
ENDBRANCH  20  22
ENDBRANCH  19  20
ENDBRANCH  18  19
ENDBRANCH   1  18
TORSDOF 14
ENDMDL
MODEL 3
REMARK VINA RESULT:     -10.4      4.994      7.407
REMARK SMILES CN(C)C(=O)CSc1ccc(C(=O)OCCOC(=O)c2ccc(-c3c4nc(c(-c5c(F)cccc5F)c5ccc([nH]5)c(-c5c(F)cccc5F)c5nc(c(-c6c(F)cccc6F)c6ccc3[nH]6)C=C5)C=C4)cc2)cc1
REMARK SMILES IDX 15 1 14 2 12 3 13 4 11 5 8 6 9 7 75 8 10 9 74 10 7 11 6 12
REMARK SMILES IDX 4 13 1 14 2 15 3 16 5 17 16 18 17 19 18 20 19 21 20 22 21 23
REMARK SMILES IDX 73 24 22 25 72 26 23 27 24 28 25 29 66 30 26 31 71 32 65 33
REMARK SMILES IDX 67 34 27 35 70 36 64 37 63 38 28 40 54 41 37 42 53 43 38 44
REMARK SMILES IDX 41 45 52 46 68 47 39 48 40 49 51 51 69 52 42 53 29 54 30 55
REMARK SMILES IDX 35 56 31 57 32 58 34 59 36 60 33 61 55 62 56 63 61 64 57 65
REMARK SMILES IDX 58 66 60 67 62 68 59 69 43 70 44 71 49 72 45 73 46 74 48 75
REMARK SMILES IDX 50 76 47 77
REMARK H PARENT 67 39 41 50
REMARK Flexibility Score: inf
ROOT
ATOM      1  C   UNL A   1      42.280  19.280  26.719  1.00  0.00     0.275 C 
ENDROOT
BRANCH   1   2
ATOM      2  O   UNL A   1      41.818  20.477  26.061  1.00  0.00    -0.458 OA
BRANCH   2   3
ATOM      3  C   UNL A   1      41.449  21.493  26.881  1.00  0.00     0.338 C 
ATOM      4  O   UNL A   1      42.125  21.999  27.763  1.00  0.00    -0.246 OA
BRANCH   3   5
ATOM      5  C   UNL A   1      40.114  22.017  26.495  1.00  0.00     0.060 A 
ATOM      6  C   UNL A   1      37.631  23.115  25.789  1.00  0.00     0.008 A 
ATOM      7  C   UNL A   1      38.553  23.877  26.508  1.00  0.00     0.016 A 
ATOM      8  C   UNL A   1      37.965  21.810  25.408  1.00  0.00     0.016 A 
ATOM      9  C   UNL A   1      39.780  23.325  26.876  1.00  0.00     0.017 A 
ATOM     10  C   UNL A   1      39.199  21.259  25.762  1.00  0.00     0.017 A 
BRANCH   6  11
ATOM     11  S   UNL A   1      36.076  23.845  25.326  1.00  0.00    -0.116 SA
BRANCH  11  12
ATOM     12  C   UNL A   1      35.768  22.996  23.736  1.00  0.00     0.175 C 
BRANCH  12  13
ATOM     13  C   UNL A   1      34.370  23.253  23.192  1.00  0.00     0.232 C 
ATOM     14  C   UNL A   1      31.990  22.769  23.129  1.00  0.00     0.146 C 
ATOM     15  N   UNL A   1      33.330  22.401  23.549  1.00  0.00    -0.348 N 
ATOM     16  C   UNL A   1      33.460  21.206  24.368  1.00  0.00     0.146 C 
ATOM     17  O   UNL A   1      34.177  24.210  22.435  1.00  0.00    -0.274 OA
ENDBRANCH  12  13
ENDBRANCH  11  12
ENDBRANCH   6  11
ENDBRANCH   3   5
ENDBRANCH   2   3
ENDBRANCH   1   2
BRANCH   1  18
ATOM     18  C   UNL A   1      43.181  18.476  25.783  1.00  0.00     0.275 C 
BRANCH  18  19
ATOM     19  O   UNL A   1      43.393  19.223  24.572  1.00  0.00    -0.458 OA
BRANCH  19  20
ATOM     20  C   UNL A   1      44.683  19.482  24.255  1.00  0.00     0.338 C 
ATOM     21  O   UNL A   1      45.496  18.716  23.769  1.00  0.00    -0.246 OA
BRANCH  20  22
ATOM     22  C   UNL A   1      44.998  20.880  24.604  1.00  0.00     0.060 A 
ATOM     23  C   UNL A   1      45.603  21.181  25.824  1.00  0.00     0.016 A 
ATOM     24  C   UNL A   1      44.600  21.909  23.750  1.00  0.00     0.016 A 
ATOM     25  C   UNL A   1      45.758  22.508  26.224  1.00  0.00     0.010 A 
ATOM     26  C   UNL A   1      44.827  23.240  24.119  1.00  0.00     0.010 A 
ATOM     27  C   UNL A   1      45.379  23.558  25.374  1.00  0.00    -0.014 A 
BRANCH  27  28
ATOM     28  C   UNL A   1      45.494  24.978  25.815  1.00  0.00     0.031 A 
ATOM     29  C   UNL A   1      46.807  25.706  25.676  1.00  0.00     0.074 A 
ATOM     30  C   UNL A   1      44.434  25.633  26.331  1.00  0.00     0.049 A 
ATOM     31  N   UNL A   1      47.170  26.865  26.165  1.00  0.00    -0.248 NA
ATOM     32  C   UNL A   1      47.855  25.032  24.892  1.00  0.00     0.031 C 
ATOM     33  C   UNL A   1      43.089  25.082  26.489  1.00  0.00     0.029 A 
ATOM     34  N   UNL A   1      44.325  26.916  26.812  1.00  0.00    -0.354 N 
ATOM     35  C   UNL A   1      48.502  27.028  25.808  1.00  0.00     0.074 A 
ATOM     36  C   UNL A   1      48.883  25.853  25.055  1.00  0.00     0.031 C 
ATOM     37  C   UNL A   1      42.281  26.031  26.990  1.00  0.00     0.029 A 
ATOM     38  C   UNL A   1      43.067  27.230  27.263  1.00  0.00     0.049 A 
ATOM     39  H   UNL A   1      45.078  27.550  26.830  1.00  0.00     0.167 HD
ATOM     40  C   UNL A   1      49.334  28.061  26.085  1.00  0.00     0.037 A 
ATOM     41  C   UNL A   1      42.600  28.341  27.864  1.00  0.00     0.037 A 
ATOM     42  C   UNL A   1      48.942  29.264  26.770  1.00  0.00     0.049 A 
ATOM     43  C   UNL A   1      43.541  29.473  28.164  1.00  0.00     0.074 A 
ATOM     44  C   UNL A   1      49.713  30.373  27.077  1.00  0.00     0.029 A 
ATOM     45  N   UNL A   1      47.662  29.528  27.230  1.00  0.00    -0.354 N 
ATOM     46  N   UNL A   1      44.817  29.582  27.887  1.00  0.00    -0.248 NA
ATOM     47  C   UNL A   1      42.981  30.626  28.884  1.00  0.00     0.031 C 
ATOM     48  C   UNL A   1      48.903  31.299  27.744  1.00  0.00     0.029 A 
ATOM     49  C   UNL A   1      47.621  30.778  27.824  1.00  0.00     0.049 A 
ATOM     50  H   UNL A   1      46.894  28.917  27.146  1.00  0.00     0.167 HD
ATOM     51  C   UNL A   1      45.213  30.810  28.401  1.00  0.00     0.074 A 
ATOM     52  C   UNL A   1      44.037  31.423  28.981  1.00  0.00     0.031 C 
ATOM     53  C   UNL A   1      46.445  31.374  28.400  1.00  0.00     0.037 A 
BRANCH  40  54
ATOM     54  C   UNL A   1      50.769  27.921  25.673  1.00  0.00     0.057 A 
ATOM     55  C   UNL A   1      51.193  28.142  24.358  1.00  0.00     0.134 A 
ATOM     56  C   UNL A   1      51.746  27.592  26.622  1.00  0.00     0.134 A 
ATOM     57  F   UNL A   1      50.304  28.445  23.400  1.00  0.00    -0.206 F 
ATOM     58  C   UNL A   1      52.536  28.022  23.996  1.00  0.00     0.040 A 
ATOM     59  C   UNL A   1      53.095  27.491  26.278  1.00  0.00     0.040 A 
ATOM     60  F   UNL A   1      51.407  27.373  27.901  1.00  0.00    -0.206 F 
ATOM     61  C   UNL A   1      53.493  27.702  24.958  1.00  0.00     0.006 A 
ENDBRANCH  40  54
BRANCH  41  62
ATOM     62  C   UNL A   1      41.173  28.421  28.262  1.00  0.00     0.057 A 
ATOM     63  C   UNL A   1      40.195  28.851  27.358  1.00  0.00     0.134 A 
ATOM     64  C   UNL A   1      40.753  28.066  29.550  1.00  0.00     0.134 A 
ATOM     65  F   UNL A   1      40.541  29.231  26.119  1.00  0.00    -0.206 F 
ATOM     66  C   UNL A   1      38.850  28.926  27.721  1.00  0.00     0.040 A 
ATOM     67  C   UNL A   1      39.408  28.112  29.918  1.00  0.00     0.040 A 
ATOM     68  F   UNL A   1      41.645  27.649  30.461  1.00  0.00    -0.206 F 
ATOM     69  C   UNL A   1      38.452  28.547  29.002  1.00  0.00     0.006 A 
ENDBRANCH  41  62
BRANCH  53  70
ATOM     70  C   UNL A   1      46.576  32.723  29.037  1.00  0.00     0.057 A 
ATOM     71  C   UNL A   1      46.915  32.865  30.388  1.00  0.00     0.134 A 
ATOM     72  C   UNL A   1      46.389  33.890  28.286  1.00  0.00     0.134 A 
ATOM     73  F   UNL A   1      47.093  31.784  31.161  1.00  0.00    -0.206 F 
ATOM     74  C   UNL A   1      47.045  34.124  30.976  1.00  0.00     0.040 A 
ATOM     75  C   UNL A   1      46.535  35.154  28.859  1.00  0.00     0.040 A 
ATOM     76  F   UNL A   1      46.069  33.821  26.986  1.00  0.00    -0.206 F 
ATOM     77  C   UNL A   1      46.859  35.274  30.209  1.00  0.00     0.006 A 
ENDBRANCH  53  70
ENDBRANCH  27  28
ENDBRANCH  20  22
ENDBRANCH  19  20
ENDBRANCH  18  19
ENDBRANCH   1  18
TORSDOF 14
ENDMDL
