MODEL 1
REMARK VINA RESULT:     -11.2      0.000      0.000
REMARK SMILES COc1ccc(F)cc1[C@@H](C(=O)OCCOC(=O)c1ccc(-c2c3nc(c(-c4c(F)cccc4F)c4ccc([nH]4)c(-c4c(F)cccc4F)c4nc(c(-c5c(F)cccc5F)c5ccc2[nH]5)C=C4)C=C3)cc1)[N@H+](C)CCn1ccnc1C
REMARK SMILES IDX 14 1 13 2 11 3 12 4 10 5 9 6 3 7 4 8 5 9 8 10 6 11 7 12 2 13
REMARK SMILES IDX 1 14 73 15 74 16 75 18 76 19 77 20 78 21 81 22 79 23 80 24
REMARK SMILES IDX 82 25 15 26 16 27 17 28 18 29 19 30 20 31 72 32 21 33 71 34
REMARK SMILES IDX 22 35 23 36 24 37 65 38 25 39 70 40 64 41 66 42 26 43 69 44
REMARK SMILES IDX 63 45 62 46 27 48 53 49 36 50 52 51 37 52 40 53 51 54 67 55
REMARK SMILES IDX 38 56 39 57 50 59 68 60 41 61 28 62 29 63 34 64 30 65 31 66
REMARK SMILES IDX 33 67 35 68 32 69 54 70 55 71 60 72 56 73 57 74 59 75 61 76
REMARK SMILES IDX 58 77 42 78 43 79 48 80 44 81 45 82 47 83 49 84 46 85
REMARK H PARENT 73 17 66 47 40 58
REMARK Flexibility Score: inf
ROOT
ATOM      1  C   UNL A   1      36.409  19.932  24.984  1.00  0.00     0.274 C 
ENDROOT
BRANCH   1   2
ATOM      2  O   UNL A   1      36.007  21.252  24.554  1.00  0.00    -0.457 OA
BRANCH   2   3
ATOM      3  C   UNL A   1      35.046  21.868  25.300  1.00  0.00     0.370 C 
ATOM      4  O   UNL A   1      35.137  21.992  26.521  1.00  0.00    -0.245 OA
BRANCH   3   5
ATOM      5  C   UNL A   1      33.972  22.608  24.427  1.00  0.00     0.330 C 
BRANCH   5   6
ATOM      6  C   UNL A   1      33.402  23.960  24.910  1.00  0.00     0.066 A 
ATOM      7  C   UNL A   1      32.374  24.003  25.885  1.00  0.00     0.128 A 
ATOM      8  C   UNL A   1      31.938  25.230  26.435  1.00  0.00     0.050 A 
ATOM      9  C   UNL A   1      32.519  26.436  26.061  1.00  0.00     0.043 A 
ATOM     10  C   UNL A   1      33.988  25.205  24.614  1.00  0.00     0.053 A 
ATOM     11  C   UNL A   1      33.546  26.410  25.152  1.00  0.00     0.124 A 
ATOM     12  F   UNL A   1      34.159  27.546  24.795  1.00  0.00    -0.207 F 
BRANCH   7  13
ATOM     13  O   UNL A   1      31.897  22.792  26.312  1.00  0.00    -0.496 OA
ATOM     14  C   UNL A   1      30.486  22.640  26.426  1.00  0.00     0.278 C 
ENDBRANCH   7  13
ENDBRANCH   5   6
BRANCH   5  15
ATOM     15  N   UNL A   1      33.140  21.533  23.766  1.00  0.00    -0.320 N 
ATOM     16  C   UNL A   1      32.112  22.186  22.933  1.00  0.00     0.333 C 
ATOM     17  H   UNL A   1      33.880  21.036  23.271  1.00  0.00     0.348 HD
BRANCH  15  18
ATOM     18  C   UNL A   1      32.648  20.321  24.425  1.00  0.00     0.285 C 
BRANCH  18  19
ATOM     19  C   UNL A   1      32.402  18.962  23.684  1.00  0.00     0.184 C 
BRANCH  19  20
ATOM     20  N   UNL A   1      32.697  17.692  24.307  1.00  0.00    -0.330 N 
ATOM     21  C   UNL A   1      32.416  17.426  25.616  1.00  0.00     0.107 A 
ATOM     22  C   UNL A   1      33.500  16.650  23.894  1.00  0.00     0.105 A 
ATOM     23  C   UNL A   1      32.766  16.127  25.840  1.00  0.00     0.131 A 
ATOM     24  N   UNL A   1      33.455  15.654  24.764  1.00  0.00    -0.242 NA
ATOM     25  C   UNL A   1      34.354  16.632  22.686  1.00  0.00     0.087 C 
ENDBRANCH  19  20
ENDBRANCH  18  19
ENDBRANCH  15  18
ENDBRANCH   5  15
ENDBRANCH   3   5
ENDBRANCH   2   3
ENDBRANCH   1   2
BRANCH   1  26
ATOM     26  C   UNL A   1      37.947  19.822  25.001  1.00  0.00     0.275 C 
BRANCH  26  27
ATOM     27  O   UNL A   1      38.576  21.092  25.298  1.00  0.00    -0.458 OA
BRANCH  27  28
ATOM     28  C   UNL A   1      39.655  21.053  26.101  1.00  0.00     0.338 C 
ATOM     29  O   UNL A   1      40.288  20.061  26.427  1.00  0.00    -0.246 OA
BRANCH  28  30
ATOM     30  C   UNL A   1      39.791  22.361  26.773  1.00  0.00     0.060 A 
ATOM     31  C   UNL A   1      40.858  22.476  27.656  1.00  0.00     0.016 A 
ATOM     32  C   UNL A   1      38.982  23.473  26.515  1.00  0.00     0.016 A 
ATOM     33  C   UNL A   1      41.144  23.705  28.251  1.00  0.00     0.010 A 
ATOM     34  C   UNL A   1      39.329  24.733  27.055  1.00  0.00     0.010 A 
ATOM     35  C   UNL A   1      40.454  24.873  27.882  1.00  0.00    -0.014 A 
BRANCH  35  36
ATOM     36  C   UNL A   1      41.121  26.189  28.156  1.00  0.00     0.031 A 
ATOM     37  C   UNL A   1      40.515  27.298  28.973  1.00  0.00     0.074 A 
ATOM     38  C   UNL A   1      42.371  26.359  27.667  1.00  0.00     0.049 A 
ATOM     39  N   UNL A   1      40.990  28.502  29.189  1.00  0.00    -0.248 NA
ATOM     40  C   UNL A   1      39.231  27.038  29.635  1.00  0.00     0.031 C 
ATOM     41  C   UNL A   1      43.102  25.365  26.873  1.00  0.00     0.029 A 
ATOM     42  N   UNL A   1      43.272  27.389  27.793  1.00  0.00    -0.354 N 
ATOM     43  C   UNL A   1      40.055  29.159  29.978  1.00  0.00     0.074 A 
ATOM     44  C   UNL A   1      38.988  28.207  30.223  1.00  0.00     0.031 C 
ATOM     45  C   UNL A   1      44.359  25.774  26.691  1.00  0.00     0.029 A 
ATOM     46  C   UNL A   1      44.488  27.128  27.206  1.00  0.00     0.049 A 
ATOM     47  H   UNL A   1      43.066  28.232  28.258  1.00  0.00     0.167 HD
ATOM     48  C   UNL A   1      40.083  30.437  30.436  1.00  0.00     0.037 A 
ATOM     49  C   UNL A   1      45.579  27.896  27.030  1.00  0.00     0.037 A 
ATOM     50  C   UNL A   1      41.156  31.378  30.204  1.00  0.00     0.049 A 
ATOM     51  C   UNL A   1      45.552  29.317  27.484  1.00  0.00     0.074 A 
ATOM     52  C   UNL A   1      41.244  32.701  30.613  1.00  0.00     0.029 A 
ATOM     53  N   UNL A   1      42.326  31.104  29.514  1.00  0.00    -0.354 N 
ATOM     54  N   UNL A   1      44.614  29.947  28.144  1.00  0.00    -0.248 NA
ATOM     55  C   UNL A   1      46.709  30.149  27.128  1.00  0.00     0.031 C 
ATOM     56  C   UNL A   1      42.446  33.235  30.138  1.00  0.00     0.029 A 
ATOM     57  C   UNL A   1      43.131  32.235  29.471  1.00  0.00     0.049 A 
ATOM     58  H   UNL A   1      42.555  30.235  29.111  1.00  0.00     0.167 HD
ATOM     59  C   UNL A   1      45.057  31.255  28.270  1.00  0.00     0.074 A 
ATOM     60  C   UNL A   1      46.364  31.319  27.647  1.00  0.00     0.031 C 
ATOM     61  C   UNL A   1      44.422  32.306  28.839  1.00  0.00     0.037 A 
BRANCH  48  62
ATOM     62  C   UNL A   1      38.901  30.943  31.216  1.00  0.00     0.057 A 
ATOM     63  C   UNL A   1      38.828  30.734  32.602  1.00  0.00     0.134 A 
ATOM     64  C   UNL A   1      37.784  31.504  30.590  1.00  0.00     0.134 A 
ATOM     65  F   UNL A   1      39.857  30.182  33.261  1.00  0.00    -0.206 F 
ATOM     66  C   UNL A   1      37.678  31.044  33.331  1.00  0.00     0.040 A 
ATOM     67  C   UNL A   1      36.633  31.837  31.311  1.00  0.00     0.040 A 
ATOM     68  F   UNL A   1      37.788  31.729  29.268  1.00  0.00    -0.206 F 
ATOM     69  C   UNL A   1      36.574  31.597  32.683  1.00  0.00     0.006 A 
ENDBRANCH  48  62
BRANCH  49  70
ATOM     70  C   UNL A   1      46.752  27.333  26.315  1.00  0.00     0.057 A 
ATOM     71  C   UNL A   1      46.834  27.359  24.916  1.00  0.00     0.134 A 
ATOM     72  C   UNL A   1      47.782  26.691  27.010  1.00  0.00     0.134 A 
ATOM     73  F   UNL A   1      45.874  27.957  24.194  1.00  0.00    -0.206 F 
ATOM     74  C   UNL A   1      47.865  26.719  24.231  1.00  0.00     0.040 A 
ATOM     75  C   UNL A   1      48.841  26.078  26.339  1.00  0.00     0.040 A 
ATOM     76  F   UNL A   1      47.772  26.657  28.351  1.00  0.00    -0.206 F 
ATOM     77  C   UNL A   1      48.874  26.076  24.944  1.00  0.00     0.006 A 
ENDBRANCH  49  70
BRANCH  61  78
ATOM     78  C   UNL A   1      45.137  33.622  28.816  1.00  0.00     0.057 A 
ATOM     79  C   UNL A   1      46.030  33.971  29.836  1.00  0.00     0.134 A 
ATOM     80  C   UNL A   1      44.925  34.552  27.790  1.00  0.00     0.134 A 
ATOM     81  F   UNL A   1      46.275  33.124  30.847  1.00  0.00    -0.206 F 
ATOM     82  C   UNL A   1      46.684  35.203  29.840  1.00  0.00     0.040 A 
ATOM     83  C   UNL A   1      45.590  35.780  27.773  1.00  0.00     0.040 A 
ATOM     84  F   UNL A   1      44.096  34.268  26.775  1.00  0.00    -0.206 F 
ATOM     85  C   UNL A   1      46.468  36.110  28.804  1.00  0.00     0.006 A 
ENDBRANCH  61  78
ENDBRANCH  35  36
ENDBRANCH  28  30
ENDBRANCH  27  28
ENDBRANCH  26  27
ENDBRANCH   1  26
TORSDOF 17
ENDMDL
MODEL 2
REMARK VINA RESULT:     -10.9      1.159      2.005
REMARK SMILES COc1ccc(F)cc1[C@@H](C(=O)OCCOC(=O)c1ccc(-c2c3nc(c(-c4c(F)cccc4F)c4ccc([nH]4)c(-c4c(F)cccc4F)c4nc(c(-c5c(F)cccc5F)c5ccc2[nH]5)C=C4)C=C3)cc1)[N@H+](C)CCn1ccnc1C
REMARK SMILES IDX 14 1 13 2 11 3 12 4 10 5 9 6 3 7 4 8 5 9 8 10 6 11 7 12 2 13
REMARK SMILES IDX 1 14 73 15 74 16 75 18 76 19 77 20 78 21 81 22 79 23 80 24
REMARK SMILES IDX 82 25 15 26 16 27 17 28 18 29 19 30 20 31 72 32 21 33 71 34
REMARK SMILES IDX 22 35 23 36 24 37 65 38 25 39 70 40 64 41 66 42 26 43 69 44
REMARK SMILES IDX 63 45 62 46 27 48 53 49 36 50 52 51 37 52 40 53 51 54 67 55
REMARK SMILES IDX 38 56 39 57 50 59 68 60 41 61 28 62 29 63 34 64 30 65 31 66
REMARK SMILES IDX 33 67 35 68 32 69 54 70 55 71 60 72 56 73 57 74 59 75 61 76
REMARK SMILES IDX 58 77 42 78 43 79 48 80 44 81 45 82 47 83 49 84 46 85
REMARK H PARENT 73 17 66 47 40 58
REMARK Flexibility Score: inf
ROOT
ATOM      1  C   UNL A   1      35.902  21.296  25.780  1.00  0.00     0.274 C 
ENDROOT
BRANCH   1   2
ATOM      2  O   UNL A   1      35.634  22.619  25.259  1.00  0.00    -0.457 OA
BRANCH   2   3
ATOM      3  C   UNL A   1      34.359  23.082  25.407  1.00  0.00     0.370 C 
ATOM      4  O   UNL A   1      33.772  23.065  26.488  1.00  0.00    -0.245 OA
BRANCH   3   5
ATOM      5  C   UNL A   1      33.838  23.856  24.144  1.00  0.00     0.330 C 
BRANCH   5   6
ATOM      6  C   UNL A   1      33.823  25.400  24.154  1.00  0.00     0.066 A 
ATOM      7  C   UNL A   1      33.660  26.127  22.948  1.00  0.00     0.128 A 
ATOM      8  C   UNL A   1      33.509  27.532  22.955  1.00  0.00     0.050 A 
ATOM      9  C   UNL A   1      33.488  28.250  24.145  1.00  0.00     0.043 A 
ATOM     10  C   UNL A   1      33.738  26.174  25.326  1.00  0.00     0.053 A 
ATOM     11  C   UNL A   1      33.600  27.558  25.325  1.00  0.00     0.124 A 
ATOM     12  F   UNL A   1      33.545  28.208  26.495  1.00  0.00    -0.207 F 
BRANCH   7  13
ATOM     13  O   UNL A   1      33.576  25.382  21.801  1.00  0.00    -0.496 OA
ATOM     14  C   UNL A   1      32.503  25.659  20.908  1.00  0.00     0.278 C 
ENDBRANCH   7  13
ENDBRANCH   5   6
BRANCH   5  15
ATOM     15  N   UNL A   1      32.742  23.008  23.542  1.00  0.00    -0.320 N 
ATOM     16  C   UNL A   1      31.484  23.295  24.257  1.00  0.00     0.333 C 
ATOM     17  H   UNL A   1      32.801  23.327  22.575  1.00  0.00     0.348 HD
BRANCH  15  18
ATOM     18  C   UNL A   1      32.872  21.596  23.174  1.00  0.00     0.285 C 
BRANCH  18  19
ATOM     19  C   UNL A   1      32.397  20.409  24.081  1.00  0.00     0.184 C 
BRANCH  19  20
ATOM     20  N   UNL A   1      32.870  19.059  23.875  1.00  0.00    -0.330 N 
ATOM     21  C   UNL A   1      33.830  18.483  24.656  1.00  0.00     0.107 A 
ATOM     22  C   UNL A   1      32.718  18.204  22.804  1.00  0.00     0.105 A 
ATOM     23  C   UNL A   1      33.977  17.199  24.220  1.00  0.00     0.131 A 
ATOM     24  N   UNL A   1      33.290  17.037  23.056  1.00  0.00    -0.242 NA
ATOM     25  C   UNL A   1      32.067  18.526  21.515  1.00  0.00     0.087 C 
ENDBRANCH  19  20
ENDBRANCH  18  19
ENDBRANCH  15  18
ENDBRANCH   5  15
ENDBRANCH   3   5
ENDBRANCH   2   3
ENDBRANCH   1   2
BRANCH   1  26
ATOM     26  C   UNL A   1      37.102  20.668  25.043  1.00  0.00     0.275 C 
BRANCH  26  27
ATOM     27  O   UNL A   1      38.235  21.568  24.991  1.00  0.00    -0.458 OA
BRANCH  27  28
ATOM     28  C   UNL A   1      39.217  21.346  25.885  1.00  0.00     0.338 C 
ATOM     29  O   UNL A   1      39.657  20.262  26.233  1.00  0.00    -0.246 OA
BRANCH  28  30
ATOM     30  C   UNL A   1      39.489  22.604  26.608  1.00  0.00     0.060 A 
ATOM     31  C   UNL A   1      40.661  22.628  27.355  1.00  0.00     0.016 A 
ATOM     32  C   UNL A   1      38.701  23.757  26.519  1.00  0.00     0.016 A 
ATOM     33  C   UNL A   1      41.069  23.807  27.979  1.00  0.00     0.010 A 
ATOM     34  C   UNL A   1      39.164  24.969  27.081  1.00  0.00     0.010 A 
ATOM     35  C   UNL A   1      40.388  25.018  27.767  1.00  0.00    -0.014 A 
BRANCH  35  36
ATOM     36  C   UNL A   1      41.138  26.292  28.029  1.00  0.00     0.031 A 
ATOM     37  C   UNL A   1      40.615  27.433  28.859  1.00  0.00     0.074 A 
ATOM     38  C   UNL A   1      42.387  26.387  27.517  1.00  0.00     0.049 A 
ATOM     39  N   UNL A   1      41.166  28.606  29.068  1.00  0.00    -0.248 NA
ATOM     40  C   UNL A   1      39.330  27.250  29.544  1.00  0.00     0.031 C 
ATOM     41  C   UNL A   1      43.042  25.352  26.709  1.00  0.00     0.029 A 
ATOM     42  N   UNL A   1      43.350  27.361  27.627  1.00  0.00    -0.354 N 
ATOM     43  C   UNL A   1      40.287  29.316  29.875  1.00  0.00     0.074 A 
ATOM     44  C   UNL A   1      39.169  28.430  30.138  1.00  0.00     0.031 C 
ATOM     45  C   UNL A   1      44.318  25.685  26.504  1.00  0.00     0.029 A 
ATOM     46  C   UNL A   1      44.537  27.029  27.018  1.00  0.00     0.049 A 
ATOM     47  H   UNL A   1      43.204  28.214  28.098  1.00  0.00     0.167 HD
ATOM     48  C   UNL A   1      40.400  30.589  30.333  1.00  0.00     0.037 A 
ATOM     49  C   UNL A   1      45.669  27.729  26.822  1.00  0.00     0.037 A 
ATOM     50  C   UNL A   1      41.523  31.464  30.082  1.00  0.00     0.049 A 
ATOM     51  C   UNL A   1      45.736  29.149  27.278  1.00  0.00     0.074 A 
ATOM     52  C   UNL A   1      41.698  32.779  30.491  1.00  0.00     0.029 A 
ATOM     53  N   UNL A   1      42.662  31.122  29.370  1.00  0.00    -0.354 N 
ATOM     54  N   UNL A   1      44.850  29.833  27.957  1.00  0.00    -0.248 NA
ATOM     55  C   UNL A   1      46.934  29.910  26.902  1.00  0.00     0.031 C 
ATOM     56  C   UNL A   1      42.921  33.241  29.994  1.00  0.00     0.029 A 
ATOM     57  C   UNL A   1      43.532  32.203  29.313  1.00  0.00     0.049 A 
ATOM     58  H   UNL A   1      42.830  30.242  28.962  1.00  0.00     0.167 HD
ATOM     59  C   UNL A   1      45.373  31.111  28.075  1.00  0.00     0.074 A 
ATOM     60  C   UNL A   1      46.669  31.098  27.428  1.00  0.00     0.031 C 
ATOM     61  C   UNL A   1      44.813  32.197  28.657  1.00  0.00     0.037 A 
BRANCH  48  62
ATOM     62  C   UNL A   1      39.266  31.164  31.136  1.00  0.00     0.057 A 
ATOM     63  C   UNL A   1      38.234  31.867  30.497  1.00  0.00     0.134 A 
ATOM     64  C   UNL A   1      39.263  31.147  32.535  1.00  0.00     0.134 A 
ATOM     65  F   UNL A   1      38.188  31.940  29.158  1.00  0.00    -0.206 F 
ATOM     66  C   UNL A   1      37.254  32.551  31.220  1.00  0.00     0.040 A 
ATOM     67  C   UNL A   1      38.277  31.811  33.271  1.00  0.00     0.040 A 
ATOM     68  F   UNL A   1      40.221  30.493  33.208  1.00  0.00    -0.206 F 
ATOM     69  C   UNL A   1      37.276  32.525  32.614  1.00  0.00     0.006 A 
ENDBRANCH  48  62
BRANCH  49  70
ATOM     70  C   UNL A   1      46.793  27.099  26.086  1.00  0.00     0.057 A 
ATOM     71  C   UNL A   1      47.771  26.348  26.754  1.00  0.00     0.134 A 
ATOM     72  C   UNL A   1      46.957  27.294  24.711  1.00  0.00     0.134 A 
ATOM     73  F   UNL A   1      47.671  26.130  28.074  1.00  0.00    -0.206 F 
ATOM     74  C   UNL A   1      48.898  25.863  26.094  1.00  0.00     0.040 A 
ATOM     75  C   UNL A   1      48.062  26.782  24.030  1.00  0.00     0.040 A 
ATOM     76  F   UNL A   1      46.041  27.980  24.013  1.00  0.00    -0.206 F 
ATOM     77  C   UNL A   1      49.046  26.079  24.727  1.00  0.00     0.006 A 
ENDBRANCH  49  70
BRANCH  61  78
ATOM     78  C   UNL A   1      45.606  33.468  28.622  1.00  0.00     0.057 A 
ATOM     79  C   UNL A   1      46.553  33.751  29.613  1.00  0.00     0.134 A 
ATOM     80  C   UNL A   1      45.415  34.422  27.614  1.00  0.00     0.134 A 
ATOM     81  F   UNL A   1      46.781  32.878  30.606  1.00  0.00    -0.206 F 
ATOM     82  C   UNL A   1      47.281  34.941  29.607  1.00  0.00     0.040 A 
ATOM     83  C   UNL A   1      46.152  35.607  27.585  1.00  0.00     0.040 A 
ATOM     84  F   UNL A   1      44.536  34.200  26.626  1.00  0.00    -0.206 F 
ATOM     85  C   UNL A   1      47.084  35.872  28.588  1.00  0.00     0.006 A 
ENDBRANCH  61  78
ENDBRANCH  35  36
ENDBRANCH  28  30
ENDBRANCH  27  28
ENDBRANCH  26  27
ENDBRANCH   1  26
TORSDOF 17
ENDMDL
MODEL 3
REMARK VINA RESULT:     -10.9      3.508      7.242
REMARK SMILES COc1ccc(F)cc1[C@@H](C(=O)OCCOC(=O)c1ccc(-c2c3nc(c(-c4c(F)cccc4F)c4ccc([nH]4)c(-c4c(F)cccc4F)c4nc(c(-c5c(F)cccc5F)c5ccc2[nH]5)C=C4)C=C3)cc1)[N@H+](C)CCn1ccnc1C
REMARK SMILES IDX 14 1 13 2 11 3 12 4 10 5 9 6 3 7 4 8 5 9 8 10 6 11 7 12 2 13
REMARK SMILES IDX 1 14 73 15 74 16 75 18 76 19 77 20 78 21 81 22 79 23 80 24
REMARK SMILES IDX 82 25 15 26 16 27 17 28 18 29 19 30 20 31 72 32 21 33 71 34
REMARK SMILES IDX 22 35 23 36 24 37 65 38 25 39 70 40 64 41 66 42 26 43 69 44
REMARK SMILES IDX 63 45 62 46 27 48 53 49 36 50 52 51 37 52 40 53 51 54 67 55
REMARK SMILES IDX 38 56 39 57 50 59 68 60 41 61 28 62 29 63 34 64 30 65 31 66
REMARK SMILES IDX 33 67 35 68 32 69 54 70 55 71 60 72 56 73 57 74 59 75 61 76
REMARK SMILES IDX 58 77 42 78 43 79 48 80 44 81 45 82 47 83 49 84 46 85
REMARK H PARENT 73 17 66 47 40 58
REMARK Flexibility Score: inf
ROOT
ATOM      1  C   UNL A   1      32.635  30.260  27.049  1.00  0.00     0.274 C 
ENDROOT
BRANCH   1   2
ATOM      2  O   UNL A   1      32.989  30.011  25.669  1.00  0.00    -0.457 OA
BRANCH   2   3
ATOM      3  C   UNL A   1      33.341  28.732  25.354  1.00  0.00     0.370 C 
ATOM      4  O   UNL A   1      34.044  28.040  26.090  1.00  0.00    -0.245 OA
BRANCH   3   5
ATOM      5  C   UNL A   1      32.559  28.168  24.115  1.00  0.00     0.330 C 
BRANCH   5   6
ATOM      6  C   UNL A   1      31.159  27.548  24.320  1.00  0.00     0.066 A 
ATOM      7  C   UNL A   1      30.158  27.686  23.326  1.00  0.00     0.128 A 
ATOM      8  C   UNL A   1      28.920  27.013  23.437  1.00  0.00     0.050 A 
ATOM      9  C   UNL A   1      28.649  26.170  24.508  1.00  0.00     0.043 A 
ATOM     10  C   UNL A   1      30.849  26.640  25.349  1.00  0.00     0.053 A 
ATOM     11  C   UNL A   1      29.624  25.989  25.456  1.00  0.00     0.124 A 
ATOM     12  F   UNL A   1      29.418  25.154  26.485  1.00  0.00    -0.207 F 
BRANCH   7  13
ATOM     13  O   UNL A   1      30.494  28.437  22.230  1.00  0.00    -0.496 OA
ATOM     14  C   UNL A   1      29.869  29.707  22.081  1.00  0.00     0.278 C 
ENDBRANCH   7  13
ENDBRANCH   5   6
BRANCH   5  15
ATOM     15  N   UNL A   1      33.597  27.609  23.170  1.00  0.00    -0.320 N 
ATOM     16  C   UNL A   1      34.402  28.728  22.645  1.00  0.00     0.333 C 
ATOM     17  H   UNL A   1      34.068  26.966  23.806  1.00  0.00     0.348 HD
BRANCH  15  18
ATOM     18  C   UNL A   1      33.352  26.571  22.165  1.00  0.00     0.285 C 
BRANCH  18  19
ATOM     19  C   UNL A   1      33.677  25.053  22.380  1.00  0.00     0.184 C 
BRANCH  19  20
ATOM     20  N   UNL A   1      33.044  24.280  23.425  1.00  0.00    -0.330 N 
ATOM     21  C   UNL A   1      31.781  23.776  23.311  1.00  0.00     0.107 A 
ATOM     22  C   UNL A   1      33.380  24.114  24.752  1.00  0.00     0.105 A 
ATOM     23  C   UNL A   1      31.539  23.056  24.445  1.00  0.00     0.131 A 
ATOM     24  N   UNL A   1      32.536  23.284  25.344  1.00  0.00    -0.242 NA
ATOM     25  C   UNL A   1      34.482  24.795  25.466  1.00  0.00     0.087 C 
ENDBRANCH  19  20
ENDBRANCH  18  19
ENDBRANCH  15  18
ENDBRANCH   5  15
ENDBRANCH   3   5
ENDBRANCH   2   3
ENDBRANCH   1   2
BRANCH   1  26
ATOM     26  C   UNL A   1      33.511  31.390  27.628  1.00  0.00     0.275 C 
BRANCH  26  27
ATOM     27  O   UNL A   1      34.909  31.015  27.680  1.00  0.00    -0.458 OA
BRANCH  27  28
ATOM     28  C   UNL A   1      35.485  31.023  28.897  1.00  0.00     0.338 C 
ATOM     29  O   UNL A   1      35.258  31.802  29.808  1.00  0.00    -0.246 OA
BRANCH  28  30
ATOM     30  C   UNL A   1      36.655  30.123  28.870  1.00  0.00     0.060 A 
ATOM     31  C   UNL A   1      37.344  30.067  27.664  1.00  0.00     0.016 A 
ATOM     32  C   UNL A   1      37.137  29.414  29.976  1.00  0.00     0.016 A 
ATOM     33  C   UNL A   1      38.531  29.339  27.569  1.00  0.00     0.010 A 
ATOM     34  C   UNL A   1      38.383  28.751  29.897  1.00  0.00     0.010 A 
ATOM     35  C   UNL A   1      39.124  28.760  28.704  1.00  0.00    -0.014 A 
BRANCH  35  36
ATOM     36  C   UNL A   1      40.591  28.452  28.641  1.00  0.00     0.031 A 
ATOM     37  C   UNL A   1      41.682  29.418  29.015  1.00  0.00     0.074 A 
ATOM     38  C   UNL A   1      40.942  27.201  28.262  1.00  0.00     0.049 A 
ATOM     39  N   UNL A   1      42.981  29.260  28.910  1.00  0.00    -0.248 NA
ATOM     40  C   UNL A   1      41.286  30.714  29.580  1.00  0.00     0.031 C 
ATOM     41  C   UNL A   1      39.995  26.143  27.889  1.00  0.00     0.029 A 
ATOM     42  N   UNL A   1      42.164  26.581  28.170  1.00  0.00    -0.354 N 
ATOM     43  C   UNL A   1      43.560  30.440  29.358  1.00  0.00     0.074 A 
ATOM     44  C   UNL A   1      42.465  31.304  29.760  1.00  0.00     0.031 C 
ATOM     45  C   UNL A   1      40.652  24.992  27.731  1.00  0.00     0.029 A 
ATOM     46  C   UNL A   1      42.080  25.252  27.825  1.00  0.00     0.049 A 
ATOM     47  H   UNL A   1      43.018  27.043  28.335  1.00  0.00     0.167 HD
ATOM     48  C   UNL A   1      44.875  30.771  29.410  1.00  0.00     0.037 A 
ATOM     49  C   UNL A   1      43.027  24.338  27.546  1.00  0.00     0.037 A 
ATOM     50  C   UNL A   1      45.965  29.901  29.024  1.00  0.00     0.049 A 
ATOM     51  C   UNL A   1      44.461  24.751  27.546  1.00  0.00     0.074 A 
ATOM     52  C   UNL A   1      47.326  30.175  29.023  1.00  0.00     0.029 A 
ATOM     53  N   UNL A   1      45.829  28.596  28.580  1.00  0.00    -0.354 N 
ATOM     54  N   UNL A   1      44.980  25.905  27.880  1.00  0.00    -0.248 NA
ATOM     55  C   UNL A   1      45.438  23.756  27.085  1.00  0.00     0.031 C 
ATOM     56  C   UNL A   1      48.006  29.051  28.543  1.00  0.00     0.029 A 
ATOM     57  C   UNL A   1      47.076  28.059  28.287  1.00  0.00     0.049 A 
ATOM     58  H   UNL A   1      44.973  28.117  28.485  1.00  0.00     0.167 HD
ATOM     59  C   UNL A   1      46.342  25.784  27.654  1.00  0.00     0.074 A 
ATOM     60  C   UNL A   1      46.574  24.432  27.187  1.00  0.00     0.031 C 
ATOM     61  C   UNL A   1      47.306  26.722  27.807  1.00  0.00     0.037 A 
BRANCH  48  62
ATOM     62  C   UNL A   1      45.248  32.153  29.868  1.00  0.00     0.057 A 
ATOM     63  C   UNL A   1      45.455  32.414  31.231  1.00  0.00     0.134 A 
ATOM     64  C   UNL A   1      45.265  33.245  28.994  1.00  0.00     0.134 A 
ATOM     65  F   UNL A   1      45.432  31.414  32.126  1.00  0.00    -0.206 F 
ATOM     66  C   UNL A   1      45.642  33.713  31.710  1.00  0.00     0.040 A 
ATOM     67  C   UNL A   1      45.470  34.548  29.458  1.00  0.00     0.040 A 
ATOM     68  F   UNL A   1      45.073  33.066  27.679  1.00  0.00    -0.206 F 
ATOM     69  C   UNL A   1      45.648  34.785  30.820  1.00  0.00     0.006 A 
ENDBRANCH  48  62
BRANCH  49  70
ATOM     70  C   UNL A   1      42.617  22.963  27.167  1.00  0.00     0.057 A 
ATOM     71  C   UNL A   1      42.279  22.010  28.139  1.00  0.00     0.134 A 
ATOM     72  C   UNL A   1      42.627  22.548  25.831  1.00  0.00     0.134 A 
ATOM     73  F   UNL A   1      42.257  22.347  29.437  1.00  0.00    -0.206 F 
ATOM     74  C   UNL A   1      42.021  20.683  27.802  1.00  0.00     0.040 A 
ATOM     75  C   UNL A   1      42.333  21.230  25.477  1.00  0.00     0.040 A 
ATOM     76  F   UNL A   1      42.916  23.421  24.856  1.00  0.00    -0.206 F 
ATOM     77  C   UNL A   1      42.047  20.289  26.467  1.00  0.00     0.006 A 
ENDBRANCH  49  70
BRANCH  61  78
ATOM     78  C   UNL A   1      48.707  26.314  27.468  1.00  0.00     0.057 A 
ATOM     79  C   UNL A   1      49.212  26.487  26.174  1.00  0.00     0.134 A 
ATOM     80  C   UNL A   1      49.551  25.731  28.422  1.00  0.00     0.134 A 
ATOM     81  F   UNL A   1      48.453  27.039  25.215  1.00  0.00    -0.206 F 
ATOM     82  C   UNL A   1      50.506  26.090  25.838  1.00  0.00     0.040 A 
ATOM     83  C   UNL A   1      50.855  25.348  28.103  1.00  0.00     0.040 A 
ATOM     84  F   UNL A   1      49.132  25.556  29.684  1.00  0.00    -0.206 F 
ATOM     85  C   UNL A   1      51.334  25.522  26.805  1.00  0.00     0.006 A 
ENDBRANCH  61  78
ENDBRANCH  35  36
ENDBRANCH  28  30
ENDBRANCH  27  28
ENDBRANCH  26  27
ENDBRANCH   1  26
TORSDOF 17
ENDMDL
