MODEL 1
REMARK VINA RESULT:     -10.7      0.000      0.000
REMARK SMILES Cc1n[nH]c(SCC[C@@H]2CCC[C@]2([NH2+]C(C)C)C(=O)OCCOC(=O)c2ccc(-c3c4nc(c(-c5c(F)cccc5F)c5ccc([nH]5)c(-c5c(F)cccc5F)c5nc(c(-c6c(F)cccc6F)c6ccc3[nH]6)C=C5)C=C4)cc2)n1
REMARK SMILES IDX 21 1 20 2 18 3 19 4 13 5 9 6 10 7 11 8 12 9 8 10 7 11 6 12
REMARK SMILES IDX 5 13 1 14 2 15 3 16 80 17 4 18 14 20 15 23 16 24 17 25 22 26
REMARK SMILES IDX 23 27 24 28 25 29 26 30 27 31 79 32 28 33 78 34 29 35 30 36
REMARK SMILES IDX 31 37 72 38 32 39 77 40 71 41 73 42 33 43 76 44 70 45 69 46
REMARK SMILES IDX 34 48 60 49 43 50 59 51 44 52 47 53 58 54 74 55 45 56 46 57
REMARK SMILES IDX 57 59 75 60 48 61 35 62 36 63 41 64 37 65 38 66 40 67 42 68
REMARK SMILES IDX 39 69 61 70 62 71 67 72 63 73 64 74 66 75 68 76 65 77 49 78
REMARK SMILES IDX 50 79 55 80 51 81 52 82 54 83 56 84 53 85
REMARK H PARENT 4 19 14 21 14 22 73 47 47 58
REMARK Flexibility Score: inf
ROOT
ATOM      1  C   UNL A   1      37.697  23.451  25.421  1.00  0.00     0.274 C 
ENDROOT
BRANCH   1   2
ATOM      2  O   UNL A   1      36.330  23.920  25.377  1.00  0.00    -0.457 OA
BRANCH   2   3
ATOM      3  C   UNL A   1      35.641  23.740  24.211  1.00  0.00     0.368 C 
ATOM      4  O   UNL A   1      36.173  23.339  23.178  1.00  0.00    -0.245 OA
BRANCH   3   5
ATOM      5  C   UNL A   1      34.178  24.297  24.264  1.00  0.00     0.197 C 
ATOM      6  C   UNL A   1      33.000  23.274  24.170  1.00  0.00     0.063 C 
ATOM      7  C   UNL A   1      32.760  23.045  22.684  1.00  0.00     0.011 C 
ATOM      8  C   UNL A   1      32.870  24.445  22.119  1.00  0.00     0.008 C 
ATOM      9  C   UNL A   1      33.897  25.172  22.992  1.00  0.00     0.081 C 
BRANCH   6  10
ATOM     10  C   UNL A   1      32.963  21.971  24.975  1.00  0.00     0.022 C 
BRANCH  10  11
ATOM     11  C   UNL A   1      33.652  20.799  24.266  1.00  0.00     0.079 C 
BRANCH  11  12
ATOM     12  S   UNL A   1      32.512  19.510  23.643  1.00  0.00    -0.087 SA
BRANCH  12  13
ATOM     13  C   UNL A   1      33.227  18.017  24.116  1.00  0.00     0.183 A 
ATOM     14  C   UNL A   1      35.659  15.823  25.415  1.00  0.00     0.092 C 
ATOM     15  C   UNL A   1      34.487  16.482  24.800  1.00  0.00     0.148 A 
ATOM     16  N   UNL A   1      33.425  15.803  24.341  1.00  0.00    -0.158 NA
ATOM     17  N   UNL A   1      34.401  17.846  24.673  1.00  0.00    -0.206 NA
ATOM     18  N   UNL A   1      32.617  16.810  23.958  1.00  0.00    -0.254 N 
ATOM     19  H   UNL A   1      31.704  16.690  23.610  1.00  0.00     0.192 HD
ENDBRANCH  12  13
ENDBRANCH  11  12
ENDBRANCH  10  11
ENDBRANCH   6  10
BRANCH   5  20
ATOM     20  N   UNL A   1      33.994  25.088  25.527  1.00  0.00    -0.330 N 
ATOM     21  H   UNL A   1      34.895  25.500  25.768  1.00  0.00     0.347 HD
ATOM     22  H   UNL A   1      33.635  24.424  26.212  1.00  0.00     0.347 HD
BRANCH  20  23
ATOM     23  C   UNL A   1      32.998  26.178  25.481  1.00  0.00     0.176 C 
ATOM     24  C   UNL A   1      31.728  25.896  26.284  1.00  0.00     0.075 C 
ATOM     25  C   UNL A   1      33.680  27.433  26.030  1.00  0.00     0.075 C 
ENDBRANCH  20  23
ENDBRANCH   5  20
ENDBRANCH   3   5
ENDBRANCH   2   3
ENDBRANCH   1   2
BRANCH   1  26
ATOM     26  C   UNL A   1      38.429  23.786  26.723  1.00  0.00     0.275 C 
BRANCH  26  27
ATOM     27  O   UNL A   1      39.609  24.553  26.476  1.00  0.00    -0.458 OA
BRANCH  27  28
ATOM     28  C   UNL A   1      40.180  24.997  27.614  1.00  0.00     0.338 C 
ATOM     29  O   UNL A   1      41.209  24.586  28.125  1.00  0.00    -0.246 OA
BRANCH  28  30
ATOM     30  C   UNL A   1      39.375  26.044  28.241  1.00  0.00     0.060 A 
ATOM     31  C   UNL A   1      39.175  27.200  27.485  1.00  0.00     0.016 A 
ATOM     32  C   UNL A   1      39.165  26.015  29.617  1.00  0.00     0.016 A 
ATOM     33  C   UNL A   1      39.051  28.404  28.129  1.00  0.00     0.010 A 
ATOM     34  C   UNL A   1      38.988  27.219  30.264  1.00  0.00     0.010 A 
ATOM     35  C   UNL A   1      39.067  28.402  29.520  1.00  0.00    -0.014 A 
BRANCH  35  36
ATOM     36  C   UNL A   1      39.206  29.691  30.175  1.00  0.00     0.031 A 
ATOM     37  C   UNL A   1      40.576  30.265  30.160  1.00  0.00     0.074 A 
ATOM     38  C   UNL A   1      38.113  30.330  30.635  1.00  0.00     0.049 A 
ATOM     39  N   UNL A   1      41.239  30.808  31.128  1.00  0.00    -0.248 NA
ATOM     40  C   UNL A   1      41.339  30.136  28.906  1.00  0.00     0.031 C 
ATOM     41  C   UNL A   1      36.708  29.933  30.475  1.00  0.00     0.029 A 
ATOM     42  N   UNL A   1      38.017  31.564  31.194  1.00  0.00    -0.354 N 
ATOM     43  C   UNL A   1      42.434  31.248  30.564  1.00  0.00     0.074 A 
ATOM     44  C   UNL A   1      42.497  30.701  29.235  1.00  0.00     0.031 C 
ATOM     45  C   UNL A   1      35.927  31.020  30.646  1.00  0.00     0.029 A 
ATOM     46  C   UNL A   1      36.766  32.140  31.032  1.00  0.00     0.049 A 
ATOM     47  H   UNL A   1      38.760  32.004  31.668  1.00  0.00     0.167 HD
ATOM     48  C   UNL A   1      43.195  32.213  31.142  1.00  0.00     0.037 A 
ATOM     49  C   UNL A   1      36.480  33.463  31.076  1.00  0.00     0.037 A 
ATOM     50  C   UNL A   1      42.954  32.323  32.553  1.00  0.00     0.049 A 
ATOM     51  C   UNL A   1      37.617  34.154  31.738  1.00  0.00     0.074 A 
ATOM     52  C   UNL A   1      43.056  31.447  33.618  1.00  0.00     0.029 A 
ATOM     53  N   UNL A   1      42.222  33.387  33.018  1.00  0.00    -0.354 N 
ATOM     54  N   UNL A   1      37.906  34.047  33.005  1.00  0.00    -0.248 NA
ATOM     55  C   UNL A   1      38.707  34.623  30.890  1.00  0.00     0.031 C 
ATOM     56  C   UNL A   1      41.978  31.791  34.483  1.00  0.00     0.029 A 
ATOM     57  C   UNL A   1      41.313  32.872  33.908  1.00  0.00     0.049 A 
ATOM     58  H   UNL A   1      42.329  34.332  32.766  1.00  0.00     0.167 HD
ATOM     59  C   UNL A   1      39.293  34.021  33.052  1.00  0.00     0.074 A 
ATOM     60  C   UNL A   1      39.730  34.478  31.737  1.00  0.00     0.031 C 
ATOM     61  C   UNL A   1      39.961  33.358  34.042  1.00  0.00     0.037 A 
BRANCH  48  62
ATOM     62  C   UNL A   1      43.909  33.270  30.345  1.00  0.00     0.057 A 
ATOM     63  C   UNL A   1      45.260  33.548  30.603  1.00  0.00     0.134 A 
ATOM     64  C   UNL A   1      43.241  34.213  29.533  1.00  0.00     0.134 A 
ATOM     65  F   UNL A   1      45.990  32.740  31.387  1.00  0.00    -0.206 F 
ATOM     66  C   UNL A   1      45.886  34.708  30.132  1.00  0.00     0.040 A 
ATOM     67  C   UNL A   1      43.871  35.346  29.015  1.00  0.00     0.040 A 
ATOM     68  F   UNL A   1      41.927  34.143  29.286  1.00  0.00    -0.206 F 
ATOM     69  C   UNL A   1      45.191  35.612  29.338  1.00  0.00     0.006 A 
ENDBRANCH  48  62
BRANCH  49  70
ATOM     70  C   UNL A   1      35.444  34.182  30.298  1.00  0.00     0.057 A 
ATOM     71  C   UNL A   1      35.449  34.167  28.899  1.00  0.00     0.134 A 
ATOM     72  C   UNL A   1      34.293  34.724  30.904  1.00  0.00     0.134 A 
ATOM     73  F   UNL A   1      36.473  33.621  28.229  1.00  0.00    -0.206 F 
ATOM     74  C   UNL A   1      34.377  34.666  28.146  1.00  0.00     0.040 A 
ATOM     75  C   UNL A   1      33.226  35.242  30.165  1.00  0.00     0.040 A 
ATOM     76  F   UNL A   1      34.124  34.696  32.234  1.00  0.00    -0.206 F 
ATOM     77  C   UNL A   1      33.261  35.206  28.778  1.00  0.00     0.006 A 
ENDBRANCH  49  70
BRANCH  61  78
ATOM     78  C   UNL A   1      39.169  32.844  35.212  1.00  0.00     0.057 A 
ATOM     79  C   UNL A   1      38.623  31.553  35.272  1.00  0.00     0.134 A 
ATOM     80  C   UNL A   1      39.097  33.613  36.379  1.00  0.00     0.134 A 
ATOM     81  F   UNL A   1      38.747  30.699  34.249  1.00  0.00    -0.206 F 
ATOM     82  C   UNL A   1      37.983  31.072  36.417  1.00  0.00     0.040 A 
ATOM     83  C   UNL A   1      38.492  33.131  37.542  1.00  0.00     0.040 A 
ATOM     84  F   UNL A   1      39.659  34.831  36.422  1.00  0.00    -0.206 F 
ATOM     85  C   UNL A   1      37.920  31.862  37.560  1.00  0.00     0.006 A 
ENDBRANCH  61  78
ENDBRANCH  35  36
ENDBRANCH  28  30
ENDBRANCH  27  28
ENDBRANCH  26  27
ENDBRANCH   1  26
TORSDOF 17
ENDMDL
MODEL 2
REMARK VINA RESULT:     -10.6      1.916      4.253
REMARK SMILES Cc1n[nH]c(SCC[C@@H]2CCC[C@]2([NH2+]C(C)C)C(=O)OCCOC(=O)c2ccc(-c3c4nc(c(-c5c(F)cccc5F)c5ccc([nH]5)c(-c5c(F)cccc5F)c5nc(c(-c6c(F)cccc6F)c6ccc3[nH]6)C=C5)C=C4)cc2)n1
REMARK SMILES IDX 21 1 20 2 18 3 19 4 13 5 9 6 10 7 11 8 12 9 8 10 7 11 6 12
REMARK SMILES IDX 5 13 1 14 2 15 3 16 80 17 4 18 14 20 15 23 16 24 17 25 22 26
REMARK SMILES IDX 23 27 24 28 25 29 26 30 27 31 79 32 28 33 78 34 29 35 30 36
REMARK SMILES IDX 31 37 72 38 32 39 77 40 71 41 73 42 33 43 76 44 70 45 69 46
REMARK SMILES IDX 34 48 60 49 43 50 59 51 44 52 47 53 58 54 74 55 45 56 46 57
REMARK SMILES IDX 57 59 75 60 48 61 35 62 36 63 41 64 37 65 38 66 40 67 42 68
REMARK SMILES IDX 39 69 61 70 62 71 67 72 63 73 64 74 66 75 68 76 65 77 49 78
REMARK SMILES IDX 50 79 55 80 51 81 52 82 54 83 56 84 53 85
REMARK H PARENT 4 19 14 21 14 22 73 47 47 58
REMARK Flexibility Score: inf
ROOT
ATOM      1  C   UNL A   1      37.753  23.742  25.839  1.00  0.00     0.274 C 
ENDROOT
BRANCH   1   2
ATOM      2  O   UNL A   1      37.091  22.573  25.303  1.00  0.00    -0.457 OA
BRANCH   2   3
ATOM      3  C   UNL A   1      36.219  22.765  24.269  1.00  0.00     0.368 C 
ATOM      4  O   UNL A   1      36.562  23.232  23.184  1.00  0.00    -0.245 OA
BRANCH   3   5
ATOM      5  C   UNL A   1      34.722  22.540  24.672  1.00  0.00     0.197 C 
ATOM      6  C   UNL A   1      34.080  23.532  25.694  1.00  0.00     0.063 C 
ATOM      7  C   UNL A   1      34.434  22.999  27.075  1.00  0.00     0.011 C 
ATOM      8  C   UNL A   1      34.220  21.509  26.912  1.00  0.00     0.008 C 
ATOM      9  C   UNL A   1      34.581  21.189  25.458  1.00  0.00     0.081 C 
BRANCH   6  10
ATOM     10  C   UNL A   1      34.245  25.052  25.595  1.00  0.00     0.022 C 
BRANCH  10  11
ATOM     11  C   UNL A   1      32.937  25.821  25.822  1.00  0.00     0.079 C 
BRANCH  11  12
ATOM     12  S   UNL A   1      33.108  27.642  25.773  1.00  0.00    -0.087 SA
BRANCH  12  13
ATOM     13  C   UNL A   1      31.838  28.182  24.743  1.00  0.00     0.183 A 
ATOM     14  C   UNL A   1      28.745  28.115  23.056  1.00  0.00     0.092 C 
ATOM     15  C   UNL A   1      30.090  28.401  23.600  1.00  0.00     0.148 A 
ATOM     16  N   UNL A   1      30.796  29.492  23.264  1.00  0.00    -0.158 NA
ATOM     17  N   UNL A   1      30.704  27.570  24.504  1.00  0.00    -0.206 NA
ATOM     18  N   UNL A   1      31.882  29.350  24.048  1.00  0.00    -0.254 N 
ATOM     19  H   UNL A   1      32.613  30.007  24.110  1.00  0.00     0.192 HD
ENDBRANCH  12  13
ENDBRANCH  11  12
ENDBRANCH  10  11
ENDBRANCH   6  10
BRANCH   5  20
ATOM     20  N   UNL A   1      33.870  22.547  23.435  1.00  0.00    -0.330 N 
ATOM     21  H   UNL A   1      34.238  21.837  22.802  1.00  0.00     0.347 HD
ATOM     22  H   UNL A   1      33.920  23.500  23.078  1.00  0.00     0.347 HD
BRANCH  20  23
ATOM     23  C   UNL A   1      32.430  22.276  23.626  1.00  0.00     0.176 C 
ATOM     24  C   UNL A   1      31.521  23.446  23.251  1.00  0.00     0.075 C 
ATOM     25  C   UNL A   1      32.083  21.062  22.761  1.00  0.00     0.075 C 
ENDBRANCH  20  23
ENDBRANCH   5  20
ENDBRANCH   3   5
ENDBRANCH   2   3
ENDBRANCH   1   2
BRANCH   1  26
ATOM     26  C   UNL A   1      39.089  23.443  26.522  1.00  0.00     0.275 C 
BRANCH  26  27
ATOM     27  O   UNL A   1      39.940  24.592  26.532  1.00  0.00    -0.458 OA
BRANCH  27  28
ATOM     28  C   UNL A   1      40.352  24.913  27.775  1.00  0.00     0.338 C 
ATOM     29  O   UNL A   1      41.261  24.395  28.401  1.00  0.00    -0.246 OA
BRANCH  28  30
ATOM     30  C   UNL A   1      39.525  25.971  28.353  1.00  0.00     0.060 A 
ATOM     31  C   UNL A   1      39.321  27.097  27.555  1.00  0.00     0.016 A 
ATOM     32  C   UNL A   1      39.295  25.988  29.727  1.00  0.00     0.016 A 
ATOM     33  C   UNL A   1      39.172  28.322  28.155  1.00  0.00     0.010 A 
ATOM     34  C   UNL A   1      39.093  27.210  30.329  1.00  0.00     0.010 A 
ATOM     35  C   UNL A   1      39.168  28.368  29.545  1.00  0.00    -0.014 A 
BRANCH  35  36
ATOM     36  C   UNL A   1      39.282  29.680  30.157  1.00  0.00     0.031 A 
ATOM     37  C   UNL A   1      40.623  30.311  30.059  1.00  0.00     0.074 A 
ATOM     38  C   UNL A   1      38.185  30.286  30.652  1.00  0.00     0.049 A 
ATOM     39  N   UNL A   1      41.307  30.911  30.978  1.00  0.00    -0.248 NA
ATOM     40  C   UNL A   1      41.330  30.178  28.773  1.00  0.00     0.031 C 
ATOM     41  C   UNL A   1      36.793  29.825  30.572  1.00  0.00     0.029 A 
ATOM     42  N   UNL A   1      38.061  31.531  31.181  1.00  0.00    -0.354 N 
ATOM     43  C   UNL A   1      42.453  31.384  30.344  1.00  0.00     0.074 A 
ATOM     44  C   UNL A   1      42.477  30.801  29.030  1.00  0.00     0.031 C 
ATOM     45  C   UNL A   1      35.973  30.882  30.751  1.00  0.00     0.029 A 
ATOM     46  C   UNL A   1      36.780  32.048  31.064  1.00  0.00     0.049 A 
ATOM     47  H   UNL A   1      38.806  32.015  31.605  1.00  0.00     0.167 HD
ATOM     48  C   UNL A   1      43.198  32.398  30.858  1.00  0.00     0.037 A 
ATOM     49  C   UNL A   1      36.439  33.358  31.086  1.00  0.00     0.037 A 
ATOM     50  C   UNL A   1      43.020  32.539  32.275  1.00  0.00     0.049 A 
ATOM     51  C   UNL A   1      37.574  34.116  31.672  1.00  0.00     0.074 A 
ATOM     52  C   UNL A   1      43.210  31.701  33.357  1.00  0.00     0.029 A 
ATOM     53  N   UNL A   1      42.265  33.584  32.746  1.00  0.00    -0.354 N 
ATOM     54  N   UNL A   1      37.927  34.059  32.926  1.00  0.00    -0.248 NA
ATOM     55  C   UNL A   1      38.601  34.605  30.760  1.00  0.00     0.031 C 
ATOM     56  C   UNL A   1      42.161  32.024  34.265  1.00  0.00     0.029 A 
ATOM     57  C   UNL A   1      41.422  33.058  33.693  1.00  0.00     0.049 A 
ATOM     58  H   UNL A   1      42.318  34.525  32.463  1.00  0.00     0.167 HD
ATOM     59  C   UNL A   1      39.315  34.093  32.906  1.00  0.00     0.074 A 
ATOM     60  C   UNL A   1      39.669  34.530  31.559  1.00  0.00     0.031 C 
ATOM     61  C   UNL A   1      40.058  33.489  33.880  1.00  0.00     0.037 A 
BRANCH  48  62
ATOM     62  C   UNL A   1      43.825  33.460  29.997  1.00  0.00     0.057 A 
ATOM     63  C   UNL A   1      43.018  34.263  29.178  1.00  0.00     0.134 A 
ATOM     64  C   UNL A   1      45.211  33.528  29.735  1.00  0.00     0.134 A 
ATOM     65  F   UNL A   1      41.683  34.259  29.312  1.00  0.00    -0.206 F 
ATOM     66  C   UNL A   1      43.547  35.038  28.138  1.00  0.00     0.040 A 
ATOM     67  C   UNL A   1      45.753  34.337  28.735  1.00  0.00     0.040 A 
ATOM     68  F   UNL A   1      46.098  32.743  30.361  1.00  0.00    -0.206 F 
ATOM     69  C   UNL A   1      44.918  35.073  27.912  1.00  0.00     0.006 A 
ENDBRANCH  48  62
BRANCH  49  70
ATOM     70  C   UNL A   1      35.336  34.009  30.341  1.00  0.00     0.057 A 
ATOM     71  C   UNL A   1      34.312  34.689  31.009  1.00  0.00     0.134 A 
ATOM     72  C   UNL A   1      35.369  34.169  28.941  1.00  0.00     0.134 A 
ATOM     73  F   UNL A   1      34.228  34.647  32.346  1.00  0.00    -0.206 F 
ATOM     74  C   UNL A   1      33.374  35.477  30.328  1.00  0.00     0.040 A 
ATOM     75  C   UNL A   1      34.429  34.936  28.248  1.00  0.00     0.040 A 
ATOM     76  F   UNL A   1      36.363  33.655  28.203  1.00  0.00    -0.206 F 
ATOM     77  C   UNL A   1      33.430  35.602  28.943  1.00  0.00     0.006 A 
ENDBRANCH  49  70
BRANCH  61  78
ATOM     78  C   UNL A   1      39.347  32.977  35.101  1.00  0.00     0.057 A 
ATOM     79  C   UNL A   1      39.006  33.786  36.197  1.00  0.00     0.134 A 
ATOM     80  C   UNL A   1      38.845  31.671  35.102  1.00  0.00     0.134 A 
ATOM     81  F   UNL A   1      39.338  35.082  36.231  1.00  0.00    -0.206 F 
ATOM     82  C   UNL A   1      38.254  33.301  37.269  1.00  0.00     0.040 A 
ATOM     83  C   UNL A   1      38.061  31.185  36.151  1.00  0.00     0.040 A 
ATOM     84  F   UNL A   1      39.068  30.859  34.057  1.00  0.00    -0.206 F 
ATOM     85  C   UNL A   1      37.774  31.996  37.246  1.00  0.00     0.006 A 
ENDBRANCH  61  78
ENDBRANCH  35  36
ENDBRANCH  28  30
ENDBRANCH  27  28
ENDBRANCH  26  27
ENDBRANCH   1  26
TORSDOF 17
ENDMDL
MODEL 3
REMARK VINA RESULT:     -10.6      5.336      9.620
REMARK SMILES Cc1n[nH]c(SCC[C@@H]2CCC[C@]2([NH2+]C(C)C)C(=O)OCCOC(=O)c2ccc(-c3c4nc(c(-c5c(F)cccc5F)c5ccc([nH]5)c(-c5c(F)cccc5F)c5nc(c(-c6c(F)cccc6F)c6ccc3[nH]6)C=C5)C=C4)cc2)n1
REMARK SMILES IDX 21 1 20 2 18 3 19 4 13 5 9 6 10 7 11 8 12 9 8 10 7 11 6 12
REMARK SMILES IDX 5 13 1 14 2 15 3 16 80 17 4 18 14 20 15 23 16 24 17 25 22 26
REMARK SMILES IDX 23 27 24 28 25 29 26 30 27 31 79 32 28 33 78 34 29 35 30 36
REMARK SMILES IDX 31 37 72 38 32 39 77 40 71 41 73 42 33 43 76 44 70 45 69 46
REMARK SMILES IDX 34 48 60 49 43 50 59 51 44 52 47 53 58 54 74 55 45 56 46 57
REMARK SMILES IDX 57 59 75 60 48 61 35 62 36 63 41 64 37 65 38 66 40 67 42 68
REMARK SMILES IDX 39 69 61 70 62 71 67 72 63 73 64 74 66 75 68 76 65 77 49 78
REMARK SMILES IDX 50 79 55 80 51 81 52 82 54 83 56 84 53 85
REMARK H PARENT 4 19 14 21 14 22 73 47 47 58
REMARK Flexibility Score: inf
ROOT
ATOM      1  C   UNL A   1      33.577  30.055  26.955  1.00  0.00     0.274 C 
ENDROOT
BRANCH   1   2
ATOM      2  O   UNL A   1      33.954  28.806  26.330  1.00  0.00    -0.457 OA
BRANCH   2   3
ATOM      3  C   UNL A   1      33.644  28.647  25.010  1.00  0.00     0.368 C 
ATOM      4  O   UNL A   1      33.704  29.566  24.195  1.00  0.00    -0.245 OA
BRANCH   3   5
ATOM      5  C   UNL A   1      33.005  27.254  24.686  1.00  0.00     0.197 C 
ATOM      6  C   UNL A   1      31.446  27.149  24.665  1.00  0.00     0.063 C 
ATOM      7  C   UNL A   1      31.022  26.904  26.106  1.00  0.00     0.011 C 
ATOM      8  C   UNL A   1      32.050  25.900  26.581  1.00  0.00     0.008 C 
ATOM      9  C   UNL A   1      33.343  26.236  25.833  1.00  0.00     0.081 C 
BRANCH   6  10
ATOM     10  C   UNL A   1      30.553  28.173  23.959  1.00  0.00     0.022 C 
BRANCH  10  11
ATOM     11  C   UNL A   1      29.474  27.533  23.076  1.00  0.00     0.079 C 
BRANCH  11  12
ATOM     12  S   UNL A   1      27.824  28.312  23.207  1.00  0.00    -0.087 SA
BRANCH  12  13
ATOM     13  C   UNL A   1      28.054  29.936  22.684  1.00  0.00     0.183 A 
ATOM     14  C   UNL A   1      28.803  33.371  22.920  1.00  0.00     0.092 C 
ATOM     15  C   UNL A   1      28.416  31.999  22.528  1.00  0.00     0.148 A 
ATOM     16  N   UNL A   1      28.043  31.674  21.281  1.00  0.00    -0.158 NA
ATOM     17  N   UNL A   1      28.430  30.954  23.418  1.00  0.00    -0.206 NA
ATOM     18  N   UNL A   1      27.868  30.344  21.399  1.00  0.00    -0.254 N 
ATOM     19  H   UNL A   1      27.636  29.744  20.654  1.00  0.00     0.192 HD
ENDBRANCH  12  13
ENDBRANCH  11  12
ENDBRANCH  10  11
ENDBRANCH   6  10
BRANCH   5  20
ATOM     20  N   UNL A   1      33.512  26.772  23.357  1.00  0.00    -0.330 N 
ATOM     21  H   UNL A   1      34.488  26.502  23.478  1.00  0.00     0.347 HD
ATOM     22  H   UNL A   1      33.364  27.549  22.714  1.00  0.00     0.347 HD
BRANCH  20  23
ATOM     23  C   UNL A   1      32.799  25.627  22.757  1.00  0.00     0.176 C 
ATOM     24  C   UNL A   1      32.376  25.849  21.304  1.00  0.00     0.075 C 
ATOM     25  C   UNL A   1      33.738  24.422  22.835  1.00  0.00     0.075 C 
ENDBRANCH  20  23
ENDBRANCH   5  20
ENDBRANCH   3   5
ENDBRANCH   2   3
ENDBRANCH   1   2
BRANCH   1  26
ATOM     26  C   UNL A   1      34.759  30.860  27.500  1.00  0.00     0.275 C 
BRANCH  26  27
ATOM     27  O   UNL A   1      35.230  30.325  28.738  1.00  0.00    -0.458 OA
BRANCH  27  28
ATOM     28  C   UNL A   1      36.517  30.647  28.980  1.00  0.00     0.338 C 
ATOM     29  O   UNL A   1      36.936  31.692  29.447  1.00  0.00    -0.246 OA
BRANCH  28  30
ATOM     30  C   UNL A   1      37.421  29.579  28.555  1.00  0.00     0.060 A 
ATOM     31  C   UNL A   1      37.736  28.621  29.520  1.00  0.00     0.016 A 
ATOM     32  C   UNL A   1      38.185  29.745  27.403  1.00  0.00     0.016 A 
ATOM     33  C   UNL A   1      38.971  28.025  29.491  1.00  0.00     0.010 A 
ATOM     34  C   UNL A   1      39.406  29.108  27.344  1.00  0.00     0.010 A 
ATOM     35  C   UNL A   1      39.832  28.365  28.451  1.00  0.00    -0.014 A 
BRANCH  35  36
ATOM     36  C   UNL A   1      41.214  27.941  28.582  1.00  0.00     0.031 A 
ATOM     37  C   UNL A   1      41.540  26.636  27.954  1.00  0.00     0.074 A 
ATOM     38  C   UNL A   1      42.120  28.772  29.134  1.00  0.00     0.049 A 
ATOM     39  N   UNL A   1      42.225  25.651  28.437  1.00  0.00    -0.248 NA
ATOM     40  C   UNL A   1      40.945  26.365  26.634  1.00  0.00     0.031 C 
ATOM     41  C   UNL A   1      41.918  30.163  29.561  1.00  0.00     0.029 A 
ATOM     42  N   UNL A   1      43.461  28.606  29.271  1.00  0.00    -0.354 N 
ATOM     43  C   UNL A   1      42.296  24.707  27.416  1.00  0.00     0.074 A 
ATOM     44  C   UNL A   1      41.392  25.137  26.382  1.00  0.00     0.031 C 
ATOM     45  C   UNL A   1      43.117  30.781  29.614  1.00  0.00     0.029 A 
ATOM     46  C   UNL A   1      44.156  29.804  29.337  1.00  0.00     0.049 A 
ATOM     47  H   UNL A   1      43.895  27.724  29.320  1.00  0.00     0.167 HD
ATOM     48  C   UNL A   1      43.254  23.744  27.385  1.00  0.00     0.037 A 
ATOM     49  C   UNL A   1      45.465  29.990  29.045  1.00  0.00     0.037 A 
ATOM     50  C   UNL A   1      43.794  23.473  28.687  1.00  0.00     0.049 A 
ATOM     51  C   UNL A   1      46.128  28.662  29.058  1.00  0.00     0.074 A 
ATOM     52  C   UNL A   1      43.250  23.051  29.886  1.00  0.00     0.029 A 
ATOM     53  N   UNL A   1      45.047  23.943  28.995  1.00  0.00    -0.354 N 
ATOM     54  N   UNL A   1      46.340  27.955  30.134  1.00  0.00    -0.248 NA
ATOM     55  C   UNL A   1      46.163  27.912  27.807  1.00  0.00     0.031 C 
ATOM     56  C   UNL A   1      43.989  23.741  30.890  1.00  0.00     0.029 A 
ATOM     57  C   UNL A   1      44.952  24.510  30.240  1.00  0.00     0.049 A 
ATOM     58  H   UNL A   1      45.853  23.883  28.434  1.00  0.00     0.167 HD
ATOM     59  C   UNL A   1      46.112  26.641  29.747  1.00  0.00     0.074 A 
ATOM     60  C   UNL A   1      46.106  26.667  28.287  1.00  0.00     0.031 C 
ATOM     61  C   UNL A   1      45.661  25.705  30.632  1.00  0.00     0.037 A 
BRANCH  48  62
ATOM     62  C   UNL A   1      43.918  23.301  26.110  1.00  0.00     0.057 A 
ATOM     63  C   UNL A   1      43.968  21.936  25.786  1.00  0.00     0.134 A 
ATOM     64  C   UNL A   1      44.753  24.137  25.338  1.00  0.00     0.134 A 
ATOM     65  F   UNL A   1      43.243  21.040  26.471  1.00  0.00    -0.206 F 
ATOM     66  C   UNL A   1      44.826  21.435  24.800  1.00  0.00     0.040 A 
ATOM     67  C   UNL A   1      45.573  23.654  24.317  1.00  0.00     0.040 A 
ATOM     68  F   UNL A   1      44.894  25.444  25.596  1.00  0.00    -0.206 F 
ATOM     69  C   UNL A   1      45.635  22.294  24.065  1.00  0.00     0.006 A 
ENDBRANCH  48  62
BRANCH  49  70
ATOM     70  C   UNL A   1      46.087  31.195  28.448  1.00  0.00     0.057 A 
ATOM     71  C   UNL A   1      47.206  31.798  29.033  1.00  0.00     0.134 A 
ATOM     72  C   UNL A   1      45.736  31.663  27.166  1.00  0.00     0.134 A 
ATOM     73  F   UNL A   1      47.655  31.384  30.226  1.00  0.00    -0.206 F 
ATOM     74  C   UNL A   1      47.929  32.810  28.386  1.00  0.00     0.040 A 
ATOM     75  C   UNL A   1      46.437  32.684  26.518  1.00  0.00     0.040 A 
ATOM     76  F   UNL A   1      44.749  31.091  26.459  1.00  0.00    -0.206 F 
ATOM     77  C   UNL A   1      47.546  33.256  27.125  1.00  0.00     0.006 A 
ENDBRANCH  49  70
BRANCH  61  78
ATOM     78  C   UNL A   1      45.628  26.064  32.091  1.00  0.00     0.057 A 
ATOM     79  C   UNL A   1      44.508  26.621  32.728  1.00  0.00     0.134 A 
ATOM     80  C   UNL A   1      46.696  25.685  32.912  1.00  0.00     0.134 A 
ATOM     81  F   UNL A   1      43.393  26.905  32.046  1.00  0.00    -0.206 F 
ATOM     82  C   UNL A   1      44.476  26.846  34.107  1.00  0.00     0.040 A 
ATOM     83  C   UNL A   1      46.663  25.871  34.296  1.00  0.00     0.040 A 
ATOM     84  F   UNL A   1      47.773  25.082  32.386  1.00  0.00    -0.206 F 
ATOM     85  C   UNL A   1      45.556  26.465  34.897  1.00  0.00     0.006 A 
ENDBRANCH  61  78
ENDBRANCH  35  36
ENDBRANCH  28  30
ENDBRANCH  27  28
ENDBRANCH  26  27
ENDBRANCH   1  26
TORSDOF 17
ENDMDL
