MODEL 1
REMARK VINA RESULT:     -11.2      0.000      0.000
REMARK SMILES CCOc1ccccc1[C@H](C(=O)OCCOC(=O)c1ccc(-c2c3nc(c(-c4c(F)cccc4F)c4ccc([nH]4)c(-c4c(F)cccc4F)c4nc(c(-c5c(F)cccc5F)c5ccc2[nH]5)C=C4)C=C3)cc1)[NH+]1CCC([NH+]2CCSCC2)CC1
REMARK SMILES IDX 14 1 13 2 11 3 12 4 10 5 9 6 4 7 5 8 6 9 8 10 7 11 3 12 2 13
REMARK SMILES IDX 1 14 73 15 74 16 84 17 75 19 83 20 76 21 77 22 78 23 82 24
REMARK SMILES IDX 79 26 81 27 80 28 15 29 16 30 17 31 18 32 19 33 20 34 72 35
REMARK SMILES IDX 21 36 71 37 22 38 23 39 24 40 65 41 25 42 70 43 64 44 66 45
REMARK SMILES IDX 26 46 69 47 63 48 62 49 27 51 53 52 36 53 52 54 37 55 40 56
REMARK SMILES IDX 51 57 67 58 38 59 39 60 50 62 68 63 41 64 28 65 29 66 34 67
REMARK SMILES IDX 30 68 31 69 33 70 35 71 32 72 54 73 55 74 60 75 56 76 57 77
REMARK SMILES IDX 59 78 61 79 58 80 42 81 43 82 48 83 44 84 45 85 47 86 49 87
REMARK SMILES IDX 46 88
REMARK H PARENT 73 18 77 25 66 50 40 61
REMARK Flexibility Score: inf
ROOT
ATOM      1  C   UNL A   1      36.303  22.931  23.301  1.00  0.00     0.274 C 
ENDROOT
BRANCH   1   2
ATOM      2  O   UNL A   1      35.199  23.788  23.656  1.00  0.00    -0.457 OA
BRANCH   2   3
ATOM      3  C   UNL A   1      34.039  23.577  22.946  1.00  0.00     0.370 C 
ATOM      4  O   UNL A   1      34.009  23.496  21.722  1.00  0.00    -0.245 OA
BRANCH   3   5
ATOM      5  C   UNL A   1      32.816  23.483  23.906  1.00  0.00     0.330 C 
BRANCH   5   6
ATOM      6  C   UNL A   1      33.143  22.789  25.239  1.00  0.00     0.063 A 
ATOM      7  C   UNL A   1      33.136  21.389  25.404  1.00  0.00     0.129 A 
ATOM      8  C   UNL A   1      33.539  20.809  26.610  1.00  0.00     0.047 A 
ATOM      9  C   UNL A   1      34.002  21.613  27.651  1.00  0.00     0.004 A 
ATOM     10  C   UNL A   1      33.615  23.582  26.305  1.00  0.00     0.014 A 
ATOM     11  C   UNL A   1      34.044  22.997  27.498  1.00  0.00     0.001 A 
BRANCH   7  12
ATOM     12  O   UNL A   1      32.666  20.602  24.389  1.00  0.00    -0.493 OA
BRANCH  12  13
ATOM     13  C   UNL A   1      33.439  19.425  24.141  1.00  0.00     0.226 C 
ATOM     14  C   UNL A   1      32.476  18.263  23.945  1.00  0.00     0.049 C 
ENDBRANCH  12  13
ENDBRANCH   7  12
ENDBRANCH   5   6
BRANCH   5  15
ATOM     15  N   UNL A   1      32.053  24.771  24.146  1.00  0.00    -0.319 N 
ATOM     16  C   UNL A   1      32.558  25.912  23.380  1.00  0.00     0.269 C 
ATOM     17  C   UNL A   1      30.598  24.629  24.028  1.00  0.00     0.269 C 
ATOM     18  H   UNL A   1      32.240  24.987  25.126  1.00  0.00     0.349 HD
ATOM     19  C   UNL A   1      31.851  27.223  23.735  1.00  0.00     0.126 C 
ATOM     20  C   UNL A   1      29.832  25.921  24.342  1.00  0.00     0.126 C 
ATOM     21  C   UNL A   1      30.346  27.091  23.482  1.00  0.00     0.195 C 
BRANCH  21  22
ATOM     22  N   UNL A   1      29.554  28.339  23.635  1.00  0.00    -0.331 N 
ATOM     23  C   UNL A   1      28.343  28.318  22.785  1.00  0.00     0.273 C 
ATOM     24  C   UNL A   1      30.325  29.580  23.426  1.00  0.00     0.273 C 
ATOM     25  H   UNL A   1      29.272  28.356  24.615  1.00  0.00     0.348 HD
ATOM     26  C   UNL A   1      27.340  29.442  23.080  1.00  0.00     0.131 C 
ATOM     27  C   UNL A   1      29.551  30.854  23.797  1.00  0.00     0.131 C 
ATOM     28  S   UNL A   1      28.057  31.085  22.789  1.00  0.00    -0.150 SA
ENDBRANCH  21  22
ENDBRANCH   5  15
ENDBRANCH   3   5
ENDBRANCH   2   3
ENDBRANCH   1   2
BRANCH   1  29
ATOM     29  C   UNL A   1      36.439  21.693  24.188  1.00  0.00     0.275 C 
BRANCH  29  30
ATOM     30  O   UNL A   1      36.890  22.051  25.500  1.00  0.00    -0.458 OA
BRANCH  30  31
ATOM     31  C   UNL A   1      38.157  21.658  25.763  1.00  0.00     0.338 C 
ATOM     32  O   UNL A   1      38.701  20.628  25.402  1.00  0.00    -0.246 OA
BRANCH  31  33
ATOM     33  C   UNL A   1      38.896  22.757  26.401  1.00  0.00     0.060 A 
ATOM     34  C   UNL A   1      38.417  24.048  26.162  1.00  0.00     0.016 A 
ATOM     35  C   UNL A   1      40.046  22.552  27.168  1.00  0.00     0.016 A 
ATOM     36  C   UNL A   1      39.092  25.147  26.679  1.00  0.00     0.010 A 
ATOM     37  C   UNL A   1      40.745  23.660  27.658  1.00  0.00     0.010 A 
ATOM     38  C   UNL A   1      40.279  24.959  27.396  1.00  0.00    -0.014 A 
BRANCH  38  39
ATOM     39  C   UNL A   1      41.116  26.144  27.677  1.00  0.00     0.031 A 
ATOM     40  C   UNL A   1      40.512  27.258  28.483  1.00  0.00     0.074 A 
ATOM     41  C   UNL A   1      42.403  26.194  27.296  1.00  0.00     0.049 A 
ATOM     42  N   UNL A   1      41.050  28.383  28.879  1.00  0.00    -0.248 NA
ATOM     43  C   UNL A   1      39.120  27.066  28.924  1.00  0.00     0.031 C 
ATOM     44  C   UNL A   1      43.123  25.134  26.594  1.00  0.00     0.029 A 
ATOM     45  N   UNL A   1      43.337  27.184  27.463  1.00  0.00    -0.354 N 
ATOM     46  C   UNL A   1      40.072  29.018  29.632  1.00  0.00     0.074 A 
ATOM     47  C   UNL A   1      38.904  28.166  29.629  1.00  0.00     0.031 C 
ATOM     48  C   UNL A   1      44.388  25.537  26.379  1.00  0.00     0.029 A 
ATOM     49  C   UNL A   1      44.554  26.893  26.898  1.00  0.00     0.049 A 
ATOM     50  H   UNL A   1      43.152  28.024  27.942  1.00  0.00     0.167 HD
ATOM     51  C   UNL A   1      40.138  30.211  30.267  1.00  0.00     0.037 A 
ATOM     52  C   UNL A   1      45.660  27.654  26.795  1.00  0.00     0.037 A 
ATOM     53  C   UNL A   1      41.274  31.088  30.217  1.00  0.00     0.049 A 
ATOM     54  C   UNL A   1      45.655  29.044  27.380  1.00  0.00     0.074 A 
ATOM     55  C   UNL A   1      41.417  32.349  30.766  1.00  0.00     0.029 A 
ATOM     56  N   UNL A   1      42.459  30.797  29.558  1.00  0.00    -0.354 N 
ATOM     57  N   UNL A   1      44.723  29.645  28.079  1.00  0.00    -0.248 NA
ATOM     58  C   UNL A   1      46.854  29.863  27.150  1.00  0.00     0.031 C 
ATOM     59  C   UNL A   1      42.676  32.839  30.402  1.00  0.00     0.029 A 
ATOM     60  C   UNL A   1      43.330  31.865  29.665  1.00  0.00     0.049 A 
ATOM     61  H   UNL A   1      42.651  29.955  29.086  1.00  0.00     0.167 HD
ATOM     62  C   UNL A   1      45.230  30.901  28.392  1.00  0.00     0.074 A 
ATOM     63  C   UNL A   1      46.557  30.972  27.816  1.00  0.00     0.031 C 
ATOM     64  C   UNL A   1      44.651  31.908  29.091  1.00  0.00     0.037 A 
BRANCH  51  65
ATOM     65  C   UNL A   1      38.918  30.646  31.017  1.00  0.00     0.057 A 
ATOM     66  C   UNL A   1      38.707  30.278  32.352  1.00  0.00     0.134 A 
ATOM     67  C   UNL A   1      37.941  31.431  30.395  1.00  0.00     0.134 A 
ATOM     68  F   UNL A   1      39.597  29.505  32.992  1.00  0.00    -0.206 F 
ATOM     69  C   UNL A   1      37.555  30.663  33.038  1.00  0.00     0.040 A 
ATOM     70  C   UNL A   1      36.793  31.837  31.077  1.00  0.00     0.040 A 
ATOM     71  F   UNL A   1      38.082  31.809  29.116  1.00  0.00    -0.206 F 
ATOM     72  C   UNL A   1      36.596  31.449  32.401  1.00  0.00     0.006 A 
ENDBRANCH  51  65
BRANCH  52  73
ATOM     73  C   UNL A   1      46.855  27.150  26.072  1.00  0.00     0.057 A 
ATOM     74  C   UNL A   1      47.020  27.366  24.700  1.00  0.00     0.134 A 
ATOM     75  C   UNL A   1      47.832  26.391  26.729  1.00  0.00     0.134 A 
ATOM     76  F   UNL A   1      46.103  28.059  24.011  1.00  0.00    -0.206 F 
ATOM     77  C   UNL A   1      48.102  26.827  24.001  1.00  0.00     0.040 A 
ATOM     78  C   UNL A   1      48.930  25.865  26.047  1.00  0.00     0.040 A 
ATOM     79  F   UNL A   1      47.727  26.141  28.043  1.00  0.00    -0.206 F 
ATOM     80  C   UNL A   1      49.063  26.075  24.676  1.00  0.00     0.006 A 
ENDBRANCH  52  73
BRANCH  64  81
ATOM     81  C   UNL A   1      45.456  33.155  29.298  1.00  0.00     0.057 A 
ATOM     82  C   UNL A   1      46.323  33.300  30.388  1.00  0.00     0.134 A 
ATOM     83  C   UNL A   1      45.404  34.199  28.365  1.00  0.00     0.134 A 
ATOM     84  F   UNL A   1      46.409  32.339  31.321  1.00  0.00    -0.206 F 
ATOM     85  C   UNL A   1      47.101  34.448  30.552  1.00  0.00     0.040 A 
ATOM     86  C   UNL A   1      46.193  35.340  28.506  1.00  0.00     0.040 A 
ATOM     87  F   UNL A   1      44.601  34.116  27.295  1.00  0.00    -0.206 F 
ATOM     88  C   UNL A   1      47.042  35.468  29.604  1.00  0.00     0.006 A 
ENDBRANCH  64  81
ENDBRANCH  38  39
ENDBRANCH  31  33
ENDBRANCH  30  31
ENDBRANCH  29  30
ENDBRANCH   1  29
TORSDOF 16
ENDMDL
MODEL 2
REMARK VINA RESULT:     -11.0      2.320      4.688
REMARK SMILES CCOc1ccccc1[C@H](C(=O)OCCOC(=O)c1ccc(-c2c3nc(c(-c4c(F)cccc4F)c4ccc([nH]4)c(-c4c(F)cccc4F)c4nc(c(-c5c(F)cccc5F)c5ccc2[nH]5)C=C4)C=C3)cc1)[NH+]1CCC([NH+]2CCSCC2)CC1
REMARK SMILES IDX 14 1 13 2 11 3 12 4 10 5 9 6 4 7 5 8 6 9 8 10 7 11 3 12 2 13
REMARK SMILES IDX 1 14 73 15 74 16 84 17 75 19 83 20 76 21 77 22 78 23 82 24
REMARK SMILES IDX 79 26 81 27 80 28 15 29 16 30 17 31 18 32 19 33 20 34 72 35
REMARK SMILES IDX 21 36 71 37 22 38 23 39 24 40 65 41 25 42 70 43 64 44 66 45
REMARK SMILES IDX 26 46 69 47 63 48 62 49 27 51 53 52 36 53 52 54 37 55 40 56
REMARK SMILES IDX 51 57 67 58 38 59 39 60 50 62 68 63 41 64 28 65 29 66 34 67
REMARK SMILES IDX 30 68 31 69 33 70 35 71 32 72 54 73 55 74 60 75 56 76 57 77
REMARK SMILES IDX 59 78 61 79 58 80 42 81 43 82 48 83 44 84 45 85 47 86 49 87
REMARK SMILES IDX 46 88
REMARK H PARENT 73 18 77 25 66 50 40 61
REMARK Flexibility Score: inf
ROOT
ATOM      1  C   UNL A   1      36.420  23.230  23.464  1.00  0.00     0.274 C 
ENDROOT
BRANCH   1   2
ATOM      2  O   UNL A   1      35.658  24.061  24.364  1.00  0.00    -0.457 OA
BRANCH   2   3
ATOM      3  C   UNL A   1      34.443  24.490  23.881  1.00  0.00     0.370 C 
ATOM      4  O   UNL A   1      34.324  25.138  22.846  1.00  0.00    -0.245 OA
BRANCH   3   5
ATOM      5  C   UNL A   1      33.289  24.056  24.834  1.00  0.00     0.330 C 
BRANCH   5   6
ATOM      6  C   UNL A   1      32.025  24.919  24.689  1.00  0.00     0.063 A 
ATOM      7  C   UNL A   1      31.885  26.191  25.282  1.00  0.00     0.129 A 
ATOM      8  C   UNL A   1      30.755  26.975  25.035  1.00  0.00     0.047 A 
ATOM      9  C   UNL A   1      29.772  26.524  24.156  1.00  0.00     0.004 A 
ATOM     10  C   UNL A   1      31.019  24.485  23.804  1.00  0.00     0.014 A 
ATOM     11  C   UNL A   1      29.904  25.283  23.537  1.00  0.00     0.001 A 
BRANCH   7  12
ATOM     12  O   UNL A   1      32.842  26.626  26.158  1.00  0.00    -0.493 OA
BRANCH  12  13
ATOM     13  C   UNL A   1      33.649  27.701  25.673  1.00  0.00     0.226 C 
ATOM     14  C   UNL A   1      34.029  28.575  26.860  1.00  0.00     0.049 C 
ENDBRANCH  12  13
ENDBRANCH   7  12
ENDBRANCH   5   6
BRANCH   5  15
ATOM     15  N   UNL A   1      32.934  22.582  24.826  1.00  0.00    -0.319 N 
ATOM     16  C   UNL A   1      33.009  21.960  23.503  1.00  0.00     0.269 C 
ATOM     17  C   UNL A   1      33.641  21.797  25.844  1.00  0.00     0.269 C 
ATOM     18  H   UNL A   1      31.948  22.566  25.088  1.00  0.00     0.349 HD
ATOM     19  C   UNL A   1      32.527  20.507  23.504  1.00  0.00     0.126 C 
ATOM     20  C   UNL A   1      33.223  20.320  25.875  1.00  0.00     0.126 C 
ATOM     21  C   UNL A   1      33.365  19.677  24.482  1.00  0.00     0.195 C 
BRANCH  21  22
ATOM     22  N   UNL A   1      33.110  18.213  24.470  1.00  0.00    -0.331 N 
ATOM     23  C   UNL A   1      32.530  17.755  25.751  1.00  0.00     0.273 C 
ATOM     24  C   UNL A   1      34.278  17.394  24.095  1.00  0.00     0.273 C 
ATOM     25  H   UNL A   1      32.427  18.070  23.726  1.00  0.00     0.348 HD
ATOM     26  C   UNL A   1      31.993  16.318  25.727  1.00  0.00     0.131 C 
ATOM     27  C   UNL A   1      33.944  15.910  23.877  1.00  0.00     0.131 C 
ATOM     28  S   UNL A   1      33.302  15.109  25.376  1.00  0.00    -0.150 SA
ENDBRANCH  21  22
ENDBRANCH   5  15
ENDBRANCH   3   5
ENDBRANCH   2   3
ENDBRANCH   1   2
BRANCH   1  29
ATOM     29  C   UNL A   1      36.920  21.929  24.092  1.00  0.00     0.275 C 
BRANCH  29  30
ATOM     30  O   UNL A   1      37.137  22.092  25.499  1.00  0.00    -0.458 OA
BRANCH  30  31
ATOM     31  C   UNL A   1      38.356  21.675  25.910  1.00  0.00     0.338 C 
ATOM     32  O   UNL A   1      38.876  20.591  25.702  1.00  0.00    -0.246 OA
BRANCH  31  33
ATOM     33  C   UNL A   1      39.094  22.803  26.499  1.00  0.00     0.060 A 
ATOM     34  C   UNL A   1      38.603  24.081  26.216  1.00  0.00     0.016 A 
ATOM     35  C   UNL A   1      40.254  22.634  27.260  1.00  0.00     0.016 A 
ATOM     36  C   UNL A   1      39.276  25.202  26.684  1.00  0.00     0.010 A 
ATOM     37  C   UNL A   1      40.950  23.765  27.700  1.00  0.00     0.010 A 
ATOM     38  C   UNL A   1      40.472  25.050  27.395  1.00  0.00    -0.014 A 
BRANCH  38  39
ATOM     39  C   UNL A   1      41.303  26.250  27.622  1.00  0.00     0.031 A 
ATOM     40  C   UNL A   1      40.703  27.387  28.400  1.00  0.00     0.074 A 
ATOM     41  C   UNL A   1      42.584  26.297  27.219  1.00  0.00     0.049 A 
ATOM     42  N   UNL A   1      41.237  28.528  28.749  1.00  0.00    -0.248 NA
ATOM     43  C   UNL A   1      39.319  27.198  28.869  1.00  0.00     0.031 C 
ATOM     44  C   UNL A   1      43.301  25.219  26.541  1.00  0.00     0.029 A 
ATOM     45  N   UNL A   1      43.511  27.300  27.337  1.00  0.00    -0.354 N 
ATOM     46  C   UNL A   1      40.266  29.181  29.495  1.00  0.00     0.074 A 
ATOM     47  C   UNL A   1      39.105  28.319  29.540  1.00  0.00     0.031 C 
ATOM     48  C   UNL A   1      44.560  25.625  26.292  1.00  0.00     0.029 A 
ATOM     49  C   UNL A   1      44.722  26.999  26.763  1.00  0.00     0.049 A 
ATOM     50  H   UNL A   1      43.327  28.155  27.791  1.00  0.00     0.167 HD
ATOM     51  C   UNL A   1      40.332  30.395  30.088  1.00  0.00     0.037 A 
ATOM     52  C   UNL A   1      45.819  27.765  26.616  1.00  0.00     0.037 A 
ATOM     53  C   UNL A   1      41.459  31.278  29.990  1.00  0.00     0.049 A 
ATOM     54  C   UNL A   1      45.812  29.174  27.154  1.00  0.00     0.074 A 
ATOM     55  C   UNL A   1      41.601  32.559  30.494  1.00  0.00     0.029 A 
ATOM     56  N   UNL A   1      42.636  30.975  29.323  1.00  0.00    -0.354 N 
ATOM     57  N   UNL A   1      44.886  29.791  27.847  1.00  0.00    -0.248 NA
ATOM     58  C   UNL A   1      47.001  29.994  26.877  1.00  0.00     0.031 C 
ATOM     59  C   UNL A   1      42.850  33.046  30.093  1.00  0.00     0.029 A 
ATOM     60  C   UNL A   1      43.501  32.053  29.379  1.00  0.00     0.049 A 
ATOM     61  H   UNL A   1      42.828  30.119  28.876  1.00  0.00     0.167 HD
ATOM     62  C   UNL A   1      45.388  31.061  28.109  1.00  0.00     0.074 A 
ATOM     63  C   UNL A   1      46.705  31.122  27.510  1.00  0.00     0.031 C 
ATOM     64  C   UNL A   1      44.812  32.086  28.783  1.00  0.00     0.037 A 
BRANCH  51  65
ATOM     65  C   UNL A   1      39.121  30.846  30.843  1.00  0.00     0.057 A 
ATOM     66  C   UNL A   1      38.978  30.602  32.215  1.00  0.00     0.134 A 
ATOM     67  C   UNL A   1      38.083  31.520  30.189  1.00  0.00     0.134 A 
ATOM     68  F   UNL A   1      39.928  29.939  32.890  1.00  0.00    -0.206 F 
ATOM     69  C   UNL A   1      37.834  31.000  32.908  1.00  0.00     0.040 A 
ATOM     70  C   UNL A   1      36.943  31.937  30.875  1.00  0.00     0.040 A 
ATOM     71  F   UNL A   1      38.158  31.775  28.875  1.00  0.00    -0.206 F 
ATOM     72  C   UNL A   1      36.814  31.674  32.238  1.00  0.00     0.006 A 
ENDBRANCH  51  65
BRANCH  52  73
ATOM     73  C   UNL A   1      47.007  27.247  25.892  1.00  0.00     0.057 A 
ATOM     74  C   UNL A   1      48.022  26.552  26.560  1.00  0.00     0.134 A 
ATOM     75  C   UNL A   1      47.183  27.485  24.523  1.00  0.00     0.134 A 
ATOM     76  F   UNL A   1      47.925  26.320  27.877  1.00  0.00    -0.206 F 
ATOM     77  C   UNL A   1      49.177  26.132  25.899  1.00  0.00     0.040 A 
ATOM     78  C   UNL A   1      48.322  27.052  23.844  1.00  0.00     0.040 A 
ATOM     79  F   UNL A   1      46.251  28.153  23.827  1.00  0.00    -0.206 F 
ATOM     80  C   UNL A   1      49.329  26.380  24.535  1.00  0.00     0.006 A 
ENDBRANCH  52  73
BRANCH  64  81
ATOM     81  C   UNL A   1      45.609  33.346  28.935  1.00  0.00     0.057 A 
ATOM     82  C   UNL A   1      46.502  33.529  29.998  1.00  0.00     0.134 A 
ATOM     83  C   UNL A   1      45.524  34.363  27.975  1.00  0.00     0.134 A 
ATOM     84  F   UNL A   1      46.621  32.596  30.955  1.00  0.00    -0.206 F 
ATOM     85  C   UNL A   1      47.273  34.688  30.110  1.00  0.00     0.040 A 
ATOM     86  C   UNL A   1      46.304  35.515  28.064  1.00  0.00     0.040 A 
ATOM     87  F   UNL A   1      44.694  34.243  26.929  1.00  0.00    -0.206 F 
ATOM     88  C   UNL A   1      47.179  35.682  29.136  1.00  0.00     0.006 A 
ENDBRANCH  64  81
ENDBRANCH  38  39
ENDBRANCH  31  33
ENDBRANCH  30  31
ENDBRANCH  29  30
ENDBRANCH   1  29
TORSDOF 16
ENDMDL
MODEL 3
REMARK VINA RESULT:     -10.9      3.896      8.170
REMARK SMILES CCOc1ccccc1[C@H](C(=O)OCCOC(=O)c1ccc(-c2c3nc(c(-c4c(F)cccc4F)c4ccc([nH]4)c(-c4c(F)cccc4F)c4nc(c(-c5c(F)cccc5F)c5ccc2[nH]5)C=C4)C=C3)cc1)[NH+]1CCC([NH+]2CCSCC2)CC1
REMARK SMILES IDX 14 1 13 2 11 3 12 4 10 5 9 6 4 7 5 8 6 9 8 10 7 11 3 12 2 13
REMARK SMILES IDX 1 14 73 15 74 16 84 17 75 19 83 20 76 21 77 22 78 23 82 24
REMARK SMILES IDX 79 26 81 27 80 28 15 29 16 30 17 31 18 32 19 33 20 34 72 35
REMARK SMILES IDX 21 36 71 37 22 38 23 39 24 40 65 41 25 42 70 43 64 44 66 45
REMARK SMILES IDX 26 46 69 47 63 48 62 49 27 51 53 52 36 53 52 54 37 55 40 56
REMARK SMILES IDX 51 57 67 58 38 59 39 60 50 62 68 63 41 64 28 65 29 66 34 67
REMARK SMILES IDX 30 68 31 69 33 70 35 71 32 72 54 73 55 74 60 75 56 76 57 77
REMARK SMILES IDX 59 78 61 79 58 80 42 81 43 82 48 83 44 84 45 85 47 86 49 87
REMARK SMILES IDX 46 88
REMARK H PARENT 73 18 77 25 66 50 40 61
REMARK Flexibility Score: inf
ROOT
ATOM      1  C   UNL A   1      31.878  28.096  27.524  1.00  0.00     0.274 C 
ENDROOT
BRANCH   1   2
ATOM      2  O   UNL A   1      32.843  27.242  26.874  1.00  0.00    -0.457 OA
BRANCH   2   3
ATOM      3  C   UNL A   1      32.325  26.109  26.289  1.00  0.00     0.370 C 
ATOM      4  O   UNL A   1      31.786  25.211  26.928  1.00  0.00    -0.245 OA
BRANCH   3   5
ATOM      5  C   UNL A   1      32.543  26.140  24.746  1.00  0.00     0.330 C 
BRANCH   5   6
ATOM      6  C   UNL A   1      32.620  24.738  24.117  1.00  0.00     0.063 A 
ATOM      7  C   UNL A   1      33.764  23.918  24.194  1.00  0.00     0.129 A 
ATOM      8  C   UNL A   1      33.745  22.614  23.692  1.00  0.00     0.047 A 
ATOM      9  C   UNL A   1      32.572  22.093  23.149  1.00  0.00     0.004 A 
ATOM     10  C   UNL A   1      31.445  24.190  23.565  1.00  0.00     0.014 A 
ATOM     11  C   UNL A   1      31.422  22.877  23.089  1.00  0.00     0.001 A 
BRANCH   7  12
ATOM     12  O   UNL A   1      34.920  24.436  24.711  1.00  0.00    -0.493 OA
BRANCH  12  13
ATOM     13  C   UNL A   1      36.095  23.673  24.423  1.00  0.00     0.226 C 
ATOM     14  C   UNL A   1      36.987  23.702  25.655  1.00  0.00     0.049 C 
ENDBRANCH  12  13
ENDBRANCH   7  12
ENDBRANCH   5   6
BRANCH   5  15
ATOM     15  N   UNL A   1      31.604  27.030  23.956  1.00  0.00    -0.319 N 
ATOM     16  C   UNL A   1      30.258  27.126  24.522  1.00  0.00     0.269 C 
ATOM     17  C   UNL A   1      32.165  28.349  23.641  1.00  0.00     0.269 C 
ATOM     18  H   UNL A   1      31.499  26.545  23.064  1.00  0.00     0.349 HD
ATOM     19  C   UNL A   1      29.300  27.929  23.639  1.00  0.00     0.126 C 
ATOM     20  C   UNL A   1      31.235  29.217  22.781  1.00  0.00     0.126 C 
ATOM     21  C   UNL A   1      29.844  29.346  23.428  1.00  0.00     0.195 C 
BRANCH  21  22
ATOM     22  N   UNL A   1      28.938  30.286  22.719  1.00  0.00    -0.331 N 
ATOM     23  C   UNL A   1      29.088  30.178  21.251  1.00  0.00     0.273 C 
ATOM     24  C   UNL A   1      29.049  31.690  23.160  1.00  0.00     0.273 C 
ATOM     25  H   UNL A   1      27.996  29.993  22.979  1.00  0.00     0.348 HD
ATOM     26  C   UNL A   1      28.010  30.915  20.446  1.00  0.00     0.131 C 
ATOM     27  C   UNL A   1      27.962  32.605  22.576  1.00  0.00     0.131 C 
ATOM     28  S   UNL A   1      28.028  32.703  20.763  1.00  0.00    -0.150 SA
ENDBRANCH  21  22
ENDBRANCH   5  15
ENDBRANCH   3   5
ENDBRANCH   2   3
ENDBRANCH   1   2
BRANCH   1  29
ATOM     29  C   UNL A   1      31.777  29.494  26.915  1.00  0.00     0.275 C 
BRANCH  29  30
ATOM     30  O   UNL A   1      33.058  29.948  26.460  1.00  0.00    -0.458 OA
BRANCH  30  31
ATOM     31  C   UNL A   1      33.478  31.080  27.067  1.00  0.00     0.338 C 
ATOM     32  O   UNL A   1      32.838  32.101  27.253  1.00  0.00    -0.246 OA
BRANCH  31  33
ATOM     33  C   UNL A   1      34.797  30.856  27.678  1.00  0.00     0.060 A 
ATOM     34  C   UNL A   1      35.128  29.529  27.970  1.00  0.00     0.016 A 
ATOM     35  C   UNL A   1      35.668  31.898  28.005  1.00  0.00     0.016 A 
ATOM     36  C   UNL A   1      36.330  29.236  28.602  1.00  0.00     0.010 A 
ATOM     37  C   UNL A   1      36.862  31.605  28.673  1.00  0.00     0.010 A 
ATOM     38  C   UNL A   1      37.183  30.275  28.990  1.00  0.00    -0.014 A 
BRANCH  38  39
ATOM     39  C   UNL A   1      38.297  29.954  29.906  1.00  0.00     0.031 A 
ATOM     40  C   UNL A   1      39.371  29.027  29.413  1.00  0.00     0.074 A 
ATOM     41  C   UNL A   1      38.395  30.534  31.115  1.00  0.00     0.049 A 
ATOM     42  N   UNL A   1      40.456  28.617  30.017  1.00  0.00    -0.248 NA
ATOM     43  C   UNL A   1      39.212  28.513  28.041  1.00  0.00     0.031 C 
ATOM     44  C   UNL A   1      37.465  31.519  31.661  1.00  0.00     0.029 A 
ATOM     45  N   UNL A   1      39.340  30.378  32.096  1.00  0.00    -0.354 N 
ATOM     46  C   UNL A   1      41.117  27.818  29.093  1.00  0.00     0.074 A 
ATOM     47  C   UNL A   1      40.309  27.788  27.893  1.00  0.00     0.031 C 
ATOM     48  C   UNL A   1      37.881  31.874  32.891  1.00  0.00     0.029 A 
ATOM     49  C   UNL A   1      39.085  31.115  33.226  1.00  0.00     0.049 A 
ATOM     50  H   UNL A   1      40.126  29.793  31.999  1.00  0.00     0.167 HD
ATOM     51  C   UNL A   1      42.291  27.162  29.233  1.00  0.00     0.037 A 
ATOM     52  C   UNL A   1      39.740  31.144  34.401  1.00  0.00     0.037 A 
ATOM     53  C   UNL A   1      43.061  27.138  30.444  1.00  0.00     0.049 A 
ATOM     54  C   UNL A   1      40.965  30.283  34.583  1.00  0.00     0.074 A 
ATOM     55  C   UNL A   1      44.229  26.448  30.713  1.00  0.00     0.029 A 
ATOM     56  N   UNL A   1      42.724  27.826  31.599  1.00  0.00    -0.354 N 
ATOM     57  N   UNL A   1      41.577  29.519  33.712  1.00  0.00    -0.248 NA
ATOM     58  C   UNL A   1      41.580  30.281  35.919  1.00  0.00     0.031 C 
ATOM     59  C   UNL A   1      44.575  26.685  32.048  1.00  0.00     0.029 A 
ATOM     60  C   UNL A   1      43.647  27.557  32.594  1.00  0.00     0.049 A 
ATOM     61  H   UNL A   1      41.944  28.419  31.697  1.00  0.00     0.167 HD
ATOM     62  C   UNL A   1      42.661  28.966  34.384  1.00  0.00     0.074 A 
ATOM     63  C   UNL A   1      42.629  29.489  35.733  1.00  0.00     0.031 C 
ATOM     64  C   UNL A   1      43.599  28.100  33.928  1.00  0.00     0.037 A 
BRANCH  51  65
ATOM     65  C   UNL A   1      42.770  26.375  28.054  1.00  0.00     0.057 A 
ATOM     66  C   UNL A   1      42.396  25.038  27.862  1.00  0.00     0.134 A 
ATOM     67  C   UNL A   1      43.621  26.955  27.107  1.00  0.00     0.134 A 
ATOM     68  F   UNL A   1      41.603  24.421  28.750  1.00  0.00    -0.206 F 
ATOM     69  C   UNL A   1      42.867  24.300  26.776  1.00  0.00     0.040 A 
ATOM     70  C   UNL A   1      44.085  26.232  26.007  1.00  0.00     0.040 A 
ATOM     71  F   UNL A   1      44.021  28.228  27.240  1.00  0.00    -0.206 F 
ATOM     72  C   UNL A   1      43.712  24.900  25.842  1.00  0.00     0.006 A 
ENDBRANCH  51  65
BRANCH  52  73
ATOM     73  C   UNL A   1      39.238  31.978  35.523  1.00  0.00     0.057 A 
ATOM     74  C   UNL A   1      38.315  31.476  36.446  1.00  0.00     0.134 A 
ATOM     75  C   UNL A   1      39.628  33.316  35.662  1.00  0.00     0.134 A 
ATOM     76  F   UNL A   1      37.880  30.212  36.347  1.00  0.00    -0.206 F 
ATOM     77  C   UNL A   1      37.780  32.280  37.455  1.00  0.00     0.040 A 
ATOM     78  C   UNL A   1      39.119  34.125  36.679  1.00  0.00     0.040 A 
ATOM     79  F   UNL A   1      40.505  33.860  34.804  1.00  0.00    -0.206 F 
ATOM     80  C   UNL A   1      38.184  33.609  37.574  1.00  0.00     0.006 A 
ENDBRANCH  52  73
BRANCH  64  81
ATOM     81  C   UNL A   1      44.681  27.689  34.881  1.00  0.00     0.057 A 
ATOM     82  C   UNL A   1      44.569  26.538  35.670  1.00  0.00     0.134 A 
ATOM     83  C   UNL A   1      45.870  28.423  34.966  1.00  0.00     0.134 A 
ATOM     84  F   UNL A   1      43.449  25.799  35.640  1.00  0.00    -0.206 F 
ATOM     85  C   UNL A   1      45.598  26.139  36.525  1.00  0.00     0.040 A 
ATOM     86  C   UNL A   1      46.915  28.022  35.799  1.00  0.00     0.040 A 
ATOM     87  F   UNL A   1      46.043  29.529  34.228  1.00  0.00    -0.206 F 
ATOM     88  C   UNL A   1      46.778  26.879  36.584  1.00  0.00     0.006 A 
ENDBRANCH  64  81
ENDBRANCH  38  39
ENDBRANCH  31  33
ENDBRANCH  30  31
ENDBRANCH  29  30
ENDBRANCH   1  29
TORSDOF 16
ENDMDL
