MODEL 1
REMARK VINA RESULT:     -12.7      0.000      0.000
REMARK SMILES Cc1cc(C(=O)N[C@H]2C=C[C@H](C(=O)OCCOC(=O)c3ccc(-c4c5nc(c(-c6c(F)cccc6F)c6ccc([nH]6)c(-c6c(F)cccc6F)c6nc(c(-c7c(F)cccc7F)c7ccc4[nH]7)C=C6)C=C5)cc3)C2)ccc1F
REMARK SMILES IDX 15 1 14 2 12 3 13 4 11 5 8 6 9 7 74 8 10 9 7 10 5 11 6 12
REMARK SMILES IDX 4 14 1 15 2 16 3 17 77 18 76 19 78 20 75 21 16 22 17 23
REMARK SMILES IDX 18 24 19 25 20 26 21 27 73 28 22 29 72 30 23 31 24 32 25 33
REMARK SMILES IDX 66 34 26 35 71 36 65 37 67 38 27 39 70 40 64 41 63 42 28 44
REMARK SMILES IDX 54 45 37 46 53 47 38 48 41 49 52 50 68 51 39 52 40 53 51 55
REMARK SMILES IDX 69 56 42 57 29 58 30 59 35 60 31 61 32 62 34 63 36 64 33 65
REMARK SMILES IDX 55 66 56 67 61 68 57 69 58 70 60 71 62 72 59 73 43 74 44 75
REMARK SMILES IDX 49 76 45 77 46 78 48 79 50 80 47 81
REMARK H PARENT 7 13 67 43 41 54
REMARK Flexibility Score: inf
ROOT
ATOM      1  C   UNL A   1      33.586  31.097  27.476  1.00  0.00     0.274 C 
ENDROOT
BRANCH   1   2
ATOM      2  O   UNL A   1      34.013  29.780  27.073  1.00  0.00    -0.462 OA
BRANCH   2   3
ATOM      3  C   UNL A   1      33.369  29.274  25.985  1.00  0.00     0.312 C 
ATOM      4  O   UNL A   1      33.925  28.979  24.931  1.00  0.00    -0.252 OA
BRANCH   3   5
ATOM      5  C   UNL A   1      31.880  29.034  26.256  1.00  0.00     0.124 C 
ATOM      6  C   UNL A   1      31.777  26.631  26.308  1.00  0.00     0.106 C 
ATOM      7  C   UNL A   1      31.023  27.161  25.127  1.00  0.00    -0.006 C 
ATOM      8  C   UNL A   1      31.734  27.852  27.230  1.00  0.00     0.048 C 
ATOM      9  C   UNL A   1      31.133  28.498  25.070  1.00  0.00    -0.014 C 
BRANCH   6  10
ATOM     10  N   UNL A   1      31.182  25.451  26.861  1.00  0.00    -0.346 N 
ATOM     11  C   UNL A   1      31.509  24.123  26.704  1.00  0.00     0.251 C 
ATOM     12  O   UNL A   1      30.770  23.301  27.251  1.00  0.00    -0.269 OA
ATOM     13  H   UNL A   1      30.411  25.617  27.450  1.00  0.00     0.164 HD
BRANCH  11  14
ATOM     14  C   UNL A   1      32.725  23.621  25.981  1.00  0.00     0.040 A 
ATOM     15  C   UNL A   1      36.546  23.645  26.004  1.00  0.00     0.047 C 
ATOM     16  C   UNL A   1      35.132  23.371  25.583  1.00  0.00    -0.015 A 
ATOM     17  C   UNL A   1      34.055  23.964  26.265  1.00  0.00     0.020 A 
ATOM     18  C   UNL A   1      34.863  22.467  24.558  1.00  0.00     0.126 A 
ATOM     19  C   UNL A   1      33.556  22.160  24.205  1.00  0.00     0.040 A 
ATOM     20  F   UNL A   1      35.872  21.883  23.897  1.00  0.00    -0.207 F 
ATOM     21  C   UNL A   1      32.495  22.728  24.917  1.00  0.00     0.017 A 
ENDBRANCH  11  14
ENDBRANCH   6  10
ENDBRANCH   3   5
ENDBRANCH   2   3
ENDBRANCH   1   2
BRANCH   1  22
ATOM     22  C   UNL A   1      34.762  31.972  27.922  1.00  0.00     0.275 C 
BRANCH  22  23
ATOM     23  O   UNL A   1      35.438  31.458  29.081  1.00  0.00    -0.458 OA
BRANCH  23  24
ATOM     24  C   UNL A   1      36.780  31.399  28.936  1.00  0.00     0.338 C 
ATOM     25  O   UNL A   1      37.561  32.339  28.928  1.00  0.00    -0.246 OA
BRANCH  24  26
ATOM     26  C   UNL A   1      37.251  30.052  28.611  1.00  0.00     0.060 A 
ATOM     27  C   UNL A   1      37.249  29.117  29.658  1.00  0.00     0.016 A 
ATOM     28  C   UNL A   1      38.094  29.926  27.509  1.00  0.00     0.016 A 
ATOM     29  C   UNL A   1      38.254  28.167  29.717  1.00  0.00     0.010 A 
ATOM     30  C   UNL A   1      39.103  28.988  27.577  1.00  0.00     0.010 A 
ATOM     31  C   UNL A   1      39.230  28.193  28.728  1.00  0.00    -0.014 A 
BRANCH  31  32
ATOM     32  C   UNL A   1      40.527  27.568  28.917  1.00  0.00     0.031 A 
ATOM     33  C   UNL A   1      40.725  26.143  28.617  1.00  0.00     0.074 A 
ATOM     34  C   UNL A   1      41.543  28.340  29.358  1.00  0.00     0.049 A 
ATOM     35  N   UNL A   1      41.766  25.465  28.961  1.00  0.00    -0.248 NA
ATOM     36  C   UNL A   1      39.683  25.336  27.993  1.00  0.00     0.031 C 
ATOM     37  C   UNL A   1      42.970  28.058  29.295  1.00  0.00     0.029 A 
ATOM     38  N   UNL A   1      41.438  29.467  30.187  1.00  0.00    -0.354 N 
ATOM     39  C   UNL A   1      41.663  24.228  28.375  1.00  0.00     0.074 A 
ATOM     40  C   UNL A   1      40.296  24.151  27.929  1.00  0.00     0.031 C 
ATOM     41  C   UNL A   1      43.598  28.807  30.214  1.00  0.00     0.029 A 
ATOM     42  C   UNL A   1      42.570  29.435  31.028  1.00  0.00     0.049 A 
ATOM     43  H   UNL A   1      40.721  30.141  30.184  1.00  0.00     0.167 HD
ATOM     44  C   UNL A   1      42.796  23.488  28.215  1.00  0.00     0.037 A 
ATOM     45  C   UNL A   1      42.442  29.260  32.377  1.00  0.00     0.037 A 
ATOM     46  C   UNL A   1      43.877  24.010  29.058  1.00  0.00     0.049 A 
ATOM     47  C   UNL A   1      43.137  28.035  32.931  1.00  0.00     0.074 A 
ATOM     48  C   UNL A   1      44.984  24.811  28.833  1.00  0.00     0.029 A 
ATOM     49  N   UNL A   1      43.736  23.929  30.435  1.00  0.00    -0.354 N 
ATOM     50  N   UNL A   1      43.627  27.078  32.195  1.00  0.00    -0.248 NA
ATOM     51  C   UNL A   1      43.240  27.750  34.364  1.00  0.00     0.031 C 
ATOM     52  C   UNL A   1      45.453  25.279  30.096  1.00  0.00     0.029 A 
ATOM     53  C   UNL A   1      44.648  24.739  31.084  1.00  0.00     0.049 A 
ATOM     54  H   UNL A   1      43.071  23.366  30.894  1.00  0.00     0.167 HD
ATOM     55  C   UNL A   1      44.057  26.067  33.006  1.00  0.00     0.074 A 
ATOM     56  C   UNL A   1      43.802  26.530  34.356  1.00  0.00     0.031 C 
ATOM     57  C   UNL A   1      44.556  24.898  32.523  1.00  0.00     0.037 A 
BRANCH  44  58
ATOM     58  C   UNL A   1      43.009  22.433  27.141  1.00  0.00     0.057 A 
ATOM     59  C   UNL A   1      42.268  21.233  27.183  1.00  0.00     0.134 A 
ATOM     60  C   UNL A   1      43.990  22.452  26.129  1.00  0.00     0.134 A 
ATOM     61  F   UNL A   1      41.274  21.051  28.065  1.00  0.00    -0.206 F 
ATOM     62  C   UNL A   1      42.521  20.140  26.339  1.00  0.00     0.040 A 
ATOM     63  C   UNL A   1      44.239  21.376  25.266  1.00  0.00     0.040 A 
ATOM     64  F   UNL A   1      44.795  23.492  25.912  1.00  0.00    -0.206 F 
ATOM     65  C   UNL A   1      43.517  20.205  25.378  1.00  0.00     0.006 A 
ENDBRANCH  44  58
BRANCH  45  66
ATOM     66  C   UNL A   1      41.182  29.807  32.942  1.00  0.00     0.057 A 
ATOM     67  C   UNL A   1      41.101  31.172  33.262  1.00  0.00     0.134 A 
ATOM     68  C   UNL A   1      39.982  29.091  32.882  1.00  0.00     0.134 A 
ATOM     69  F   UNL A   1      42.216  31.916  33.336  1.00  0.00    -0.206 F 
ATOM     70  C   UNL A   1      39.874  31.816  33.427  1.00  0.00     0.040 A 
ATOM     71  C   UNL A   1      38.747  29.723  33.055  1.00  0.00     0.040 A 
ATOM     72  F   UNL A   1      39.978  27.787  32.573  1.00  0.00    -0.206 F 
ATOM     73  C   UNL A   1      38.691  31.095  33.298  1.00  0.00     0.006 A 
ENDBRANCH  45  66
BRANCH  57  74
ATOM     74  C   UNL A   1      45.004  23.807  33.429  1.00  0.00     0.057 A 
ATOM     75  C   UNL A   1      44.136  22.787  33.838  1.00  0.00     0.134 A 
ATOM     76  C   UNL A   1      46.285  23.816  33.997  1.00  0.00     0.134 A 
ATOM     77  F   UNL A   1      42.889  22.712  33.348  1.00  0.00    -0.206 F 
ATOM     78  C   UNL A   1      44.526  21.821  34.769  1.00  0.00     0.040 A 
ATOM     79  C   UNL A   1      46.677  22.876  34.951  1.00  0.00     0.040 A 
ATOM     80  F   UNL A   1      47.195  24.734  33.635  1.00  0.00    -0.206 F 
ATOM     81  C   UNL A   1      45.794  21.873  35.340  1.00  0.00     0.006 A 
ENDBRANCH  57  74
ENDBRANCH  31  32
ENDBRANCH  24  26
ENDBRANCH  23  24
ENDBRANCH  22  23
ENDBRANCH   1  22
TORSDOF 13
ENDMDL
MODEL 2
REMARK VINA RESULT:     -12.4      2.009      3.240
REMARK SMILES Cc1cc(C(=O)N[C@H]2C=C[C@H](C(=O)OCCOC(=O)c3ccc(-c4c5nc(c(-c6c(F)cccc6F)c6ccc([nH]6)c(-c6c(F)cccc6F)c6nc(c(-c7c(F)cccc7F)c7ccc4[nH]7)C=C6)C=C5)cc3)C2)ccc1F
REMARK SMILES IDX 15 1 14 2 12 3 13 4 11 5 8 6 9 7 74 8 10 9 7 10 5 11 6 12
REMARK SMILES IDX 4 14 1 15 2 16 3 17 77 18 76 19 78 20 75 21 16 22 17 23
REMARK SMILES IDX 18 24 19 25 20 26 21 27 73 28 22 29 72 30 23 31 24 32 25 33
REMARK SMILES IDX 66 34 26 35 71 36 65 37 67 38 27 39 70 40 64 41 63 42 28 44
REMARK SMILES IDX 54 45 37 46 53 47 38 48 41 49 52 50 68 51 39 52 40 53 51 55
REMARK SMILES IDX 69 56 42 57 29 58 30 59 35 60 31 61 32 62 34 63 36 64 33 65
REMARK SMILES IDX 55 66 56 67 61 68 57 69 58 70 60 71 62 72 59 73 43 74 44 75
REMARK SMILES IDX 49 76 45 77 46 78 48 79 50 80 47 81
REMARK H PARENT 7 13 67 43 41 54
REMARK Flexibility Score: inf
ROOT
ATOM      1  C   UNL A   1      34.028  32.504  27.949  1.00  0.00     0.274 C 
ENDROOT
BRANCH   1   2
ATOM      2  O   UNL A   1      34.241  31.167  27.451  1.00  0.00    -0.462 OA
BRANCH   2   3
ATOM      3  C   UNL A   1      33.108  30.437  27.260  1.00  0.00     0.312 C 
ATOM      4  O   UNL A   1      32.008  30.924  27.013  1.00  0.00    -0.252 OA
BRANCH   3   5
ATOM      5  C   UNL A   1      33.379  28.929  27.302  1.00  0.00     0.124 C 
ATOM      6  C   UNL A   1      32.395  28.200  25.232  1.00  0.00     0.106 C 
ATOM      7  C   UNL A   1      31.632  27.648  26.398  1.00  0.00    -0.006 C 
ATOM      8  C   UNL A   1      33.755  28.449  25.889  1.00  0.00     0.048 C 
ATOM      9  C   UNL A   1      32.150  28.105  27.549  1.00  0.00    -0.014 C 
BRANCH   6  10
ATOM     10  N   UNL A   1      32.432  27.300  24.118  1.00  0.00    -0.346 N 
ATOM     11  C   UNL A   1      31.551  27.125  23.075  1.00  0.00     0.251 C 
ATOM     12  O   UNL A   1      31.803  26.214  22.282  1.00  0.00    -0.269 OA
ATOM     13  H   UNL A   1      33.220  26.708  24.094  1.00  0.00     0.164 HD
BRANCH  11  14
ATOM     14  C   UNL A   1      30.360  27.998  22.806  1.00  0.00     0.040 A 
ATOM     15  C   UNL A   1      26.622  28.399  23.487  1.00  0.00     0.047 C 
ATOM     16  C   UNL A   1      28.001  28.651  22.952  1.00  0.00    -0.015 A 
ATOM     17  C   UNL A   1      29.036  27.726  23.176  1.00  0.00     0.020 A 
ATOM     18  C   UNL A   1      28.294  29.841  22.290  1.00  0.00     0.126 A 
ATOM     19  C   UNL A   1      29.583  30.110  21.848  1.00  0.00     0.040 A 
ATOM     20  F   UNL A   1      27.328  30.743  22.071  1.00  0.00    -0.207 F 
ATOM     21  C   UNL A   1      30.610  29.198  22.111  1.00  0.00     0.017 A 
ENDBRANCH  11  14
ENDBRANCH   6  10
ENDBRANCH   3   5
ENDBRANCH   2   3
ENDBRANCH   1   2
BRANCH   1  22
ATOM     22  C   UNL A   1      35.338  33.177  28.370  1.00  0.00     0.275 C 
BRANCH  22  23
ATOM     23  O   UNL A   1      36.480  32.314  28.248  1.00  0.00    -0.458 OA
BRANCH  23  24
ATOM     24  C   UNL A   1      36.640  31.485  29.303  1.00  0.00     0.338 C 
ATOM     25  O   UNL A   1      36.519  31.769  30.486  1.00  0.00    -0.246 OA
BRANCH  24  26
ATOM     26  C   UNL A   1      37.156  30.173  28.912  1.00  0.00     0.060 A 
ATOM     27  C   UNL A   1      37.187  29.187  29.911  1.00  0.00     0.016 A 
ATOM     28  C   UNL A   1      38.001  30.130  27.805  1.00  0.00     0.016 A 
ATOM     29  C   UNL A   1      38.224  28.271  29.923  1.00  0.00     0.010 A 
ATOM     30  C   UNL A   1      39.041  29.225  27.827  1.00  0.00     0.010 A 
ATOM     31  C   UNL A   1      39.197  28.379  28.937  1.00  0.00    -0.014 A 
BRANCH  31  32
ATOM     32  C   UNL A   1      40.515  27.789  29.094  1.00  0.00     0.031 A 
ATOM     33  C   UNL A   1      40.763  26.392  28.716  1.00  0.00     0.074 A 
ATOM     34  C   UNL A   1      41.503  28.571  29.581  1.00  0.00     0.049 A 
ATOM     35  N   UNL A   1      41.827  25.732  29.025  1.00  0.00    -0.248 NA
ATOM     36  C   UNL A   1      39.750  25.585  28.044  1.00  0.00     0.031 C 
ATOM     37  C   UNL A   1      42.939  28.342  29.507  1.00  0.00     0.029 A 
ATOM     38  N   UNL A   1      41.357  29.645  30.471  1.00  0.00    -0.354 N 
ATOM     39  C   UNL A   1      41.767  24.526  28.370  1.00  0.00     0.074 A 
ATOM     40  C   UNL A   1      40.404  24.427  27.916  1.00  0.00     0.031 C 
ATOM     41  C   UNL A   1      43.539  29.060  30.468  1.00  0.00     0.029 A 
ATOM     42  C   UNL A   1      42.489  29.605  31.313  1.00  0.00     0.049 A 
ATOM     43  H   UNL A   1      40.617  30.293  30.504  1.00  0.00     0.167 HD
ATOM     44  C   UNL A   1      42.926  23.837  28.172  1.00  0.00     0.037 A 
ATOM     45  C   UNL A   1      42.365  29.351  32.650  1.00  0.00     0.037 A 
ATOM     46  C   UNL A   1      43.987  24.348  29.047  1.00  0.00     0.049 A 
ATOM     47  C   UNL A   1      43.102  28.122  33.136  1.00  0.00     0.074 A 
ATOM     48  C   UNL A   1      45.065  25.199  28.870  1.00  0.00     0.029 A 
ATOM     49  N   UNL A   1      43.847  24.185  30.417  1.00  0.00    -0.354 N 
ATOM     50  N   UNL A   1      43.626  27.225  32.350  1.00  0.00    -0.248 NA
ATOM     51  C   UNL A   1      43.214  27.761  34.551  1.00  0.00     0.031 C 
ATOM     52  C   UNL A   1      45.516  25.611  30.159  1.00  0.00     0.029 A 
ATOM     53  C   UNL A   1      44.730  24.989  31.113  1.00  0.00     0.049 A 
ATOM     54  H   UNL A   1      43.201  23.575  30.841  1.00  0.00     0.167 HD
ATOM     55  C   UNL A   1      44.090  26.186  33.104  1.00  0.00     0.074 A 
ATOM     56  C   UNL A   1      43.818  26.563  34.477  1.00  0.00     0.031 C 
ATOM     57  C   UNL A   1      44.631  25.064  32.558  1.00  0.00     0.037 A 
BRANCH  44  58
ATOM     58  C   UNL A   1      43.176  22.852  27.042  1.00  0.00     0.057 A 
ATOM     59  C   UNL A   1      42.551  21.587  27.065  1.00  0.00     0.134 A 
ATOM     60  C   UNL A   1      44.097  23.004  25.985  1.00  0.00     0.134 A 
ATOM     61  F   UNL A   1      41.626  21.277  27.985  1.00  0.00    -0.206 F 
ATOM     62  C   UNL A   1      42.857  20.559  26.159  1.00  0.00     0.040 A 
ATOM     63  C   UNL A   1      44.397  21.992  25.062  1.00  0.00     0.040 A 
ATOM     64  F   UNL A   1      44.792  24.122  25.777  1.00  0.00    -0.206 F 
ATOM     65  C   UNL A   1      43.792  20.755  25.155  1.00  0.00     0.006 A 
ENDBRANCH  44  58
BRANCH  45  66
ATOM     66  C   UNL A   1      41.086  29.821  33.240  1.00  0.00     0.057 A 
ATOM     67  C   UNL A   1      40.958  31.162  33.637  1.00  0.00     0.134 A 
ATOM     68  C   UNL A   1      39.912  29.070  33.134  1.00  0.00     0.134 A 
ATOM     69  F   UNL A   1      42.047  31.938  33.758  1.00  0.00    -0.206 F 
ATOM     70  C   UNL A   1      39.710  31.753  33.835  1.00  0.00     0.040 A 
ATOM     71  C   UNL A   1      38.656  29.648  33.339  1.00  0.00     0.040 A 
ATOM     72  F   UNL A   1      39.953  27.786  32.751  1.00  0.00    -0.206 F 
ATOM     73  C   UNL A   1      38.552  31.001  33.660  1.00  0.00     0.006 A 
ENDBRANCH  45  66
BRANCH  57  74
ATOM     74  C   UNL A   1      45.115  23.940  33.403  1.00  0.00     0.057 A 
ATOM     75  C   UNL A   1      44.267  22.899  33.800  1.00  0.00     0.134 A 
ATOM     76  C   UNL A   1      46.416  23.935  33.927  1.00  0.00     0.134 A 
ATOM     77  F   UNL A   1      43.005  22.835  33.351  1.00  0.00    -0.206 F 
ATOM     78  C   UNL A   1      44.694  21.899  34.677  1.00  0.00     0.040 A 
ATOM     79  C   UNL A   1      46.845  22.960  34.827  1.00  0.00     0.040 A 
ATOM     80  F   UNL A   1      47.308  24.872  33.570  1.00  0.00    -0.206 F 
ATOM     81  C   UNL A   1      45.982  21.936  35.205  1.00  0.00     0.006 A 
ENDBRANCH  57  74
ENDBRANCH  31  32
ENDBRANCH  24  26
ENDBRANCH  23  24
ENDBRANCH  22  23
ENDBRANCH   1  22
TORSDOF 13
ENDMDL
MODEL 3
REMARK VINA RESULT:     -12.0      1.252      1.614
REMARK SMILES Cc1cc(C(=O)N[C@H]2C=C[C@H](C(=O)OCCOC(=O)c3ccc(-c4c5nc(c(-c6c(F)cccc6F)c6ccc([nH]6)c(-c6c(F)cccc6F)c6nc(c(-c7c(F)cccc7F)c7ccc4[nH]7)C=C6)C=C5)cc3)C2)ccc1F
REMARK SMILES IDX 15 1 14 2 12 3 13 4 11 5 8 6 9 7 74 8 10 9 7 10 5 11 6 12
REMARK SMILES IDX 4 14 1 15 2 16 3 17 77 18 76 19 78 20 75 21 16 22 17 23
REMARK SMILES IDX 18 24 19 25 20 26 21 27 73 28 22 29 72 30 23 31 24 32 25 33
REMARK SMILES IDX 66 34 26 35 71 36 65 37 67 38 27 39 70 40 64 41 63 42 28 44
REMARK SMILES IDX 54 45 37 46 53 47 38 48 41 49 52 50 68 51 39 52 40 53 51 55
REMARK SMILES IDX 69 56 42 57 29 58 30 59 35 60 31 61 32 62 34 63 36 64 33 65
REMARK SMILES IDX 55 66 56 67 61 68 57 69 58 70 60 71 62 72 59 73 43 74 44 75
REMARK SMILES IDX 49 76 45 77 46 78 48 79 50 80 47 81
REMARK H PARENT 7 13 67 43 41 54
REMARK Flexibility Score: inf
ROOT
ATOM      1  C   UNL A   1      33.645  32.044  27.825  1.00  0.00     0.274 C 
ENDROOT
BRANCH   1   2
ATOM      2  O   UNL A   1      33.729  30.613  27.666  1.00  0.00    -0.462 OA
BRANCH   2   3
ATOM      3  C   UNL A   1      32.729  30.057  26.927  1.00  0.00     0.312 C 
ATOM      4  O   UNL A   1      31.901  30.703  26.293  1.00  0.00    -0.252 OA
BRANCH   3   5
ATOM      5  C   UNL A   1      32.811  28.527  26.906  1.00  0.00     0.124 C 
ATOM      6  C   UNL A   1      32.729  28.068  24.546  1.00  0.00     0.106 C 
ATOM      7  C   UNL A   1      31.495  27.552  25.222  1.00  0.00    -0.006 C 
ATOM      8  C   UNL A   1      33.700  28.090  25.729  1.00  0.00     0.048 C 
ATOM      9  C   UNL A   1      31.519  27.863  26.528  1.00  0.00    -0.014 C 
BRANCH   6  10
ATOM     10  N   UNL A   1      33.147  27.242  23.452  1.00  0.00    -0.346 N 
ATOM     11  C   UNL A   1      33.554  25.928  23.423  1.00  0.00     0.251 C 
ATOM     12  O   UNL A   1      33.930  25.487  22.334  1.00  0.00    -0.269 OA
ATOM     13  H   UNL A   1      33.143  27.691  22.575  1.00  0.00     0.164 HD
BRANCH  11  14
ATOM     14  C   UNL A   1      33.506  24.992  24.596  1.00  0.00     0.040 A 
ATOM     15  C   UNL A   1      31.183  22.784  26.676  1.00  0.00     0.047 C 
ATOM     16  C   UNL A   1      32.420  23.487  26.199  1.00  0.00    -0.015 A 
ATOM     17  C   UNL A   1      32.351  24.422  25.151  1.00  0.00     0.020 A 
ATOM     18  C   UNL A   1      33.665  23.168  26.735  1.00  0.00     0.126 A 
ATOM     19  C   UNL A   1      34.821  23.768  26.255  1.00  0.00     0.040 A 
ATOM     20  F   UNL A   1      33.758  22.274  27.729  1.00  0.00    -0.207 F 
ATOM     21  C   UNL A   1      34.742  24.667  25.187  1.00  0.00     0.017 A 
ENDBRANCH  11  14
ENDBRANCH   6  10
ENDBRANCH   3   5
ENDBRANCH   2   3
ENDBRANCH   1   2
BRANCH   1  22
ATOM     22  C   UNL A   1      34.557  32.553  28.946  1.00  0.00     0.275 C 
BRANCH  22  23
ATOM     23  O   UNL A   1      35.384  31.524  29.511  1.00  0.00    -0.458 OA
BRANCH  23  24
ATOM     24  C   UNL A   1      36.653  31.540  29.046  1.00  0.00     0.338 C 
ATOM     25  O   UNL A   1      37.319  32.524  28.762  1.00  0.00    -0.246 OA
BRANCH  24  26
ATOM     26  C   UNL A   1      37.155  30.200  28.737  1.00  0.00     0.060 A 
ATOM     27  C   UNL A   1      37.197  29.285  29.800  1.00  0.00     0.016 A 
ATOM     28  C   UNL A   1      37.981  30.076  27.621  1.00  0.00     0.016 A 
ATOM     29  C   UNL A   1      38.228  28.364  29.858  1.00  0.00     0.010 A 
ATOM     30  C   UNL A   1      39.016  29.167  27.688  1.00  0.00     0.010 A 
ATOM     31  C   UNL A   1      39.186  28.398  28.851  1.00  0.00    -0.014 A 
BRANCH  31  32
ATOM     32  C   UNL A   1      40.502  27.811  29.027  1.00  0.00     0.031 A 
ATOM     33  C   UNL A   1      40.755  26.410  28.665  1.00  0.00     0.074 A 
ATOM     34  C   UNL A   1      41.485  28.599  29.514  1.00  0.00     0.049 A 
ATOM     35  N   UNL A   1      41.817  25.755  28.991  1.00  0.00    -0.248 NA
ATOM     36  C   UNL A   1      39.749  25.595  27.993  1.00  0.00     0.031 C 
ATOM     37  C   UNL A   1      42.922  28.371  29.456  1.00  0.00     0.029 A 
ATOM     38  N   UNL A   1      41.330  29.682  30.393  1.00  0.00    -0.354 N 
ATOM     39  C   UNL A   1      41.764  24.542  28.349  1.00  0.00     0.074 A 
ATOM     40  C   UNL A   1      40.406  24.437  27.883  1.00  0.00     0.031 C 
ATOM     41  C   UNL A   1      43.512  29.100  30.416  1.00  0.00     0.029 A 
ATOM     42  C   UNL A   1      42.454  29.652  31.245  1.00  0.00     0.049 A 
ATOM     43  H   UNL A   1      40.589  30.329  30.411  1.00  0.00     0.167 HD
ATOM     44  C   UNL A   1      42.925  23.852  28.168  1.00  0.00     0.037 A 
ATOM     45  C   UNL A   1      42.317  29.411  32.583  1.00  0.00     0.037 A 
ATOM     46  C   UNL A   1      43.978  24.373  29.048  1.00  0.00     0.049 A 
ATOM     47  C   UNL A   1      43.051  28.189  33.089  1.00  0.00     0.074 A 
ATOM     48  C   UNL A   1      45.057  25.223  28.873  1.00  0.00     0.029 A 
ATOM     49  N   UNL A   1      43.825  24.224  30.418  1.00  0.00    -0.354 N 
ATOM     50  N   UNL A   1      43.583  27.284  32.317  1.00  0.00    -0.248 NA
ATOM     51  C   UNL A   1      43.149  27.842  34.509  1.00  0.00     0.031 C 
ATOM     52  C   UNL A   1      45.495  25.649  30.161  1.00  0.00     0.029 A 
ATOM     53  C   UNL A   1      44.700  25.036  31.114  1.00  0.00     0.049 A 
ATOM     54  H   UNL A   1      43.176  23.618  30.842  1.00  0.00     0.167 HD
ATOM     55  C   UNL A   1      44.041  26.254  33.086  1.00  0.00     0.074 A 
ATOM     56  C   UNL A   1      43.756  26.644  34.453  1.00  0.00     0.031 C 
ATOM     57  C   UNL A   1      44.588  25.126  32.558  1.00  0.00     0.037 A 
BRANCH  44  58
ATOM     58  C   UNL A   1      43.187  22.856  27.051  1.00  0.00     0.057 A 
ATOM     59  C   UNL A   1      42.534  21.604  27.062  1.00  0.00     0.134 A 
ATOM     60  C   UNL A   1      44.141  22.982  26.020  1.00  0.00     0.134 A 
ATOM     61  F   UNL A   1      41.577  21.319  27.956  1.00  0.00    -0.206 F 
ATOM     62  C   UNL A   1      42.845  20.565  26.171  1.00  0.00     0.040 A 
ATOM     63  C   UNL A   1      44.446  21.959  25.112  1.00  0.00     0.040 A 
ATOM     64  F   UNL A   1      44.865  24.084  25.827  1.00  0.00    -0.206 F 
ATOM     65  C   UNL A   1      43.812  20.736  25.193  1.00  0.00     0.006 A 
ENDBRANCH  44  58
BRANCH  45  66
ATOM     66  C   UNL A   1      41.033  29.887  33.156  1.00  0.00     0.057 A 
ATOM     67  C   UNL A   1      40.876  31.245  33.475  1.00  0.00     0.134 A 
ATOM     68  C   UNL A   1      39.875  29.103  33.107  1.00  0.00     0.134 A 
ATOM     69  F   UNL A   1      41.948  32.052  33.540  1.00  0.00    -0.206 F 
ATOM     70  C   UNL A   1      39.616  31.819  33.649  1.00  0.00     0.040 A 
ATOM     71  C   UNL A   1      38.608  29.664  33.288  1.00  0.00     0.040 A 
ATOM     72  F   UNL A   1      39.943  27.800  32.800  1.00  0.00    -0.206 F 
ATOM     73  C   UNL A   1      38.475  31.031  33.530  1.00  0.00     0.006 A 
ENDBRANCH  45  66
BRANCH  57  74
ATOM     74  C   UNL A   1      45.065  24.012  33.419  1.00  0.00     0.057 A 
ATOM     75  C   UNL A   1      44.238  22.932  33.751  1.00  0.00     0.134 A 
ATOM     76  C   UNL A   1      46.330  24.052  34.021  1.00  0.00     0.134 A 
ATOM     77  F   UNL A   1      43.009  22.824  33.224  1.00  0.00    -0.206 F 
ATOM     78  C   UNL A   1      44.651  21.938  34.642  1.00  0.00     0.040 A 
ATOM     79  C   UNL A   1      46.743  23.082  34.935  1.00  0.00     0.040 A 
ATOM     80  F   UNL A   1      47.203  25.029  33.730  1.00  0.00    -0.206 F 
ATOM     81  C   UNL A   1      45.901  22.020  35.249  1.00  0.00     0.006 A 
ENDBRANCH  57  74
ENDBRANCH  31  32
ENDBRANCH  24  26
ENDBRANCH  23  24
ENDBRANCH  22  23
ENDBRANCH   1  22
TORSDOF 13
ENDMDL
