MODEL 1
REMARK VINA RESULT:     -11.1      0.000      0.000
REMARK SMILES COCCCN1C(=O)CC[C@@H](C(=O)OCCOC(=O)c2ccc(-c3c4nc(c(-c5c(F)cccc5F)c5ccc([nH]5)c(-c5c(F)cccc5F)c5nc(c(-c6c(F)cccc6F)c6ccc3[nH]6)C=C5)C=C4)cc2)[C@@H]1c1ccc(F)cc1
REMARK SMILES IDX 15 1 14 2 12 3 13 4 11 5 6 6 7 7 74 8 8 9 9 10 10 11 5 12
REMARK SMILES IDX 4 13 3 14 2 15 1 16 75 17 76 18 81 19 77 20 80 21 78 22
REMARK SMILES IDX 79 23 16 24 17 25 18 26 19 27 20 28 21 29 73 30 22 31 72 32
REMARK SMILES IDX 23 33 24 34 25 35 66 36 26 37 71 38 65 39 67 40 27 41 70 42
REMARK SMILES IDX 64 43 63 44 28 46 54 47 37 48 53 49 38 50 41 51 52 52 68 53
REMARK SMILES IDX 39 54 40 55 51 57 69 58 42 59 29 60 30 61 35 62 31 63 32 64
REMARK SMILES IDX 34 65 36 66 33 67 55 68 56 69 61 70 57 71 58 72 60 73 62 74
REMARK SMILES IDX 59 75 43 76 44 77 49 78 45 79 46 80 48 81 50 82 47 83
REMARK H PARENT 67 45 41 56
REMARK Flexibility Score: inf
ROOT
ATOM      1  C   UNL A   1      31.323  28.240  25.714  1.00  0.00     0.274 C 
ENDROOT
BRANCH   1   2
ATOM      2  O   UNL A   1      31.424  27.279  24.635  1.00  0.00    -0.462 OA
BRANCH   2   3
ATOM      3  C   UNL A   1      31.665  25.991  25.009  1.00  0.00     0.311 C 
ATOM      4  O   UNL A   1      30.796  25.193  25.331  1.00  0.00    -0.252 OA
BRANCH   3   5
ATOM      5  C   UNL A   1      33.152  25.674  24.986  1.00  0.00     0.127 C 
ATOM      6  N   UNL A   1      32.981  24.159  23.034  1.00  0.00    -0.335 N 
ATOM      7  C   UNL A   1      33.282  25.159  22.116  1.00  0.00     0.223 C 
ATOM      8  C   UNL A   1      33.382  24.252  24.449  1.00  0.00     0.129 C 
ATOM      9  O   UNL A   1      33.199  24.993  20.899  1.00  0.00    -0.275 OA
ATOM     10  C   UNL A   1      33.653  26.532  22.647  1.00  0.00     0.101 C 
ATOM     11  C   UNL A   1      33.967  26.646  24.130  1.00  0.00     0.028 C 
BRANCH   6  12
ATOM     12  C   UNL A   1      32.402  22.897  22.553  1.00  0.00     0.122 C 
BRANCH  12  13
ATOM     13  C   UNL A   1      31.850  22.010  23.674  1.00  0.00     0.050 C 
BRANCH  13  14
ATOM     14  C   UNL A   1      32.477  20.621  23.776  1.00  0.00     0.161 C 
BRANCH  14  15
ATOM     15  O   UNL A   1      32.152  19.971  25.003  1.00  0.00    -0.385 OA
ATOM     16  C   UNL A   1      32.802  18.715  25.165  1.00  0.00     0.194 C 
ENDBRANCH  14  15
ENDBRANCH  13  14
ENDBRANCH  12  13
ENDBRANCH   6  12
BRANCH   8  17
ATOM     17  C   UNL A   1      34.852  23.831  24.667  1.00  0.00    -0.024 A 
ATOM     18  C   UNL A   1      35.513  24.003  25.899  1.00  0.00     0.009 A 
ATOM     19  C   UNL A   1      35.542  23.159  23.638  1.00  0.00     0.009 A 
ATOM     20  C   UNL A   1      36.784  23.468  26.117  1.00  0.00     0.039 A 
ATOM     21  C   UNL A   1      36.810  22.617  23.861  1.00  0.00     0.039 A 
ATOM     22  C   UNL A   1      37.414  22.766  25.102  1.00  0.00     0.123 A 
ATOM     23  F   UNL A   1      38.617  22.222  25.322  1.00  0.00    -0.207 F 
ENDBRANCH   8  17
ENDBRANCH   3   5
ENDBRANCH   2   3
ENDBRANCH   1   2
BRANCH   1  24
ATOM     24  C   UNL A   1      31.640  29.660  25.238  1.00  0.00     0.275 C 
BRANCH  24  25
ATOM     25  O   UNL A   1      32.959  30.016  25.676  1.00  0.00    -0.458 OA
BRANCH  25  26
ATOM     26  C   UNL A   1      33.044  30.921  26.677  1.00  0.00     0.338 C 
ATOM     27  O   UNL A   1      32.198  31.720  27.033  1.00  0.00    -0.246 OA
BRANCH  26  28
ATOM     28  C   UNL A   1      34.342  30.733  27.349  1.00  0.00     0.060 A 
ATOM     29  C   UNL A   1      34.771  29.432  27.595  1.00  0.00     0.016 A 
ATOM     30  C   UNL A   1      35.094  31.812  27.804  1.00  0.00     0.016 A 
ATOM     31  C   UNL A   1      35.938  29.184  28.308  1.00  0.00     0.010 A 
ATOM     32  C   UNL A   1      36.294  31.570  28.488  1.00  0.00     0.010 A 
ATOM     33  C   UNL A   1      36.714  30.253  28.758  1.00  0.00    -0.014 A 
BRANCH  33  34
ATOM     34  C   UNL A   1      37.904  29.979  29.598  1.00  0.00     0.031 A 
ATOM     35  C   UNL A   1      39.010  29.129  29.045  1.00  0.00     0.074 A 
ATOM     36  C   UNL A   1      38.040  30.547  30.810  1.00  0.00     0.049 A 
ATOM     37  N   UNL A   1      40.072  28.658  29.644  1.00  0.00    -0.248 NA
ATOM     38  C   UNL A   1      38.912  28.775  27.620  1.00  0.00     0.031 C 
ATOM     39  C   UNL A   1      37.103  31.495  31.415  1.00  0.00     0.029 A 
ATOM     40  N   UNL A   1      39.034  30.415  31.748  1.00  0.00    -0.354 N 
ATOM     41  C   UNL A   1      40.753  27.926  28.681  1.00  0.00     0.074 A 
ATOM     42  C   UNL A   1      39.988  28.019  27.455  1.00  0.00     0.031 C 
ATOM     43  C   UNL A   1      37.570  31.861  32.620  1.00  0.00     0.029 A 
ATOM     44  C   UNL A   1      38.801  31.127  32.899  1.00  0.00     0.049 A 
ATOM     45  H   UNL A   1      39.837  29.863  31.609  1.00  0.00     0.167 HD
ATOM     46  C   UNL A   1      41.908  27.233  28.810  1.00  0.00     0.037 A 
ATOM     47  C   UNL A   1      39.482  31.150  34.061  1.00  0.00     0.037 A 
ATOM     48  C   UNL A   1      42.676  27.153  30.022  1.00  0.00     0.049 A 
ATOM     49  C   UNL A   1      40.702  30.285  34.217  1.00  0.00     0.074 A 
ATOM     50  C   UNL A   1      43.835  26.437  30.267  1.00  0.00     0.029 A 
ATOM     51  N   UNL A   1      42.364  27.825  31.194  1.00  0.00    -0.354 N 
ATOM     52  N   UNL A   1      41.292  29.519  33.331  1.00  0.00    -0.248 NA
ATOM     53  C   UNL A   1      41.336  30.265  35.543  1.00  0.00     0.031 C 
ATOM     54  C   UNL A   1      44.208  26.652  31.598  1.00  0.00     0.029 A 
ATOM     55  C   UNL A   1      43.300  27.528  32.171  1.00  0.00     0.049 A 
ATOM     56  H   UNL A   1      41.592  28.423  31.315  1.00  0.00     0.167 HD
ATOM     57  C   UNL A   1      42.369  28.937  33.987  1.00  0.00     0.074 A 
ATOM     58  C   UNL A   1      42.362  29.450  35.341  1.00  0.00     0.031 C 
ATOM     59  C   UNL A   1      43.279  28.052  33.512  1.00  0.00     0.037 A 
BRANCH  46  60
ATOM     60  C   UNL A   1      42.375  26.463  27.615  1.00  0.00     0.057 A 
ATOM     61  C   UNL A   1      43.227  27.023  26.657  1.00  0.00     0.134 A 
ATOM     62  C   UNL A   1      41.966  25.137  27.426  1.00  0.00     0.134 A 
ATOM     63  F   UNL A   1      43.634  28.297  26.771  1.00  0.00    -0.206 F 
ATOM     64  C   UNL A   1      43.644  26.296  25.541  1.00  0.00     0.040 A 
ATOM     65  C   UNL A   1      42.390  24.394  26.325  1.00  0.00     0.040 A 
ATOM     66  F   UNL A   1      41.146  24.545  28.309  1.00  0.00    -0.206 F 
ATOM     67  C   UNL A   1      43.228  24.975  25.376  1.00  0.00     0.006 A 
ENDBRANCH  46  60
BRANCH  47  68
ATOM     68  C   UNL A   1      38.992  31.970  35.197  1.00  0.00     0.057 A 
ATOM     69  C   UNL A   1      39.301  33.332  35.297  1.00  0.00     0.134 A 
ATOM     70  C   UNL A   1      38.232  31.404  36.227  1.00  0.00     0.134 A 
ATOM     71  F   UNL A   1      40.052  33.924  34.357  1.00  0.00    -0.206 F 
ATOM     72  C   UNL A   1      38.878  34.099  36.384  1.00  0.00     0.040 A 
ATOM     73  C   UNL A   1      37.784  32.163  37.308  1.00  0.00     0.040 A 
ATOM     74  F   UNL A   1      37.913  30.102  36.196  1.00  0.00    -0.206 F 
ATOM     75  C   UNL A   1      38.112  33.514  37.391  1.00  0.00     0.006 A 
ENDBRANCH  47  68
BRANCH  59  76
ATOM     76  C   UNL A   1      44.351  27.600  34.456  1.00  0.00     0.057 A 
ATOM     77  C   UNL A   1      44.204  26.443  35.232  1.00  0.00     0.134 A 
ATOM     78  C   UNL A   1      45.556  28.304  34.559  1.00  0.00     0.134 A 
ATOM     79  F   UNL A   1      43.066  25.734  35.186  1.00  0.00    -0.206 F 
ATOM     80  C   UNL A   1      45.216  26.011  36.089  1.00  0.00     0.040 A 
ATOM     81  C   UNL A   1      46.583  27.871  35.398  1.00  0.00     0.040 A 
ATOM     82  F   UNL A   1      45.759  29.416  33.837  1.00  0.00    -0.206 F 
ATOM     83  C   UNL A   1      46.413  26.722  36.169  1.00  0.00     0.006 A 
ENDBRANCH  59  76
ENDBRANCH  33  34
ENDBRANCH  26  28
ENDBRANCH  25  26
ENDBRANCH  24  25
ENDBRANCH   1  24
TORSDOF 16
ENDMDL
MODEL 2
REMARK VINA RESULT:     -11.0      3.786      8.653
REMARK SMILES COCCCN1C(=O)CC[C@@H](C(=O)OCCOC(=O)c2ccc(-c3c4nc(c(-c5c(F)cccc5F)c5ccc([nH]5)c(-c5c(F)cccc5F)c5nc(c(-c6c(F)cccc6F)c6ccc3[nH]6)C=C5)C=C4)cc2)[C@@H]1c1ccc(F)cc1
REMARK SMILES IDX 15 1 14 2 12 3 13 4 11 5 6 6 7 7 74 8 8 9 9 10 10 11 5 12
REMARK SMILES IDX 4 13 3 14 2 15 1 16 75 17 76 18 81 19 77 20 80 21 78 22
REMARK SMILES IDX 79 23 16 24 17 25 18 26 19 27 20 28 21 29 73 30 22 31 72 32
REMARK SMILES IDX 23 33 24 34 25 35 66 36 26 37 71 38 65 39 67 40 27 41 70 42
REMARK SMILES IDX 64 43 63 44 28 46 54 47 37 48 53 49 38 50 41 51 52 52 68 53
REMARK SMILES IDX 39 54 40 55 51 57 69 58 42 59 29 60 30 61 35 62 31 63 32 64
REMARK SMILES IDX 34 65 36 66 33 67 55 68 56 69 61 70 57 71 58 72 60 73 62 74
REMARK SMILES IDX 59 75 43 76 44 77 49 78 45 79 46 80 48 81 50 82 47 83
REMARK H PARENT 67 45 41 56
REMARK Flexibility Score: inf
ROOT
ATOM      1  C   UNL A   1      35.074  21.640  24.194  1.00  0.00     0.274 C 
ENDROOT
BRANCH   1   2
ATOM      2  O   UNL A   1      35.603  22.985  24.092  1.00  0.00    -0.462 OA
BRANCH   2   3
ATOM      3  C   UNL A   1      34.715  23.945  23.709  1.00  0.00     0.311 C 
ATOM      4  O   UNL A   1      34.181  23.990  22.611  1.00  0.00    -0.252 OA
BRANCH   3   5
ATOM      5  C   UNL A   1      34.481  24.959  24.818  1.00  0.00     0.127 C 
ATOM      6  N   UNL A   1      32.023  24.990  24.514  1.00  0.00    -0.335 N 
ATOM      7  C   UNL A   1      31.798  24.024  25.487  1.00  0.00     0.223 C 
ATOM      8  C   UNL A   1      33.244  25.816  24.500  1.00  0.00     0.129 C 
ATOM      9  O   UNL A   1      30.694  23.517  25.680  1.00  0.00    -0.275 OA
ATOM     10  C   UNL A   1      32.987  23.525  26.290  1.00  0.00     0.101 C 
ATOM     11  C   UNL A   1      34.278  24.320  26.193  1.00  0.00     0.028 C 
BRANCH   6  12
ATOM     12  C   UNL A   1      30.943  25.324  23.574  1.00  0.00     0.122 C 
BRANCH  12  13
ATOM     13  C   UNL A   1      31.292  26.476  22.625  1.00  0.00     0.050 C 
BRANCH  13  14
ATOM     14  C   UNL A   1      30.249  27.588  22.539  1.00  0.00     0.161 C 
BRANCH  14  15
ATOM     15  O   UNL A   1      30.021  28.214  23.800  1.00  0.00    -0.385 OA
ATOM     16  C   UNL A   1      30.673  29.472  23.931  1.00  0.00     0.194 C 
ENDBRANCH  14  15
ENDBRANCH  13  14
ENDBRANCH  12  13
ENDBRANCH   6  12
BRANCH   8  17
ATOM     17  C   UNL A   1      33.154  27.006  25.478  1.00  0.00    -0.024 A 
ATOM     18  C   UNL A   1      34.032  28.106  25.414  1.00  0.00     0.009 A 
ATOM     19  C   UNL A   1      32.100  27.060  26.412  1.00  0.00     0.009 A 
ATOM     20  C   UNL A   1      33.828  29.241  26.201  1.00  0.00     0.039 A 
ATOM     21  C   UNL A   1      31.892  28.199  27.194  1.00  0.00     0.039 A 
ATOM     22  C   UNL A   1      32.751  29.284  27.073  1.00  0.00     0.123 A 
ATOM     23  F   UNL A   1      32.533  30.385  27.801  1.00  0.00    -0.207 F 
ENDBRANCH   8  17
ENDBRANCH   3   5
ENDBRANCH   2   3
ENDBRANCH   1   2
BRANCH   1  24
ATOM     24  C   UNL A   1      35.990  20.733  25.018  1.00  0.00     0.275 C 
BRANCH  24  25
ATOM     25  O   UNL A   1      36.874  21.550  25.800  1.00  0.00    -0.458 OA
BRANCH  25  26
ATOM     26  C   UNL A   1      38.189  21.235  25.756  1.00  0.00     0.338 C 
ATOM     27  O   UNL A   1      38.702  20.238  25.282  1.00  0.00    -0.246 OA
BRANCH  26  28
ATOM     28  C   UNL A   1      38.945  22.365  26.325  1.00  0.00     0.060 A 
ATOM     29  C   UNL A   1      38.470  23.654  26.096  1.00  0.00     0.016 A 
ATOM     30  C   UNL A   1      40.143  22.176  27.008  1.00  0.00     0.016 A 
ATOM     31  C   UNL A   1      39.182  24.768  26.522  1.00  0.00     0.010 A 
ATOM     32  C   UNL A   1      40.847  23.294  27.476  1.00  0.00     0.010 A 
ATOM     33  C   UNL A   1      40.378  24.597  27.222  1.00  0.00    -0.014 A 
BRANCH  33  34
ATOM     34  C   UNL A   1      41.177  25.791  27.589  1.00  0.00     0.031 A 
ATOM     35  C   UNL A   1      40.564  26.840  28.469  1.00  0.00     0.074 A 
ATOM     36  C   UNL A   1      42.463  25.903  27.210  1.00  0.00     0.049 A 
ATOM     37  N   UNL A   1      41.029  28.015  28.805  1.00  0.00    -0.248 NA
ATOM     38  C   UNL A   1      39.258  26.513  29.061  1.00  0.00     0.031 C 
ATOM     39  C   UNL A   1      43.221  24.899  26.463  1.00  0.00     0.029 A 
ATOM     40  N   UNL A   1      43.367  26.917  27.418  1.00  0.00    -0.354 N 
ATOM     41  C   UNL A   1      40.060  28.582  29.622  1.00  0.00     0.074 A 
ATOM     42  C   UNL A   1      38.984  27.621  29.736  1.00  0.00     0.031 C 
ATOM     43  C   UNL A   1      44.475  25.346  26.279  1.00  0.00     0.029 A 
ATOM     44  C   UNL A   1      44.590  26.691  26.836  1.00  0.00     0.049 A 
ATOM     45  H   UNL A   1      43.157  27.729  27.934  1.00  0.00     0.167 HD
ATOM     46  C   UNL A   1      40.067  29.798  30.216  1.00  0.00     0.037 A 
ATOM     47  C   UNL A   1      45.664  27.495  26.728  1.00  0.00     0.037 A 
ATOM     48  C   UNL A   1      41.142  30.746  30.115  1.00  0.00     0.049 A 
ATOM     49  C   UNL A   1      45.606  28.885  27.302  1.00  0.00     0.074 A 
ATOM     50  C   UNL A   1      41.221  32.024  30.641  1.00  0.00     0.029 A 
ATOM     51  N   UNL A   1      42.334  30.512  29.448  1.00  0.00    -0.354 N 
ATOM     52  N   UNL A   1      44.649  29.453  27.996  1.00  0.00    -0.248 NA
ATOM     53  C   UNL A   1      46.765  29.754  27.056  1.00  0.00     0.031 C 
ATOM     54  C   UNL A   1      42.452  32.574  30.266  1.00  0.00     0.029 A 
ATOM     55  C   UNL A   1      43.151  31.627  29.536  1.00  0.00     0.049 A 
ATOM     56  H   UNL A   1      42.566  29.677  28.981  1.00  0.00     0.167 HD
ATOM     57  C   UNL A   1      45.093  30.738  28.277  1.00  0.00     0.074 A 
ATOM     58  C   UNL A   1      46.413  30.862  27.693  1.00  0.00     0.031 C 
ATOM     59  C   UNL A   1      44.463  31.729  28.952  1.00  0.00     0.037 A 
BRANCH  46  60
ATOM     60  C   UNL A   1      38.841  30.185  30.983  1.00  0.00     0.057 A 
ATOM     61  C   UNL A   1      37.778  30.872  30.386  1.00  0.00     0.134 A 
ATOM     62  C   UNL A   1      38.726  29.859  32.339  1.00  0.00     0.134 A 
ATOM     63  F   UNL A   1      37.841  31.232  29.095  1.00  0.00    -0.206 F 
ATOM     64  C   UNL A   1      36.647  31.237  31.118  1.00  0.00     0.040 A 
ATOM     65  C   UNL A   1      37.593  30.202  33.077  1.00  0.00     0.040 A 
ATOM     66  F   UNL A   1      39.713  29.204  32.969  1.00  0.00    -0.206 F 
ATOM     67  C   UNL A   1      36.551  30.898  32.466  1.00  0.00     0.006 A 
ENDBRANCH  46  60
BRANCH  47  68
ATOM     68  C   UNL A   1      46.869  27.037  25.993  1.00  0.00     0.057 A 
ATOM     69  C   UNL A   1      47.914  26.376  26.648  1.00  0.00     0.134 A 
ATOM     70  C   UNL A   1      47.019  27.280  24.622  1.00  0.00     0.134 A 
ATOM     71  F   UNL A   1      47.843  26.144  27.967  1.00  0.00    -0.206 F 
ATOM     72  C   UNL A   1      49.068  25.980  25.969  1.00  0.00     0.040 A 
ATOM     73  C   UNL A   1      48.156  26.869  23.926  1.00  0.00     0.040 A 
ATOM     74  F   UNL A   1      46.057  27.918  23.938  1.00  0.00    -0.206 F 
ATOM     75  C   UNL A   1      49.188  26.222  24.601  1.00  0.00     0.006 A 
ENDBRANCH  47  68
BRANCH  59  76
ATOM     76  C   UNL A   1      45.200  33.024  29.111  1.00  0.00     0.057 A 
ATOM     77  C   UNL A   1      45.040  34.075  28.200  1.00  0.00     0.134 A 
ATOM     78  C   UNL A   1      46.042  33.235  30.208  1.00  0.00     0.134 A 
ATOM     79  F   UNL A   1      44.256  33.928  27.122  1.00  0.00    -0.206 F 
ATOM     80  C   UNL A   1      45.707  35.289  28.368  1.00  0.00     0.040 A 
ATOM     81  C   UNL A   1      46.700  34.452  30.398  1.00  0.00     0.040 A 
ATOM     82  F   UNL A   1      46.232  32.269  31.119  1.00  0.00    -0.206 F 
ATOM     83  C   UNL A   1      46.535  35.482  29.474  1.00  0.00     0.006 A 
ENDBRANCH  59  76
ENDBRANCH  33  34
ENDBRANCH  26  28
ENDBRANCH  25  26
ENDBRANCH  24  25
ENDBRANCH   1  24
TORSDOF 16
ENDMDL
MODEL 3
REMARK VINA RESULT:     -10.9      1.568      2.971
REMARK SMILES COCCCN1C(=O)CC[C@@H](C(=O)OCCOC(=O)c2ccc(-c3c4nc(c(-c5c(F)cccc5F)c5ccc([nH]5)c(-c5c(F)cccc5F)c5nc(c(-c6c(F)cccc6F)c6ccc3[nH]6)C=C5)C=C4)cc2)[C@@H]1c1ccc(F)cc1
REMARK SMILES IDX 15 1 14 2 12 3 13 4 11 5 6 6 7 7 74 8 8 9 9 10 10 11 5 12
REMARK SMILES IDX 4 13 3 14 2 15 1 16 75 17 76 18 81 19 77 20 80 21 78 22
REMARK SMILES IDX 79 23 16 24 17 25 18 26 19 27 20 28 21 29 73 30 22 31 72 32
REMARK SMILES IDX 23 33 24 34 25 35 66 36 26 37 71 38 65 39 67 40 27 41 70 42
REMARK SMILES IDX 64 43 63 44 28 46 54 47 37 48 53 49 38 50 41 51 52 52 68 53
REMARK SMILES IDX 39 54 40 55 51 57 69 58 42 59 29 60 30 61 35 62 31 63 32 64
REMARK SMILES IDX 34 65 36 66 33 67 55 68 56 69 61 70 57 71 58 72 60 73 62 74
REMARK SMILES IDX 59 75 43 76 44 77 49 78 45 79 46 80 48 81 50 82 47 83
REMARK H PARENT 67 45 41 56
REMARK Flexibility Score: inf
ROOT
ATOM      1  C   UNL A   1      31.881  27.700  26.256  1.00  0.00     0.274 C 
ENDROOT
BRANCH   1   2
ATOM      2  O   UNL A   1      31.614  26.616  25.333  1.00  0.00    -0.462 OA
BRANCH   2   3
ATOM      3  C   UNL A   1      32.631  25.728  25.151  1.00  0.00     0.311 C 
ATOM      4  O   UNL A   1      33.812  25.984  25.337  1.00  0.00    -0.252 OA
BRANCH   3   5
ATOM      5  C   UNL A   1      32.113  24.379  24.676  1.00  0.00     0.127 C 
ATOM      6  N   UNL A   1      33.476  23.086  26.289  1.00  0.00    -0.335 N 
ATOM      7  C   UNL A   1      32.463  23.028  27.239  1.00  0.00     0.223 C 
ATOM      8  C   UNL A   1      33.194  23.302  24.858  1.00  0.00     0.129 C 
ATOM      9  O   UNL A   1      32.639  22.591  28.376  1.00  0.00    -0.275 OA
ATOM     10  C   UNL A   1      31.105  23.601  26.875  1.00  0.00     0.101 C 
ATOM     11  C   UNL A   1      30.851  23.920  25.411  1.00  0.00     0.028 C 
BRANCH   6  12
ATOM     12  C   UNL A   1      34.850  22.751  26.687  1.00  0.00     0.122 C 
BRANCH  12  13
ATOM     13  C   UNL A   1      35.911  23.234  25.693  1.00  0.00     0.050 C 
BRANCH  13  14
ATOM     14  C   UNL A   1      37.050  22.253  25.426  1.00  0.00     0.161 C 
BRANCH  14  15
ATOM     15  O   UNL A   1      38.258  22.636  26.081  1.00  0.00    -0.385 OA
ATOM     16  C   UNL A   1      38.295  24.015  26.431  1.00  0.00     0.194 C 
ENDBRANCH  14  15
ENDBRANCH  13  14
ENDBRANCH  12  13
ENDBRANCH   6  12
BRANCH   8  17
ATOM     17  C   UNL A   1      32.774  21.999  24.145  1.00  0.00    -0.024 A 
ATOM     18  C   UNL A   1      32.369  21.972  22.795  1.00  0.00     0.009 A 
ATOM     19  C   UNL A   1      32.889  20.768  24.821  1.00  0.00     0.009 A 
ATOM     20  C   UNL A   1      32.153  20.764  22.130  1.00  0.00     0.039 A 
ATOM     21  C   UNL A   1      32.680  19.560  24.151  1.00  0.00     0.039 A 
ATOM     22  C   UNL A   1      32.325  19.569  22.809  1.00  0.00     0.123 A 
ATOM     23  F   UNL A   1      32.154  18.409  22.162  1.00  0.00    -0.207 F 
ENDBRANCH   8  17
ENDBRANCH   3   5
ENDBRANCH   2   3
ENDBRANCH   1   2
BRANCH   1  24
ATOM     24  C   UNL A   1      31.689  29.066  25.595  1.00  0.00     0.275 C 
BRANCH  24  25
ATOM     25  O   UNL A   1      32.923  29.796  25.664  1.00  0.00    -0.458 OA
BRANCH  25  26
ATOM     26  C   UNL A   1      33.010  30.752  26.617  1.00  0.00     0.338 C 
ATOM     27  O   UNL A   1      32.164  31.564  26.938  1.00  0.00    -0.246 OA
BRANCH  26  28
ATOM     28  C   UNL A   1      34.315  30.604  27.288  1.00  0.00     0.060 A 
ATOM     29  C   UNL A   1      34.756  29.318  27.588  1.00  0.00     0.016 A 
ATOM     30  C   UNL A   1      35.062  31.708  27.688  1.00  0.00     0.016 A 
ATOM     31  C   UNL A   1      35.930  29.111  28.302  1.00  0.00     0.010 A 
ATOM     32  C   UNL A   1      36.268  31.505  28.374  1.00  0.00     0.010 A 
ATOM     33  C   UNL A   1      36.700  30.205  28.699  1.00  0.00    -0.014 A 
BRANCH  33  34
ATOM     34  C   UNL A   1      37.898  29.978  29.541  1.00  0.00     0.031 A 
ATOM     35  C   UNL A   1      39.010  29.117  29.017  1.00  0.00     0.074 A 
ATOM     36  C   UNL A   1      38.035  30.597  30.728  1.00  0.00     0.049 A 
ATOM     37  N   UNL A   1      40.080  28.681  29.628  1.00  0.00    -0.248 NA
ATOM     38  C   UNL A   1      38.906  28.704  27.609  1.00  0.00     0.031 C 
ATOM     39  C   UNL A   1      37.093  31.559  31.300  1.00  0.00     0.029 A 
ATOM     40  N   UNL A   1      39.037  30.514  31.665  1.00  0.00    -0.354 N 
ATOM     41  C   UNL A   1      40.763  27.918  28.691  1.00  0.00     0.074 A 
ATOM     42  C   UNL A   1      39.989  27.953  27.468  1.00  0.00     0.031 C 
ATOM     43  C   UNL A   1      37.563  31.980  32.486  1.00  0.00     0.029 A 
ATOM     44  C   UNL A   1      38.804  31.270  32.787  1.00  0.00     0.049 A 
ATOM     45  H   UNL A   1      39.845  29.964  31.543  1.00  0.00     0.167 HD
ATOM     46  C   UNL A   1      41.925  27.243  28.841  1.00  0.00     0.037 A 
ATOM     47  C   UNL A   1      39.491  31.348  33.942  1.00  0.00     0.037 A 
ATOM     48  C   UNL A   1      42.701  27.220  30.051  1.00  0.00     0.049 A 
ATOM     49  C   UNL A   1      40.721  30.502  34.126  1.00  0.00     0.074 A 
ATOM     50  C   UNL A   1      43.869  26.526  30.317  1.00  0.00     0.029 A 
ATOM     51  N   UNL A   1      42.390  27.936  31.196  1.00  0.00    -0.354 N 
ATOM     52  N   UNL A   1      41.314  29.706  33.268  1.00  0.00    -0.248 NA
ATOM     53  C   UNL A   1      41.364  30.544  35.448  1.00  0.00     0.031 C 
ATOM     54  C   UNL A   1      44.248  26.800  31.636  1.00  0.00     0.029 A 
ATOM     55  C   UNL A   1      43.335  27.690  32.178  1.00  0.00     0.049 A 
ATOM     56  H   UNL A   1      41.612  28.532  31.297  1.00  0.00     0.167 HD
ATOM     57  C   UNL A   1      42.401  29.163  33.940  1.00  0.00     0.074 A 
ATOM     58  C   UNL A   1      42.397  29.731  35.272  1.00  0.00     0.031 C 
ATOM     59  C   UNL A   1      43.317  28.268  33.496  1.00  0.00     0.037 A 
BRANCH  46  60
ATOM     60  C   UNL A   1      42.393  26.428  27.676  1.00  0.00     0.057 A 
ATOM     61  C   UNL A   1      41.996  25.098  27.493  1.00  0.00     0.134 A 
ATOM     62  C   UNL A   1      43.251  26.988  26.722  1.00  0.00     0.134 A 
ATOM     63  F   UNL A   1      41.194  24.499  28.386  1.00  0.00    -0.206 F 
ATOM     64  C   UNL A   1      42.451  24.347  26.408  1.00  0.00     0.040 A 
ATOM     65  C   UNL A   1      43.697  26.254  25.624  1.00  0.00     0.040 A 
ATOM     66  F   UNL A   1      43.669  28.257  26.844  1.00  0.00    -0.206 F 
ATOM     67  C   UNL A   1      43.301  24.928  25.467  1.00  0.00     0.006 A 
ENDBRANCH  46  60
BRANCH  47  68
ATOM     68  C   UNL A   1      39.000  32.209  35.047  1.00  0.00     0.057 A 
ATOM     69  C   UNL A   1      39.321  33.570  35.105  1.00  0.00     0.134 A 
ATOM     70  C   UNL A   1      38.226  31.684  36.088  1.00  0.00     0.134 A 
ATOM     71  F   UNL A   1      40.087  34.124  34.154  1.00  0.00    -0.206 F 
ATOM     72  C   UNL A   1      38.897  34.376  36.163  1.00  0.00     0.040 A 
ATOM     73  C   UNL A   1      37.775  32.482  37.140  1.00  0.00     0.040 A 
ATOM     74  F   UNL A   1      37.893  30.384  36.096  1.00  0.00    -0.206 F 
ATOM     75  C   UNL A   1      38.116  33.832  37.182  1.00  0.00     0.006 A 
ENDBRANCH  47  68
BRANCH  59  76
ATOM     76  C   UNL A   1      44.398  27.866  34.452  1.00  0.00     0.057 A 
ATOM     77  C   UNL A   1      45.589  28.595  34.559  1.00  0.00     0.134 A 
ATOM     78  C   UNL A   1      44.229  26.766  35.300  1.00  0.00     0.134 A 
ATOM     79  F   UNL A   1      45.814  29.651  33.764  1.00  0.00    -0.206 F 
ATOM     80  C   UNL A   1      46.581  28.234  35.470  1.00  0.00     0.040 A 
ATOM     81  C   UNL A   1      45.206  26.406  36.229  1.00  0.00     0.040 A 
ATOM     82  F   UNL A   1      43.108  26.032  35.249  1.00  0.00    -0.206 F 
ATOM     83  C   UNL A   1      46.389  27.139  36.314  1.00  0.00     0.006 A 
ENDBRANCH  59  76
ENDBRANCH  33  34
ENDBRANCH  26  28
ENDBRANCH  25  26
ENDBRANCH  24  25
ENDBRANCH   1  24
TORSDOF 16
ENDMDL
