MODEL 1
REMARK VINA RESULT:     -11.4      0.000      0.000
REMARK SMILES O=C(OCCOC(=O)c1c(F)cccc1N1CC[C@@H]([NH+]2CCCCC2)C1)c1ccc(-c2c3nc(c(-c4c(F)cccc4F)c4ccc([nH]4)c(-c4c(F)cccc4F)c4nc(c(-c5c(F)cccc5F)c5ccc2[nH]5)C=C4)C=C3)cc1
REMARK SMILES IDX 4 1 3 2 2 3 1 4 27 5 28 6 80 7 29 8 79 9 30 10 31 11 32 12
REMARK SMILES IDX 73 13 33 14 78 15 72 16 74 17 34 18 77 19 71 20 70 21 35 23
REMARK SMILES IDX 61 24 44 25 60 26 45 27 48 28 59 29 75 30 46 31 47 32 58 34
REMARK SMILES IDX 76 35 49 36 36 37 37 38 42 39 38 40 39 41 41 42 43 43 40 44
REMARK SMILES IDX 62 45 63 46 68 47 64 48 65 49 67 50 69 51 66 52 50 53 51 54
REMARK SMILES IDX 56 55 52 56 53 57 55 58 57 59 54 60 5 61 6 62 7 63 8 64 9 65
REMARK SMILES IDX 10 66 15 67 11 68 12 69 14 70 13 71 16 72 17 73 26 74 18 75
REMARK SMILES IDX 19 76 20 77 21 78 25 79 22 81 24 82 23 83
REMARK H PARENT 74 22 48 33 20 80
REMARK Flexibility Score: inf
ROOT
ATOM      1  C   UNL A   1      39.058  20.075  25.361  1.00  0.00     0.275 C 
ENDROOT
BRANCH   1   2
ATOM      2  O   UNL A   1      39.919  19.578  26.385  1.00  0.00    -0.458 OA
BRANCH   2   3
ATOM      3  C   UNL A   1      41.239  19.609  26.098  1.00  0.00     0.338 C 
ATOM      4  O   UNL A   1      41.926  18.673  25.705  1.00  0.00    -0.246 OA
BRANCH   3   5
ATOM      5  C   UNL A   1      41.754  20.910  26.586  1.00  0.00     0.060 A 
ATOM      6  C   UNL A   1      42.245  21.852  25.672  1.00  0.00     0.016 A 
ATOM      7  C   UNL A   1      41.578  21.263  27.927  1.00  0.00     0.016 A 
ATOM      8  C   UNL A   1      42.535  23.138  26.084  1.00  0.00     0.010 A 
ATOM      9  C   UNL A   1      41.797  22.578  28.329  1.00  0.00     0.010 A 
ATOM     10  C   UNL A   1      42.302  23.509  27.409  1.00  0.00    -0.014 A 
BRANCH  10  11
ATOM     11  C   UNL A   1      42.758  24.838  27.846  1.00  0.00     0.031 A 
ATOM     12  C   UNL A   1      41.726  25.910  28.004  1.00  0.00     0.074 A 
ATOM     13  C   UNL A   1      44.046  25.037  28.177  1.00  0.00     0.049 A 
ATOM     14  N   UNL A   1      41.877  27.132  28.435  1.00  0.00    -0.248 NA
ATOM     15  C   UNL A   1      40.335  25.558  27.663  1.00  0.00     0.031 C 
ATOM     16  C   UNL A   1      45.099  24.021  28.133  1.00  0.00     0.029 A 
ATOM     17  N   UNL A   1      44.697  26.164  28.599  1.00  0.00    -0.354 N 
ATOM     18  C   UNL A   1      40.599  27.670  28.464  1.00  0.00     0.074 A 
ATOM     19  C   UNL A   1      39.696  26.688  27.916  1.00  0.00     0.031 C 
ATOM     20  C   UNL A   1      46.280  24.594  28.419  1.00  0.00     0.029 A 
ATOM     21  C   UNL A   1      46.059  26.008  28.687  1.00  0.00     0.049 A 
ATOM     22  H   UNL A   1      44.234  27.005  28.818  1.00  0.00     0.167 HD
ATOM     23  C   UNL A   1      40.215  28.859  28.973  1.00  0.00     0.037 A 
ATOM     24  C   UNL A   1      47.017  26.918  28.935  1.00  0.00     0.037 A 
ATOM     25  C   UNL A   1      41.133  29.802  29.540  1.00  0.00     0.049 A 
ATOM     26  C   UNL A   1      46.583  28.294  29.347  1.00  0.00     0.074 A 
ATOM     27  C   UNL A   1      40.858  31.009  30.150  1.00  0.00     0.029 A 
ATOM     28  N   UNL A   1      42.511  29.637  29.559  1.00  0.00    -0.354 N 
ATOM     29  N   UNL A   1      45.363  28.767  29.455  1.00  0.00    -0.248 NA
ATOM     30  C   UNL A   1      47.634  29.248  29.722  1.00  0.00     0.031 C 
ATOM     31  C   UNL A   1      42.076  31.600  30.493  1.00  0.00     0.029 A 
ATOM     32  C   UNL A   1      43.106  30.744  30.131  1.00  0.00     0.049 A 
ATOM     33  H   UNL A   1      42.992  28.850  29.214  1.00  0.00     0.167 HD
ATOM     34  C   UNL A   1      45.494  30.050  29.960  1.00  0.00     0.074 A 
ATOM     35  C   UNL A   1      46.915  30.291  30.119  1.00  0.00     0.031 C 
ATOM     36  C   UNL A   1      44.526  30.941  30.282  1.00  0.00     0.037 A 
BRANCH  23  37
ATOM     37  C   UNL A   1      38.754  29.177  28.970  1.00  0.00     0.057 A 
ATOM     38  C   UNL A   1      38.127  29.655  27.815  1.00  0.00     0.134 A 
ATOM     39  C   UNL A   1      37.976  29.053  30.129  1.00  0.00     0.134 A 
ATOM     40  F   UNL A   1      38.817  29.788  26.671  1.00  0.00    -0.206 F 
ATOM     41  C   UNL A   1      36.778  30.012  27.815  1.00  0.00     0.040 A 
ATOM     42  C   UNL A   1      36.622  29.389  30.137  1.00  0.00     0.040 A 
ATOM     43  F   UNL A   1      38.514  28.579  31.263  1.00  0.00    -0.206 F 
ATOM     44  C   UNL A   1      36.022  29.880  28.979  1.00  0.00     0.006 A 
ENDBRANCH  23  37
BRANCH  24  45
ATOM     45  C   UNL A   1      48.446  26.547  28.793  1.00  0.00     0.057 A 
ATOM     46  C   UNL A   1      49.114  26.737  27.574  1.00  0.00     0.134 A 
ATOM     47  C   UNL A   1      49.175  25.982  29.843  1.00  0.00     0.134 A 
ATOM     48  F   UNL A   1      48.467  27.258  26.521  1.00  0.00    -0.206 F 
ATOM     49  C   UNL A   1      50.454  26.381  27.407  1.00  0.00     0.040 A 
ATOM     50  C   UNL A   1      50.521  25.635  29.695  1.00  0.00     0.040 A 
ATOM     51  F   UNL A   1      48.595  25.780  31.035  1.00  0.00    -0.206 F 
ATOM     52  C   UNL A   1      51.162  25.832  28.474  1.00  0.00     0.006 A 
ENDBRANCH  24  45
BRANCH  36  53
ATOM     53  C   UNL A   1      44.958  32.251  30.859  1.00  0.00     0.057 A 
ATOM     54  C   UNL A   1      45.264  33.329  30.019  1.00  0.00     0.134 A 
ATOM     55  C   UNL A   1      45.196  32.396  32.228  1.00  0.00     0.134 A 
ATOM     56  F   UNL A   1      45.066  33.238  28.695  1.00  0.00    -0.206 F 
ATOM     57  C   UNL A   1      45.829  34.499  30.522  1.00  0.00     0.040 A 
ATOM     58  C   UNL A   1      45.739  33.571  32.745  1.00  0.00     0.040 A 
ATOM     59  F   UNL A   1      44.911  31.398  33.078  1.00  0.00    -0.206 F 
ATOM     60  C   UNL A   1      46.071  34.621  31.888  1.00  0.00     0.006 A 
ENDBRANCH  36  53
ENDBRANCH  10  11
ENDBRANCH   3   5
ENDBRANCH   2   3
ENDBRANCH   1   2
BRANCH   1  61
ATOM     61  C   UNL A   1      38.461  21.462  25.686  1.00  0.00     0.275 C 
BRANCH  61  62
ATOM     62  O   UNL A   1      37.017  21.512  25.729  1.00  0.00    -0.458 OA
BRANCH  62  63
ATOM     63  C   UNL A   1      36.372  21.683  24.541  1.00  0.00     0.343 C 
ATOM     64  O   UNL A   1      36.821  22.236  23.551  1.00  0.00    -0.246 OA
BRANCH  63  65
ATOM     65  C   UNL A   1      34.988  21.163  24.632  1.00  0.00     0.119 A 
ATOM     66  C   UNL A   1      34.877  19.779  24.779  1.00  0.00     0.139 A 
ATOM     67  C   UNL A   1      33.841  21.992  24.721  1.00  0.00     0.055 A 
ATOM     68  F   UNL A   1      35.967  18.996  24.733  1.00  0.00    -0.206 F 
ATOM     69  C   UNL A   1      33.639  19.177  24.979  1.00  0.00     0.040 A 
ATOM     70  C   UNL A   1      32.601  21.349  24.911  1.00  0.00     0.027 A 
ATOM     71  C   UNL A   1      32.495  19.959  25.022  1.00  0.00     0.005 A 
BRANCH  67  72
ATOM     72  N   UNL A   1      33.892  23.359  24.587  1.00  0.00    -0.365 N 
ATOM     73  C   UNL A   1      33.465  23.954  23.342  1.00  0.00     0.123 C 
ATOM     74  C   UNL A   1      33.825  24.374  25.647  1.00  0.00     0.181 C 
ATOM     75  C   UNL A   1      34.026  25.348  23.418  1.00  0.00     0.088 C 
ATOM     76  C   UNL A   1      33.812  25.754  24.879  1.00  0.00     0.205 C 
BRANCH  76  77
ATOM     77  N   UNL A   1      32.682  26.661  25.169  1.00  0.00    -0.331 N 
ATOM     78  C   UNL A   1      32.389  27.746  24.233  1.00  0.00     0.262 C 
ATOM     79  C   UNL A   1      32.611  27.119  26.564  1.00  0.00     0.262 C 
ATOM     80  H   UNL A   1      31.915  26.009  25.002  1.00  0.00     0.348 HD
ATOM     81  C   UNL A   1      33.180  29.038  24.450  1.00  0.00     0.062 C 
ATOM     82  C   UNL A   1      33.414  28.380  26.893  1.00  0.00     0.062 C 
ATOM     83  C   UNL A   1      33.170  29.509  25.898  1.00  0.00     0.012 C 
ENDBRANCH  76  77
ENDBRANCH  67  72
ENDBRANCH  63  65
ENDBRANCH  62  63
ENDBRANCH  61  62
ENDBRANCH   1  61
TORSDOF 13
ENDMDL
MODEL 2
REMARK VINA RESULT:     -11.3      4.823      8.821
REMARK SMILES O=C(OCCOC(=O)c1c(F)cccc1N1CC[C@@H]([NH+]2CCCCC2)C1)c1ccc(-c2c3nc(c(-c4c(F)cccc4F)c4ccc([nH]4)c(-c4c(F)cccc4F)c4nc(c(-c5c(F)cccc5F)c5ccc2[nH]5)C=C4)C=C3)cc1
REMARK SMILES IDX 4 1 3 2 2 3 1 4 27 5 28 6 80 7 29 8 79 9 30 10 31 11 32 12
REMARK SMILES IDX 73 13 33 14 78 15 72 16 74 17 34 18 77 19 71 20 70 21 35 23
REMARK SMILES IDX 61 24 44 25 60 26 45 27 48 28 59 29 75 30 46 31 47 32 58 34
REMARK SMILES IDX 76 35 49 36 36 37 37 38 42 39 38 40 39 41 41 42 43 43 40 44
REMARK SMILES IDX 62 45 63 46 68 47 64 48 65 49 67 50 69 51 66 52 50 53 51 54
REMARK SMILES IDX 56 55 52 56 53 57 55 58 57 59 54 60 5 61 6 62 7 63 8 64 9 65
REMARK SMILES IDX 10 66 15 67 11 68 12 69 14 70 13 71 16 72 17 73 26 74 18 75
REMARK SMILES IDX 19 76 20 77 21 78 25 79 22 81 24 82 23 83
REMARK H PARENT 74 22 48 33 20 80
REMARK Flexibility Score: inf
ROOT
ATOM      1  C   UNL A   1      32.015  32.585  27.263  1.00  0.00     0.275 C 
ENDROOT
BRANCH   1   2
ATOM      2  O   UNL A   1      33.019  33.599  27.261  1.00  0.00    -0.458 OA
BRANCH   2   3
ATOM      3  C   UNL A   1      33.218  34.220  28.444  1.00  0.00     0.338 C 
ATOM      4  O   UNL A   1      32.640  35.221  28.853  1.00  0.00    -0.246 OA
BRANCH   3   5
ATOM      5  C   UNL A   1      34.435  33.623  29.043  1.00  0.00     0.060 A 
ATOM      6  C   UNL A   1      34.314  32.587  29.979  1.00  0.00     0.016 A 
ATOM      7  C   UNL A   1      35.693  33.964  28.538  1.00  0.00     0.016 A 
ATOM      8  C   UNL A   1      35.429  31.884  30.390  1.00  0.00     0.010 A 
ATOM      9  C   UNL A   1      36.807  33.209  28.892  1.00  0.00     0.010 A 
ATOM     10  C   UNL A   1      36.677  32.184  29.841  1.00  0.00    -0.014 A 
BRANCH  10  11
ATOM     11  C   UNL A   1      37.861  31.518  30.407  1.00  0.00     0.031 A 
ATOM     12  C   UNL A   1      38.272  31.893  31.796  1.00  0.00     0.074 A 
ATOM     13  C   UNL A   1      38.481  30.542  29.721  1.00  0.00     0.049 A 
ATOM     14  N   UNL A   1      39.236  31.399  32.524  1.00  0.00    -0.248 NA
ATOM     15  C   UNL A   1      37.482  32.939  32.471  1.00  0.00     0.031 C 
ATOM     16  C   UNL A   1      38.090  30.057  28.396  1.00  0.00     0.029 A 
ATOM     17  N   UNL A   1      39.582  29.792  30.031  1.00  0.00    -0.354 N 
ATOM     18  C   UNL A   1      39.130  32.036  33.751  1.00  0.00     0.074 A 
ATOM     19  C   UNL A   1      38.082  33.021  33.647  1.00  0.00     0.031 C 
ATOM     20  C   UNL A   1      38.994  29.161  27.968  1.00  0.00     0.029 A 
ATOM     21  C   UNL A   1      40.011  28.996  28.997  1.00  0.00     0.049 A 
ATOM     22  H   UNL A   1      40.025  29.820  30.911  1.00  0.00     0.167 HD
ATOM     23  C   UNL A   1      39.810  31.764  34.884  1.00  0.00     0.037 A 
ATOM     24  C   UNL A   1      41.116  28.237  28.893  1.00  0.00     0.037 A 
ATOM     25  C   UNL A   1      40.826  30.755  34.965  1.00  0.00     0.049 A 
ATOM     26  C   UNL A   1      41.963  28.065  30.119  1.00  0.00     0.074 A 
ATOM     27  C   UNL A   1      41.537  30.339  36.073  1.00  0.00     0.029 A 
ATOM     28  N   UNL A   1      41.275  30.010  33.884  1.00  0.00    -0.354 N 
ATOM     29  N   UNL A   1      41.803  28.607  31.304  1.00  0.00    -0.248 NA
ATOM     30  C   UNL A   1      43.105  27.148  30.026  1.00  0.00     0.031 C 
ATOM     31  C   UNL A   1      42.455  29.374  35.651  1.00  0.00     0.029 A 
ATOM     32  C   UNL A   1      42.288  29.163  34.290  1.00  0.00     0.049 A 
ATOM     33  H   UNL A   1      40.925  30.075  32.966  1.00  0.00     0.167 HD
ATOM     34  C   UNL A   1      42.786  28.059  32.111  1.00  0.00     0.074 A 
ATOM     35  C   UNL A   1      43.553  27.156  31.276  1.00  0.00     0.031 C 
ATOM     36  C   UNL A   1      43.020  28.269  33.428  1.00  0.00     0.037 A 
BRANCH  23  37
ATOM     37  C   UNL A   1      39.450  32.535  36.114  1.00  0.00     0.057 A 
ATOM     38  C   UNL A   1      38.448  32.081  36.976  1.00  0.00     0.134 A 
ATOM     39  C   UNL A   1      40.069  33.755  36.419  1.00  0.00     0.134 A 
ATOM     40  F   UNL A   1      37.824  30.916  36.742  1.00  0.00    -0.206 F 
ATOM     41  C   UNL A   1      38.061  32.821  38.094  1.00  0.00     0.040 A 
ATOM     42  C   UNL A   1      39.705  34.495  37.544  1.00  0.00     0.040 A 
ATOM     43  F   UNL A   1      41.054  34.232  35.643  1.00  0.00    -0.206 F 
ATOM     44  C   UNL A   1      38.690  34.032  38.380  1.00  0.00     0.006 A 
ENDBRANCH  23  37
BRANCH  24  45
ATOM     45  C   UNL A   1      41.463  27.608  27.595  1.00  0.00     0.057 A 
ATOM     46  C   UNL A   1      42.182  28.323  26.626  1.00  0.00     0.134 A 
ATOM     47  C   UNL A   1      41.079  26.302  27.277  1.00  0.00     0.134 A 
ATOM     48  F   UNL A   1      42.565  29.586  26.863  1.00  0.00    -0.206 F 
ATOM     49  C   UNL A   1      42.507  27.762  25.390  1.00  0.00     0.040 A 
ATOM     50  C   UNL A   1      41.411  25.723  26.049  1.00  0.00     0.040 A 
ATOM     51  F   UNL A   1      40.394  25.565  28.162  1.00  0.00    -0.206 F 
ATOM     52  C   UNL A   1      42.125  26.454  25.101  1.00  0.00     0.006 A 
ENDBRANCH  24  45
BRANCH  36  53
ATOM     53  C   UNL A   1      44.133  27.497  34.063  1.00  0.00     0.057 A 
ATOM     54  C   UNL A   1      43.879  26.267  34.682  1.00  0.00     0.134 A 
ATOM     55  C   UNL A   1      45.417  28.038  34.175  1.00  0.00     0.134 A 
ATOM     56  F   UNL A   1      42.660  25.710  34.616  1.00  0.00    -0.206 F 
ATOM     57  C   UNL A   1      44.861  25.616  35.425  1.00  0.00     0.040 A 
ATOM     58  C   UNL A   1      46.414  27.383  34.896  1.00  0.00     0.040 A 
ATOM     59  F   UNL A   1      45.715  29.208  33.593  1.00  0.00    -0.206 F 
ATOM     60  C   UNL A   1      46.132  26.175  35.536  1.00  0.00     0.006 A 
ENDBRANCH  36  53
ENDBRANCH  10  11
ENDBRANCH   3   5
ENDBRANCH   2   3
ENDBRANCH   1   2
BRANCH   1  61
ATOM     61  C   UNL A   1      32.573  31.173  26.984  1.00  0.00     0.275 C 
BRANCH  61  62
ATOM     62  O   UNL A   1      31.664  30.277  26.305  1.00  0.00    -0.458 OA
BRANCH  62  63
ATOM     63  C   UNL A   1      32.129  29.668  25.177  1.00  0.00     0.343 C 
ATOM     64  O   UNL A   1      33.278  29.690  24.769  1.00  0.00    -0.246 OA
BRANCH  63  65
ATOM     65  C   UNL A   1      31.012  29.023  24.449  1.00  0.00     0.119 A 
ATOM     66  C   UNL A   1      30.015  29.889  23.993  1.00  0.00     0.139 A 
ATOM     67  C   UNL A   1      30.994  27.651  24.092  1.00  0.00     0.055 A 
ATOM     68  F   UNL A   1      30.050  31.195  24.300  1.00  0.00    -0.206 F 
ATOM     69  C   UNL A   1      28.966  29.422  23.209  1.00  0.00     0.040 A 
ATOM     70  C   UNL A   1      29.910  27.209  23.308  1.00  0.00     0.027 A 
ATOM     71  C   UNL A   1      28.898  28.076  22.884  1.00  0.00     0.005 A 
BRANCH  67  72
ATOM     72  N   UNL A   1      31.950  26.755  24.510  1.00  0.00    -0.365 N 
ATOM     73  C   UNL A   1      31.695  25.966  25.692  1.00  0.00     0.123 C 
ATOM     74  C   UNL A   1      32.974  26.082  23.700  1.00  0.00     0.181 C 
ATOM     75  C   UNL A   1      33.057  25.439  26.052  1.00  0.00     0.088 C 
ATOM     76  C   UNL A   1      33.690  25.093  24.701  1.00  0.00     0.205 C 
BRANCH  76  77
ATOM     77  N   UNL A   1      33.720  23.667  24.315  1.00  0.00    -0.331 N 
ATOM     78  C   UNL A   1      33.892  22.656  25.357  1.00  0.00     0.262 C 
ATOM     79  C   UNL A   1      34.547  23.372  23.137  1.00  0.00     0.262 C 
ATOM     80  H   UNL A   1      32.738  23.558  24.057  1.00  0.00     0.348 HD
ATOM     81  C   UNL A   1      35.339  22.342  25.742  1.00  0.00     0.062 C 
ATOM     82  C   UNL A   1      36.027  23.095  23.415  1.00  0.00     0.062 C 
ATOM     83  C   UNL A   1      36.235  22.086  24.539  1.00  0.00     0.012 C 
ENDBRANCH  76  77
ENDBRANCH  67  72
ENDBRANCH  63  65
ENDBRANCH  62  63
ENDBRANCH  61  62
ENDBRANCH   1  61
TORSDOF 13
ENDMDL
MODEL 3
REMARK VINA RESULT:     -11.2      4.253      6.048
REMARK SMILES O=C(OCCOC(=O)c1c(F)cccc1N1CC[C@@H]([NH+]2CCCCC2)C1)c1ccc(-c2c3nc(c(-c4c(F)cccc4F)c4ccc([nH]4)c(-c4c(F)cccc4F)c4nc(c(-c5c(F)cccc5F)c5ccc2[nH]5)C=C4)C=C3)cc1
REMARK SMILES IDX 4 1 3 2 2 3 1 4 27 5 28 6 80 7 29 8 79 9 30 10 31 11 32 12
REMARK SMILES IDX 73 13 33 14 78 15 72 16 74 17 34 18 77 19 71 20 70 21 35 23
REMARK SMILES IDX 61 24 44 25 60 26 45 27 48 28 59 29 75 30 46 31 47 32 58 34
REMARK SMILES IDX 76 35 49 36 36 37 37 38 42 39 38 40 39 41 41 42 43 43 40 44
REMARK SMILES IDX 62 45 63 46 68 47 64 48 65 49 67 50 69 51 66 52 50 53 51 54
REMARK SMILES IDX 56 55 52 56 53 57 55 58 57 59 54 60 5 61 6 62 7 63 8 64 9 65
REMARK SMILES IDX 10 66 15 67 11 68 12 69 14 70 13 71 16 72 17 73 26 74 18 75
REMARK SMILES IDX 19 76 20 77 21 78 25 79 22 81 24 82 23 83
REMARK H PARENT 74 22 48 33 20 80
REMARK Flexibility Score: inf
ROOT
ATOM      1  C   UNL A   1      39.199  22.800  26.633  1.00  0.00     0.275 C 
ENDROOT
BRANCH   1   2
ATOM      2  O   UNL A   1      39.231  24.222  26.514  1.00  0.00    -0.458 OA
BRANCH   2   3
ATOM      3  C   UNL A   1      40.461  24.780  26.566  1.00  0.00     0.338 C 
ATOM      4  O   UNL A   1      41.488  24.337  26.065  1.00  0.00    -0.246 OA
BRANCH   3   5
ATOM      5  C   UNL A   1      40.389  25.887  27.549  1.00  0.00     0.060 A 
ATOM      6  C   UNL A   1      39.442  25.841  28.580  1.00  0.00     0.016 A 
ATOM      7  C   UNL A   1      41.380  26.872  27.553  1.00  0.00     0.016 A 
ATOM      8  C   UNL A   1      39.494  26.753  29.616  1.00  0.00     0.010 A 
ATOM      9  C   UNL A   1      41.482  27.744  28.633  1.00  0.00     0.010 A 
ATOM     10  C   UNL A   1      40.519  27.700  29.653  1.00  0.00    -0.014 A 
BRANCH  10  11
ATOM     11  C   UNL A   1      40.460  28.744  30.688  1.00  0.00     0.031 A 
ATOM     12  C   UNL A   1      39.499  29.872  30.485  1.00  0.00     0.074 A 
ATOM     13  C   UNL A   1      41.184  28.621  31.815  1.00  0.00     0.049 A 
ATOM     14  N   UNL A   1      39.226  30.867  31.283  1.00  0.00    -0.248 NA
ATOM     15  C   UNL A   1      38.717  29.870  29.234  1.00  0.00     0.031 C 
ATOM     16  C   UNL A   1      42.082  27.508  32.129  1.00  0.00     0.029 A 
ATOM     17  N   UNL A   1      41.297  29.448  32.900  1.00  0.00    -0.354 N 
ATOM     18  C   UNL A   1      38.210  31.571  30.655  1.00  0.00     0.074 A 
ATOM     19  C   UNL A   1      37.980  30.960  29.369  1.00  0.00     0.031 C 
ATOM     20  C   UNL A   1      42.725  27.768  33.279  1.00  0.00     0.029 A 
ATOM     21  C   UNL A   1      42.267  29.053  33.789  1.00  0.00     0.049 A 
ATOM     22  H   UNL A   1      40.738  30.248  33.029  1.00  0.00     0.167 HD
ATOM     23  C   UNL A   1      37.489  32.599  31.150  1.00  0.00     0.037 A 
ATOM     24  C   UNL A   1      42.741  29.678  34.881  1.00  0.00     0.037 A 
ATOM     25  C   UNL A   1      37.720  33.165  32.446  1.00  0.00     0.049 A 
ATOM     26  C   UNL A   1      42.032  30.918  35.340  1.00  0.00     0.074 A 
ATOM     27  C   UNL A   1      37.012  34.162  33.088  1.00  0.00     0.029 A 
ATOM     28  N   UNL A   1      38.748  32.780  33.296  1.00  0.00    -0.354 N 
ATOM     29  N   UNL A   1      41.013  31.529  34.781  1.00  0.00    -0.248 NA
ATOM     30  C   UNL A   1      42.488  31.531  36.593  1.00  0.00     0.031 C 
ATOM     31  C   UNL A   1      37.644  34.416  34.306  1.00  0.00     0.029 A 
ATOM     32  C   UNL A   1      38.721  33.551  34.441  1.00  0.00     0.049 A 
ATOM     33  H   UNL A   1      39.399  32.065  33.109  1.00  0.00     0.167 HD
ATOM     34  C   UNL A   1      40.671  32.562  35.638  1.00  0.00     0.074 A 
ATOM     35  C   UNL A   1      41.604  32.510  36.746  1.00  0.00     0.031 C 
ATOM     36  C   UNL A   1      39.663  33.460  35.528  1.00  0.00     0.037 A 
BRANCH  23  37
ATOM     37  C   UNL A   1      36.377  33.137  30.308  1.00  0.00     0.057 A 
ATOM     38  C   UNL A   1      35.062  32.700  30.494  1.00  0.00     0.134 A 
ATOM     39  C   UNL A   1      36.618  34.059  29.280  1.00  0.00     0.134 A 
ATOM     40  F   UNL A   1      34.766  31.824  31.467  1.00  0.00    -0.206 F 
ATOM     41  C   UNL A   1      34.024  33.149  29.676  1.00  0.00     0.040 A 
ATOM     42  C   UNL A   1      35.586  34.530  28.468  1.00  0.00     0.040 A 
ATOM     43  F   UNL A   1      37.854  34.534  29.067  1.00  0.00    -0.206 F 
ATOM     44  C   UNL A   1      34.286  34.067  28.659  1.00  0.00     0.006 A 
ENDBRANCH  23  37
BRANCH  24  45
ATOM     45  C   UNL A   1      43.931  29.139  35.585  1.00  0.00     0.057 A 
ATOM     46  C   UNL A   1      43.786  28.173  36.591  1.00  0.00     0.134 A 
ATOM     47  C   UNL A   1      45.226  29.576  35.296  1.00  0.00     0.134 A 
ATOM     48  F   UNL A   1      42.568  27.723  36.928  1.00  0.00    -0.206 F 
ATOM     49  C   UNL A   1      44.886  27.660  37.281  1.00  0.00     0.040 A 
ATOM     50  C   UNL A   1      46.338  29.061  35.968  1.00  0.00     0.040 A 
ATOM     51  F   UNL A   1      45.432  30.494  34.341  1.00  0.00    -0.206 F 
ATOM     52  C   UNL A   1      46.169  28.102  36.965  1.00  0.00     0.006 A 
ENDBRANCH  24  45
BRANCH  36  53
ATOM     53  C   UNL A   1      39.495  34.448  36.638  1.00  0.00     0.057 A 
ATOM     54  C   UNL A   1      40.111  35.703  36.569  1.00  0.00     0.134 A 
ATOM     55  C   UNL A   1      38.839  34.102  37.822  1.00  0.00     0.134 A 
ATOM     56  F   UNL A   1      40.766  36.081  35.459  1.00  0.00    -0.206 F 
ATOM     57  C   UNL A   1      40.110  36.570  37.659  1.00  0.00     0.040 A 
ATOM     58  C   UNL A   1      38.811  34.971  38.911  1.00  0.00     0.040 A 
ATOM     59  F   UNL A   1      38.223  32.916  37.937  1.00  0.00    -0.206 F 
ATOM     60  C   UNL A   1      39.461  36.203  38.836  1.00  0.00     0.006 A 
ENDBRANCH  36  53
ENDBRANCH  10  11
ENDBRANCH   3   5
ENDBRANCH   2   3
ENDBRANCH   1   2
BRANCH   1  61
ATOM     61  C   UNL A   1      38.206  22.129  25.659  1.00  0.00     0.275 C 
BRANCH  61  62
ATOM     62  O   UNL A   1      36.877  22.698  25.653  1.00  0.00    -0.458 OA
BRANCH  62  63
ATOM     63  C   UNL A   1      36.195  22.656  24.473  1.00  0.00     0.343 C 
ATOM     64  O   UNL A   1      36.576  23.109  23.406  1.00  0.00    -0.246 OA
BRANCH  63  65
ATOM     65  C   UNL A   1      34.863  22.041  24.675  1.00  0.00     0.119 A 
ATOM     66  C   UNL A   1      34.860  20.650  24.803  1.00  0.00     0.139 A 
ATOM     67  C   UNL A   1      33.675  22.787  24.878  1.00  0.00     0.055 A 
ATOM     68  F   UNL A   1      35.992  19.945  24.648  1.00  0.00    -0.206 F 
ATOM     69  C   UNL A   1      33.688  19.962  25.099  1.00  0.00     0.040 A 
ATOM     70  C   UNL A   1      32.503  22.057  25.163  1.00  0.00     0.027 A 
ATOM     71  C   UNL A   1      32.502  20.662  25.256  1.00  0.00     0.005 A 
BRANCH  67  72
ATOM     72  N   UNL A   1      33.621  24.156  24.767  1.00  0.00    -0.365 N 
ATOM     73  C   UNL A   1      33.328  24.739  23.479  1.00  0.00     0.123 C 
ATOM     74  C   UNL A   1      33.309  25.137  25.815  1.00  0.00     0.181 C 
ATOM     75  C   UNL A   1      33.743  26.175  23.650  1.00  0.00     0.088 C 
ATOM     76  C   UNL A   1      33.284  26.527  25.068  1.00  0.00     0.205 C 
BRANCH  76  77
ATOM     77  N   UNL A   1      32.047  27.325  25.197  1.00  0.00    -0.331 N 
ATOM     78  C   UNL A   1      32.033  28.695  24.687  1.00  0.00     0.262 C 
ATOM     79  C   UNL A   1      31.397  27.233  26.512  1.00  0.00     0.262 C 
ATOM     80  H   UNL A   1      31.471  26.827  24.516  1.00  0.00     0.348 HD
ATOM     81  C   UNL A   1      32.547  29.765  25.652  1.00  0.00     0.062 C 
ATOM     82  C   UNL A   1      31.883  28.231  27.566  1.00  0.00     0.062 C 
ATOM     83  C   UNL A   1      31.933  29.662  27.042  1.00  0.00     0.012 C 
ENDBRANCH  76  77
ENDBRANCH  67  72
ENDBRANCH  63  65
ENDBRANCH  62  63
ENDBRANCH  61  62
ENDBRANCH   1  61
TORSDOF 13
ENDMDL
