MODEL 1
REMARK VINA RESULT:     -11.4      0.000      0.000
REMARK SMILES CCNC(=O)c1cccc(-c2ccc(Cl)c(C(=O)OCCOC(=O)c3ccc(-c4c5nc(c(-c6c(F)cccc6F)c6ccc([nH]6)c(-c6c(F)cccc6F)c6nc(c(-c7c(F)cccc7F)c7ccc4[nH]7)C=C6)C=C5)cc3)c2)c1
REMARK SMILES IDX 20 1 19 2 17 3 18 4 16 5 11 6 12 7 79 8 13 9 14 10 15 11
REMARK SMILES IDX 10 12 6 13 7 14 80 15 8 16 9 17 4 18 3 19 5 21 2 22 1 23
REMARK SMILES IDX 21 24 22 25 23 26 24 27 25 28 26 29 78 30 27 31 77 32 28 33
REMARK SMILES IDX 29 34 30 35 71 36 31 37 76 38 70 39 72 40 32 41 75 42 69 43
REMARK SMILES IDX 68 44 33 46 59 47 42 48 58 49 43 50 46 51 57 52 73 53 44 54
REMARK SMILES IDX 45 55 56 57 74 58 47 59 34 60 35 61 40 62 36 63 37 64 39 65
REMARK SMILES IDX 41 66 38 67 60 68 61 69 66 70 62 71 63 72 65 73 67 74 64 75
REMARK SMILES IDX 48 76 49 77 54 78 50 79 51 80 53 81 55 82 52 83
REMARK H PARENT 3 20 72 45 46 56
REMARK Flexibility Score: inf
ROOT
ATOM      1  C   UNL A   1      42.389  19.481  26.714  1.00  0.00     0.275 C 
ENDROOT
BRANCH   1   2
ATOM      2  O   UNL A   1      41.608  20.457  25.997  1.00  0.00    -0.458 OA
BRANCH   2   3
ATOM      3  C   UNL A   1      40.266  20.252  25.939  1.00  0.00     0.339 C 
ATOM      4  O   UNL A   1      39.720  19.170  25.812  1.00  0.00    -0.246 OA
BRANCH   3   5
ATOM      5  C   UNL A   1      39.563  21.554  26.113  1.00  0.00     0.079 A 
ATOM      6  C   UNL A   1      37.764  23.066  25.416  1.00  0.00    -0.017 A 
ATOM      7  C   UNL A   1      38.274  24.046  26.277  1.00  0.00     0.010 A 
ATOM      8  C   UNL A   1      38.464  21.854  25.288  1.00  0.00     0.026 A 
ATOM      9  C   UNL A   1      39.348  23.754  27.115  1.00  0.00     0.022 A 
ATOM     10  C   UNL A   1      39.946  22.487  27.088  1.00  0.00     0.055 A 
ATOM     11  Cl  UNL A   1      41.137  22.185  28.304  1.00  0.00    -0.083 Cl
BRANCH   6  12
ATOM     12  C   UNL A   1      36.398  23.200  24.897  1.00  0.00    -0.018 A 
ATOM     13  C   UNL A   1      34.262  24.345  25.164  1.00  0.00     0.040 A 
ATOM     14  C   UNL A   1      33.869  23.924  23.894  1.00  0.00     0.014 A 
ATOM     15  C   UNL A   1      35.485  23.925  25.681  1.00  0.00     0.022 A 
ATOM     16  C   UNL A   1      34.738  23.145  23.123  1.00  0.00     0.001 A 
ATOM     17  C   UNL A   1      36.005  22.802  23.613  1.00  0.00     0.009 A 
BRANCH  13  18
ATOM     18  C   UNL A   1      33.379  25.219  25.965  1.00  0.00     0.251 C 
ATOM     19  N   UNL A   1      32.305  24.695  26.647  1.00  0.00    -0.352 N 
ATOM     20  H   UNL A   1      31.687  25.364  27.019  1.00  0.00     0.163 HD
ATOM     21  O   UNL A   1      33.611  26.423  26.018  1.00  0.00    -0.269 OA
BRANCH  19  22
ATOM     22  C   UNL A   1      31.932  23.311  26.908  1.00  0.00     0.112 C 
ATOM     23  C   UNL A   1      30.919  22.816  25.893  1.00  0.00     0.027 C 
ENDBRANCH  19  22
ENDBRANCH  13  18
ENDBRANCH   6  12
ENDBRANCH   3   5
ENDBRANCH   2   3
ENDBRANCH   1   2
BRANCH   1  24
ATOM     24  C   UNL A   1      43.103  18.547  25.733  1.00  0.00     0.275 C 
BRANCH  24  25
ATOM     25  O   UNL A   1      43.432  19.238  24.511  1.00  0.00    -0.458 OA
BRANCH  25  26
ATOM     26  C   UNL A   1      44.742  19.550  24.363  1.00  0.00     0.338 C 
ATOM     27  O   UNL A   1      45.623  18.851  23.893  1.00  0.00    -0.246 OA
BRANCH  26  28
ATOM     28  C   UNL A   1      44.944  20.974  24.674  1.00  0.00     0.060 A 
ATOM     29  C   UNL A   1      45.464  21.268  25.932  1.00  0.00     0.016 A 
ATOM     30  C   UNL A   1      44.575  22.004  23.811  1.00  0.00     0.016 A 
ATOM     31  C   UNL A   1      45.660  22.585  26.333  1.00  0.00     0.010 A 
ATOM     32  C   UNL A   1      44.754  23.336  24.220  1.00  0.00     0.010 A 
ATOM     33  C   UNL A   1      45.301  23.634  25.483  1.00  0.00    -0.014 A 
BRANCH  33  34
ATOM     34  C   UNL A   1      45.430  25.030  25.972  1.00  0.00     0.031 A 
ATOM     35  C   UNL A   1      46.758  25.726  25.891  1.00  0.00     0.074 A 
ATOM     36  C   UNL A   1      44.349  25.699  26.417  1.00  0.00     0.049 A 
ATOM     37  N   UNL A   1      47.099  26.916  26.317  1.00  0.00    -0.248 NA
ATOM     38  C   UNL A   1      47.845  24.986  25.234  1.00  0.00     0.031 C 
ATOM     39  C   UNL A   1      42.987  25.169  26.464  1.00  0.00     0.029 A 
ATOM     40  N   UNL A   1      44.229  26.976  26.908  1.00  0.00    -0.354 N 
ATOM     41  C   UNL A   1      48.443  27.059  26.004  1.00  0.00     0.074 A 
ATOM     42  C   UNL A   1      48.860  25.830  25.361  1.00  0.00     0.031 C 
ATOM     43  C   UNL A   1      42.167  26.112  26.959  1.00  0.00     0.029 A 
ATOM     44  C   UNL A   1      42.954  27.292  27.312  1.00  0.00     0.049 A 
ATOM     45  H   UNL A   1      44.984  27.605  26.965  1.00  0.00     0.167 HD
ATOM     46  C   UNL A   1      49.256  28.119  26.231  1.00  0.00     0.037 A 
ATOM     47  C   UNL A   1      42.481  28.392  27.927  1.00  0.00     0.037 A 
ATOM     48  C   UNL A   1      48.836  29.346  26.856  1.00  0.00     0.049 A 
ATOM     49  C   UNL A   1      43.423  29.521  28.249  1.00  0.00     0.074 A 
ATOM     50  C   UNL A   1      49.587  30.476  27.131  1.00  0.00     0.029 A 
ATOM     51  N   UNL A   1      47.550  29.605  27.307  1.00  0.00    -0.354 N 
ATOM     52  N   UNL A   1      44.700  29.638  27.973  1.00  0.00    -0.248 NA
ATOM     53  C   UNL A   1      42.861  30.667  28.979  1.00  0.00     0.031 C 
ATOM     54  C   UNL A   1      48.769  31.398  27.791  1.00  0.00     0.029 A 
ATOM     55  C   UNL A   1      47.493  30.865  27.881  1.00  0.00     0.049 A 
ATOM     56  H   UNL A   1      46.789  28.984  27.231  1.00  0.00     0.167 HD
ATOM     57  C   UNL A   1      45.087  30.876  28.473  1.00  0.00     0.074 A 
ATOM     58  C   UNL A   1      43.906  31.479  29.054  1.00  0.00     0.031 C 
ATOM     59  C   UNL A   1      46.311  31.458  28.453  1.00  0.00     0.037 A 
BRANCH  46  60
ATOM     60  C   UNL A   1      50.697  27.979  25.839  1.00  0.00     0.057 A 
ATOM     61  C   UNL A   1      51.703  27.707  26.775  1.00  0.00     0.134 A 
ATOM     62  C   UNL A   1      51.079  28.095  24.495  1.00  0.00     0.134 A 
ATOM     63  F   UNL A   1      51.407  27.598  28.079  1.00  0.00    -0.206 F 
ATOM     64  C   UNL A   1      53.040  27.579  26.391  1.00  0.00     0.040 A 
ATOM     65  C   UNL A   1      52.407  27.943  24.097  1.00  0.00     0.040 A 
ATOM     66  F   UNL A   1      50.165  28.350  23.547  1.00  0.00    -0.206 F 
ATOM     67  C   UNL A   1      53.394  27.691  25.048  1.00  0.00     0.006 A 
ENDBRANCH  46  60
BRANCH  47  68
ATOM     68  C   UNL A   1      41.050  28.469  28.322  1.00  0.00     0.057 A 
ATOM     69  C   UNL A   1      40.622  28.070  29.593  1.00  0.00     0.134 A 
ATOM     70  C   UNL A   1      40.072  28.916  27.423  1.00  0.00     0.134 A 
ATOM     71  F   UNL A   1      41.505  27.606  30.489  1.00  0.00    -0.206 F 
ATOM     72  C   UNL A   1      39.273  28.099  29.953  1.00  0.00     0.040 A 
ATOM     73  C   UNL A   1      38.724  28.976  27.779  1.00  0.00     0.040 A 
ATOM     74  F   UNL A   1      40.416  29.305  26.187  1.00  0.00    -0.206 F 
ATOM     75  C   UNL A   1      38.321  28.560  29.045  1.00  0.00     0.006 A 
ENDBRANCH  47  68
BRANCH  59  76
ATOM     76  C   UNL A   1      46.429  32.833  29.044  1.00  0.00     0.057 A 
ATOM     77  C   UNL A   1      46.771  33.035  30.387  1.00  0.00     0.134 A 
ATOM     78  C   UNL A   1      46.231  33.970  28.250  1.00  0.00     0.134 A 
ATOM     79  F   UNL A   1      46.961  31.989  31.206  1.00  0.00    -0.206 F 
ATOM     80  C   UNL A   1      46.890  34.318  30.925  1.00  0.00     0.040 A 
ATOM     81  C   UNL A   1      46.373  35.258  28.769  1.00  0.00     0.040 A 
ATOM     82  F   UNL A   1      45.909  33.848  26.954  1.00  0.00    -0.206 F 
ATOM     83  C   UNL A   1      46.698  35.435  30.112  1.00  0.00     0.006 A 
ENDBRANCH  59  76
ENDBRANCH  33  34
ENDBRANCH  26  28
ENDBRANCH  25  26
ENDBRANCH  24  25
ENDBRANCH   1  24
TORSDOF 14
ENDMDL
MODEL 2
REMARK VINA RESULT:     -11.3      1.064      1.989
REMARK SMILES CCNC(=O)c1cccc(-c2ccc(Cl)c(C(=O)OCCOC(=O)c3ccc(-c4c5nc(c(-c6c(F)cccc6F)c6ccc([nH]6)c(-c6c(F)cccc6F)c6nc(c(-c7c(F)cccc7F)c7ccc4[nH]7)C=C6)C=C5)cc3)c2)c1
REMARK SMILES IDX 20 1 19 2 17 3 18 4 16 5 11 6 12 7 79 8 13 9 14 10 15 11
REMARK SMILES IDX 10 12 6 13 7 14 80 15 8 16 9 17 4 18 3 19 5 21 2 22 1 23
REMARK SMILES IDX 21 24 22 25 23 26 24 27 25 28 26 29 78 30 27 31 77 32 28 33
REMARK SMILES IDX 29 34 30 35 71 36 31 37 76 38 70 39 72 40 32 41 75 42 69 43
REMARK SMILES IDX 68 44 33 46 59 47 42 48 58 49 43 50 46 51 57 52 73 53 44 54
REMARK SMILES IDX 45 55 56 57 74 58 47 59 34 60 35 61 40 62 36 63 37 64 39 65
REMARK SMILES IDX 41 66 38 67 60 68 61 69 66 70 62 71 63 72 65 73 67 74 64 75
REMARK SMILES IDX 48 76 49 77 54 78 50 79 51 80 53 81 55 82 52 83
REMARK H PARENT 3 20 72 45 46 56
REMARK Flexibility Score: inf
ROOT
ATOM      1  C   UNL A   1      42.467  19.134  26.727  1.00  0.00     0.275 C 
ENDROOT
BRANCH   1   2
ATOM      2  O   UNL A   1      41.765  20.222  26.094  1.00  0.00    -0.458 OA
BRANCH   2   3
ATOM      3  C   UNL A   1      40.414  20.109  25.993  1.00  0.00     0.339 C 
ATOM      4  O   UNL A   1      39.806  19.082  25.748  1.00  0.00    -0.246 OA
BRANCH   3   5
ATOM      5  C   UNL A   1      39.788  21.429  26.287  1.00  0.00     0.079 A 
ATOM      6  C   UNL A   1      37.939  22.993  25.914  1.00  0.00    -0.017 A 
ATOM      7  C   UNL A   1      38.617  23.954  26.674  1.00  0.00     0.010 A 
ATOM      8  C   UNL A   1      38.571  21.764  25.666  1.00  0.00     0.026 A 
ATOM      9  C   UNL A   1      39.812  23.628  27.313  1.00  0.00     0.022 A 
ATOM     10  C   UNL A   1      40.361  22.346  27.181  1.00  0.00     0.055 A 
ATOM     11  Cl  UNL A   1      41.736  22.005  28.172  1.00  0.00    -0.083 Cl
BRANCH   6  12
ATOM     12  C   UNL A   1      36.507  23.168  25.640  1.00  0.00    -0.018 A 
ATOM     13  C   UNL A   1      34.253  22.505  26.290  1.00  0.00     0.040 A 
ATOM     14  C   UNL A   1      33.724  23.583  25.581  1.00  0.00     0.014 A 
ATOM     15  C   UNL A   1      35.625  22.266  26.257  1.00  0.00     0.022 A 
ATOM     16  C   UNL A   1      34.582  24.455  24.904  1.00  0.00     0.001 A 
ATOM     17  C   UNL A   1      35.970  24.261  24.951  1.00  0.00     0.009 A 
BRANCH  13  18
ATOM     18  C   UNL A   1      33.362  21.610  27.059  1.00  0.00     0.251 C 
ATOM     19  N   UNL A   1      32.948  20.409  26.531  1.00  0.00    -0.352 N 
ATOM     20  H   UNL A   1      32.238  19.958  27.041  1.00  0.00     0.163 HD
ATOM     21  O   UNL A   1      32.992  21.948  28.180  1.00  0.00    -0.269 OA
BRANCH  19  22
ATOM     22  C   UNL A   1      33.388  19.697  25.339  1.00  0.00     0.112 C 
ATOM     23  C   UNL A   1      32.518  20.040  24.144  1.00  0.00     0.027 C 
ENDBRANCH  19  22
ENDBRANCH  13  18
ENDBRANCH   6  12
ENDBRANCH   3   5
ENDBRANCH   2   3
ENDBRANCH   1   2
BRANCH   1  24
ATOM     24  C   UNL A   1      43.364  18.419  25.712  1.00  0.00     0.275 C 
BRANCH  24  25
ATOM     25  O   UNL A   1      43.567  19.234  24.540  1.00  0.00    -0.458 OA
BRANCH  25  26
ATOM     26  C   UNL A   1      44.853  19.583  24.300  1.00  0.00     0.338 C 
ATOM     27  O   UNL A   1      45.714  18.915  23.753  1.00  0.00    -0.246 OA
BRANCH  26  28
ATOM     28  C   UNL A   1      45.042  21.007  24.620  1.00  0.00     0.060 A 
ATOM     29  C   UNL A   1      45.583  21.295  25.871  1.00  0.00     0.016 A 
ATOM     30  C   UNL A   1      44.644  22.040  23.775  1.00  0.00     0.016 A 
ATOM     31  C   UNL A   1      45.769  22.611  26.281  1.00  0.00     0.010 A 
ATOM     32  C   UNL A   1      44.812  23.369  24.193  1.00  0.00     0.010 A 
ATOM     33  C   UNL A   1      45.379  23.663  25.448  1.00  0.00    -0.014 A 
BRANCH  33  34
ATOM     34  C   UNL A   1      45.499  25.056  25.947  1.00  0.00     0.031 A 
ATOM     35  C   UNL A   1      46.824  25.760  25.878  1.00  0.00     0.074 A 
ATOM     36  C   UNL A   1      44.413  25.717  26.391  1.00  0.00     0.049 A 
ATOM     37  N   UNL A   1      47.157  26.948  26.314  1.00  0.00    -0.248 NA
ATOM     38  C   UNL A   1      47.919  25.030  25.222  1.00  0.00     0.031 C 
ATOM     39  C   UNL A   1      43.053  25.180  26.428  1.00  0.00     0.029 A 
ATOM     40  N   UNL A   1      44.284  26.990  26.890  1.00  0.00    -0.354 N 
ATOM     41  C   UNL A   1      48.503  27.099  26.009  1.00  0.00     0.074 A 
ATOM     42  C   UNL A   1      48.929  25.877  25.360  1.00  0.00     0.031 C 
ATOM     43  C   UNL A   1      42.227  26.116  26.925  1.00  0.00     0.029 A 
ATOM     44  C   UNL A   1      43.006  27.297  27.290  1.00  0.00     0.049 A 
ATOM     45  H   UNL A   1      45.036  27.622  26.956  1.00  0.00     0.167 HD
ATOM     46  C   UNL A   1      49.309  28.161  26.248  1.00  0.00     0.037 A 
ATOM     47  C   UNL A   1      42.524  28.391  27.911  1.00  0.00     0.037 A 
ATOM     48  C   UNL A   1      48.880  29.383  26.880  1.00  0.00     0.049 A 
ATOM     49  C   UNL A   1      43.460  29.522  28.246  1.00  0.00     0.074 A 
ATOM     50  C   UNL A   1      49.624  30.514  27.166  1.00  0.00     0.029 A 
ATOM     51  N   UNL A   1      47.591  29.632  27.326  1.00  0.00    -0.354 N 
ATOM     52  N   UNL A   1      44.737  29.647  27.976  1.00  0.00    -0.248 NA
ATOM     53  C   UNL A   1      42.888  30.660  28.980  1.00  0.00     0.031 C 
ATOM     54  C   UNL A   1      48.799  31.427  27.829  1.00  0.00     0.029 A 
ATOM     55  C   UNL A   1      47.525  30.888  27.908  1.00  0.00     0.049 A 
ATOM     56  H   UNL A   1      46.833  29.008  27.241  1.00  0.00     0.167 HD
ATOM     57  C   UNL A   1      45.116  30.883  28.487  1.00  0.00     0.074 A 
ATOM     58  C   UNL A   1      43.929  31.476  29.067  1.00  0.00     0.031 C 
ATOM     59  C   UNL A   1      46.337  31.471  28.478  1.00  0.00     0.037 A 
BRANCH  46  60
ATOM     60  C   UNL A   1      50.753  28.031  25.863  1.00  0.00     0.057 A 
ATOM     61  C   UNL A   1      51.195  28.216  24.548  1.00  0.00     0.134 A 
ATOM     62  C   UNL A   1      51.720  27.736  26.834  1.00  0.00     0.134 A 
ATOM     63  F   UNL A   1      50.320  28.487  23.567  1.00  0.00    -0.206 F 
ATOM     64  C   UNL A   1      52.545  28.092  24.207  1.00  0.00     0.040 A 
ATOM     65  C   UNL A   1      53.074  27.635  26.511  1.00  0.00     0.040 A 
ATOM     66  F   UNL A   1      51.365  27.550  28.114  1.00  0.00    -0.206 F 
ATOM     67  C   UNL A   1      53.488  27.807  25.192  1.00  0.00     0.006 A 
ENDBRANCH  46  60
BRANCH  47  68
ATOM     68  C   UNL A   1      41.091  28.458  28.299  1.00  0.00     0.057 A 
ATOM     69  C   UNL A   1      40.117  28.932  27.414  1.00  0.00     0.134 A 
ATOM     70  C   UNL A   1      40.668  28.075  29.578  1.00  0.00     0.134 A 
ATOM     71  F   UNL A   1      40.463  29.341  26.184  1.00  0.00    -0.206 F 
ATOM     72  C   UNL A   1      38.776  29.038  27.790  1.00  0.00     0.040 A 
ATOM     73  C   UNL A   1      39.327  28.149  29.958  1.00  0.00     0.040 A 
ATOM     74  F   UNL A   1      41.552  27.618  30.477  1.00  0.00    -0.206 F 
ATOM     75  C   UNL A   1      38.378  28.639  29.064  1.00  0.00     0.006 A 
ENDBRANCH  47  68
BRANCH  59  76
ATOM     76  C   UNL A   1      46.445  32.842  29.080  1.00  0.00     0.057 A 
ATOM     77  C   UNL A   1      46.227  34.002  28.326  1.00  0.00     0.134 A 
ATOM     78  C   UNL A   1      46.738  33.002  30.441  1.00  0.00     0.134 A 
ATOM     79  F   UNL A   1      45.956  33.920  27.014  1.00  0.00    -0.206 F 
ATOM     80  C   UNL A   1      46.319  35.272  28.898  1.00  0.00     0.040 A 
ATOM     81  C   UNL A   1      46.806  34.265  31.030  1.00  0.00     0.040 A 
ATOM     82  F   UNL A   1      46.951  31.933  31.222  1.00  0.00    -0.206 F 
ATOM     83  C   UNL A   1      46.602  35.405  30.257  1.00  0.00     0.006 A 
ENDBRANCH  59  76
ENDBRANCH  33  34
ENDBRANCH  26  28
ENDBRANCH  25  26
ENDBRANCH  24  25
ENDBRANCH   1  24
TORSDOF 14
ENDMDL
MODEL 3
REMARK VINA RESULT:     -11.2      4.893      7.247
REMARK SMILES CCNC(=O)c1cccc(-c2ccc(Cl)c(C(=O)OCCOC(=O)c3ccc(-c4c5nc(c(-c6c(F)cccc6F)c6ccc([nH]6)c(-c6c(F)cccc6F)c6nc(c(-c7c(F)cccc7F)c7ccc4[nH]7)C=C6)C=C5)cc3)c2)c1
REMARK SMILES IDX 20 1 19 2 17 3 18 4 16 5 11 6 12 7 79 8 13 9 14 10 15 11
REMARK SMILES IDX 10 12 6 13 7 14 80 15 8 16 9 17 4 18 3 19 5 21 2 22 1 23
REMARK SMILES IDX 21 24 22 25 23 26 24 27 25 28 26 29 78 30 27 31 77 32 28 33
REMARK SMILES IDX 29 34 30 35 71 36 31 37 76 38 70 39 72 40 32 41 75 42 69 43
REMARK SMILES IDX 68 44 33 46 59 47 42 48 58 49 43 50 46 51 57 52 73 53 44 54
REMARK SMILES IDX 45 55 56 57 74 58 47 59 34 60 35 61 40 62 36 63 37 64 39 65
REMARK SMILES IDX 41 66 38 67 60 68 61 69 66 70 62 71 63 72 65 73 67 74 64 75
REMARK SMILES IDX 48 76 49 77 54 78 50 79 51 80 53 81 55 82 52 83
REMARK H PARENT 3 20 72 45 46 56
REMARK Flexibility Score: inf
ROOT
ATOM      1  C   UNL A   1      43.345  21.567  25.749  1.00  0.00     0.275 C 
ENDROOT
BRANCH   1   2
ATOM      2  O   UNL A   1      42.256  20.657  25.497  1.00  0.00    -0.458 OA
BRANCH   2   3
ATOM      3  C   UNL A   1      41.396  20.424  26.524  1.00  0.00     0.339 C 
ATOM      4  O   UNL A   1      41.455  19.484  27.296  1.00  0.00    -0.246 OA
BRANCH   3   5
ATOM      5  C   UNL A   1      40.403  21.532  26.593  1.00  0.00     0.079 A 
ATOM      6  C   UNL A   1      38.369  22.573  25.706  1.00  0.00    -0.017 A 
ATOM      7  C   UNL A   1      38.571  23.663  26.561  1.00  0.00     0.010 A 
ATOM      8  C   UNL A   1      39.334  21.553  25.679  1.00  0.00     0.026 A 
ATOM      9  C   UNL A   1      39.612  23.645  27.488  1.00  0.00     0.022 A 
ATOM     10  C   UNL A   1      40.483  22.551  27.555  1.00  0.00     0.055 A 
ATOM     11  Cl  UNL A   1      41.610  22.558  28.867  1.00  0.00    -0.083 Cl
BRANCH   6  12
ATOM     12  C   UNL A   1      37.054  22.377  25.083  1.00  0.00    -0.018 A 
ATOM     13  C   UNL A   1      34.783  21.558  25.424  1.00  0.00     0.040 A 
ATOM     14  C   UNL A   1      34.364  22.223  24.273  1.00  0.00     0.014 A 
ATOM     15  C   UNL A   1      36.130  21.582  25.780  1.00  0.00     0.022 A 
ATOM     16  C   UNL A   1      35.284  22.965  23.526  1.00  0.00     0.001 A 
ATOM     17  C   UNL A   1      36.619  23.060  23.942  1.00  0.00     0.009 A 
BRANCH  13  18
ATOM     18  C   UNL A   1      33.810  20.819  26.255  1.00  0.00     0.251 C 
ATOM     19  N   UNL A   1      33.081  19.780  25.725  1.00  0.00    -0.352 N 
ATOM     20  H   UNL A   1      32.352  19.453  26.298  1.00  0.00     0.163 HD
ATOM     21  O   UNL A   1      33.653  21.141  27.430  1.00  0.00    -0.269 OA
BRANCH  19  22
ATOM     22  C   UNL A   1      33.213  19.083  24.451  1.00  0.00     0.112 C 
ATOM     23  C   UNL A   1      34.388  18.123  24.472  1.00  0.00     0.027 C 
ENDBRANCH  19  22
ENDBRANCH  13  18
ENDBRANCH   6  12
ENDBRANCH   3   5
ENDBRANCH   2   3
ENDBRANCH   1   2
BRANCH   1  24
ATOM     24  C   UNL A   1      43.504  22.543  24.579  1.00  0.00     0.275 C 
BRANCH  24  25
ATOM     25  O   UNL A   1      43.127  23.878  24.968  1.00  0.00    -0.458 OA
BRANCH  25  26
ATOM     26  C   UNL A   1      44.161  24.711  25.240  1.00  0.00     0.338 C 
ATOM     27  O   UNL A   1      45.186  24.854  24.598  1.00  0.00    -0.246 OA
BRANCH  26  28
ATOM     28  C   UNL A   1      43.793  25.602  26.352  1.00  0.00     0.060 A 
ATOM     29  C   UNL A   1      42.927  25.078  27.308  1.00  0.00     0.016 A 
ATOM     30  C   UNL A   1      44.207  26.930  26.435  1.00  0.00     0.016 A 
ATOM     31  C   UNL A   1      42.494  25.852  28.379  1.00  0.00     0.010 A 
ATOM     32  C   UNL A   1      43.757  27.721  27.504  1.00  0.00     0.010 A 
ATOM     33  C   UNL A   1      42.899  27.185  28.485  1.00  0.00    -0.014 A 
BRANCH  33  34
ATOM     34  C   UNL A   1      42.347  28.018  29.582  1.00  0.00     0.031 A 
ATOM     35  C   UNL A   1      43.066  28.086  30.899  1.00  0.00     0.074 A 
ATOM     36  C   UNL A   1      41.249  28.771  29.380  1.00  0.00     0.049 A 
ATOM     37  N   UNL A   1      42.721  28.700  32.002  1.00  0.00    -0.248 NA
ATOM     38  C   UNL A   1      44.348  27.372  30.981  1.00  0.00     0.031 C 
ATOM     39  C   UNL A   1      40.508  28.865  28.122  1.00  0.00     0.029 A 
ATOM     40  N   UNL A   1      40.569  29.608  30.232  1.00  0.00    -0.354 N 
ATOM     41  C   UNL A   1      43.730  28.428  32.916  1.00  0.00     0.074 A 
ATOM     42  C   UNL A   1      44.694  27.584  32.243  1.00  0.00     0.031 C 
ATOM     43  C   UNL A   1      39.475  29.710  28.285  1.00  0.00     0.029 A 
ATOM     44  C   UNL A   1      39.451  30.175  29.670  1.00  0.00     0.049 A 
ATOM     45  H   UNL A   1      40.856  29.783  31.157  1.00  0.00     0.167 HD
ATOM     46  C   UNL A   1      43.841  28.845  34.201  1.00  0.00     0.037 A 
ATOM     47  C   UNL A   1      38.498  30.952  30.218  1.00  0.00     0.037 A 
ATOM     48  C   UNL A   1      42.889  29.699  34.864  1.00  0.00     0.049 A 
ATOM     49  C   UNL A   1      38.597  31.329  31.672  1.00  0.00     0.074 A 
ATOM     50  C   UNL A   1      42.915  30.173  36.164  1.00  0.00     0.029 A 
ATOM     51  N   UNL A   1      41.737  30.203  34.280  1.00  0.00    -0.354 N 
ATOM     52  N   UNL A   1      39.541  31.046  32.537  1.00  0.00    -0.248 NA
ATOM     53  C   UNL A   1      37.494  32.125  32.228  1.00  0.00     0.031 C 
ATOM     54  C   UNL A   1      41.755  30.924  36.381  1.00  0.00     0.029 A 
ATOM     55  C   UNL A   1      41.032  30.963  35.200  1.00  0.00     0.049 A 
ATOM     56  H   UNL A   1      41.460  30.045  33.347  1.00  0.00     0.167 HD
ATOM     57  C   UNL A   1      39.157  31.647  33.731  1.00  0.00     0.074 A 
ATOM     58  C   UNL A   1      37.904  32.324  33.473  1.00  0.00     0.031 C 
ATOM     59  C   UNL A   1      39.786  31.636  34.931  1.00  0.00     0.037 A 
BRANCH  46  60
ATOM     60  C   UNL A   1      45.016  28.346  34.988  1.00  0.00     0.057 A 
ATOM     61  C   UNL A   1      46.223  29.052  35.057  1.00  0.00     0.134 A 
ATOM     62  C   UNL A   1      44.927  27.147  35.709  1.00  0.00     0.134 A 
ATOM     63  F   UNL A   1      46.380  30.200  34.380  1.00  0.00    -0.206 F 
ATOM     64  C   UNL A   1      47.307  28.573  35.797  1.00  0.00     0.040 A 
ATOM     65  C   UNL A   1      45.994  26.671  36.471  1.00  0.00     0.040 A 
ATOM     66  F   UNL A   1      43.797  26.424  35.689  1.00  0.00    -0.206 F 
ATOM     67  C   UNL A   1      47.191  27.382  36.512  1.00  0.00     0.006 A 
ENDBRANCH  46  60
BRANCH  47  68
ATOM     68  C   UNL A   1      37.337  31.395  29.402  1.00  0.00     0.057 A 
ATOM     69  C   UNL A   1      37.300  32.664  28.814  1.00  0.00     0.134 A 
ATOM     70  C   UNL A   1      36.222  30.567  29.218  1.00  0.00     0.134 A 
ATOM     71  F   UNL A   1      38.324  33.515  28.978  1.00  0.00    -0.206 F 
ATOM     72  C   UNL A   1      36.192  33.100  28.084  1.00  0.00     0.040 A 
ATOM     73  C   UNL A   1      35.120  30.979  28.467  1.00  0.00     0.040 A 
ATOM     74  F   UNL A   1      36.191  29.341  29.761  1.00  0.00    -0.206 F 
ATOM     75  C   UNL A   1      35.101  32.252  27.904  1.00  0.00     0.006 A 
ENDBRANCH  47  68
BRANCH  59  76
ATOM     76  C   UNL A   1      39.149  32.410  36.049  1.00  0.00     0.057 A 
ATOM     77  C   UNL A   1      38.215  31.827  36.914  1.00  0.00     0.134 A 
ATOM     78  C   UNL A   1      39.502  33.745  36.284  1.00  0.00     0.134 A 
ATOM     79  F   UNL A   1      37.822  30.556  36.737  1.00  0.00    -0.206 F 
ATOM     80  C   UNL A   1      37.636  32.552  37.958  1.00  0.00     0.040 A 
ATOM     81  C   UNL A   1      38.952  34.472  37.341  1.00  0.00     0.040 A 
ATOM     82  F   UNL A   1      40.397  34.362  35.498  1.00  0.00    -0.206 F 
ATOM     83  C   UNL A   1      38.011  33.877  38.178  1.00  0.00     0.006 A 
ENDBRANCH  59  76
ENDBRANCH  33  34
ENDBRANCH  26  28
ENDBRANCH  25  26
ENDBRANCH  24  25
ENDBRANCH   1  24
TORSDOF 14
ENDMDL
