MODEL 1
REMARK VINA RESULT:     -11.2      0.000      0.000
REMARK SMILES CC(C)CC1(CNc2ccnc(C(=O)OCCOC(=O)c3ccc(-c4c5nc(c(-c6c(F)cccc6F)c6ccc([nH]6)c(-c6c(F)cccc6F)c6nc(c(-c7c(F)cccc7F)c7ccc4[nH]7)C=C6)C=C5)cc3)c2)CCCC1
REMARK SMILES IDX 15 1 13 2 14 3 12 4 8 5 9 6 75 7 10 8 11 9 7 10 6 12 5 13
REMARK SMILES IDX 76 14 79 15 77 16 78 17 4 18 2 19 1 20 3 21 16 22 17 23
REMARK SMILES IDX 18 24 19 25 20 26 21 27 22 28 74 29 23 30 73 31 24 32 25 33
REMARK SMILES IDX 26 34 67 35 27 36 72 37 66 38 68 39 28 40 71 41 65 42 64 43
REMARK SMILES IDX 29 45 55 46 38 47 54 48 39 49 42 50 53 51 69 52 40 53 41 54
REMARK SMILES IDX 52 56 70 57 43 58 30 59 31 60 36 61 32 62 33 63 35 64 37 65
REMARK SMILES IDX 34 66 56 67 57 68 62 69 58 70 59 71 61 72 63 73 60 74 44 75
REMARK SMILES IDX 45 76 50 77 46 78 47 79 49 80 51 81 48 82
REMARK H PARENT 7 11 68 44 42 55
REMARK Flexibility Score: inf
ROOT
ATOM      1  O   UNL A   1      41.579  21.503  25.713  1.00  0.00    -0.457 OA
ENDROOT
BRANCH   1   2
ATOM      2  C   UNL A   1      40.746  21.554  26.792  1.00  0.00     0.357 C 
ATOM      3  O   UNL A   1      41.042  21.228  27.928  1.00  0.00    -0.244 OA
BRANCH   2   4
ATOM      4  C   UNL A   1      39.424  22.148  26.411  1.00  0.00     0.150 A 
ATOM      5  C   UNL A   1      37.284  22.063  25.321  1.00  0.00     0.038 A 
ATOM      6  C   UNL A   1      37.124  23.406  25.652  1.00  0.00     0.046 A 
ATOM      7  C   UNL A   1      38.471  21.427  25.703  1.00  0.00     0.061 A 
ATOM      8  C   UNL A   1      38.110  24.042  26.385  1.00  0.00     0.114 A 
ATOM      9  N   UNL A   1      39.243  23.440  26.790  1.00  0.00    -0.249 NA
BRANCH   5  10
ATOM     10  N   UNL A   1      36.363  21.358  24.570  1.00  0.00    -0.384 N 
ATOM     11  H   UNL A   1      36.639  20.488  24.202  1.00  0.00     0.160 HD
BRANCH  10  12
ATOM     12  C   UNL A   1      35.010  21.817  24.288  1.00  0.00     0.119 C 
BRANCH  12  13
ATOM     13  C   UNL A   1      33.951  20.829  24.865  1.00  0.00    -0.012 C 
ATOM     14  C   UNL A   1      32.546  21.146  24.317  1.00  0.00     0.009 C 
ATOM     15  C   UNL A   1      33.718  21.117  26.373  1.00  0.00     0.009 C 
ATOM     16  C   UNL A   1      32.059  22.363  25.101  1.00  0.00     0.001 C 
ATOM     17  C   UNL A   1      32.835  22.361  26.415  1.00  0.00     0.001 C 
BRANCH  13  18
ATOM     18  C   UNL A   1      34.339  19.334  24.662  1.00  0.00     0.012 C 
BRANCH  18  19
ATOM     19  C   UNL A   1      33.248  18.317  24.249  1.00  0.00    -0.017 C 
ATOM     20  C   UNL A   1      33.688  17.251  23.251  1.00  0.00     0.007 C 
ATOM     21  C   UNL A   1      32.720  17.618  25.511  1.00  0.00     0.007 C 
ENDBRANCH  18  19
ENDBRANCH  13  18
ENDBRANCH  12  13
ENDBRANCH  10  12
ENDBRANCH   5  10
ENDBRANCH   2   4
ENDBRANCH   1   2
BRANCH   1  22
ATOM     22  C   UNL A   1      42.981  21.359  26.014  1.00  0.00     0.275 C 
BRANCH  22  23
ATOM     23  C   UNL A   1      43.867  22.135  25.034  1.00  0.00     0.275 C 
BRANCH  23  24
ATOM     24  O   UNL A   1      43.338  23.444  24.752  1.00  0.00    -0.458 OA
BRANCH  24  25
ATOM     25  C   UNL A   1      44.128  24.476  25.125  1.00  0.00     0.338 C 
ATOM     26  O   UNL A   1      45.205  24.794  24.645  1.00  0.00    -0.246 OA
BRANCH  25  27
ATOM     27  C   UNL A   1      43.451  25.282  26.152  1.00  0.00     0.060 A 
ATOM     28  C   UNL A   1      43.893  26.592  26.331  1.00  0.00     0.016 A 
ATOM     29  C   UNL A   1      42.479  24.747  26.998  1.00  0.00     0.016 A 
ATOM     30  C   UNL A   1      43.380  27.378  27.356  1.00  0.00     0.010 A 
ATOM     31  C   UNL A   1      41.955  25.541  28.029  1.00  0.00     0.010 A 
ATOM     32  C   UNL A   1      42.412  26.859  28.224  1.00  0.00    -0.014 A 
BRANCH  32  33
ATOM     33  C   UNL A   1      41.936  27.690  29.358  1.00  0.00     0.031 A 
ATOM     34  C   UNL A   1      42.668  27.665  30.670  1.00  0.00     0.074 A 
ATOM     35  C   UNL A   1      40.877  28.508  29.196  1.00  0.00     0.049 A 
ATOM     36  N   UNL A   1      42.374  28.271  31.794  1.00  0.00    -0.248 NA
ATOM     37  C   UNL A   1      43.893  26.852  30.728  1.00  0.00     0.031 C 
ATOM     38  C   UNL A   1      40.110  28.660  27.959  1.00  0.00     0.029 A 
ATOM     39  N   UNL A   1      40.268  29.367  30.077  1.00  0.00    -0.354 N 
ATOM     40  C   UNL A   1      43.355  27.887  32.699  1.00  0.00     0.074 A 
ATOM     41  C   UNL A   1      44.251  26.994  31.997  1.00  0.00     0.031 C 
ATOM     42  C   UNL A   1      39.133  29.561  28.159  1.00  0.00     0.029 A 
ATOM     43  C   UNL A   1      39.176  30.012  29.547  1.00  0.00     0.049 A 
ATOM     44  H   UNL A   1      40.582  29.506  30.999  1.00  0.00     0.167 HD
ATOM     45  C   UNL A   1      43.493  28.249  33.997  1.00  0.00     0.037 A 
ATOM     46  C   UNL A   1      38.294  30.851  30.123  1.00  0.00     0.037 A 
ATOM     47  C   UNL A   1      42.625  29.169  34.684  1.00  0.00     0.049 A 
ATOM     48  C   UNL A   1      38.457  31.215  31.572  1.00  0.00     0.074 A 
ATOM     49  C   UNL A   1      42.708  29.619  35.991  1.00  0.00     0.029 A 
ATOM     50  N   UNL A   1      41.521  29.787  34.118  1.00  0.00    -0.354 N 
ATOM     51  N   UNL A   1      39.387  30.842  32.418  1.00  0.00    -0.248 NA
ATOM     52  C   UNL A   1      37.445  32.111  32.150  1.00  0.00     0.031 C 
ATOM     53  C   UNL A   1      41.632  30.482  36.226  1.00  0.00     0.029 A 
ATOM     54  C   UNL A   1      40.903  30.598  35.055  1.00  0.00     0.049 A 
ATOM     55  H   UNL A   1      41.221  29.667  33.188  1.00  0.00     0.167 HD
ATOM     56  C   UNL A   1      39.080  31.467  33.620  1.00  0.00     0.074 A 
ATOM     57  C   UNL A   1      37.891  32.260  33.389  1.00  0.00     0.031 C 
ATOM     58  C   UNL A   1      39.724  31.386  34.809  1.00  0.00     0.037 A 
BRANCH  45  59
ATOM     59  C   UNL A   1      44.611  27.626  34.778  1.00  0.00     0.057 A 
ATOM     60  C   UNL A   1      45.886  28.199  34.834  1.00  0.00     0.134 A 
ATOM     61  C   UNL A   1      44.385  26.467  35.533  1.00  0.00     0.134 A 
ATOM     62  F   UNL A   1      46.169  29.301  34.125  1.00  0.00    -0.206 F 
ATOM     63  C   UNL A   1      46.903  27.634  35.607  1.00  0.00     0.040 A 
ATOM     64  C   UNL A   1      45.387  25.906  36.325  1.00  0.00     0.040 A 
ATOM     65  F   UNL A   1      43.181  25.874  35.525  1.00  0.00    -0.206 F 
ATOM     66  C   UNL A   1      46.651  26.489  36.361  1.00  0.00     0.006 A 
ENDBRANCH  45  59
BRANCH  46  67
ATOM     67  C   UNL A   1      37.148  31.376  29.338  1.00  0.00     0.057 A 
ATOM     68  C   UNL A   1      36.008  30.601  29.104  1.00  0.00     0.134 A 
ATOM     69  C   UNL A   1      37.181  32.662  28.781  1.00  0.00     0.134 A 
ATOM     70  F   UNL A   1      35.929  29.352  29.587  1.00  0.00    -0.206 F 
ATOM     71  C   UNL A   1      34.947  31.078  28.331  1.00  0.00     0.040 A 
ATOM     72  C   UNL A   1      36.118  33.160  28.029  1.00  0.00     0.040 A 
ATOM     73  F   UNL A   1      38.248  33.453  28.968  1.00  0.00    -0.206 F 
ATOM     74  C   UNL A   1      34.999  32.364  27.796  1.00  0.00     0.006 A 
ENDBRANCH  46  67
BRANCH  58  75
ATOM     75  C   UNL A   1      39.170  32.196  35.943  1.00  0.00     0.057 A 
ATOM     76  C   UNL A   1      39.531  33.535  36.133  1.00  0.00     0.134 A 
ATOM     77  C   UNL A   1      38.241  31.641  36.830  1.00  0.00     0.134 A 
ATOM     78  F   UNL A   1      40.427  34.121  35.324  1.00  0.00    -0.206 F 
ATOM     79  C   UNL A   1      39.000  34.290  37.181  1.00  0.00     0.040 A 
ATOM     80  C   UNL A   1      37.687  32.391  37.868  1.00  0.00     0.040 A 
ATOM     81  F   UNL A   1      37.848  30.365  36.697  1.00  0.00    -0.206 F 
ATOM     82  C   UNL A   1      38.071  33.719  38.049  1.00  0.00     0.006 A 
ENDBRANCH  58  75
ENDBRANCH  32  33
ENDBRANCH  25  27
ENDBRANCH  24  25
ENDBRANCH  23  24
ENDBRANCH  22  23
ENDBRANCH   1  22
TORSDOF 16
ENDMDL
MODEL 2
REMARK VINA RESULT:     -11.1      0.550      1.804
REMARK SMILES CC(C)CC1(CNc2ccnc(C(=O)OCCOC(=O)c3ccc(-c4c5nc(c(-c6c(F)cccc6F)c6ccc([nH]6)c(-c6c(F)cccc6F)c6nc(c(-c7c(F)cccc7F)c7ccc4[nH]7)C=C6)C=C5)cc3)c2)CCCC1
REMARK SMILES IDX 15 1 13 2 14 3 12 4 8 5 9 6 75 7 10 8 11 9 7 10 6 12 5 13
REMARK SMILES IDX 76 14 79 15 77 16 78 17 4 18 2 19 1 20 3 21 16 22 17 23
REMARK SMILES IDX 18 24 19 25 20 26 21 27 22 28 74 29 23 30 73 31 24 32 25 33
REMARK SMILES IDX 26 34 67 35 27 36 72 37 66 38 68 39 28 40 71 41 65 42 64 43
REMARK SMILES IDX 29 45 55 46 38 47 54 48 39 49 42 50 53 51 69 52 40 53 41 54
REMARK SMILES IDX 52 56 70 57 43 58 30 59 31 60 36 61 32 62 33 63 35 64 37 65
REMARK SMILES IDX 34 66 56 67 57 68 62 69 58 70 59 71 61 72 63 73 60 74 44 75
REMARK SMILES IDX 45 76 50 77 46 78 47 79 49 80 51 81 48 82
REMARK H PARENT 7 11 68 44 42 55
REMARK Flexibility Score: inf
ROOT
ATOM      1  O   UNL A   1      41.308  21.224  25.544  1.00  0.00    -0.457 OA
ENDROOT
BRANCH   1   2
ATOM      2  C   UNL A   1      40.433  21.232  26.590  1.00  0.00     0.357 C 
ATOM      3  O   UNL A   1      40.637  20.738  27.685  1.00  0.00    -0.244 OA
BRANCH   2   4
ATOM      4  C   UNL A   1      39.199  22.008  26.240  1.00  0.00     0.150 A 
ATOM      5  C   UNL A   1      37.026  22.218  25.236  1.00  0.00     0.038 A 
ATOM      6  C   UNL A   1      37.084  23.578  25.528  1.00  0.00     0.046 A 
ATOM      7  C   UNL A   1      38.120  21.421  25.594  1.00  0.00     0.061 A 
ATOM      8  C   UNL A   1      38.184  24.078  26.202  1.00  0.00     0.114 A 
ATOM      9  N   UNL A   1      39.230  23.323  26.582  1.00  0.00    -0.249 NA
BRANCH   5  10
ATOM     10  N   UNL A   1      35.978  21.640  24.545  1.00  0.00    -0.384 N 
ATOM     11  H   UNL A   1      35.717  22.045  23.686  1.00  0.00     0.160 HD
BRANCH  10  12
ATOM     12  C   UNL A   1      35.237  20.473  25.001  1.00  0.00     0.119 C 
BRANCH  12  13
ATOM     13  C   UNL A   1      33.759  20.843  25.334  1.00  0.00    -0.012 C 
ATOM     14  C   UNL A   1      32.977  19.604  25.812  1.00  0.00     0.009 C 
ATOM     15  C   UNL A   1      32.982  21.160  24.028  1.00  0.00     0.009 C 
ATOM     16  C   UNL A   1      32.652  18.806  24.551  1.00  0.00     0.001 C 
ATOM     17  C   UNL A   1      32.682  19.803  23.396  1.00  0.00     0.001 C 
BRANCH  13  18
ATOM     18  C   UNL A   1      33.639  22.035  26.329  1.00  0.00     0.012 C 
BRANCH  18  19
ATOM     19  C   UNL A   1      32.681  23.205  26.000  1.00  0.00    -0.017 C 
ATOM     20  C   UNL A   1      31.427  23.290  26.863  1.00  0.00     0.007 C 
ATOM     21  C   UNL A   1      33.453  24.527  26.126  1.00  0.00     0.007 C 
ENDBRANCH  18  19
ENDBRANCH  13  18
ENDBRANCH  12  13
ENDBRANCH  10  12
ENDBRANCH   5  10
ENDBRANCH   2   4
ENDBRANCH   1   2
BRANCH   1  22
ATOM     22  C   UNL A   1      42.648  20.794  25.855  1.00  0.00     0.275 C 
BRANCH  22  23
ATOM     23  C   UNL A   1      43.705  21.788  25.363  1.00  0.00     0.275 C 
BRANCH  23  24
ATOM     24  O   UNL A   1      43.118  23.035  24.947  1.00  0.00    -0.458 OA
BRANCH  24  25
ATOM     25  C   UNL A   1      43.873  24.132  25.185  1.00  0.00     0.338 C 
ATOM     26  O   UNL A   1      44.893  24.469  24.604  1.00  0.00    -0.246 OA
BRANCH  25  27
ATOM     27  C   UNL A   1      43.226  24.978  26.201  1.00  0.00     0.060 A 
ATOM     28  C   UNL A   1      43.704  26.278  26.348  1.00  0.00     0.016 A 
ATOM     29  C   UNL A   1      42.247  24.486  27.065  1.00  0.00     0.016 A 
ATOM     30  C   UNL A   1      43.220  27.099  27.360  1.00  0.00     0.010 A 
ATOM     31  C   UNL A   1      41.753  25.315  28.083  1.00  0.00     0.010 A 
ATOM     32  C   UNL A   1      42.246  26.624  28.246  1.00  0.00    -0.014 A 
BRANCH  32  33
ATOM     33  C   UNL A   1      41.802  27.491  29.366  1.00  0.00     0.031 A 
ATOM     34  C   UNL A   1      42.535  27.463  30.678  1.00  0.00     0.074 A 
ATOM     35  C   UNL A   1      40.772  28.343  29.192  1.00  0.00     0.049 A 
ATOM     36  N   UNL A   1      42.264  28.098  31.791  1.00  0.00    -0.248 NA
ATOM     37  C   UNL A   1      43.730  26.609  30.749  1.00  0.00     0.031 C 
ATOM     38  C   UNL A   1      40.008  28.500  27.953  1.00  0.00     0.029 A 
ATOM     39  N   UNL A   1      40.195  29.238  30.058  1.00  0.00    -0.354 N 
ATOM     40  C   UNL A   1      43.232  27.696  32.702  1.00  0.00     0.074 A 
ATOM     41  C   UNL A   1      44.096  26.760  32.015  1.00  0.00     0.031 C 
ATOM     42  C   UNL A   1      39.064  29.439  28.138  1.00  0.00     0.029 A 
ATOM     43  C   UNL A   1      39.126  29.912  29.518  1.00  0.00     0.049 A 
ATOM     44  H   UNL A   1      40.515  29.382  30.977  1.00  0.00     0.167 HD
ATOM     45  C   UNL A   1      43.386  28.076  33.993  1.00  0.00     0.037 A 
ATOM     46  C   UNL A   1      38.275  30.791  30.080  1.00  0.00     0.037 A 
ATOM     47  C   UNL A   1      42.552  29.037  34.665  1.00  0.00     0.049 A 
ATOM     48  C   UNL A   1      38.453  31.174  31.523  1.00  0.00     0.074 A 
ATOM     49  C   UNL A   1      42.653  29.507  35.964  1.00  0.00     0.029 A 
ATOM     50  N   UNL A   1      41.469  29.684  34.090  1.00  0.00    -0.354 N 
ATOM     51  N   UNL A   1      39.371  30.783  32.374  1.00  0.00    -0.248 NA
ATOM     52  C   UNL A   1      37.474  32.116  32.086  1.00  0.00     0.031 C 
ATOM     53  C   UNL A   1      41.609  30.411  36.186  1.00  0.00     0.029 A 
ATOM     54  C   UNL A   1      40.882  30.532  35.013  1.00  0.00     0.049 A 
ATOM     55  H   UNL A   1      41.163  29.558  33.163  1.00  0.00     0.167 HD
ATOM     56  C   UNL A   1      39.089  31.440  33.565  1.00  0.00     0.074 A 
ATOM     57  C   UNL A   1      37.927  32.270  33.322  1.00  0.00     0.031 C 
ATOM     58  C   UNL A   1      39.731  31.357  34.755  1.00  0.00     0.037 A 
BRANCH  45  59
ATOM     59  C   UNL A   1      44.483  27.427  34.783  1.00  0.00     0.057 A 
ATOM     60  C   UNL A   1      44.297  26.211  35.451  1.00  0.00     0.134 A 
ATOM     61  C   UNL A   1      45.760  28.002  34.822  1.00  0.00     0.134 A 
ATOM     62  F   UNL A   1      43.096  25.616  35.461  1.00  0.00    -0.206 F 
ATOM     63  C   UNL A   1      45.344  25.594  36.140  1.00  0.00     0.040 A 
ATOM     64  C   UNL A   1      46.818  27.384  35.490  1.00  0.00     0.040 A 
ATOM     65  F   UNL A   1      46.002  29.164  34.196  1.00  0.00    -0.206 F 
ATOM     66  C   UNL A   1      46.610  26.178  36.153  1.00  0.00     0.006 A 
ENDBRANCH  45  59
BRANCH  46  67
ATOM     67  C   UNL A   1      37.146  31.343  29.288  1.00  0.00     0.057 A 
ATOM     68  C   UNL A   1      36.003  30.583  29.021  1.00  0.00     0.134 A 
ATOM     69  C   UNL A   1      37.200  32.638  28.757  1.00  0.00     0.134 A 
ATOM     70  F   UNL A   1      35.904  29.327  29.479  1.00  0.00    -0.206 F 
ATOM     71  C   UNL A   1      34.959  31.085  28.241  1.00  0.00     0.040 A 
ATOM     72  C   UNL A   1      36.154  33.161  27.998  1.00  0.00     0.040 A 
ATOM     73  F   UNL A   1      38.272  33.415  28.975  1.00  0.00    -0.206 F 
ATOM     74  C   UNL A   1      35.032  32.381  27.731  1.00  0.00     0.006 A 
ENDBRANCH  46  67
BRANCH  58  75
ATOM     75  C   UNL A   1      39.208  32.206  35.875  1.00  0.00     0.057 A 
ATOM     76  C   UNL A   1      39.638  33.525  36.059  1.00  0.00     0.134 A 
ATOM     77  C   UNL A   1      38.239  31.709  36.755  1.00  0.00     0.134 A 
ATOM     78  F   UNL A   1      40.574  34.054  35.256  1.00  0.00    -0.206 F 
ATOM     79  C   UNL A   1      39.136  34.316  37.094  1.00  0.00     0.040 A 
ATOM     80  C   UNL A   1      37.714  32.497  37.780  1.00  0.00     0.040 A 
ATOM     81  F   UNL A   1      37.780  30.455  36.627  1.00  0.00    -0.206 F 
ATOM     82  C   UNL A   1      38.167  33.804  37.955  1.00  0.00     0.006 A 
ENDBRANCH  58  75
ENDBRANCH  32  33
ENDBRANCH  25  27
ENDBRANCH  24  25
ENDBRANCH  23  24
ENDBRANCH  22  23
ENDBRANCH   1  22
TORSDOF 16
ENDMDL
MODEL 3
REMARK VINA RESULT:     -10.6      5.076     11.452
REMARK SMILES CC(C)CC1(CNc2ccnc(C(=O)OCCOC(=O)c3ccc(-c4c5nc(c(-c6c(F)cccc6F)c6ccc([nH]6)c(-c6c(F)cccc6F)c6nc(c(-c7c(F)cccc7F)c7ccc4[nH]7)C=C6)C=C5)cc3)c2)CCCC1
REMARK SMILES IDX 15 1 13 2 14 3 12 4 8 5 9 6 75 7 10 8 11 9 7 10 6 12 5 13
REMARK SMILES IDX 76 14 79 15 77 16 78 17 4 18 2 19 1 20 3 21 16 22 17 23
REMARK SMILES IDX 18 24 19 25 20 26 21 27 22 28 74 29 23 30 73 31 24 32 25 33
REMARK SMILES IDX 26 34 67 35 27 36 72 37 66 38 68 39 28 40 71 41 65 42 64 43
REMARK SMILES IDX 29 45 55 46 38 47 54 48 39 49 42 50 53 51 69 52 40 53 41 54
REMARK SMILES IDX 52 56 70 57 43 58 30 59 31 60 36 61 32 62 33 63 35 64 37 65
REMARK SMILES IDX 34 66 56 67 57 68 62 69 58 70 59 71 61 72 63 73 60 74 44 75
REMARK SMILES IDX 45 76 50 77 46 78 47 79 49 80 51 81 48 82
REMARK H PARENT 7 11 68 44 42 55
REMARK Flexibility Score: inf
ROOT
ATOM      1  O   UNL A   1      33.243  34.142  29.499  1.00  0.00    -0.457 OA
ENDROOT
BRANCH   1   2
ATOM      2  C   UNL A   1      32.945  35.470  29.581  1.00  0.00     0.357 C 
ATOM      3  O   UNL A   1      32.339  36.111  28.740  1.00  0.00    -0.244 OA
BRANCH   2   4
ATOM      4  C   UNL A   1      33.393  36.032  30.897  1.00  0.00     0.150 A 
ATOM      5  C   UNL A   1      34.406  35.829  33.066  1.00  0.00     0.038 A 
ATOM      6  C   UNL A   1      34.011  37.142  33.312  1.00  0.00     0.046 A 
ATOM      7  C   UNL A   1      34.075  35.262  31.830  1.00  0.00     0.061 A 
ATOM      8  C   UNL A   1      33.361  37.848  32.316  1.00  0.00     0.114 A 
ATOM      9  N   UNL A   1      33.063  37.332  31.110  1.00  0.00    -0.249 NA
BRANCH   5  10
ATOM     10  N   UNL A   1      35.036  35.044  34.012  1.00  0.00    -0.384 N 
ATOM     11  H   UNL A   1      35.383  35.487  34.820  1.00  0.00     0.160 HD
BRANCH  10  12
ATOM     12  C   UNL A   1      35.219  33.604  33.895  1.00  0.00     0.119 C 
BRANCH  12  13
ATOM     13  C   UNL A   1      36.730  33.224  33.953  1.00  0.00    -0.012 C 
ATOM     14  C   UNL A   1      37.582  34.238  33.164  1.00  0.00     0.009 C 
ATOM     15  C   UNL A   1      36.993  31.946  33.113  1.00  0.00     0.009 C 
ATOM     16  C   UNL A   1      37.394  33.880  31.691  1.00  0.00     0.001 C 
ATOM     17  C   UNL A   1      36.987  32.409  31.659  1.00  0.00     0.001 C 
BRANCH  13  18
ATOM     18  C   UNL A   1      37.252  33.024  35.407  1.00  0.00     0.012 C 
BRANCH  18  19
ATOM     19  C   UNL A   1      38.653  33.556  35.791  1.00  0.00    -0.017 C 
ATOM     20  C   UNL A   1      38.764  34.170  37.183  1.00  0.00     0.007 C 
ATOM     21  C   UNL A   1      39.667  32.408  35.680  1.00  0.00     0.007 C 
ENDBRANCH  18  19
ENDBRANCH  13  18
ENDBRANCH  12  13
ENDBRANCH  10  12
ENDBRANCH   5  10
ENDBRANCH   2   4
ENDBRANCH   1   2
BRANCH   1  22
ATOM     22  C   UNL A   1      33.856  33.715  28.266  1.00  0.00     0.275 C 
BRANCH  22  23
ATOM     23  C   UNL A   1      33.461  32.285  27.886  1.00  0.00     0.275 C 
BRANCH  23  24
ATOM     24  O   UNL A   1      34.572  31.546  27.346  1.00  0.00    -0.458 OA
BRANCH  24  25
ATOM     25  C   UNL A   1      34.658  30.259  27.754  1.00  0.00     0.338 C 
ATOM     26  O   UNL A   1      33.810  29.388  27.641  1.00  0.00    -0.246 OA
BRANCH  25  27
ATOM     27  C   UNL A   1      36.007  29.986  28.274  1.00  0.00     0.060 A 
ATOM     28  C   UNL A   1      37.079  30.189  27.406  1.00  0.00     0.016 A 
ATOM     29  C   UNL A   1      36.222  29.442  29.540  1.00  0.00     0.016 A 
ATOM     30  C   UNL A   1      38.372  29.847  27.787  1.00  0.00     0.010 A 
ATOM     31  C   UNL A   1      37.526  29.102  29.929  1.00  0.00     0.010 A 
ATOM     32  C   UNL A   1      38.609  29.289  29.048  1.00  0.00    -0.014 A 
BRANCH  32  33
ATOM     33  C   UNL A   1      39.986  28.860  29.402  1.00  0.00     0.031 A 
ATOM     34  C   UNL A   1      40.827  29.705  30.316  1.00  0.00     0.074 A 
ATOM     35  C   UNL A   1      40.464  27.686  28.945  1.00  0.00     0.049 A 
ATOM     36  N   UNL A   1      42.069  29.532  30.694  1.00  0.00    -0.248 NA
ATOM     37  C   UNL A   1      40.189  30.904  30.883  1.00  0.00     0.031 C 
ATOM     38  C   UNL A   1      39.731  26.752  28.089  1.00  0.00     0.029 A 
ATOM     39  N   UNL A   1      41.679  27.078  29.141  1.00  0.00    -0.354 N 
ATOM     40  C   UNL A   1      42.372  30.613  31.511  1.00  0.00     0.074 A 
ATOM     41  C   UNL A   1      41.185  31.439  31.574  1.00  0.00     0.031 C 
ATOM     42  C   UNL A   1      40.510  25.687  27.837  1.00  0.00     0.029 A 
ATOM     43  C   UNL A   1      41.810  25.885  28.471  1.00  0.00     0.049 A 
ATOM     44  H   UNL A   1      42.388  27.460  29.706  1.00  0.00     0.167 HD
ATOM     45  C   UNL A   1      43.533  30.888  32.151  1.00  0.00     0.037 A 
ATOM     46  C   UNL A   1      42.868  25.059  28.358  1.00  0.00     0.037 A 
ATOM     47  C   UNL A   1      44.700  30.046  32.122  1.00  0.00     0.049 A 
ATOM     48  C   UNL A   1      44.153  25.404  29.058  1.00  0.00     0.074 A 
ATOM     49  C   UNL A   1      45.912  30.230  32.766  1.00  0.00     0.029 A 
ATOM     50  N   UNL A   1      44.799  28.857  31.417  1.00  0.00    -0.354 N 
ATOM     51  N   UNL A   1      44.426  26.431  29.824  1.00  0.00    -0.248 NA
ATOM     52  C   UNL A   1      45.279  24.477  28.871  1.00  0.00     0.031 C 
ATOM     53  C   UNL A   1      46.757  29.169  32.422  1.00  0.00     0.029 A 
ATOM     54  C   UNL A   1      46.057  28.307  31.595  1.00  0.00     0.049 A 
ATOM     55  H   UNL A   1      44.081  28.462  30.871  1.00  0.00     0.167 HD
ATOM     56  C   UNL A   1      45.747  26.268  30.222  1.00  0.00     0.074 A 
ATOM     57  C   UNL A   1      46.214  25.032  29.629  1.00  0.00     0.031 C 
ATOM     58  C   UNL A   1      46.506  27.073  31.004  1.00  0.00     0.037 A 
BRANCH  45  59
ATOM     59  C   UNL A   1      43.617  32.173  32.919  1.00  0.00     0.057 A 
ATOM     60  C   UNL A   1      44.029  33.370  32.322  1.00  0.00     0.134 A 
ATOM     61  C   UNL A   1      43.219  32.220  34.262  1.00  0.00     0.134 A 
ATOM     62  F   UNL A   1      44.432  33.389  31.043  1.00  0.00    -0.206 F 
ATOM     63  C   UNL A   1      44.052  34.569  33.038  1.00  0.00     0.040 A 
ATOM     64  C   UNL A   1      43.219  33.416  34.981  1.00  0.00     0.040 A 
ATOM     65  F   UNL A   1      42.808  31.107  34.889  1.00  0.00    -0.206 F 
ATOM     66  C   UNL A   1      43.638  34.594  34.369  1.00  0.00     0.006 A 
ENDBRANCH  45  59
BRANCH  46  67
ATOM     67  C   UNL A   1      42.772  23.842  27.514  1.00  0.00     0.057 A 
ATOM     68  C   UNL A   1      43.024  23.885  26.139  1.00  0.00     0.134 A 
ATOM     69  C   UNL A   1      42.399  22.608  28.063  1.00  0.00     0.134 A 
ATOM     70  F   UNL A   1      43.358  25.043  25.550  1.00  0.00    -0.206 F 
ATOM     71  C   UNL A   1      42.893  22.750  25.336  1.00  0.00     0.040 A 
ATOM     72  C   UNL A   1      42.290  21.461  27.278  1.00  0.00     0.040 A 
ATOM     73  F   UNL A   1      42.141  22.502  29.375  1.00  0.00    -0.206 F 
ATOM     74  C   UNL A   1      42.530  21.532  25.908  1.00  0.00     0.006 A 
ENDBRANCH  46  67
BRANCH  58  75
ATOM     75  C   UNL A   1      47.910  26.629  31.283  1.00  0.00     0.057 A 
ATOM     76  C   UNL A   1      48.984  27.045  30.488  1.00  0.00     0.134 A 
ATOM     77  C   UNL A   1      48.194  25.806  32.380  1.00  0.00     0.134 A 
ATOM     78  F   UNL A   1      48.775  27.824  29.415  1.00  0.00    -0.206 F 
ATOM     79  C   UNL A   1      50.292  26.642  30.762  1.00  0.00     0.040 A 
ATOM     80  C   UNL A   1      49.500  25.413  32.677  1.00  0.00     0.040 A 
ATOM     81  F   UNL A   1      47.210  25.379  33.185  1.00  0.00    -0.206 F 
ATOM     82  C   UNL A   1      50.553  25.828  31.863  1.00  0.00     0.006 A 
ENDBRANCH  58  75
ENDBRANCH  32  33
ENDBRANCH  25  27
ENDBRANCH  24  25
ENDBRANCH  23  24
ENDBRANCH  22  23
ENDBRANCH   1  22
TORSDOF 16
ENDMDL
