MODEL 1
REMARK VINA RESULT:      -8.4      0.000      0.000
REMARK SMILES NS(=O)(=O)c1ccc(-n2nc(NC(=O)NCCCCCCCCCCC(=O)OCCOC(=O)c3ccc(-c4c5nc(c(-c6c(F)cccc6F)c6ccc([nH]6)c(-c6c(F)cccc6F)c6nc(c(-c7c(F)cccc7F)c7ccc4[nH]7)C=C6)C=C5)cc3)cc2-c2ccccc2)cc1
REMARK SMILES IDX 22 1 21 2 20 3 19 4 18 5 17 6 16 7 15 8 12 9 13 10 14 12
REMARK SMILES IDX 11 14 9 15 10 16 89 17 88 18 8 19 5 20 6 21 97 22 7 23 96 24
REMARK SMILES IDX 2 25 3 26 4 27 1 28 90 31 91 32 95 33 92 34 94 35 93 36
REMARK SMILES IDX 23 37 24 38 25 39 26 40 27 41 28 42 29 43 30 44 31 45 32 46
REMARK SMILES IDX 33 47 34 48 35 49 87 50 36 51 86 52 37 53 38 54 39 55 80 56
REMARK SMILES IDX 40 57 85 58 79 59 81 60 41 61 84 62 78 63 77 64 42 66 68 67
REMARK SMILES IDX 51 68 67 69 52 70 55 71 66 72 82 73 53 74 54 75 65 77 83 78
REMARK SMILES IDX 56 79 43 80 44 81 49 82 45 83 46 84 48 85 50 86 47 87 69 88
REMARK SMILES IDX 70 89 75 90 71 91 72 92 74 93 76 94 73 95 57 96 58 97 63 98
REMARK SMILES IDX 59 99 60 100 62 101 64 102 61 103
REMARK H PARENT 12 11 15 13 1 29 1 30 81 65 55 76
REMARK Flexibility Score: inf
ROOT
ATOM      1  C   UNL A   1      43.968  30.820  28.706  1.00  0.00     0.000 C 
ENDROOT
BRANCH   1   2
ATOM      2  C   UNL A   1      43.660  29.364  28.380  1.00  0.00     0.000 C 
BRANCH   2   3
ATOM      3  C   UNL A   1      44.642  28.382  29.019  1.00  0.00     0.000 C 
BRANCH   3   4
ATOM      4  C   UNL A   1      46.026  28.333  28.362  1.00  0.00     0.000 C 
BRANCH   4   5
ATOM      5  C   UNL A   1      47.058  27.477  29.105  1.00  0.00     0.002 C 
BRANCH   5   6
ATOM      6  C   UNL A   1      48.522  27.816  28.814  1.00  0.00     0.021 C 
BRANCH   6   7
ATOM      7  C   UNL A   1      49.140  27.060  27.647  1.00  0.00     0.117 C 
BRANCH   7   8
ATOM      8  N   UNL A   1      49.698  27.897  26.610  1.00  0.00    -0.338 N 
ATOM      9  N   UNL A   1      48.690  26.970  24.661  1.00  0.00    -0.291 N 
ATOM     10  C   UNL A   1      49.528  27.837  25.272  1.00  0.00     0.320 C 
ATOM     11  H   UNL A   1      48.917  26.789  23.720  1.00  0.00     0.173 HD
ATOM     12  O   UNL A   1      50.264  28.538  24.570  1.00  0.00    -0.248 OA
ATOM     13  H   UNL A   1      50.289  28.618  26.925  1.00  0.00     0.165 HD
BRANCH   9  14
ATOM     14  C   UNL A   1      47.578  26.294  25.109  1.00  0.00     0.157 A 
ATOM     15  N   UNL A   1      46.222  24.707  25.462  1.00  0.00    -0.231 N 
ATOM     16  N   UNL A   1      47.537  25.006  25.451  1.00  0.00    -0.149 NA
ATOM     17  C   UNL A   1      45.451  25.853  25.611  1.00  0.00     0.076 A 
ATOM     18  C   UNL A   1      46.314  26.895  25.323  1.00  0.00     0.078 A 
BRANCH  15  19
ATOM     19  C   UNL A   1      45.790  23.372  25.230  1.00  0.00     0.065 A 
ATOM     20  C   UNL A   1      44.941  20.755  24.780  1.00  0.00     0.082 A 
ATOM     21  C   UNL A   1      45.385  21.124  26.051  1.00  0.00     0.024 A 
ATOM     22  C   UNL A   1      44.899  21.687  23.738  1.00  0.00     0.024 A 
ATOM     23  C   UNL A   1      45.819  22.432  26.272  1.00  0.00     0.030 A 
ATOM     24  C   UNL A   1      45.299  23.008  23.970  1.00  0.00     0.030 A 
BRANCH  20  25
ATOM     25  S   UNL A   1      44.456  19.082  24.478  1.00  0.00     0.238 S 
ATOM     26  O   UNL A   1      45.029  18.641  23.230  1.00  0.00    -0.207 OA
ATOM     27  O   UNL A   1      43.051  18.950  24.787  1.00  0.00    -0.207 OA
BRANCH  25  28
ATOM     28  N   UNL A   1      45.284  18.227  25.667  1.00  0.00    -0.225 NA
ATOM     29  H   UNL A   1      45.848  18.873  26.219  1.00  0.00     0.137 HD
ATOM     30  H   UNL A   1      45.890  17.535  25.229  1.00  0.00     0.137 HD
ENDBRANCH  25  28
ENDBRANCH  20  25
ENDBRANCH  15  19
BRANCH  17  31
ATOM     31  C   UNL A   1      44.047  25.829  26.004  1.00  0.00     0.000 A 
ATOM     32  C   UNL A   1      43.704  25.388  27.293  1.00  0.00     0.010 A 
ATOM     33  C   UNL A   1      43.033  26.151  25.099  1.00  0.00     0.010 A 
ATOM     34  C   UNL A   1      42.370  25.223  27.656  1.00  0.00     0.001 A 
ATOM     35  C   UNL A   1      41.694  25.987  25.467  1.00  0.00     0.001 A 
ATOM     36  C   UNL A   1      41.365  25.515  26.739  1.00  0.00     0.000 A 
ENDBRANCH  17  31
ENDBRANCH   9  14
ENDBRANCH   7   8
ENDBRANCH   6   7
ENDBRANCH   5   6
ENDBRANCH   4   5
ENDBRANCH   3   4
ENDBRANCH   2   3
ENDBRANCH   1   2
BRANCH   1  37
ATOM     37  C   UNL A   1      44.746  31.515  27.589  1.00  0.00     0.001 C 
BRANCH  37  38
ATOM     38  C   UNL A   1      46.233  31.704  27.916  1.00  0.00     0.012 C 
BRANCH  38  39
ATOM     39  C   UNL A   1      47.114  32.258  26.790  1.00  0.00     0.123 C 
BRANCH  39  40
ATOM     40  C   UNL A   1      46.945  33.719  26.417  1.00  0.00     0.305 C 
ATOM     41  O   UNL A   1      46.797  34.101  25.262  1.00  0.00    -0.252 OA
BRANCH  40  42
ATOM     42  O   UNL A   1      46.915  34.533  27.503  1.00  0.00    -0.462 OA
BRANCH  42  43
ATOM     43  C   UNL A   1      48.148  35.149  27.914  1.00  0.00     0.274 C 
BRANCH  43  44
ATOM     44  C   UNL A   1      47.947  36.615  28.275  1.00  0.00     0.275 C 
BRANCH  44  45
ATOM     45  O   UNL A   1      46.732  36.797  29.000  1.00  0.00    -0.458 OA
BRANCH  45  46
ATOM     46  C   UNL A   1      45.706  37.258  28.253  1.00  0.00     0.338 C 
ATOM     47  O   UNL A   1      45.737  38.146  27.422  1.00  0.00    -0.246 OA
BRANCH  46  48
ATOM     48  C   UNL A   1      44.451  36.674  28.718  1.00  0.00     0.060 A 
ATOM     49  C   UNL A   1      43.909  37.143  29.919  1.00  0.00     0.016 A 
ATOM     50  C   UNL A   1      44.028  35.484  28.118  1.00  0.00     0.016 A 
ATOM     51  C   UNL A   1      43.035  36.324  30.603  1.00  0.00     0.010 A 
ATOM     52  C   UNL A   1      43.173  34.663  28.810  1.00  0.00     0.010 A 
ATOM     53  C   UNL A   1      42.743  35.062  30.073  1.00  0.00    -0.014 A 
BRANCH  53  54
ATOM     54  C   UNL A   1      41.876  34.182  30.826  1.00  0.00     0.031 A 
ATOM     55  C   UNL A   1      42.528  33.632  32.032  1.00  0.00     0.074 A 
ATOM     56  C   UNL A   1      40.569  34.031  30.537  1.00  0.00     0.049 A 
ATOM     57  N   UNL A   1      42.839  32.403  32.267  1.00  0.00    -0.248 NA
ATOM     58  C   UNL A   1      43.040  34.585  33.033  1.00  0.00     0.031 C 
ATOM     59  C   UNL A   1      39.787  34.807  29.567  1.00  0.00     0.029 A 
ATOM     60  N   UNL A   1      39.631  33.242  31.131  1.00  0.00    -0.354 N 
ATOM     61  C   UNL A   1      43.368  32.400  33.552  1.00  0.00     0.074 A 
ATOM     62  C   UNL A   1      43.657  33.768  33.887  1.00  0.00     0.031 C 
ATOM     63  C   UNL A   1      38.471  34.621  29.811  1.00  0.00     0.029 A 
ATOM     64  C   UNL A   1      38.323  33.612  30.847  1.00  0.00     0.049 A 
ATOM     65  H   UNL A   1      39.858  32.478  31.709  1.00  0.00     0.167 HD
ATOM     66  C   UNL A   1      43.211  31.312  34.351  1.00  0.00     0.037 A 
ATOM     67  C   UNL A   1      37.207  33.164  31.468  1.00  0.00     0.037 A 
ATOM     68  C   UNL A   1      42.775  30.169  33.595  1.00  0.00     0.049 A 
ATOM     69  C   UNL A   1      37.533  31.877  32.124  1.00  0.00     0.074 A 
ATOM     70  C   UNL A   1      43.342  29.243  32.750  1.00  0.00     0.029 A 
ATOM     71  N   UNL A   1      41.421  30.128  33.404  1.00  0.00    -0.354 N 
ATOM     72  N   UNL A   1      37.823  30.785  31.471  1.00  0.00    -0.248 NA
ATOM     73  C   UNL A   1      37.867  31.858  33.545  1.00  0.00     0.031 C 
ATOM     74  C   UNL A   1      42.278  28.728  31.950  1.00  0.00     0.029 A 
ATOM     75  C   UNL A   1      41.087  29.336  32.341  1.00  0.00     0.049 A 
ATOM     76  H   UNL A   1      40.769  30.609  33.963  1.00  0.00     0.167 HD
ATOM     77  C   UNL A   1      38.747  30.145  32.272  1.00  0.00     0.074 A 
ATOM     78  C   UNL A   1      38.590  30.737  33.594  1.00  0.00     0.031 C 
ATOM     79  C   UNL A   1      39.784  29.449  31.724  1.00  0.00     0.037 A 
BRANCH  66  80
ATOM     80  C   UNL A   1      42.939  31.389  35.835  1.00  0.00     0.057 A 
ATOM     81  C   UNL A   1      41.799  32.081  36.280  1.00  0.00     0.134 A 
ATOM     82  C   UNL A   1      43.897  31.106  36.831  1.00  0.00     0.134 A 
ATOM     83  F   UNL A   1      40.832  32.436  35.421  1.00  0.00    -0.206 F 
ATOM     84  C   UNL A   1      41.650  32.502  37.608  1.00  0.00     0.040 A 
ATOM     85  C   UNL A   1      43.733  31.476  38.168  1.00  0.00     0.040 A 
ATOM     86  F   UNL A   1      45.087  30.561  36.548  1.00  0.00    -0.206 F 
ATOM     87  C   UNL A   1      42.621  32.202  38.556  1.00  0.00     0.006 A 
ENDBRANCH  66  80
BRANCH  67  88
ATOM     88  C   UNL A   1      35.952  33.895  31.755  1.00  0.00     0.057 A 
ATOM     89  C   UNL A   1      35.874  34.808  32.816  1.00  0.00     0.134 A 
ATOM     90  C   UNL A   1      34.893  33.931  30.830  1.00  0.00     0.134 A 
ATOM     91  F   UNL A   1      36.851  34.873  33.732  1.00  0.00    -0.206 F 
ATOM     92  C   UNL A   1      34.825  35.729  32.930  1.00  0.00     0.040 A 
ATOM     93  C   UNL A   1      33.837  34.840  30.936  1.00  0.00     0.040 A 
ATOM     94  F   UNL A   1      34.897  33.148  29.741  1.00  0.00    -0.206 F 
ATOM     95  C   UNL A   1      33.809  35.757  31.980  1.00  0.00     0.006 A 
ENDBRANCH  67  88
BRANCH  79  96
ATOM     96  C   UNL A   1      39.607  28.928  30.333  1.00  0.00     0.057 A 
ATOM     97  C   UNL A   1      40.025  29.592  29.173  1.00  0.00     0.134 A 
ATOM     98  C   UNL A   1      39.045  27.657  30.173  1.00  0.00     0.134 A 
ATOM     99  F   UNL A   1      40.642  30.780  29.236  1.00  0.00    -0.206 F 
ATOM    100  C   UNL A   1      39.850  29.029  27.906  1.00  0.00     0.040 A 
ATOM    101  C   UNL A   1      38.897  27.069  28.918  1.00  0.00     0.040 A 
ATOM    102  F   UNL A   1      38.659  26.948  31.247  1.00  0.00    -0.206 F 
ATOM    103  C   UNL A   1      39.288  27.760  27.776  1.00  0.00     0.006 A 
ENDBRANCH  79  96
ENDBRANCH  53  54
ENDBRANCH  46  48
ENDBRANCH  45  46
ENDBRANCH  44  45
ENDBRANCH  43  44
ENDBRANCH  42  43
ENDBRANCH  40  42
ENDBRANCH  39  40
ENDBRANCH  38  39
ENDBRANCH  37  38
ENDBRANCH   1  37
TORSDOF 26
ENDMDL
MODEL 2
REMARK VINA RESULT:      -8.3      4.650     12.153
REMARK SMILES NS(=O)(=O)c1ccc(-n2nc(NC(=O)NCCCCCCCCCCC(=O)OCCOC(=O)c3ccc(-c4c5nc(c(-c6c(F)cccc6F)c6ccc([nH]6)c(-c6c(F)cccc6F)c6nc(c(-c7c(F)cccc7F)c7ccc4[nH]7)C=C6)C=C5)cc3)cc2-c2ccccc2)cc1
REMARK SMILES IDX 22 1 21 2 20 3 19 4 18 5 17 6 16 7 15 8 12 9 13 10 14 12
REMARK SMILES IDX 11 14 9 15 10 16 89 17 88 18 8 19 5 20 6 21 97 22 7 23 96 24
REMARK SMILES IDX 2 25 3 26 4 27 1 28 90 31 91 32 95 33 92 34 94 35 93 36
REMARK SMILES IDX 23 37 24 38 25 39 26 40 27 41 28 42 29 43 30 44 31 45 32 46
REMARK SMILES IDX 33 47 34 48 35 49 87 50 36 51 86 52 37 53 38 54 39 55 80 56
REMARK SMILES IDX 40 57 85 58 79 59 81 60 41 61 84 62 78 63 77 64 42 66 68 67
REMARK SMILES IDX 51 68 67 69 52 70 55 71 66 72 82 73 53 74 54 75 65 77 83 78
REMARK SMILES IDX 56 79 43 80 44 81 49 82 45 83 46 84 48 85 50 86 47 87 69 88
REMARK SMILES IDX 70 89 75 90 71 91 72 92 74 93 76 94 73 95 57 96 58 97 63 98
REMARK SMILES IDX 59 99 60 100 62 101 64 102 61 103
REMARK H PARENT 12 11 15 13 1 29 1 30 81 65 55 76
REMARK Flexibility Score: inf
ROOT
ATOM      1  C   UNL A   1      34.930  35.149  34.304  1.00  0.00     0.000 C 
ENDROOT
BRANCH   1   2
ATOM      2  C   UNL A   1      36.037  34.299  33.694  1.00  0.00     0.000 C 
BRANCH   2   3
ATOM      3  C   UNL A   1      36.455  33.126  34.579  1.00  0.00     0.000 C 
BRANCH   3   4
ATOM      4  C   UNL A   1      36.974  33.517  35.968  1.00  0.00     0.000 C 
BRANCH   4   5
ATOM      5  C   UNL A   1      38.500  33.615  36.078  1.00  0.00     0.002 C 
BRANCH   5   6
ATOM      6  C   UNL A   1      39.210  32.326  36.497  1.00  0.00     0.021 C 
BRANCH   6   7
ATOM      7  C   UNL A   1      40.722  32.436  36.632  1.00  0.00     0.117 C 
BRANCH   7   8
ATOM      8  N   UNL A   1      41.389  31.208  36.997  1.00  0.00    -0.338 N 
ATOM      9  N   UNL A   1      41.759  30.219  34.861  1.00  0.00    -0.291 N 
ATOM     10  C   UNL A   1      41.822  30.198  36.212  1.00  0.00     0.320 C 
ATOM     11  H   UNL A   1      41.769  29.326  34.446  1.00  0.00     0.173 HD
ATOM     12  O   UNL A   1      42.190  29.158  36.768  1.00  0.00    -0.248 OA
ATOM     13  H   UNL A   1      41.554  31.090  37.960  1.00  0.00     0.165 HD
BRANCH   9  14
ATOM     14  C   UNL A   1      41.687  31.256  33.959  1.00  0.00     0.157 A 
ATOM     15  N   UNL A   1      41.993  33.162  33.090  1.00  0.00    -0.231 N 
ATOM     16  N   UNL A   1      42.629  32.179  33.759  1.00  0.00    -0.149 NA
ATOM     17  C   UNL A   1      40.851  32.680  32.462  1.00  0.00     0.076 A 
ATOM     18  C   UNL A   1      40.608  31.460  33.066  1.00  0.00     0.078 A 
BRANCH  15  19
ATOM     19  C   UNL A   1      42.458  34.504  33.177  1.00  0.00     0.065 A 
ATOM     20  C   UNL A   1      43.365  37.133  33.352  1.00  0.00     0.082 A 
ATOM     21  C   UNL A   1      42.388  36.683  34.242  1.00  0.00     0.024 A 
ATOM     22  C   UNL A   1      43.906  36.276  32.389  1.00  0.00     0.024 A 
ATOM     23  C   UNL A   1      41.928  35.369  34.147  1.00  0.00     0.030 A 
ATOM     24  C   UNL A   1      43.471  34.947  32.318  1.00  0.00     0.030 A 
BRANCH  20  25
ATOM     25  S   UNL A   1      43.901  38.817  33.425  1.00  0.00     0.238 S 
ATOM     26  O   UNL A   1      42.752  39.672  33.593  1.00  0.00    -0.207 OA
ATOM     27  O   UNL A   1      44.892  39.026  32.395  1.00  0.00    -0.207 OA
BRANCH  25  28
ATOM     28  N   UNL A   1      44.721  38.890  34.892  1.00  0.00    -0.225 NA
ATOM     29  H   UNL A   1      44.215  38.347  35.592  1.00  0.00     0.137 HD
ATOM     30  H   UNL A   1      44.786  39.860  35.197  1.00  0.00     0.137 HD
ENDBRANCH  25  28
ENDBRANCH  20  25
ENDBRANCH  15  19
BRANCH  17  31
ATOM     31  C   UNL A   1      40.159  33.398  31.398  1.00  0.00     0.000 A 
ATOM     32  C   UNL A   1      38.781  33.639  31.519  1.00  0.00     0.010 A 
ATOM     33  C   UNL A   1      40.818  33.773  30.225  1.00  0.00     0.010 A 
ATOM     34  C   UNL A   1      38.062  34.199  30.466  1.00  0.00     0.001 A 
ATOM     35  C   UNL A   1      40.095  34.338  29.171  1.00  0.00     0.001 A 
ATOM     36  C   UNL A   1      38.718  34.541  29.288  1.00  0.00     0.000 A 
ENDBRANCH  17  31
ENDBRANCH   9  14
ENDBRANCH   7   8
ENDBRANCH   6   7
ENDBRANCH   5   6
ENDBRANCH   4   5
ENDBRANCH   3   4
ENDBRANCH   2   3
ENDBRANCH   1   2
BRANCH   1  37
ATOM     37  C   UNL A   1      34.279  36.080  33.281  1.00  0.00     0.001 C 
BRANCH  37  38
ATOM     38  C   UNL A   1      33.111  35.429  32.531  1.00  0.00     0.012 C 
BRANCH  38  39
ATOM     39  C   UNL A   1      33.180  35.463  30.999  1.00  0.00     0.123 C 
BRANCH  39  40
ATOM     40  C   UNL A   1      34.061  34.436  30.311  1.00  0.00     0.305 C 
ATOM     41  O   UNL A   1      34.590  34.633  29.223  1.00  0.00    -0.252 OA
BRANCH  40  42
ATOM     42  O   UNL A   1      34.239  33.318  31.059  1.00  0.00    -0.462 OA
BRANCH  42  43
ATOM     43  C   UNL A   1      34.858  32.182  30.431  1.00  0.00     0.274 C 
BRANCH  43  44
ATOM     44  C   UNL A   1      35.788  31.451  31.390  1.00  0.00     0.275 C 
BRANCH  44  45
ATOM     45  O   UNL A   1      35.902  30.074  31.035  1.00  0.00    -0.458 OA
BRANCH  45  46
ATOM     46  C   UNL A   1      36.387  29.861  29.794  1.00  0.00     0.338 C 
ATOM     47  O   UNL A   1      35.762  29.533  28.802  1.00  0.00    -0.246 OA
BRANCH  46  48
ATOM     48  C   UNL A   1      37.846  29.880  29.819  1.00  0.00     0.060 A 
ATOM     49  C   UNL A   1      38.522  30.246  28.650  1.00  0.00     0.016 A 
ATOM     50  C   UNL A   1      38.485  29.242  30.886  1.00  0.00     0.016 A 
ATOM     51  C   UNL A   1      39.827  29.828  28.494  1.00  0.00     0.010 A 
ATOM     52  C   UNL A   1      39.778  28.810  30.720  1.00  0.00     0.010 A 
ATOM     53  C   UNL A   1      40.407  29.048  29.501  1.00  0.00    -0.014 A 
BRANCH  53  54
ATOM     54  C   UNL A   1      41.754  28.558  29.303  1.00  0.00     0.031 A 
ATOM     55  C   UNL A   1      41.795  27.287  28.553  1.00  0.00     0.074 A 
ATOM     56  C   UNL A   1      42.843  29.283  29.625  1.00  0.00     0.049 A 
ATOM     57  N   UNL A   1      42.173  26.131  28.982  1.00  0.00    -0.248 NA
ATOM     58  C   UNL A   1      41.197  27.262  27.206  1.00  0.00     0.031 C 
ATOM     59  C   UNL A   1      42.871  30.685  30.056  1.00  0.00     0.029 A 
ATOM     60  N   UNL A   1      44.164  28.966  29.517  1.00  0.00    -0.354 N 
ATOM     61  C   UNL A   1      42.084  25.286  27.883  1.00  0.00     0.074 A 
ATOM     62  C   UNL A   1      41.296  25.969  26.894  1.00  0.00     0.031 C 
ATOM     63  C   UNL A   1      44.131  31.159  29.938  1.00  0.00     0.029 A 
ATOM     64  C   UNL A   1      45.012  30.064  29.566  1.00  0.00     0.049 A 
ATOM     65  H   UNL A   1      44.488  28.042  29.413  1.00  0.00     0.167 HD
ATOM     66  C   UNL A   1      42.944  24.241  27.755  1.00  0.00     0.037 A 
ATOM     67  C   UNL A   1      46.330  30.078  29.259  1.00  0.00     0.037 A 
ATOM     68  C   UNL A   1      43.635  23.982  28.989  1.00  0.00     0.049 A 
ATOM     69  C   UNL A   1      46.838  28.690  29.358  1.00  0.00     0.074 A 
ATOM     70  C   UNL A   1      43.358  23.373  30.191  1.00  0.00     0.029 A 
ATOM     71  N   UNL A   1      44.739  24.769  29.169  1.00  0.00    -0.354 N 
ATOM     72  N   UNL A   1      46.923  28.029  30.479  1.00  0.00    -0.248 NA
ATOM     73  C   UNL A   1      46.958  27.881  28.148  1.00  0.00     0.031 C 
ATOM     74  C   UNL A   1      44.272  23.925  31.139  1.00  0.00     0.029 A 
ATOM     75  C   UNL A   1      45.097  24.840  30.487  1.00  0.00     0.049 A 
ATOM     76  H   UNL A   1      45.217  25.227  28.440  1.00  0.00     0.167 HD
ATOM     77  C   UNL A   1      46.667  26.721  30.123  1.00  0.00     0.074 A 
ATOM     78  C   UNL A   1      46.887  26.660  28.685  1.00  0.00     0.031 C 
ATOM     79  C   UNL A   1      45.968  25.895  30.955  1.00  0.00     0.037 A 
BRANCH  66  80
ATOM     80  C   UNL A   1      43.546  23.802  26.441  1.00  0.00     0.057 A 
ATOM     81  C   UNL A   1      43.445  22.451  26.066  1.00  0.00     0.134 A 
ATOM     82  C   UNL A   1      44.481  24.561  25.706  1.00  0.00     0.134 A 
ATOM     83  F   UNL A   1      42.614  21.619  26.712  1.00  0.00    -0.206 F 
ATOM     84  C   UNL A   1      44.253  21.888  25.070  1.00  0.00     0.040 A 
ATOM     85  C   UNL A   1      45.254  24.021  24.675  1.00  0.00     0.040 A 
ATOM     86  F   UNL A   1      44.781  25.829  26.018  1.00  0.00    -0.206 F 
ATOM     87  C   UNL A   1      45.163  22.674  24.373  1.00  0.00     0.006 A 
ENDBRANCH  66  80
BRANCH  67  88
ATOM     88  C   UNL A   1      47.122  31.161  28.634  1.00  0.00     0.057 A 
ATOM     89  C   UNL A   1      46.905  31.537  27.301  1.00  0.00     0.134 A 
ATOM     90  C   UNL A   1      47.906  32.038  29.404  1.00  0.00     0.134 A 
ATOM     91  F   UNL A   1      46.145  30.783  26.495  1.00  0.00    -0.206 F 
ATOM     92  C   UNL A   1      47.406  32.735  26.775  1.00  0.00     0.040 A 
ATOM     93  C   UNL A   1      48.418  33.233  28.889  1.00  0.00     0.040 A 
ATOM     94  F   UNL A   1      48.123  31.812  30.707  1.00  0.00    -0.206 F 
ATOM     95  C   UNL A   1      48.153  33.595  27.574  1.00  0.00     0.006 A 
ENDBRANCH  67  88
BRANCH  79  96
ATOM     96  C   UNL A   1      45.976  26.217  32.415  1.00  0.00     0.057 A 
ATOM     97  C   UNL A   1      44.953  26.895  33.089  1.00  0.00     0.134 A 
ATOM     98  C   UNL A   1      47.049  25.753  33.185  1.00  0.00     0.134 A 
ATOM     99  F   UNL A   1      43.853  27.308  32.445  1.00  0.00    -0.206 F 
ATOM    100  C   UNL A   1      45.018  27.137  34.463  1.00  0.00     0.040 A 
ATOM    101  C   UNL A   1      47.110  25.957  34.563  1.00  0.00     0.040 A 
ATOM    102  F   UNL A   1      48.046  25.061  32.609  1.00  0.00    -0.206 F 
ATOM    103  C   UNL A   1      46.098  26.663  35.206  1.00  0.00     0.006 A 
ENDBRANCH  79  96
ENDBRANCH  53  54
ENDBRANCH  46  48
ENDBRANCH  45  46
ENDBRANCH  44  45
ENDBRANCH  43  44
ENDBRANCH  42  43
ENDBRANCH  40  42
ENDBRANCH  39  40
ENDBRANCH  38  39
ENDBRANCH  37  38
ENDBRANCH   1  37
TORSDOF 26
ENDMDL
MODEL 3
REMARK VINA RESULT:      -8.1      4.569      8.916
REMARK SMILES NS(=O)(=O)c1ccc(-n2nc(NC(=O)NCCCCCCCCCCC(=O)OCCOC(=O)c3ccc(-c4c5nc(c(-c6c(F)cccc6F)c6ccc([nH]6)c(-c6c(F)cccc6F)c6nc(c(-c7c(F)cccc7F)c7ccc4[nH]7)C=C6)C=C5)cc3)cc2-c2ccccc2)cc1
REMARK SMILES IDX 22 1 21 2 20 3 19 4 18 5 17 6 16 7 15 8 12 9 13 10 14 12
REMARK SMILES IDX 11 14 9 15 10 16 89 17 88 18 8 19 5 20 6 21 97 22 7 23 96 24
REMARK SMILES IDX 2 25 3 26 4 27 1 28 90 31 91 32 95 33 92 34 94 35 93 36
REMARK SMILES IDX 23 37 24 38 25 39 26 40 27 41 28 42 29 43 30 44 31 45 32 46
REMARK SMILES IDX 33 47 34 48 35 49 87 50 36 51 86 52 37 53 38 54 39 55 80 56
REMARK SMILES IDX 40 57 85 58 79 59 81 60 41 61 84 62 78 63 77 64 42 66 68 67
REMARK SMILES IDX 51 68 67 69 52 70 55 71 66 72 82 73 53 74 54 75 65 77 83 78
REMARK SMILES IDX 56 79 43 80 44 81 49 82 45 83 46 84 48 85 50 86 47 87 69 88
REMARK SMILES IDX 70 89 75 90 71 91 72 92 74 93 76 94 73 95 57 96 58 97 63 98
REMARK SMILES IDX 59 99 60 100 62 101 64 102 61 103
REMARK H PARENT 12 11 15 13 1 29 1 30 81 65 55 76
REMARK Flexibility Score: inf
ROOT
ATOM      1  C   UNL A   1      39.297  25.949  28.590  1.00  0.00     0.000 C 
ENDROOT
BRANCH   1   2
ATOM      2  C   UNL A   1      40.144  24.753  28.170  1.00  0.00     0.000 C 
BRANCH   2   3
ATOM      3  C   UNL A   1      39.587  24.018  26.951  1.00  0.00     0.000 C 
BRANCH   3   4
ATOM      4  C   UNL A   1      39.798  22.499  26.961  1.00  0.00     0.000 C 
BRANCH   4   5
ATOM      5  C   UNL A   1      40.922  22.014  27.884  1.00  0.00     0.002 C 
BRANCH   5   6
ATOM      6  C   UNL A   1      41.610  20.718  27.452  1.00  0.00     0.021 C 
BRANCH   6   7
ATOM      7  C   UNL A   1      41.905  20.608  25.964  1.00  0.00     0.117 C 
BRANCH   7   8
ATOM      8  N   UNL A   1      42.686  19.454  25.583  1.00  0.00    -0.338 N 
ATOM      9  N   UNL A   1      44.644  20.480  24.695  1.00  0.00    -0.291 N 
ATOM     10  C   UNL A   1      43.894  19.392  24.983  1.00  0.00     0.320 C 
ATOM     11  H   UNL A   1      45.297  20.336  23.972  1.00  0.00     0.173 HD
ATOM     12  O   UNL A   1      44.277  18.290  24.579  1.00  0.00    -0.248 OA
ATOM     13  H   UNL A   1      42.278  18.584  25.793  1.00  0.00     0.165 HD
BRANCH   9  14
ATOM     14  C   UNL A   1      44.666  21.750  25.225  1.00  0.00     0.157 A 
ATOM     15  N   UNL A   1      44.780  23.308  26.654  1.00  0.00    -0.231 N 
ATOM     16  N   UNL A   1      45.332  22.124  26.318  1.00  0.00    -0.149 NA
ATOM     17  C   UNL A   1      44.150  23.892  25.562  1.00  0.00     0.076 A 
ATOM     18  C   UNL A   1      44.017  22.866  24.644  1.00  0.00     0.078 A 
BRANCH  15  19
ATOM     19  C   UNL A   1      44.802  23.751  28.005  1.00  0.00     0.065 A 
ATOM     20  C   UNL A   1      44.848  24.622  30.652  1.00  0.00     0.082 A 
ATOM     21  C   UNL A   1      45.764  25.148  29.740  1.00  0.00     0.024 A 
ATOM     22  C   UNL A   1      43.897  23.680  30.249  1.00  0.00     0.024 A 
ATOM     23  C   UNL A   1      45.746  24.704  28.418  1.00  0.00     0.030 A 
ATOM     24  C   UNL A   1      43.855  23.262  28.914  1.00  0.00     0.030 A 
BRANCH  20  25
ATOM     25  S   UNL A   1      44.912  25.132  32.345  1.00  0.00     0.238 S 
ATOM     26  O   UNL A   1      44.533  24.024  33.187  1.00  0.00    -0.207 OA
ATOM     27  O   UNL A   1      44.311  26.441  32.451  1.00  0.00    -0.207 OA
BRANCH  25  28
ATOM     28  N   UNL A   1      46.559  25.345  32.614  1.00  0.00    -0.225 NA
ATOM     29  H   UNL A   1      47.087  24.776  31.953  1.00  0.00     0.137 HD
ATOM     30  H   UNL A   1      46.787  25.061  33.566  1.00  0.00     0.137 HD
ENDBRANCH  25  28
ENDBRANCH  20  25
ENDBRANCH  15  19
BRANCH  17  31
ATOM     31  C   UNL A   1      43.774  25.300  25.513  1.00  0.00     0.000 A 
ATOM     32  C   UNL A   1      42.414  25.644  25.433  1.00  0.00     0.010 A 
ATOM     33  C   UNL A   1      44.738  26.310  25.456  1.00  0.00     0.010 A 
ATOM     34  C   UNL A   1      42.025  26.967  25.248  1.00  0.00     0.001 A 
ATOM     35  C   UNL A   1      44.345  27.638  25.273  1.00  0.00     0.001 A 
ATOM     36  C   UNL A   1      42.992  27.964  25.160  1.00  0.00     0.000 A 
ENDBRANCH  17  31
ENDBRANCH   9  14
ENDBRANCH   7   8
ENDBRANCH   6   7
ENDBRANCH   5   6
ENDBRANCH   4   5
ENDBRANCH   3   4
ENDBRANCH   2   3
ENDBRANCH   1   2
BRANCH   1  37
ATOM     37  C   UNL A   1      39.641  27.212  27.801  1.00  0.00     0.001 C 
BRANCH  37  38
ATOM     38  C   UNL A   1      38.735  28.402  28.143  1.00  0.00     0.012 C 
BRANCH  38  39
ATOM     39  C   UNL A   1      38.507  28.679  29.634  1.00  0.00     0.123 C 
BRANCH  39  40
ATOM     40  C   UNL A   1      37.130  29.152  30.060  1.00  0.00     0.305 C 
ATOM     41  O   UNL A   1      36.669  28.946  31.177  1.00  0.00    -0.252 OA
BRANCH  40  42
ATOM     42  O   UNL A   1      36.504  29.871  29.094  1.00  0.00    -0.462 OA
BRANCH  42  43
ATOM     43  C   UNL A   1      36.430  31.298  29.263  1.00  0.00     0.274 C 
BRANCH  43  44
ATOM     44  C   UNL A   1      35.027  31.740  29.656  1.00  0.00     0.275 C 
BRANCH  44  45
ATOM     45  O   UNL A   1      35.073  32.927  30.448  1.00  0.00    -0.458 OA
BRANCH  45  46
ATOM     46  C   UNL A   1      35.007  32.708  31.778  1.00  0.00     0.338 C 
ATOM     47  O   UNL A   1      34.010  32.683  32.475  1.00  0.00    -0.246 OA
BRANCH  46  48
ATOM     48  C   UNL A   1      36.351  32.698  32.348  1.00  0.00     0.060 A 
ATOM     49  C   UNL A   1      36.783  31.538  32.999  1.00  0.00     0.016 A 
ATOM     50  C   UNL A   1      37.006  33.925  32.488  1.00  0.00     0.016 A 
ATOM     51  C   UNL A   1      37.800  31.650  33.924  1.00  0.00     0.010 A 
ATOM     52  C   UNL A   1      38.005  34.038  33.423  1.00  0.00     0.010 A 
ATOM     53  C   UNL A   1      38.341  32.916  34.177  1.00  0.00    -0.014 A 
BRANCH  53  54
ATOM     54  C   UNL A   1      39.363  33.039  35.194  1.00  0.00     0.031 A 
ATOM     55  C   UNL A   1      38.802  33.183  36.552  1.00  0.00     0.074 A 
ATOM     56  C   UNL A   1      40.672  32.865  34.929  1.00  0.00     0.049 A 
ATOM     57  N   UNL A   1      38.875  34.210  37.328  1.00  0.00    -0.248 NA
ATOM     58  C   UNL A   1      37.919  32.114  37.050  1.00  0.00     0.031 C 
ATOM     59  C   UNL A   1      41.260  32.385  33.673  1.00  0.00     0.029 A 
ATOM     60  N   UNL A   1      41.748  32.958  35.760  1.00  0.00    -0.354 N 
ATOM     61  C   UNL A   1      38.250  33.822  38.507  1.00  0.00     0.074 A 
ATOM     62  C   UNL A   1      37.511  32.625  38.212  1.00  0.00     0.031 C 
ATOM     63  C   UNL A   1      42.536  32.003  33.900  1.00  0.00     0.029 A 
ATOM     64  C   UNL A   1      42.893  32.345  35.268  1.00  0.00     0.049 A 
ATOM     65  H   UNL A   1      41.718  33.418  36.629  1.00  0.00     0.167 HD
ATOM     66  C   UNL A   1      38.663  34.330  39.698  1.00  0.00     0.037 A 
ATOM     67  C   UNL A   1      44.026  32.082  35.960  1.00  0.00     0.037 A 
ATOM     68  C   UNL A   1      39.511  35.477  39.508  1.00  0.00     0.049 A 
ATOM     69  C   UNL A   1      44.061  32.979  37.138  1.00  0.00     0.074 A 
ATOM     70  C   UNL A   1      39.354  36.808  39.199  1.00  0.00     0.029 A 
ATOM     71  N   UNL A   1      40.820  35.152  39.280  1.00  0.00    -0.354 N 
ATOM     72  N   UNL A   1      44.198  34.273  37.059  1.00  0.00    -0.248 NA
ATOM     73  C   UNL A   1      43.611  32.479  38.435  1.00  0.00     0.031 C 
ATOM     74  C   UNL A   1      40.600  37.242  38.654  1.00  0.00     0.029 A 
ATOM     75  C   UNL A   1      41.492  36.172  38.665  1.00  0.00     0.049 A 
ATOM     76  H   UNL A   1      41.228  34.290  39.528  1.00  0.00     0.167 HD
ATOM     77  C   UNL A   1      43.450  34.760  38.112  1.00  0.00     0.074 A 
ATOM     78  C   UNL A   1      43.280  33.633  39.019  1.00  0.00     0.031 C 
ATOM     79  C   UNL A   1      42.746  35.922  37.990  1.00  0.00     0.037 A 
BRANCH  66  80
ATOM     80  C   UNL A   1      38.748  33.526  40.973  1.00  0.00     0.057 A 
ATOM     81  C   UNL A   1      38.017  33.953  42.095  1.00  0.00     0.134 A 
ATOM     82  C   UNL A   1      39.748  32.566  41.238  1.00  0.00     0.134 A 
ATOM     83  F   UNL A   1      37.061  34.887  41.977  1.00  0.00    -0.206 F 
ATOM     84  C   UNL A   1      38.296  33.496  43.389  1.00  0.00     0.040 A 
ATOM     85  C   UNL A   1      39.998  32.065  42.517  1.00  0.00     0.040 A 
ATOM     86  F   UNL A   1      40.608  32.148  40.300  1.00  0.00    -0.206 F 
ATOM     87  C   UNL A   1      39.291  32.551  43.603  1.00  0.00     0.006 A 
ENDBRANCH  66  80
BRANCH  67  88
ATOM     88  C   UNL A   1      44.950  30.934  35.819  1.00  0.00     0.057 A 
ATOM     89  C   UNL A   1      44.536  29.632  36.132  1.00  0.00     0.134 A 
ATOM     90  C   UNL A   1      46.159  31.045  35.109  1.00  0.00     0.134 A 
ATOM     91  F   UNL A   1      43.381  29.421  36.779  1.00  0.00    -0.206 F 
ATOM     92  C   UNL A   1      45.262  28.503  35.729  1.00  0.00     0.040 A 
ATOM     93  C   UNL A   1      46.896  29.927  34.707  1.00  0.00     0.040 A 
ATOM     94  F   UNL A   1      46.616  32.237  34.700  1.00  0.00    -0.206 F 
ATOM     95  C   UNL A   1      46.439  28.648  35.002  1.00  0.00     0.006 A 
ENDBRANCH  67  88
BRANCH  79  96
ATOM     96  C   UNL A   1      43.216  36.911  36.971  1.00  0.00     0.057 A 
ATOM     97  C   UNL A   1      44.258  37.825  37.167  1.00  0.00     0.134 A 
ATOM     98  C   UNL A   1      42.620  36.884  35.705  1.00  0.00     0.134 A 
ATOM     99  F   UNL A   1      44.935  37.869  38.323  1.00  0.00    -0.206 F 
ATOM    100  C   UNL A   1      44.660  38.703  36.157  1.00  0.00     0.040 A 
ATOM    101  C   UNL A   1      43.035  37.730  34.678  1.00  0.00     0.040 A 
ATOM    102  F   UNL A   1      41.641  36.005  35.436  1.00  0.00    -0.206 F 
ATOM    103  C   UNL A   1      44.051  38.653  34.905  1.00  0.00     0.006 A 
ENDBRANCH  79  96
ENDBRANCH  53  54
ENDBRANCH  46  48
ENDBRANCH  45  46
ENDBRANCH  44  45
ENDBRANCH  43  44
ENDBRANCH  42  43
ENDBRANCH  40  42
ENDBRANCH  39  40
ENDBRANCH  38  39
ENDBRANCH  37  38
ENDBRANCH   1  37
TORSDOF 26
ENDMDL
