MODEL 1
REMARK VINA RESULT:     -13.5      0.000      0.000
REMARK SMILES O=C(OCCOC(=O)[C@H]1[C@@H](C(=O)NN2CCOCC2)[C@H]2C=C[C@@H]1CC2)c1ccc(-c2c3nc(c(-c4c(F)cccc4F)c4ccc([nH]4)c(-c4c(F)cccc4F)c4nc(c(-c5c(F)cccc5F)c5ccc2[nH]5)C=C4)C=C3)cc1
REMARK SMILES IDX 4 1 3 2 2 3 1 4 26 5 27 6 79 7 28 8 78 9 29 10 30 11 31 12
REMARK SMILES IDX 72 13 32 14 77 15 71 16 73 17 33 18 76 19 70 20 69 21 34 23
REMARK SMILES IDX 60 24 43 25 59 26 44 27 47 28 58 29 74 30 45 31 46 32 57 34
REMARK SMILES IDX 75 35 48 36 35 37 36 38 41 39 37 40 38 41 40 42 42 43 39 44
REMARK SMILES IDX 61 45 62 46 67 47 63 48 64 49 66 50 68 51 65 52 49 53 50 54
REMARK SMILES IDX 55 55 51 56 52 57 54 58 56 59 53 60 5 61 6 62 7 63 8 64 9 65
REMARK SMILES IDX 10 66 23 67 20 68 22 69 24 70 21 71 25 72 11 73 12 74 13 75
REMARK SMILES IDX 14 77 15 78 19 79 16 80 18 81 17 82
REMARK H PARENT 73 22 47 33 13 76
REMARK Flexibility Score: inf
ROOT
ATOM      1  C   UNL A   1      33.916  28.858  26.183  1.00  0.00     0.275 C 
ENDROOT
BRANCH   1   2
ATOM      2  O   UNL A   1      34.825  28.929  27.291  1.00  0.00    -0.458 OA
BRANCH   2   3
ATOM      3  C   UNL A   1      35.155  30.197  27.630  1.00  0.00     0.338 C 
ATOM      4  O   UNL A   1      34.396  31.139  27.443  1.00  0.00    -0.246 OA
BRANCH   3   5
ATOM      5  C   UNL A   1      36.377  30.220  28.642  1.00  0.00     0.060 A 
ATOM      6  C   UNL A   1      37.643  30.102  27.403  1.00  0.00     0.016 A 
ATOM      7  C   UNL A   1      36.729  29.393  30.333  1.00  0.00     0.016 A 
ATOM      8  C   UNL A   1      39.076  29.225  27.636  1.00  0.00     0.010 A 
ATOM      9  C   UNL A   1      38.289  28.375  30.446  1.00  0.00     0.010 A 
ATOM     10  C   UNL A   1      39.457  28.352  29.078  1.00  0.00    -0.014 A 
BRANCH  10  11
ATOM     11  C   UNL A   1      40.966  27.808  29.005  1.00  0.00     0.031 A 
ATOM     12  C   UNL A   1      41.254  26.365  28.539  1.00  0.00     0.074 A 
ATOM     13  C   UNL A   1      41.977  28.434  28.313  1.00  0.00     0.049 A 
ATOM     14  N   UNL A   1      42.410  25.893  28.112  1.00  0.00    -0.248 NA
ATOM     15  C   UNL A   1      40.169  25.386  28.456  1.00  0.00     0.031 C 
ATOM     16  C   UNL A   1      41.921  29.279  27.117  1.00  0.00     0.029 A 
ATOM     17  N   UNL A   1      43.251  28.702  28.784  1.00  0.00    -0.354 N 
ATOM     18  C   UNL A   1      42.193  24.603  27.678  1.00  0.00     0.074 A 
ATOM     19  C   UNL A   1      40.785  24.339  27.907  1.00  0.00     0.031 C 
ATOM     20  C   UNL A   1      42.835  30.259  27.210  1.00  0.00     0.029 A 
ATOM     21  C   UNL A   1      43.753  29.888  28.274  1.00  0.00     0.049 A 
ATOM     22  H   UNL A   1      43.740  28.120  29.409  1.00  0.00     0.167 HD
ATOM     23  C   UNL A   1      43.106  23.741  27.159  1.00  0.00     0.037 A 
ATOM     24  C   UNL A   1      44.990  30.410  28.270  1.00  0.00     0.037 A 
ATOM     25  C   UNL A   1      44.509  24.059  26.958  1.00  0.00     0.049 A 
ATOM     26  C   UNL A   1      46.041  29.404  27.969  1.00  0.00     0.074 A 
ATOM     27  C   UNL A   1      45.543  23.208  26.601  1.00  0.00     0.029 A 
ATOM     28  N   UNL A   1      45.077  25.327  27.098  1.00  0.00    -0.354 N 
ATOM     29  N   UNL A   1      45.855  28.129  27.733  1.00  0.00    -0.248 NA
ATOM     30  C   UNL A   1      47.414  29.871  27.795  1.00  0.00     0.031 C 
ATOM     31  C   UNL A   1      46.741  23.936  26.609  1.00  0.00     0.029 A 
ATOM     32  C   UNL A   1      46.456  25.260  26.903  1.00  0.00     0.049 A 
ATOM     33  H   UNL A   1      44.577  26.149  27.306  1.00  0.00     0.167 HD
ATOM     34  C   UNL A   1      47.075  27.638  27.334  1.00  0.00     0.074 A 
ATOM     35  C   UNL A   1      47.996  28.763  27.350  1.00  0.00     0.031 C 
ATOM     36  C   UNL A   1      47.385  26.369  26.978  1.00  0.00     0.037 A 
BRANCH  23  37
ATOM     37  C   UNL A   1      42.638  22.328  26.954  1.00  0.00     0.057 A 
ATOM     38  C   UNL A   1      42.271  21.475  28.001  1.00  0.00     0.134 A 
ATOM     39  C   UNL A   1      42.623  21.794  25.656  1.00  0.00     0.134 A 
ATOM     40  F   UNL A   1      42.266  21.913  29.268  1.00  0.00    -0.206 F 
ATOM     41  C   UNL A   1      41.954  20.131  27.770  1.00  0.00     0.040 A 
ATOM     42  C   UNL A   1      42.291  20.461  25.411  1.00  0.00     0.040 A 
ATOM     43  F   UNL A   1      42.948  22.560  24.603  1.00  0.00    -0.206 F 
ATOM     44  C   UNL A   1      41.971  19.620  26.472  1.00  0.00     0.006 A 
ENDBRANCH  23  37
BRANCH  24  45
ATOM     45  C   UNL A   1      45.189  31.880  28.247  1.00  0.00     0.057 A 
ATOM     46  C   UNL A   1      45.386  32.644  27.093  1.00  0.00     0.134 A 
ATOM     47  C   UNL A   1      45.242  32.562  29.474  1.00  0.00     0.134 A 
ATOM     48  F   UNL A   1      45.334  32.070  25.883  1.00  0.00    -0.206 F 
ATOM     49  C   UNL A   1      45.669  34.014  27.159  1.00  0.00     0.040 A 
ATOM     50  C   UNL A   1      45.515  33.930  29.554  1.00  0.00     0.040 A 
ATOM     51  F   UNL A   1      45.060  31.897  30.624  1.00  0.00    -0.206 F 
ATOM     52  C   UNL A   1      45.742  34.660  28.393  1.00  0.00     0.006 A 
ENDBRANCH  24  45
BRANCH  36  53
ATOM     53  C   UNL A   1      48.828  26.123  26.667  1.00  0.00     0.057 A 
ATOM     54  C   UNL A   1      49.341  26.377  25.387  1.00  0.00     0.134 A 
ATOM     55  C   UNL A   1      49.710  25.639  27.638  1.00  0.00     0.134 A 
ATOM     56  F   UNL A   1      48.538  26.818  24.407  1.00  0.00    -0.206 F 
ATOM     57  C   UNL A   1      50.678  26.137  25.078  1.00  0.00     0.040 A 
ATOM     58  C   UNL A   1      51.058  25.424  27.349  1.00  0.00     0.040 A 
ATOM     59  F   UNL A   1      49.278  25.369  28.879  1.00  0.00    -0.206 F 
ATOM     60  C   UNL A   1      51.544  25.668  26.064  1.00  0.00     0.006 A 
ENDBRANCH  36  53
ENDBRANCH  10  11
ENDBRANCH   3   5
ENDBRANCH   2   3
ENDBRANCH   1   2
BRANCH   1  61
ATOM     61  C   UNL A   1      33.670  27.374  25.929  1.00  0.00     0.274 C 
BRANCH  61  62
ATOM     62  O   UNL A   1      32.370  27.214  25.327  1.00  0.00    -0.462 OA
BRANCH  62  63
ATOM     63  C   UNL A   1      31.508  26.413  26.002  1.00  0.00     0.310 C 
ATOM     64  O   UNL A   1      30.968  26.705  27.065  1.00  0.00    -0.252 OA
BRANCH  63  65
ATOM     65  C   UNL A   1      31.250  25.065  25.327  1.00  0.00     0.119 C 
ATOM     66  C   UNL A   1      32.238  24.402  23.888  1.00  0.00     0.101 C 
ATOM     67  C   UNL A   1      31.183  24.072  26.552  1.00  0.00     0.026 C 
ATOM     68  C   UNL A   1      32.784  23.156  24.779  1.00  0.00     0.025 C 
ATOM     69  C   UNL A   1      32.602  23.938  27.031  1.00  0.00    -0.027 C 
ATOM     70  C   UNL A   1      30.676  22.687  26.140  1.00  0.00     0.009 C 
ATOM     71  C   UNL A   1      33.446  23.573  26.064  1.00  0.00    -0.027 C 
ATOM     72  C   UNL A   1      31.624  22.108  25.103  1.00  0.00     0.009 C 
BRANCH  66  73
ATOM     73  C   UNL A   1      32.590  25.307  21.900  1.00  0.00     0.238 C 
ATOM     74  O   UNL A   1      33.377  25.092  20.942  1.00  0.00    -0.273 OA
ATOM     75  N   UNL A   1      31.615  26.617  21.267  1.00  0.00    -0.288 N 
ATOM     76  H   UNL A   1      31.682  26.694  20.288  1.00  0.00     0.185 HD
BRANCH  75  77
ATOM     77  N   UNL A   1      30.563  27.806  21.944  1.00  0.00    -0.217 NA
ATOM     78  C   UNL A   1      29.626  27.324  22.996  1.00  0.00     0.136 C 
ATOM     79  C   UNL A   1      30.917  29.192  22.450  1.00  0.00     0.136 C 
ATOM     80  C   UNL A   1      28.428  28.332  23.192  1.00  0.00     0.177 C 
ATOM     81  C   UNL A   1      29.697  30.102  22.323  1.00  0.00     0.177 C 
ATOM     82  O   UNL A   1      28.794  29.714  23.352  1.00  0.00    -0.379 OA
ENDBRANCH  75  77
ENDBRANCH  66  73
ENDBRANCH  63  65
ENDBRANCH  62  63
ENDBRANCH  61  62
ENDBRANCH   1  61
TORSDOF 13
ENDMDL
MODEL 2
REMARK VINA RESULT:     -13.5      5.210      9.933
REMARK SMILES O=C(OCCOC(=O)[C@H]1[C@@H](C(=O)NN2CCOCC2)[C@H]2C=C[C@@H]1CC2)c1ccc(-c2c3nc(c(-c4c(F)cccc4F)c4ccc([nH]4)c(-c4c(F)cccc4F)c4nc(c(-c5c(F)cccc5F)c5ccc2[nH]5)C=C4)C=C3)cc1
REMARK SMILES IDX 4 1 3 2 2 3 1 4 26 5 27 6 79 7 28 8 78 9 29 10 30 11 31 12
REMARK SMILES IDX 72 13 32 14 77 15 71 16 73 17 33 18 76 19 70 20 69 21 34 23
REMARK SMILES IDX 60 24 43 25 59 26 44 27 47 28 58 29 74 30 45 31 46 32 57 34
REMARK SMILES IDX 75 35 48 36 35 37 36 38 41 39 37 40 38 41 40 42 42 43 39 44
REMARK SMILES IDX 61 45 62 46 67 47 63 48 64 49 66 50 68 51 65 52 49 53 50 54
REMARK SMILES IDX 55 55 51 56 52 57 54 58 56 59 53 60 5 61 6 62 7 63 8 64 9 65
REMARK SMILES IDX 10 66 23 67 20 68 22 69 24 70 21 71 25 72 11 73 12 74 13 75
REMARK SMILES IDX 14 77 15 78 19 79 16 80 18 81 17 82
REMARK H PARENT 73 22 47 33 13 76
REMARK Flexibility Score: inf
ROOT
ATOM      1  C   UNL A   1      37.231  23.343  24.865  1.00  0.00     0.275 C 
ENDROOT
BRANCH   1   2
ATOM      2  O   UNL A   1      37.812  24.184  25.871  1.00  0.00    -0.458 OA
BRANCH   2   3
ATOM      3  C   UNL A   1      38.829  23.593  26.539  1.00  0.00     0.338 C 
ATOM      4  O   UNL A   1      39.003  22.381  26.520  1.00  0.00    -0.246 OA
BRANCH   3   5
ATOM      5  C   UNL A   1      39.943  24.649  26.939  1.00  0.00     0.060 A 
ATOM      6  C   UNL A   1      39.288  25.006  28.550  1.00  0.00     0.016 A 
ATOM      7  C   UNL A   1      40.825  26.078  26.018  1.00  0.00     0.016 A 
ATOM      8  C   UNL A   1      39.337  26.556  29.237  1.00  0.00     0.010 A 
ATOM      9  C   UNL A   1      40.735  27.760  26.822  1.00  0.00     0.010 A 
ATOM     10  C   UNL A   1      40.010  27.944  28.458  1.00  0.00    -0.014 A 
BRANCH  10  11
ATOM     11  C   UNL A   1      40.047  29.181  29.481  1.00  0.00     0.031 A 
ATOM     12  C   UNL A   1      38.936  30.251  29.453  1.00  0.00     0.074 A 
ATOM     13  C   UNL A   1      40.144  29.047  30.848  1.00  0.00     0.049 A 
ATOM     14  N   UNL A   1      38.646  31.108  30.414  1.00  0.00    -0.248 NA
ATOM     15  C   UNL A   1      38.017  30.331  28.316  1.00  0.00     0.031 C 
ATOM     16  C   UNL A   1      39.690  27.965  31.725  1.00  0.00     0.029 A 
ATOM     17  N   UNL A   1      41.005  29.740  31.681  1.00  0.00    -0.354 N 
ATOM     18  C   UNL A   1      37.510  31.789  30.029  1.00  0.00     0.074 A 
ATOM     19  C   UNL A   1      37.156  31.264  28.723  1.00  0.00     0.031 C 
ATOM     20  C   UNL A   1      40.571  27.791  32.724  1.00  0.00     0.029 A 
ATOM     21  C   UNL A   1      41.428  28.965  32.749  1.00  0.00     0.049 A 
ATOM     22  H   UNL A   1      41.286  30.672  31.531  1.00  0.00     0.167 HD
ATOM     23  C   UNL A   1      36.860  32.765  30.714  1.00  0.00     0.037 A 
ATOM     24  C   UNL A   1      42.057  29.280  33.892  1.00  0.00     0.037 A 
ATOM     25  C   UNL A   1      37.264  33.256  32.019  1.00  0.00     0.049 A 
ATOM     26  C   UNL A   1      41.530  30.519  34.519  1.00  0.00     0.074 A 
ATOM     27  C   UNL A   1      36.778  34.350  32.718  1.00  0.00     0.029 A 
ATOM     28  N   UNL A   1      38.254  32.688  32.824  1.00  0.00    -0.354 N 
ATOM     29  N   UNL A   1      40.564  31.276  34.060  1.00  0.00    -0.248 NA
ATOM     30  C   UNL A   1      42.033  30.893  35.840  1.00  0.00     0.031 C 
ATOM     31  C   UNL A   1      37.525  34.495  33.895  1.00  0.00     0.029 A 
ATOM     32  C   UNL A   1      38.436  33.454  33.975  1.00  0.00     0.049 A 
ATOM     33  H   UNL A   1      38.752  31.867  32.609  1.00  0.00     0.167 HD
ATOM     34  C   UNL A   1      40.302  32.194  35.049  1.00  0.00     0.074 A 
ATOM     35  C   UNL A   1      41.209  31.889  36.144  1.00  0.00     0.031 C 
ATOM     36  C   UNL A   1      39.381  33.186  35.039  1.00  0.00     0.037 A 
BRANCH  23  37
ATOM     37  C   UNL A   1      35.763  33.475  29.972  1.00  0.00     0.057 A 
ATOM     38  C   UNL A   1      35.977  34.230  28.812  1.00  0.00     0.134 A 
ATOM     39  C   UNL A   1      34.458  33.446  30.487  1.00  0.00     0.134 A 
ATOM     40  F   UNL A   1      37.198  34.307  28.264  1.00  0.00    -0.206 F 
ATOM     41  C   UNL A   1      34.944  34.969  28.222  1.00  0.00     0.040 A 
ATOM     42  C   UNL A   1      33.416  34.163  29.898  1.00  0.00     0.040 A 
ATOM     43  F   UNL A   1      34.178  32.730  31.587  1.00  0.00    -0.206 F 
ATOM     44  C   UNL A   1      33.662  34.942  28.770  1.00  0.00     0.006 A 
ENDBRANCH  23  37
BRANCH  24  45
ATOM     45  C   UNL A   1      42.938  28.294  34.566  1.00  0.00     0.057 A 
ATOM     46  C   UNL A   1      42.571  27.514  35.666  1.00  0.00     0.134 A 
ATOM     47  C   UNL A   1      44.260  28.166  34.110  1.00  0.00     0.134 A 
ATOM     48  F   UNL A   1      41.323  27.567  36.150  1.00  0.00    -0.206 F 
ATOM     49  C   UNL A   1      43.492  26.678  36.311  1.00  0.00     0.040 A 
ATOM     50  C   UNL A   1      45.186  27.330  34.739  1.00  0.00     0.040 A 
ATOM     51  F   UNL A   1      44.685  28.880  33.057  1.00  0.00    -0.206 F 
ATOM     52  C   UNL A   1      44.806  26.590  35.853  1.00  0.00     0.006 A 
ENDBRANCH  24  45
BRANCH  36  53
ATOM     53  C   UNL A   1      39.387  34.081  36.240  1.00  0.00     0.057 A 
ATOM     54  C   UNL A   1      40.100  35.288  36.233  1.00  0.00     0.134 A 
ATOM     55  C   UNL A   1      38.681  33.746  37.400  1.00  0.00     0.134 A 
ATOM     56  F   UNL A   1      40.816  35.650  35.158  1.00  0.00    -0.206 F 
ATOM     57  C   UNL A   1      40.128  36.123  37.349  1.00  0.00     0.040 A 
ATOM     58  C   UNL A   1      38.677  34.589  38.512  1.00  0.00     0.040 A 
ATOM     59  F   UNL A   1      37.987  32.601  37.471  1.00  0.00    -0.206 F 
ATOM     60  C   UNL A   1      39.407  35.778  38.490  1.00  0.00     0.006 A 
ENDBRANCH  36  53
ENDBRANCH  10  11
ENDBRANCH   3   5
ENDBRANCH   2   3
ENDBRANCH   1   2
BRANCH   1  61
ATOM     61  C   UNL A   1      35.775  23.139  25.270  1.00  0.00     0.274 C 
BRANCH  61  62
ATOM     62  O   UNL A   1      35.141  24.427  25.396  1.00  0.00    -0.462 OA
BRANCH  62  63
ATOM     63  C   UNL A   1      34.250  24.738  24.421  1.00  0.00     0.310 C 
ATOM     64  O   UNL A   1      34.405  24.492  23.229  1.00  0.00    -0.252 OA
BRANCH  63  65
ATOM     65  C   UNL A   1      32.994  25.449  24.927  1.00  0.00     0.119 C 
ATOM     66  C   UNL A   1      31.930  26.573  23.883  1.00  0.00     0.101 C 
ATOM     67  C   UNL A   1      32.186  24.279  25.612  1.00  0.00     0.026 C 
ATOM     68  C   UNL A   1      30.661  25.563  24.007  1.00  0.00     0.025 C 
ATOM     69  C   UNL A   1      31.662  23.443  24.477  1.00  0.00    -0.027 C 
ATOM     70  C   UNL A   1      30.996  24.802  26.421  1.00  0.00     0.009 C 
ATOM     71  C   UNL A   1      30.967  24.152  23.585  1.00  0.00    -0.027 C 
ATOM     72  C   UNL A   1      30.059  25.550  25.486  1.00  0.00     0.009 C 
BRANCH  66  73
ATOM     73  C   UNL A   1      32.497  28.404  22.777  1.00  0.00     0.238 C 
ATOM     74  O   UNL A   1      33.571  28.891  22.336  1.00  0.00    -0.273 OA
ATOM     75  N   UNL A   1      31.323  29.580  22.222  1.00  0.00    -0.288 N 
ATOM     76  H   UNL A   1      31.677  30.150  21.502  1.00  0.00     0.185 HD
BRANCH  75  77
ATOM     77  N   UNL A   1      29.695  29.982  22.633  1.00  0.00    -0.217 NA
ATOM     78  C   UNL A   1      28.837  28.850  23.076  1.00  0.00     0.136 C 
ATOM     79  C   UNL A   1      29.204  31.114  23.516  1.00  0.00     0.136 C 
ATOM     80  C   UNL A   1      27.308  29.221  22.962  1.00  0.00     0.177 C 
ATOM     81  C   UNL A   1      27.793  31.512  23.087  1.00  0.00     0.177 C 
ATOM     82  O   UNL A   1      26.925  30.481  23.543  1.00  0.00    -0.379 OA
ENDBRANCH  75  77
ENDBRANCH  66  73
ENDBRANCH  63  65
ENDBRANCH  62  63
ENDBRANCH  61  62
ENDBRANCH   1  61
TORSDOF 13
ENDMDL
MODEL 3
REMARK VINA RESULT:     -13.4      2.074      3.722
REMARK SMILES O=C(OCCOC(=O)[C@H]1[C@@H](C(=O)NN2CCOCC2)[C@H]2C=C[C@@H]1CC2)c1ccc(-c2c3nc(c(-c4c(F)cccc4F)c4ccc([nH]4)c(-c4c(F)cccc4F)c4nc(c(-c5c(F)cccc5F)c5ccc2[nH]5)C=C4)C=C3)cc1
REMARK SMILES IDX 4 1 3 2 2 3 1 4 26 5 27 6 79 7 28 8 78 9 29 10 30 11 31 12
REMARK SMILES IDX 72 13 32 14 77 15 71 16 73 17 33 18 76 19 70 20 69 21 34 23
REMARK SMILES IDX 60 24 43 25 59 26 44 27 47 28 58 29 74 30 45 31 46 32 57 34
REMARK SMILES IDX 75 35 48 36 35 37 36 38 41 39 37 40 38 41 40 42 42 43 39 44
REMARK SMILES IDX 61 45 62 46 67 47 63 48 64 49 66 50 68 51 65 52 49 53 50 54
REMARK SMILES IDX 55 55 51 56 52 57 54 58 56 59 53 60 5 61 6 62 7 63 8 64 9 65
REMARK SMILES IDX 10 66 23 67 20 68 22 69 24 70 21 71 25 72 11 73 12 74 13 75
REMARK SMILES IDX 14 77 15 78 19 79 16 80 18 81 17 82
REMARK H PARENT 73 22 47 33 13 76
REMARK Flexibility Score: inf
ROOT
ATOM      1  C   UNL A   1      33.922  28.568  26.280  1.00  0.00     0.275 C 
ENDROOT
BRANCH   1   2
ATOM      2  O   UNL A   1      34.553  28.872  27.532  1.00  0.00    -0.458 OA
BRANCH   2   3
ATOM      3  C   UNL A   1      35.036  30.135  27.592  1.00  0.00     0.338 C 
ATOM      4  O   UNL A   1      34.386  31.099  27.211  1.00  0.00    -0.246 OA
BRANCH   3   5
ATOM      5  C   UNL A   1      36.278  30.226  28.575  1.00  0.00     0.060 A 
ATOM      6  C   UNL A   1      37.519  30.053  27.317  1.00  0.00     0.016 A 
ATOM      7  C   UNL A   1      36.676  29.498  30.301  1.00  0.00     0.016 A 
ATOM      8  C   UNL A   1      38.966  29.205  27.567  1.00  0.00     0.010 A 
ATOM      9  C   UNL A   1      38.250  28.503  30.436  1.00  0.00     0.010 A 
ATOM     10  C   UNL A   1      39.388  28.416  29.045  1.00  0.00    -0.014 A 
BRANCH  10  11
ATOM     11  C   UNL A   1      40.901  27.884  28.969  1.00  0.00     0.031 A 
ATOM     12  C   UNL A   1      41.199  26.438  28.521  1.00  0.00     0.074 A 
ATOM     13  C   UNL A   1      41.903  28.510  28.262  1.00  0.00     0.049 A 
ATOM     14  N   UNL A   1      42.357  25.971  28.092  1.00  0.00    -0.248 NA
ATOM     15  C   UNL A   1      40.123  25.449  28.457  1.00  0.00     0.031 C 
ATOM     16  C   UNL A   1      41.831  29.339  27.056  1.00  0.00     0.029 A 
ATOM     17  N   UNL A   1      43.177  28.795  28.722  1.00  0.00    -0.354 N 
ATOM     18  C   UNL A   1      42.148  24.673  27.675  1.00  0.00     0.074 A 
ATOM     19  C   UNL A   1      40.744  24.400  27.917  1.00  0.00     0.031 C 
ATOM     20  C   UNL A   1      42.737  30.328  27.130  1.00  0.00     0.029 A 
ATOM     21  C   UNL A   1      43.665  29.979  28.193  1.00  0.00     0.049 A 
ATOM     22  H   UNL A   1      43.676  28.226  29.351  1.00  0.00     0.167 HD
ATOM     23  C   UNL A   1      43.065  23.813  27.162  1.00  0.00     0.037 A 
ATOM     24  C   UNL A   1      44.897  30.512  28.174  1.00  0.00     0.037 A 
ATOM     25  C   UNL A   1      44.463  24.140  26.947  1.00  0.00     0.049 A 
ATOM     26  C   UNL A   1      45.955  29.511  27.879  1.00  0.00     0.074 A 
ATOM     27  C   UNL A   1      45.503  23.294  26.594  1.00  0.00     0.029 A 
ATOM     28  N   UNL A   1      45.022  25.415  27.067  1.00  0.00    -0.354 N 
ATOM     29  N   UNL A   1      45.779  28.231  27.660  1.00  0.00    -0.248 NA
ATOM     30  C   UNL A   1      47.323  29.988  27.689  1.00  0.00     0.031 C 
ATOM     31  C   UNL A   1      46.694  24.032  26.585  1.00  0.00     0.029 A 
ATOM     32  C   UNL A   1      46.400  25.358  26.864  1.00  0.00     0.049 A 
ATOM     33  H   UNL A   1      44.515  26.235  27.268  1.00  0.00     0.167 HD
ATOM     34  C   UNL A   1      47.000  27.746  27.260  1.00  0.00     0.074 A 
ATOM     35  C   UNL A   1      47.912  28.879  27.255  1.00  0.00     0.031 C 
ATOM     36  C   UNL A   1      47.319  26.475  26.918  1.00  0.00     0.037 A 
BRANCH  23  37
ATOM     37  C   UNL A   1      42.608  22.394  26.978  1.00  0.00     0.057 A 
ATOM     38  C   UNL A   1      42.303  21.835  25.731  1.00  0.00     0.134 A 
ATOM     39  C   UNL A   1      42.409  21.586  28.109  1.00  0.00     0.134 A 
ATOM     40  F   UNL A   1      42.465  22.547  24.607  1.00  0.00    -0.206 F 
ATOM     41  C   UNL A   1      41.770  20.545  25.620  1.00  0.00     0.040 A 
ATOM     42  C   UNL A   1      41.895  20.293  28.010  1.00  0.00     0.040 A 
ATOM     43  F   UNL A   1      42.695  22.052  29.334  1.00  0.00    -0.206 F 
ATOM     44  C   UNL A   1      41.558  19.774  26.763  1.00  0.00     0.006 A 
ENDBRANCH  23  37
BRANCH  24  45
ATOM     45  C   UNL A   1      45.083  31.983  28.130  1.00  0.00     0.057 A 
ATOM     46  C   UNL A   1      45.233  32.737  26.963  1.00  0.00     0.134 A 
ATOM     47  C   UNL A   1      45.175  32.676  29.348  1.00  0.00     0.134 A 
ATOM     48  F   UNL A   1      45.142  32.152  25.761  1.00  0.00    -0.206 F 
ATOM     49  C   UNL A   1      45.507  34.111  27.007  1.00  0.00     0.040 A 
ATOM     50  C   UNL A   1      45.440  34.047  29.407  1.00  0.00     0.040 A 
ATOM     51  F   UNL A   1      45.039  32.021  30.511  1.00  0.00    -0.206 F 
ATOM     52  C   UNL A   1      45.618  34.768  28.232  1.00  0.00     0.006 A 
ENDBRANCH  24  45
BRANCH  36  53
ATOM     53  C   UNL A   1      48.763  26.237  26.600  1.00  0.00     0.057 A 
ATOM     54  C   UNL A   1      49.262  26.467  25.311  1.00  0.00     0.134 A 
ATOM     55  C   UNL A   1      49.658  25.786  27.576  1.00  0.00     0.134 A 
ATOM     56  F   UNL A   1      48.446  26.876  24.328  1.00  0.00    -0.206 F 
ATOM     57  C   UNL A   1      50.599  26.235  24.996  1.00  0.00     0.040 A 
ATOM     58  C   UNL A   1      51.005  25.579  27.280  1.00  0.00     0.040 A 
ATOM     59  F   UNL A   1      49.240  25.541  28.826  1.00  0.00    -0.206 F 
ATOM     60  C   UNL A   1      51.478  25.798  25.986  1.00  0.00     0.006 A 
ENDBRANCH  36  53
ENDBRANCH  10  11
ENDBRANCH   3   5
ENDBRANCH   2   3
ENDBRANCH   1   2
BRANCH   1  61
ATOM     61  C   UNL A   1      32.457  28.287  26.598  1.00  0.00     0.274 C 
BRANCH  61  62
ATOM     62  O   UNL A   1      31.924  27.400  25.595  1.00  0.00    -0.462 OA
BRANCH  62  63
ATOM     63  C   UNL A   1      31.967  26.078  25.902  1.00  0.00     0.310 C 
ATOM     64  O   UNL A   1      31.438  25.573  26.889  1.00  0.00    -0.252 OA
BRANCH  63  65
ATOM     65  C   UNL A   1      32.753  25.230  24.903  1.00  0.00     0.119 C 
ATOM     66  C   UNL A   1      32.779  23.362  24.900  1.00  0.00     0.101 C 
ATOM     67  C   UNL A   1      32.336  25.853  23.515  1.00  0.00     0.026 C 
ATOM     68  C   UNL A   1      32.061  23.310  23.441  1.00  0.00     0.025 C 
ATOM     69  C   UNL A   1      30.918  25.405  23.290  1.00  0.00    -0.027 C 
ATOM     70  C   UNL A   1      33.200  25.327  22.367  1.00  0.00     0.009 C 
ATOM     71  C   UNL A   1      30.771  24.081  23.372  1.00  0.00    -0.027 C 
ATOM     72  C   UNL A   1      33.038  23.817  22.284  1.00  0.00     0.009 C 
BRANCH  66  73
ATOM     73  C   UNL A   1      33.368  21.970  26.515  1.00  0.00     0.238 C 
ATOM     74  O   UNL A   1      33.782  22.090  27.698  1.00  0.00    -0.273 OA
ATOM     75  N   UNL A   1      33.255  20.229  26.356  1.00  0.00    -0.288 N 
ATOM     76  H   UNL A   1      33.249  19.774  27.229  1.00  0.00     0.185 HD
BRANCH  75  77
ATOM     77  N   UNL A   1      33.152  19.118  25.039  1.00  0.00    -0.217 NA
ATOM     78  C   UNL A   1      32.651  19.676  23.754  1.00  0.00     0.136 C 
ATOM     79  C   UNL A   1      34.199  18.127  24.565  1.00  0.00     0.136 C 
ATOM     80  C   UNL A   1      32.152  18.527  22.794  1.00  0.00     0.177 C 
ATOM     81  C   UNL A   1      33.506  16.950  23.881  1.00  0.00     0.177 C 
ATOM     82  O   UNL A   1      33.059  17.424  22.616  1.00  0.00    -0.379 OA
ENDBRANCH  75  77
ENDBRANCH  66  73
ENDBRANCH  63  65
ENDBRANCH  62  63
ENDBRANCH  61  62
ENDBRANCH   1  61
TORSDOF 13
ENDMDL
