MODEL 1
REMARK VINA RESULT:     -10.1      0.000      0.000
REMARK SMILES Cc1ccc2nc(C(=O)OCCOC(=O)c3ccc(-c4c5nc(c(-c6c(F)cccc6F)c6ccc([nH]6)c(-c6c(F)cccc6F)c6nc(c(-c7c(F)cccc7F)c7ccc4[nH]7)C=C6)C=C5)cc3)cc(N3CCOCC3)c2c1
REMARK SMILES IDX 12 1 11 2 10 3 8 4 9 5 7 6 1 7 2 8 3 9 79 10 4 11 78 12 5 13
REMARK SMILES IDX 71 14 6 15 70 16 72 17 73 18 77 19 74 20 76 21 75 22 13 23
REMARK SMILES IDX 14 24 15 25 16 26 17 27 69 28 18 29 68 30 19 31 20 32 21 33
REMARK SMILES IDX 62 34 22 35 67 36 61 37 63 38 23 39 66 40 60 41 59 42 24 44
REMARK SMILES IDX 50 45 33 46 49 47 34 48 37 49 48 50 64 51 35 52 36 53 47 55
REMARK SMILES IDX 65 56 38 57 25 58 26 59 31 60 27 61 28 62 30 63 32 64 29 65
REMARK SMILES IDX 51 66 52 67 57 68 53 69 54 70 56 71 58 72 55 73 39 74 40 75
REMARK SMILES IDX 45 76 41 77 42 78 44 79 46 80 43 81
REMARK H PARENT 63 43 37 54
REMARK Flexibility Score: inf
ROOT
ATOM      1  C   UNL A   1      44.452  19.341  25.289  1.00  0.00     0.275 C 
ENDROOT
BRANCH   1   2
ATOM      2  C   UNL A   1      45.520  20.217  24.626  1.00  0.00     0.275 C 
BRANCH   2   3
ATOM      3  O   UNL A   1      45.474  21.577  25.107  1.00  0.00    -0.457 OA
BRANCH   3   4
ATOM      4  C   UNL A   1      45.170  22.510  24.167  1.00  0.00     0.357 C 
ATOM      5  O   UNL A   1      44.528  22.305  23.146  1.00  0.00    -0.244 OA
BRANCH   4   6
ATOM      6  C   UNL A   1      45.641  23.870  24.576  1.00  0.00     0.151 A 
ATOM      7  C   UNL A   1      45.653  30.038  26.512  1.00  0.00     0.044 C 
ATOM      8  C   UNL A   1      45.407  28.605  26.151  1.00  0.00    -0.050 A 
ATOM      9  C   UNL A   1      44.136  28.051  26.247  1.00  0.00     0.005 A 
ATOM     10  C   UNL A   1      46.454  27.805  25.676  1.00  0.00     0.016 A 
ATOM     11  C   UNL A   1      43.926  26.732  25.846  1.00  0.00     0.029 A 
ATOM     12  C   UNL A   1      46.269  26.442  25.324  1.00  0.00     0.024 A 
ATOM     13  C   UNL A   1      44.959  25.934  25.376  1.00  0.00     0.073 A 
ATOM     14  C   UNL A   1      47.308  25.562  24.885  1.00  0.00     0.049 A 
ATOM     15  N   UNL A   1      44.649  24.699  24.980  1.00  0.00    -0.241 NA
ATOM     16  C   UNL A   1      46.969  24.252  24.520  1.00  0.00     0.062 A 
BRANCH  14  17
ATOM     17  N   UNL A   1      48.626  26.001  24.798  1.00  0.00    -0.366 N 
ATOM     18  C   UNL A   1      49.607  25.545  25.798  1.00  0.00     0.145 C 
ATOM     19  C   UNL A   1      49.226  26.358  23.505  1.00  0.00     0.145 C 
ATOM     20  C   UNL A   1      50.693  26.625  25.950  1.00  0.00     0.181 C 
ATOM     21  C   UNL A   1      50.334  27.398  23.744  1.00  0.00     0.181 C 
ATOM     22  O   UNL A   1      51.313  26.926  24.686  1.00  0.00    -0.378 OA
ENDBRANCH  14  17
ENDBRANCH   4   6
ENDBRANCH   3   4
ENDBRANCH   2   3
ENDBRANCH   1   2
BRANCH   1  23
ATOM     23  O   UNL A   1      43.129  19.676  24.829  1.00  0.00    -0.458 OA
BRANCH  23  24
ATOM     24  C   UNL A   1      42.162  19.641  25.775  1.00  0.00     0.338 C 
ATOM     25  O   UNL A   1      41.445  18.700  26.069  1.00  0.00    -0.246 OA
BRANCH  24  26
ATOM     26  C   UNL A   1      42.130  20.919  26.502  1.00  0.00     0.060 A 
ATOM     27  C   UNL A   1      42.090  22.089  25.751  1.00  0.00     0.016 A 
ATOM     28  C   UNL A   1      42.278  20.982  27.886  1.00  0.00     0.016 A 
ATOM     29  C   UNL A   1      42.248  23.328  26.358  1.00  0.00     0.010 A 
ATOM     30  C   UNL A   1      42.389  22.235  28.509  1.00  0.00     0.010 A 
ATOM     31  C   UNL A   1      42.401  23.418  27.746  1.00  0.00    -0.014 A 
BRANCH  31  32
ATOM     32  C   UNL A   1      42.631  24.751  28.362  1.00  0.00     0.031 A 
ATOM     33  C   UNL A   1      44.009  25.148  28.812  1.00  0.00     0.074 A 
ATOM     34  C   UNL A   1      41.619  25.637  28.454  1.00  0.00     0.049 A 
ATOM     35  N   UNL A   1      44.395  26.227  29.447  1.00  0.00    -0.248 NA
ATOM     36  C   UNL A   1      45.099  24.209  28.508  1.00  0.00     0.031 C 
ATOM     37  C   UNL A   1      40.250  25.409  27.992  1.00  0.00     0.029 A 
ATOM     38  N   UNL A   1      41.593  26.915  28.953  1.00  0.00    -0.354 N 
ATOM     39  C   UNL A   1      45.759  26.077  29.656  1.00  0.00     0.074 A 
ATOM     40  C   UNL A   1      46.136  24.802  29.084  1.00  0.00     0.031 C 
ATOM     41  C   UNL A   1      39.525  26.518  28.199  1.00  0.00     0.029 A 
ATOM     42  C   UNL A   1      40.358  27.513  28.870  1.00  0.00     0.049 A 
ATOM     43  H   UNL A   1      42.382  27.363  29.334  1.00  0.00     0.167 HD
ATOM     44  C   UNL A   1      46.619  26.924  30.271  1.00  0.00     0.037 A 
ATOM     45  C   UNL A   1      39.934  28.712  29.310  1.00  0.00     0.037 A 
ATOM     46  C   UNL A   1      46.254  28.212  30.802  1.00  0.00     0.049 A 
ATOM     47  C   UNL A   1      40.896  29.616  30.028  1.00  0.00     0.074 A 
ATOM     48  C   UNL A   1      47.057  29.142  31.439  1.00  0.00     0.029 A 
ATOM     49  N   UNL A   1      44.980  28.756  30.745  1.00  0.00    -0.354 N 
ATOM     50  N   UNL A   1      42.172  29.437  30.269  1.00  0.00    -0.248 NA
ATOM     51  C   UNL A   1      40.354  30.876  30.552  1.00  0.00     0.031 C 
ATOM     52  C   UNL A   1      46.262  30.237  31.795  1.00  0.00     0.029 A 
ATOM     53  C   UNL A   1      44.972  30.004  31.348  1.00  0.00     0.049 A 
ATOM     54  H   UNL A   1      44.197  28.321  30.337  1.00  0.00     0.167 HD
ATOM     55  C   UNL A   1      42.587  30.563  30.966  1.00  0.00     0.074 A 
ATOM     56  C   UNL A   1      41.432  31.429  31.091  1.00  0.00     0.031 C 
ATOM     57  C   UNL A   1      43.813  30.851  31.465  1.00  0.00     0.037 A 
BRANCH  44  58
ATOM     58  C   UNL A   1      48.036  26.465  30.435  1.00  0.00     0.057 A 
ATOM     59  C   UNL A   1      48.453  25.718  31.543  1.00  0.00     0.134 A 
ATOM     60  C   UNL A   1      48.993  26.758  29.454  1.00  0.00     0.134 A 
ATOM     61  F   UNL A   1      47.590  25.417  32.524  1.00  0.00    -0.206 F 
ATOM     62  C   UNL A   1      49.778  25.296  31.680  1.00  0.00     0.040 A 
ATOM     63  C   UNL A   1      50.313  26.323  29.568  1.00  0.00     0.040 A 
ATOM     64  F   UNL A   1      48.656  27.466  28.365  1.00  0.00    -0.206 F 
ATOM     65  C   UNL A   1      50.710  25.594  30.687  1.00  0.00     0.006 A 
ENDBRANCH  44  58
BRANCH  45  66
ATOM     66  C   UNL A   1      38.520  29.113  29.116  1.00  0.00     0.057 A 
ATOM     67  C   UNL A   1      37.591  29.024  30.159  1.00  0.00     0.134 A 
ATOM     68  C   UNL A   1      38.062  29.598  27.884  1.00  0.00     0.134 A 
ATOM     69  F   UNL A   1      37.964  28.543  31.354  1.00  0.00    -0.206 F 
ATOM     70  C   UNL A   1      36.259  29.398  29.984  1.00  0.00     0.040 A 
ATOM     71  C   UNL A   1      36.738  29.998  27.702  1.00  0.00     0.040 A 
ATOM     72  F   UNL A   1      38.902  29.703  26.844  1.00  0.00    -0.206 F 
ATOM     73  C   UNL A   1      35.830  29.895  28.754  1.00  0.00     0.006 A 
ENDBRANCH  45  66
BRANCH  57  74
ATOM     74  C   UNL A   1      43.968  32.161  32.176  1.00  0.00     0.057 A 
ATOM     75  C   UNL A   1      43.784  32.271  33.560  1.00  0.00     0.134 A 
ATOM     76  C   UNL A   1      44.334  33.317  31.475  1.00  0.00     0.134 A 
ATOM     77  F   UNL A   1      43.420  31.202  34.284  1.00  0.00    -0.206 F 
ATOM     78  C   UNL A   1      43.941  33.491  34.221  1.00  0.00     0.040 A 
ATOM     79  C   UNL A   1      44.513  34.537  32.127  1.00  0.00     0.040 A 
ATOM     80  F   UNL A   1      44.530  33.276  30.149  1.00  0.00    -0.206 F 
ATOM     81  C   UNL A   1      44.312  34.627  33.503  1.00  0.00     0.006 A 
ENDBRANCH  57  74
ENDBRANCH  31  32
ENDBRANCH  24  26
ENDBRANCH  23  24
ENDBRANCH   1  23
TORSDOF 12
ENDMDL
MODEL 2
REMARK VINA RESULT:      -9.8      4.819     10.112
REMARK SMILES Cc1ccc2nc(C(=O)OCCOC(=O)c3ccc(-c4c5nc(c(-c6c(F)cccc6F)c6ccc([nH]6)c(-c6c(F)cccc6F)c6nc(c(-c7c(F)cccc7F)c7ccc4[nH]7)C=C6)C=C5)cc3)cc(N3CCOCC3)c2c1
REMARK SMILES IDX 12 1 11 2 10 3 8 4 9 5 7 6 1 7 2 8 3 9 79 10 4 11 78 12 5 13
REMARK SMILES IDX 71 14 6 15 70 16 72 17 73 18 77 19 74 20 76 21 75 22 13 23
REMARK SMILES IDX 14 24 15 25 16 26 17 27 69 28 18 29 68 30 19 31 20 32 21 33
REMARK SMILES IDX 62 34 22 35 67 36 61 37 63 38 23 39 66 40 60 41 59 42 24 44
REMARK SMILES IDX 50 45 33 46 49 47 34 48 37 49 48 50 64 51 35 52 36 53 47 55
REMARK SMILES IDX 65 56 38 57 25 58 26 59 31 60 27 61 28 62 30 63 32 64 29 65
REMARK SMILES IDX 51 66 52 67 57 68 53 69 54 70 56 71 58 72 55 73 39 74 40 75
REMARK SMILES IDX 45 76 41 77 42 78 44 79 46 80 43 81
REMARK H PARENT 63 43 37 54
REMARK Flexibility Score: inf
ROOT
ATOM      1  C   UNL A   1      33.120  28.760  26.566  1.00  0.00     0.275 C 
ENDROOT
BRANCH   1   2
ATOM      2  C   UNL A   1      33.660  27.823  25.481  1.00  0.00     0.275 C 
BRANCH   2   3
ATOM      3  O   UNL A   1      33.927  26.501  25.997  1.00  0.00    -0.457 OA
BRANCH   3   4
ATOM      4  C   UNL A   1      33.090  25.529  25.549  1.00  0.00     0.357 C 
ATOM      5  O   UNL A   1      31.928  25.698  25.206  1.00  0.00    -0.244 OA
BRANCH   4   6
ATOM      6  C   UNL A   1      33.794  24.214  25.431  1.00  0.00     0.151 A 
ATOM      7  C   UNL A   1      38.467  19.766  25.021  1.00  0.00     0.044 C 
ATOM      8  C   UNL A   1      37.570  20.953  25.204  1.00  0.00    -0.050 A 
ATOM      9  C   UNL A   1      38.092  22.201  25.522  1.00  0.00     0.005 A 
ATOM     10  C   UNL A   1      36.186  20.829  25.025  1.00  0.00     0.016 A 
ATOM     11  C   UNL A   1      37.238  23.299  25.626  1.00  0.00     0.029 A 
ATOM     12  C   UNL A   1      35.298  21.924  25.191  1.00  0.00     0.024 A 
ATOM     13  C   UNL A   1      35.867  23.183  25.451  1.00  0.00     0.073 A 
ATOM     14  C   UNL A   1      33.874  21.847  25.073  1.00  0.00     0.049 A 
ATOM     15  N   UNL A   1      35.141  24.298  25.532  1.00  0.00    -0.241 NA
ATOM     16  C   UNL A   1      33.125  23.024  25.212  1.00  0.00     0.062 A 
BRANCH  14  17
ATOM     17  N   UNL A   1      33.245  20.636  24.805  1.00  0.00    -0.366 N 
ATOM     18  C   UNL A   1      32.850  19.762  25.925  1.00  0.00     0.145 C 
ATOM     19  C   UNL A   1      32.423  20.455  23.600  1.00  0.00     0.145 C 
ATOM     20  C   UNL A   1      32.862  18.303  25.437  1.00  0.00     0.181 C 
ATOM     21  C   UNL A   1      32.441  18.967  23.207  1.00  0.00     0.181 C 
ATOM     22  O   UNL A   1      32.010  18.125  24.291  1.00  0.00    -0.378 OA
ENDBRANCH  14  17
ENDBRANCH   4   6
ENDBRANCH   3   4
ENDBRANCH   2   3
ENDBRANCH   1   2
BRANCH   1  23
ATOM     23  O   UNL A   1      34.010  28.833  27.697  1.00  0.00    -0.458 OA
BRANCH  23  24
ATOM     24  C   UNL A   1      34.595  30.035  27.895  1.00  0.00     0.338 C 
ATOM     25  O   UNL A   1      34.065  31.134  27.868  1.00  0.00    -0.246 OA
BRANCH  24  26
ATOM     26  C   UNL A   1      36.012  29.849  28.244  1.00  0.00     0.060 A 
ATOM     27  C   UNL A   1      36.956  30.066  27.247  1.00  0.00     0.016 A 
ATOM     28  C   UNL A   1      36.404  29.336  29.479  1.00  0.00     0.016 A 
ATOM     29  C   UNL A   1      38.289  29.728  27.447  1.00  0.00     0.010 A 
ATOM     30  C   UNL A   1      37.757  29.039  29.701  1.00  0.00     0.010 A 
ATOM     31  C   UNL A   1      38.708  29.209  28.676  1.00  0.00    -0.014 A 
BRANCH  31  32
ATOM     32  C   UNL A   1      40.127  28.799  28.841  1.00  0.00     0.031 A 
ATOM     33  C   UNL A   1      41.114  29.734  29.483  1.00  0.00     0.074 A 
ATOM     34  C   UNL A   1      40.519  27.560  28.483  1.00  0.00     0.049 A 
ATOM     35  N   UNL A   1      42.407  29.594  29.638  1.00  0.00    -0.248 NA
ATOM     36  C   UNL A   1      40.578  30.993  30.020  1.00  0.00     0.031 C 
ATOM     37  C   UNL A   1      39.649  26.528  27.916  1.00  0.00     0.029 A 
ATOM     38  N   UNL A   1      41.748  26.953  28.561  1.00  0.00    -0.354 N 
ATOM     39  C   UNL A   1      42.844  30.761  30.250  1.00  0.00     0.074 A 
ATOM     40  C   UNL A   1      41.680  31.601  30.437  1.00  0.00     0.031 C 
ATOM     41  C   UNL A   1      40.363  25.409  27.726  1.00  0.00     0.029 A 
ATOM     42  C   UNL A   1      41.753  25.661  28.093  1.00  0.00     0.049 A 
ATOM     43  H   UNL A   1      42.549  27.400  28.917  1.00  0.00     0.167 HD
ATOM     44  C   UNL A   1      44.101  31.102  30.623  1.00  0.00     0.037 A 
ATOM     45  C   UNL A   1      42.767  24.787  27.948  1.00  0.00     0.037 A 
ATOM     46  C   UNL A   1      45.253  30.249  30.478  1.00  0.00     0.049 A 
ATOM     47  C   UNL A   1      44.160  25.204  28.326  1.00  0.00     0.074 A 
ATOM     48  C   UNL A   1      46.567  30.506  30.828  1.00  0.00     0.029 A 
ATOM     49  N   UNL A   1      45.225  28.968  29.949  1.00  0.00    -0.354 N 
ATOM     50  N   UNL A   1      44.568  26.333  28.853  1.00  0.00    -0.248 NA
ATOM     51  C   UNL A   1      45.233  24.235  28.071  1.00  0.00     0.031 C 
ATOM     52  C   UNL A   1      47.339  29.392  30.484  1.00  0.00     0.029 A 
ATOM     53  C   UNL A   1      46.500  28.427  29.952  1.00  0.00     0.049 A 
ATOM     54  H   UNL A   1      44.417  28.510  29.621  1.00  0.00     0.167 HD
ATOM     55  C   UNL A   1      45.943  26.208  28.998  1.00  0.00     0.074 A 
ATOM     56  C   UNL A   1      46.296  24.884  28.523  1.00  0.00     0.031 C 
ATOM     57  C   UNL A   1      46.834  27.110  29.474  1.00  0.00     0.037 A 
BRANCH  44  58
ATOM     58  C   UNL A   1      44.302  32.474  31.189  1.00  0.00     0.057 A 
ATOM     59  C   UNL A   1      44.544  33.588  30.377  1.00  0.00     0.134 A 
ATOM     60  C   UNL A   1      44.228  32.686  32.573  1.00  0.00     0.134 A 
ATOM     61  F   UNL A   1      44.642  33.450  29.046  1.00  0.00    -0.206 F 
ATOM     62  C   UNL A   1      44.727  34.861  30.922  1.00  0.00     0.040 A 
ATOM     63  C   UNL A   1      44.386  33.956  33.127  1.00  0.00     0.040 A 
ATOM     64  F   UNL A   1      43.994  31.661  33.407  1.00  0.00    -0.206 F 
ATOM     65  C   UNL A   1      44.642  35.048  32.300  1.00  0.00     0.006 A 
ENDBRANCH  44  58
BRANCH  45  66
ATOM     66  C   UNL A   1      42.506  23.441  27.383  1.00  0.00     0.057 A 
ATOM     67  C   UNL A   1      42.159  22.364  28.205  1.00  0.00     0.134 A 
ATOM     68  C   UNL A   1      42.594  23.200  26.005  1.00  0.00     0.134 A 
ATOM     69  F   UNL A   1      42.085  22.526  29.534  1.00  0.00    -0.206 F 
ATOM     70  C   UNL A   1      41.914  21.094  27.680  1.00  0.00     0.040 A 
ATOM     71  C   UNL A   1      42.328  21.942  25.465  1.00  0.00     0.040 A 
ATOM     72  F   UNL A   1      42.926  24.191  25.165  1.00  0.00    -0.206 F 
ATOM     73  C   UNL A   1      41.990  20.883  26.304  1.00  0.00     0.006 A 
ENDBRANCH  45  66
BRANCH  57  74
ATOM     74  C   UNL A   1      48.271  26.689  29.519  1.00  0.00     0.057 A 
ATOM     75  C   UNL A   1      48.797  25.990  30.613  1.00  0.00     0.134 A 
ATOM     76  C   UNL A   1      49.130  26.959  28.446  1.00  0.00     0.134 A 
ATOM     77  F   UNL A   1      48.028  25.715  31.676  1.00  0.00    -0.206 F 
ATOM     78  C   UNL A   1      50.134  25.589  30.646  1.00  0.00     0.040 A 
ATOM     79  C   UNL A   1      50.463  26.545  28.460  1.00  0.00     0.040 A 
ATOM     80  F   UNL A   1      48.686  27.620  27.367  1.00  0.00    -0.206 F 
ATOM     81  C   UNL A   1      50.969  25.863  29.564  1.00  0.00     0.006 A 
ENDBRANCH  57  74
ENDBRANCH  31  32
ENDBRANCH  24  26
ENDBRANCH  23  24
ENDBRANCH   1  23
TORSDOF 12
ENDMDL
MODEL 3
REMARK VINA RESULT:      -9.7      4.920      8.889
REMARK SMILES Cc1ccc2nc(C(=O)OCCOC(=O)c3ccc(-c4c5nc(c(-c6c(F)cccc6F)c6ccc([nH]6)c(-c6c(F)cccc6F)c6nc(c(-c7c(F)cccc7F)c7ccc4[nH]7)C=C6)C=C5)cc3)cc(N3CCOCC3)c2c1
REMARK SMILES IDX 12 1 11 2 10 3 8 4 9 5 7 6 1 7 2 8 3 9 79 10 4 11 78 12 5 13
REMARK SMILES IDX 71 14 6 15 70 16 72 17 73 18 77 19 74 20 76 21 75 22 13 23
REMARK SMILES IDX 14 24 15 25 16 26 17 27 69 28 18 29 68 30 19 31 20 32 21 33
REMARK SMILES IDX 62 34 22 35 67 36 61 37 63 38 23 39 66 40 60 41 59 42 24 44
REMARK SMILES IDX 50 45 33 46 49 47 34 48 37 49 48 50 64 51 35 52 36 53 47 55
REMARK SMILES IDX 65 56 38 57 25 58 26 59 31 60 27 61 28 62 30 63 32 64 29 65
REMARK SMILES IDX 51 66 52 67 57 68 53 69 54 70 56 71 58 72 55 73 39 74 40 75
REMARK SMILES IDX 45 76 41 77 42 78 44 79 46 80 43 81
REMARK H PARENT 63 43 37 54
REMARK Flexibility Score: inf
ROOT
ATOM      1  C   UNL A   1      36.432  23.508  25.618  1.00  0.00     0.275 C 
ENDROOT
BRANCH   1   2
ATOM      2  C   UNL A   1      35.456  23.726  24.458  1.00  0.00     0.275 C 
BRANCH   2   3
ATOM      3  O   UNL A   1      34.518  24.787  24.737  1.00  0.00    -0.457 OA
BRANCH   3   4
ATOM      4  C   UNL A   1      33.951  25.357  23.642  1.00  0.00     0.357 C 
ATOM      5  O   UNL A   1      33.944  24.877  22.517  1.00  0.00    -0.244 OA
BRANCH   4   6
ATOM      6  C   UNL A   1      33.237  26.624  23.994  1.00  0.00     0.151 A 
ATOM      7  C   UNL A   1      31.537  32.076  27.024  1.00  0.00     0.044 C 
ATOM      8  C   UNL A   1      32.152  30.833  26.455  1.00  0.00    -0.050 A 
ATOM      9  C   UNL A   1      33.345  30.330  26.958  1.00  0.00     0.005 A 
ATOM     10  C   UNL A   1      31.512  30.137  25.421  1.00  0.00     0.016 A 
ATOM     11  C   UNL A   1      33.861  29.139  26.449  1.00  0.00     0.029 A 
ATOM     12  C   UNL A   1      32.058  28.958  24.849  1.00  0.00     0.024 A 
ATOM     13  C   UNL A   1      33.234  28.445  25.424  1.00  0.00     0.073 A 
ATOM     14  C   UNL A   1      31.479  28.235  23.758  1.00  0.00     0.049 A 
ATOM     15  N   UNL A   1      33.785  27.296  25.034  1.00  0.00    -0.241 NA
ATOM     16  C   UNL A   1      32.103  27.055  23.329  1.00  0.00     0.062 A 
BRANCH  14  17
ATOM     17  N   UNL A   1      30.310  28.677  23.148  1.00  0.00    -0.366 N 
ATOM     18  C   UNL A   1      30.397  29.611  22.011  1.00  0.00     0.145 C 
ATOM     19  C   UNL A   1      29.095  27.851  23.139  1.00  0.00     0.145 C 
ATOM     20  C   UNL A   1      29.120  30.470  21.982  1.00  0.00     0.181 C 
ATOM     21  C   UNL A   1      27.868  28.775  23.056  1.00  0.00     0.181 C 
ATOM     22  O   UNL A   1      27.938  29.651  21.916  1.00  0.00    -0.378 OA
ENDBRANCH  14  17
ENDBRANCH   4   6
ENDBRANCH   3   4
ENDBRANCH   2   3
ENDBRANCH   1   2
BRANCH   1  23
ATOM     23  O   UNL A   1      37.797  23.731  25.213  1.00  0.00    -0.458 OA
BRANCH  23  24
ATOM     24  C   UNL A   1      38.736  23.274  26.072  1.00  0.00     0.338 C 
ATOM     25  O   UNL A   1      39.137  22.128  26.194  1.00  0.00    -0.246 OA
BRANCH  24  26
ATOM     26  C   UNL A   1      39.308  24.397  26.830  1.00  0.00     0.060 A 
ATOM     27  C   UNL A   1      38.994  24.489  28.182  1.00  0.00     0.016 A 
ATOM     28  C   UNL A   1      40.020  25.419  26.206  1.00  0.00     0.016 A 
ATOM     29  C   UNL A   1      39.338  25.618  28.914  1.00  0.00     0.010 A 
ATOM     30  C   UNL A   1      40.412  26.539  26.955  1.00  0.00     0.010 A 
ATOM     31  C   UNL A   1      40.051  26.659  28.311  1.00  0.00    -0.014 A 
BRANCH  31  32
ATOM     32  C   UNL A   1      40.352  27.882  29.101  1.00  0.00     0.031 A 
ATOM     33  C   UNL A   1      41.698  28.051  29.749  1.00  0.00     0.074 A 
ATOM     34  C   UNL A   1      39.446  28.877  29.180  1.00  0.00     0.049 A 
ATOM     35  N   UNL A   1      42.121  29.001  30.545  1.00  0.00    -0.248 NA
ATOM     36  C   UNL A   1      42.702  27.015  29.465  1.00  0.00     0.031 C 
ATOM     37  C   UNL A   1      38.129  28.874  28.540  1.00  0.00     0.029 A 
ATOM     38  N   UNL A   1      39.503  30.090  29.818  1.00  0.00    -0.354 N 
ATOM     39  C   UNL A   1      43.420  28.656  30.891  1.00  0.00     0.074 A 
ATOM     40  C   UNL A   1      43.718  27.408  30.220  1.00  0.00     0.031 C 
ATOM     41  C   UNL A   1      37.517  30.041  28.791  1.00  0.00     0.029 A 
ATOM     42  C   UNL A   1      38.366  30.847  29.664  1.00  0.00     0.049 A 
ATOM     43  H   UNL A   1      40.284  30.391  30.337  1.00  0.00     0.167 HD
ATOM     44  C   UNL A   1      44.286  29.319  31.695  1.00  0.00     0.037 A 
ATOM     45  C   UNL A   1      38.031  32.040  30.190  1.00  0.00     0.037 A 
ATOM     46  C   UNL A   1      44.007  30.582  32.327  1.00  0.00     0.049 A 
ATOM     47  C   UNL A   1      38.990  32.734  31.114  1.00  0.00     0.074 A 
ATOM     48  C   UNL A   1      44.823  31.331  33.157  1.00  0.00     0.029 A 
ATOM     49  N   UNL A   1      42.822  31.288  32.189  1.00  0.00    -0.354 N 
ATOM     50  N   UNL A   1      40.196  32.369  31.477  1.00  0.00    -0.248 NA
ATOM     51  C   UNL A   1      38.534  33.994  31.717  1.00  0.00     0.031 C 
ATOM     52  C   UNL A   1      44.121  32.477  33.544  1.00  0.00     0.029 A 
ATOM     53  C   UNL A   1      42.880  32.458  32.928  1.00  0.00     0.049 A 
ATOM     54  H   UNL A   1      42.053  31.001  31.645  1.00  0.00     0.167 HD
ATOM     55  C   UNL A   1      40.645  33.356  32.344  1.00  0.00     0.074 A 
ATOM     56  C   UNL A   1      39.590  34.346  32.436  1.00  0.00     0.031 C 
ATOM     57  C   UNL A   1      41.822  33.431  33.011  1.00  0.00     0.037 A 
BRANCH  44  58
ATOM     58  C   UNL A   1      45.608  28.667  31.966  1.00  0.00     0.057 A 
ATOM     59  C   UNL A   1      46.740  28.924  31.184  1.00  0.00     0.134 A 
ATOM     60  C   UNL A   1      45.754  27.784  33.045  1.00  0.00     0.134 A 
ATOM     61  F   UNL A   1      46.664  29.748  30.128  1.00  0.00    -0.206 F 
ATOM     62  C   UNL A   1      47.965  28.310  31.452  1.00  0.00     0.040 A 
ATOM     63  C   UNL A   1      46.977  27.181  33.336  1.00  0.00     0.040 A 
ATOM     64  F   UNL A   1      44.708  27.498  33.836  1.00  0.00    -0.206 F 
ATOM     65  C   UNL A   1      48.087  27.439  32.534  1.00  0.00     0.006 A 
ENDBRANCH  44  58
BRANCH  45  66
ATOM     66  C   UNL A   1      36.708  32.636  29.884  1.00  0.00     0.057 A 
ATOM     67  C   UNL A   1      35.588  32.364  30.677  1.00  0.00     0.134 A 
ATOM     68  C   UNL A   1      36.532  33.497  28.792  1.00  0.00     0.134 A 
ATOM     69  F   UNL A   1      35.688  31.527  31.720  1.00  0.00    -0.206 F 
ATOM     70  C   UNL A   1      34.340  32.920  30.394  1.00  0.00     0.040 A 
ATOM     71  C   UNL A   1      35.296  34.080  28.513  1.00  0.00     0.040 A 
ATOM     72  F   UNL A   1      37.566  33.795  27.992  1.00  0.00    -0.206 F 
ATOM     73  C   UNL A   1      34.194  33.788  29.313  1.00  0.00     0.006 A 
ENDBRANCH  45  66
BRANCH  57  74
ATOM     74  C   UNL A   1      42.035  34.631  33.883  1.00  0.00     0.057 A 
ATOM     75  C   UNL A   1      41.674  34.627  35.236  1.00  0.00     0.134 A 
ATOM     76  C   UNL A   1      42.632  35.790  33.372  1.00  0.00     0.134 A 
ATOM     77  F   UNL A   1      41.085  33.552  35.779  1.00  0.00    -0.206 F 
ATOM     78  C   UNL A   1      41.885  35.743  36.048  1.00  0.00     0.040 A 
ATOM     79  C   UNL A   1      42.866  36.904  34.179  1.00  0.00     0.040 A 
ATOM     80  F   UNL A   1      43.006  35.854  32.085  1.00  0.00    -0.206 F 
ATOM     81  C   UNL A   1      42.487  36.884  35.520  1.00  0.00     0.006 A 
ENDBRANCH  57  74
ENDBRANCH  31  32
ENDBRANCH  24  26
ENDBRANCH  23  24
ENDBRANCH   1  23
TORSDOF 12
ENDMDL
