MODEL 1
REMARK VINA RESULT:     -11.4      0.000      0.000
REMARK SMILES O=C(Cc1csc(Sc2ncnc3c2CCCC3)n1)OCCOC(=O)c1ccc(-c2c3nc(c(-c4c(F)cccc4F)c4ccc([nH]4)c(-c4c(F)cccc4F)c4nc(c(-c5c(F)cccc5F)c5ccc2[nH]5)C=C4)C=C3)cc1
REMARK SMILES IDX 21 1 20 2 2 3 1 4 3 5 4 6 5 7 19 8 6 9 7 10 8 11 9 12 10 13
REMARK SMILES IDX 14 14 11 15 13 16 15 17 12 18 18 19 16 20 17 21 22 22 23 23
REMARK SMILES IDX 24 24 25 25 26 26 27 27 79 28 28 29 78 30 29 31 30 32 31 33
REMARK SMILES IDX 72 34 32 35 77 36 71 37 73 38 33 39 76 40 70 41 69 42 34 44
REMARK SMILES IDX 60 45 43 46 59 47 44 48 47 49 58 50 74 51 45 52 46 53 57 55
REMARK SMILES IDX 75 56 48 57 35 58 36 59 41 60 37 61 38 62 40 63 42 64 39 65
REMARK SMILES IDX 61 66 62 67 67 68 63 69 64 70 66 71 68 72 65 73 49 74 50 75
REMARK SMILES IDX 55 76 51 77 52 78 54 79 56 80 53 81
REMARK H PARENT 73 43 47 54
REMARK Flexibility Score: inf
ROOT
ATOM      1  C   UNL A   1      43.959  20.409  25.306  1.00  0.00     0.274 C 
ENDROOT
BRANCH   1   2
ATOM      2  O   UNL A   1      42.582  20.837  25.408  1.00  0.00    -0.462 OA
BRANCH   2   3
ATOM      3  C   UNL A   1      41.595  20.172  26.054  1.00  0.00     0.312 C 
ATOM      4  O   UNL A   1      41.365  18.996  25.777  1.00  0.00    -0.252 OA
BRANCH   3   5
ATOM      5  C   UNL A   1      40.820  20.878  27.136  1.00  0.00     0.179 C 
BRANCH   5   6
ATOM      6  C   UNL A   1      39.756  21.793  26.636  1.00  0.00     0.064 A 
ATOM      7  C   UNL A   1      39.542  23.124  26.944  1.00  0.00     0.092 A 
ATOM      8  N   UNL A   1      38.848  21.266  25.725  1.00  0.00    -0.234 NA
ATOM      9  S   UNL A   1      38.151  23.704  26.132  1.00  0.00    -0.116 S 
ATOM     10  C   UNL A   1      37.915  22.150  25.442  1.00  0.00     0.156 A 
BRANCH  10  11
ATOM     11  S   UNL A   1      36.570  21.828  24.366  1.00  0.00    -0.039 SA
BRANCH  11  12
ATOM     12  C   UNL A   1      35.214  22.291  25.435  1.00  0.00     0.110 A 
ATOM     13  N   UNL A   1      34.972  21.442  26.456  1.00  0.00    -0.229 NA
ATOM     14  C   UNL A   1      34.528  23.494  25.266  1.00  0.00     0.006 A 
ATOM     15  C   UNL A   1      33.995  21.793  27.290  1.00  0.00     0.223 A 
ATOM     16  C   UNL A   1      33.540  23.754  26.208  1.00  0.00     0.048 A 
ATOM     17  C   UNL A   1      34.896  24.506  24.215  1.00  0.00     0.040 C 
ATOM     18  N   UNL A   1      33.263  22.910  27.222  1.00  0.00    -0.241 NA
ATOM     19  C   UNL A   1      32.685  24.993  26.127  1.00  0.00     0.056 C 
ATOM     20  C   UNL A   1      33.895  25.652  24.053  1.00  0.00     0.005 C 
ATOM     21  C   UNL A   1      33.388  26.136  25.404  1.00  0.00     0.007 C 
ENDBRANCH  11  12
ENDBRANCH  10  11
ENDBRANCH   5   6
ENDBRANCH   3   5
ENDBRANCH   2   3
ENDBRANCH   1   2
BRANCH   1  22
ATOM     22  C   UNL A   1      44.903  21.610  25.221  1.00  0.00     0.275 C 
BRANCH  22  23
ATOM     23  O   UNL A   1      44.479  22.632  26.139  1.00  0.00    -0.458 OA
BRANCH  23  24
ATOM     24  C   UNL A   1      44.464  23.897  25.646  1.00  0.00     0.338 C 
ATOM     25  O   UNL A   1      44.811  24.249  24.537  1.00  0.00    -0.246 OA
BRANCH  24  26
ATOM     26  C   UNL A   1      43.781  24.788  26.613  1.00  0.00     0.060 A 
ATOM     27  C   UNL A   1      44.193  26.126  26.672  1.00  0.00     0.016 A 
ATOM     28  C   UNL A   1      42.747  24.335  27.440  1.00  0.00     0.016 A 
ATOM     29  C   UNL A   1      43.595  27.003  27.579  1.00  0.00     0.010 A 
ATOM     30  C   UNL A   1      42.149  25.217  28.347  1.00  0.00     0.010 A 
ATOM     31  C   UNL A   1      42.586  26.548  28.439  1.00  0.00    -0.014 A 
BRANCH  31  32
ATOM     32  C   UNL A   1      42.070  27.429  29.514  1.00  0.00     0.031 A 
ATOM     33  C   UNL A   1      42.703  27.385  30.874  1.00  0.00     0.074 A 
ATOM     34  C   UNL A   1      41.068  28.296  29.288  1.00  0.00     0.049 A 
ATOM     35  N   UNL A   1      42.391  28.057  31.952  1.00  0.00    -0.248 NA
ATOM     36  C   UNL A   1      43.850  26.477  31.035  1.00  0.00     0.031 C 
ATOM     37  C   UNL A   1      40.402  28.503  28.007  1.00  0.00     0.029 A 
ATOM     38  N   UNL A   1      40.430  29.157  30.148  1.00  0.00    -0.354 N 
ATOM     39  C   UNL A   1      43.336  27.701  32.902  1.00  0.00     0.074 A 
ATOM     40  C   UNL A   1      44.182  26.692  32.300  1.00  0.00     0.031 C 
ATOM     41  C   UNL A   1      39.430  29.415  28.175  1.00  0.00     0.029 A 
ATOM     42  C   UNL A   1      39.374  29.817  29.575  1.00  0.00     0.049 A 
ATOM     43  H   UNL A   1      40.704  29.286  31.085  1.00  0.00     0.167 HD
ATOM     44  C   UNL A   1      43.511  28.198  34.149  1.00  0.00     0.037 A 
ATOM     45  C   UNL A   1      38.442  30.625  30.111  1.00  0.00     0.037 A 
ATOM     46  C   UNL A   1      42.660  29.178  34.770  1.00  0.00     0.049 A 
ATOM     47  C   UNL A   1      38.511  30.993  31.559  1.00  0.00     0.074 A 
ATOM     48  C   UNL A   1      42.779  29.750  36.026  1.00  0.00     0.029 A 
ATOM     49  N   UNL A   1      41.523  29.721  34.193  1.00  0.00    -0.354 N 
ATOM     50  N   UNL A   1      39.408  30.653  32.449  1.00  0.00    -0.248 NA
ATOM     51  C   UNL A   1      37.449  31.869  32.073  1.00  0.00     0.031 C 
ATOM     52  C   UNL A   1      41.687  30.602  36.226  1.00  0.00     0.029 A 
ATOM     53  C   UNL A   1      40.912  30.595  35.078  1.00  0.00     0.049 A 
ATOM     54  H   UNL A   1      41.198  29.515  33.287  1.00  0.00     0.167 HD
ATOM     55  C   UNL A   1      39.050  31.311  33.617  1.00  0.00     0.074 A 
ATOM     56  C   UNL A   1      37.837  32.049  33.330  1.00  0.00     0.031 C 
ATOM     57  C   UNL A   1      39.698  31.321  34.806  1.00  0.00     0.037 A 
BRANCH  44  58
ATOM     58  C   UNL A   1      44.692  27.693  34.916  1.00  0.00     0.057 A 
ATOM     59  C   UNL A   1      45.941  28.322  34.823  1.00  0.00     0.134 A 
ATOM     60  C   UNL A   1      44.580  26.591  35.769  1.00  0.00     0.134 A 
ATOM     61  F   UNL A   1      46.113  29.374  34.009  1.00  0.00    -0.206 F 
ATOM     62  C   UNL A   1      47.043  27.859  35.540  1.00  0.00     0.040 A 
ATOM     63  C   UNL A   1      45.672  26.131  36.507  1.00  0.00     0.040 A 
ATOM     64  F   UNL A   1      43.412  25.946  35.900  1.00  0.00    -0.206 F 
ATOM     65  C   UNL A   1      46.908  26.764  36.391  1.00  0.00     0.006 A 
ENDBRANCH  44  58
BRANCH  45  66
ATOM     66  C   UNL A   1      37.328  31.104  29.263  1.00  0.00     0.057 A 
ATOM     67  C   UNL A   1      36.226  30.297  28.971  1.00  0.00     0.134 A 
ATOM     68  C   UNL A   1      37.339  32.406  28.749  1.00  0.00     0.134 A 
ATOM     69  F   UNL A   1      36.181  29.031  29.411  1.00  0.00    -0.206 F 
ATOM     70  C   UNL A   1      35.159  30.775  28.208  1.00  0.00     0.040 A 
ATOM     71  C   UNL A   1      36.270  32.905  28.004  1.00  0.00     0.040 A 
ATOM     72  F   UNL A   1      38.397  33.202  28.960  1.00  0.00    -0.206 F 
ATOM     73  C   UNL A   1      35.175  32.087  27.733  1.00  0.00     0.006 A 
ENDBRANCH  45  66
BRANCH  57  74
ATOM     74  C   UNL A   1      39.139  32.197  35.885  1.00  0.00     0.057 A 
ATOM     75  C   UNL A   1      39.518  33.537  36.026  1.00  0.00     0.134 A 
ATOM     76  C   UNL A   1      38.180  31.697  36.777  1.00  0.00     0.134 A 
ATOM     77  F   UNL A   1      40.445  34.069  35.214  1.00  0.00    -0.206 F 
ATOM     78  C   UNL A   1      38.972  34.346  37.023  1.00  0.00     0.040 A 
ATOM     79  C   UNL A   1      37.612  32.502  37.764  1.00  0.00     0.040 A 
ATOM     80  F   UNL A   1      37.773  30.421  36.694  1.00  0.00    -0.206 F 
ATOM     81  C   UNL A   1      38.010  33.831  37.891  1.00  0.00     0.006 A 
ENDBRANCH  57  74
ENDBRANCH  31  32
ENDBRANCH  24  26
ENDBRANCH  23  24
ENDBRANCH  22  23
ENDBRANCH   1  22
TORSDOF 14
ENDMDL
MODEL 2
REMARK VINA RESULT:     -11.3      4.555      8.699
REMARK SMILES O=C(Cc1csc(Sc2ncnc3c2CCCC3)n1)OCCOC(=O)c1ccc(-c2c3nc(c(-c4c(F)cccc4F)c4ccc([nH]4)c(-c4c(F)cccc4F)c4nc(c(-c5c(F)cccc5F)c5ccc2[nH]5)C=C4)C=C3)cc1
REMARK SMILES IDX 21 1 20 2 2 3 1 4 3 5 4 6 5 7 19 8 6 9 7 10 8 11 9 12 10 13
REMARK SMILES IDX 14 14 11 15 13 16 15 17 12 18 18 19 16 20 17 21 22 22 23 23
REMARK SMILES IDX 24 24 25 25 26 26 27 27 79 28 28 29 78 30 29 31 30 32 31 33
REMARK SMILES IDX 72 34 32 35 77 36 71 37 73 38 33 39 76 40 70 41 69 42 34 44
REMARK SMILES IDX 60 45 43 46 59 47 44 48 47 49 58 50 74 51 45 52 46 53 57 55
REMARK SMILES IDX 75 56 48 57 35 58 36 59 41 60 37 61 38 62 40 63 42 64 39 65
REMARK SMILES IDX 61 66 62 67 67 68 63 69 64 70 66 71 68 72 65 73 49 74 50 75
REMARK SMILES IDX 55 76 51 77 52 78 54 79 56 80 53 81
REMARK H PARENT 73 43 47 54
REMARK Flexibility Score: inf
ROOT
ATOM      1  C   UNL A   1      31.670  31.847  26.891  1.00  0.00     0.274 C 
ENDROOT
BRANCH   1   2
ATOM      2  O   UNL A   1      32.786  30.941  27.040  1.00  0.00    -0.462 OA
BRANCH   2   3
ATOM      3  C   UNL A   1      32.698  29.603  27.227  1.00  0.00     0.312 C 
ATOM      4  O   UNL A   1      31.634  29.104  27.590  1.00  0.00    -0.252 OA
BRANCH   3   5
ATOM      5  C   UNL A   1      33.901  28.741  26.943  1.00  0.00     0.179 C 
BRANCH   5   6
ATOM      6  C   UNL A   1      33.683  27.706  25.893  1.00  0.00     0.064 A 
ATOM      7  C   UNL A   1      34.088  26.384  25.883  1.00  0.00     0.092 A 
ATOM      8  N   UNL A   1      32.969  28.092  24.765  1.00  0.00    -0.234 NA
ATOM      9  S   UNL A   1      33.622  25.633  24.416  1.00  0.00    -0.116 S 
ATOM     10  C   UNL A   1      32.933  27.113  23.886  1.00  0.00     0.156 A 
BRANCH  10  11
ATOM     11  S   UNL A   1      32.161  27.248  22.319  1.00  0.00    -0.039 SA
BRANCH  11  12
ATOM     12  C   UNL A   1      30.449  27.291  22.831  1.00  0.00     0.110 A 
ATOM     13  N   UNL A   1      30.024  26.203  23.506  1.00  0.00    -0.229 NA
ATOM     14  C   UNL A   1      29.652  28.416  22.622  1.00  0.00     0.006 A 
ATOM     15  C   UNL A   1      28.764  26.235  23.937  1.00  0.00     0.223 A 
ATOM     16  C   UNL A   1      28.360  28.335  23.129  1.00  0.00     0.048 A 
ATOM     17  C   UNL A   1      30.170  29.684  21.997  1.00  0.00     0.040 C 
ATOM     18  N   UNL A   1      27.905  27.249  23.785  1.00  0.00    -0.241 NA
ATOM     19  C   UNL A   1      27.370  29.455  22.938  1.00  0.00     0.056 C 
ATOM     20  C   UNL A   1      29.094  30.718  21.660  1.00  0.00     0.005 C 
ATOM     21  C   UNL A   1      28.051  30.807  22.765  1.00  0.00     0.007 C 
ENDBRANCH  11  12
ENDBRANCH  10  11
ENDBRANCH   5   6
ENDBRANCH   3   5
ENDBRANCH   2   3
ENDBRANCH   1   2
BRANCH   1  22
ATOM     22  C   UNL A   1      32.142  33.301  26.849  1.00  0.00     0.275 C 
BRANCH  22  23
ATOM     23  O   UNL A   1      32.213  33.831  28.183  1.00  0.00    -0.458 OA
BRANCH  23  24
ATOM     24  C   UNL A   1      33.264  34.654  28.434  1.00  0.00     0.338 C 
ATOM     25  O   UNL A   1      33.248  35.868  28.454  1.00  0.00    -0.246 OA
BRANCH  24  26
ATOM     26  C   UNL A   1      34.426  33.842  28.867  1.00  0.00     0.060 A 
ATOM     27  C   UNL A   1      34.170  32.662  29.577  1.00  0.00     0.016 A 
ATOM     28  C   UNL A   1      35.743  34.213  28.574  1.00  0.00     0.016 A 
ATOM     29  C   UNL A   1      35.230  31.870  30.024  1.00  0.00     0.010 A 
ATOM     30  C   UNL A   1      36.802  33.417  29.022  1.00  0.00     0.010 A 
ATOM     31  C   UNL A   1      36.553  32.255  29.770  1.00  0.00    -0.014 A 
BRANCH  31  32
ATOM     32  C   UNL A   1      37.678  31.510  30.385  1.00  0.00     0.031 A 
ATOM     33  C   UNL A   1      38.093  31.828  31.792  1.00  0.00     0.074 A 
ATOM     34  C   UNL A   1      38.312  30.527  29.723  1.00  0.00     0.049 A 
ATOM     35  N   UNL A   1      39.059  31.307  32.505  1.00  0.00    -0.248 NA
ATOM     36  C   UNL A   1      37.305  32.853  32.494  1.00  0.00     0.031 C 
ATOM     37  C   UNL A   1      37.978  30.058  28.383  1.00  0.00     0.029 A 
ATOM     38  N   UNL A   1      39.385  29.756  30.098  1.00  0.00    -0.354 N 
ATOM     39  C   UNL A   1      38.960  31.896  33.756  1.00  0.00     0.074 A 
ATOM     40  C   UNL A   1      37.893  32.873  33.681  1.00  0.00     0.031 C 
ATOM     41  C   UNL A   1      38.850  29.096  28.038  1.00  0.00     0.029 A 
ATOM     42  C   UNL A   1      39.825  28.917  29.107  1.00  0.00     0.049 A 
ATOM     43  H   UNL A   1      39.799  29.802  30.990  1.00  0.00     0.167 HD
ATOM     44  C   UNL A   1      39.663  31.620  34.879  1.00  0.00     0.037 A 
ATOM     45  C   UNL A   1      40.906  28.119  29.041  1.00  0.00     0.037 A 
ATOM     46  C   UNL A   1      40.745  30.675  34.960  1.00  0.00     0.049 A 
ATOM     47  C   UNL A   1      41.818  27.992  30.220  1.00  0.00     0.074 A 
ATOM     48  C   UNL A   1      41.499  30.322  36.066  1.00  0.00     0.029 A 
ATOM     49  N   UNL A   1      41.239  29.943  33.893  1.00  0.00    -0.354 N 
ATOM     50  N   UNL A   1      41.716  28.551  31.399  1.00  0.00    -0.248 NA
ATOM     51  C   UNL A   1      42.984  27.111  30.066  1.00  0.00     0.031 C 
ATOM     52  C   UNL A   1      42.481  29.412  35.658  1.00  0.00     0.029 A 
ATOM     53  C   UNL A   1      42.310  29.165  34.306  1.00  0.00     0.049 A 
ATOM     54  H   UNL A   1      40.882  29.971  32.975  1.00  0.00     0.167 HD
ATOM     55  C   UNL A   1      42.775  28.054  32.145  1.00  0.00     0.074 A 
ATOM     56  C   UNL A   1      43.524  27.169  31.277  1.00  0.00     0.031 C 
ATOM     57  C   UNL A   1      43.069  28.293  33.446  1.00  0.00     0.037 A 
BRANCH  44  58
ATOM     58  C   UNL A   1      39.262  32.350  36.123  1.00  0.00     0.057 A 
ATOM     59  C   UNL A   1      39.808  33.602  36.437  1.00  0.00     0.134 A 
ATOM     60  C   UNL A   1      38.312  31.815  36.998  1.00  0.00     0.134 A 
ATOM     61  F   UNL A   1      40.735  34.158  35.644  1.00  0.00    -0.206 F 
ATOM     62  C   UNL A   1      39.434  34.289  37.591  1.00  0.00     0.040 A 
ATOM     63  C   UNL A   1      37.915  32.504  38.145  1.00  0.00     0.040 A 
ATOM     64  F   UNL A   1      37.754  30.621  36.752  1.00  0.00    -0.206 F 
ATOM     65  C   UNL A   1      38.479  33.742  38.446  1.00  0.00     0.006 A 
ENDBRANCH  44  58
BRANCH  45  66
ATOM     66  C   UNL A   1      41.204  27.408  27.777  1.00  0.00     0.057 A 
ATOM     67  C   UNL A   1      40.751  26.109  27.540  1.00  0.00     0.134 A 
ATOM     68  C   UNL A   1      41.933  28.042  26.765  1.00  0.00     0.134 A 
ATOM     69  F   UNL A   1      40.077  25.445  28.490  1.00  0.00    -0.206 F 
ATOM     70  C   UNL A   1      40.998  25.466  26.326  1.00  0.00     0.040 A 
ATOM     71  C   UNL A   1      42.169  27.420  25.538  1.00  0.00     0.040 A 
ATOM     72  F   UNL A   1      42.431  29.270  26.964  1.00  0.00    -0.206 F 
ATOM     73  C   UNL A   1      41.699  26.128  25.317  1.00  0.00     0.006 A 
ENDBRANCH  45  66
BRANCH  57  74
ATOM     74  C   UNL A   1      44.228  27.549  34.036  1.00  0.00     0.057 A 
ATOM     75  C   UNL A   1      45.514  28.097  34.085  1.00  0.00     0.134 A 
ATOM     76  C   UNL A   1      44.043  26.276  34.592  1.00  0.00     0.134 A 
ATOM     77  F   UNL A   1      45.760  29.305  33.553  1.00  0.00    -0.206 F 
ATOM     78  C   UNL A   1      46.580  27.401  34.657  1.00  0.00     0.040 A 
ATOM     79  C   UNL A   1      45.096  25.579  35.186  1.00  0.00     0.040 A 
ATOM     80  F   UNL A   1      42.833  25.696  34.578  1.00  0.00    -0.206 F 
ATOM     81  C   UNL A   1      46.370  26.140  35.217  1.00  0.00     0.006 A 
ENDBRANCH  57  74
ENDBRANCH  31  32
ENDBRANCH  24  26
ENDBRANCH  23  24
ENDBRANCH  22  23
ENDBRANCH   1  22
TORSDOF 14
ENDMDL
MODEL 3
REMARK VINA RESULT:     -11.1      4.558      9.142
REMARK SMILES O=C(Cc1csc(Sc2ncnc3c2CCCC3)n1)OCCOC(=O)c1ccc(-c2c3nc(c(-c4c(F)cccc4F)c4ccc([nH]4)c(-c4c(F)cccc4F)c4nc(c(-c5c(F)cccc5F)c5ccc2[nH]5)C=C4)C=C3)cc1
REMARK SMILES IDX 21 1 20 2 2 3 1 4 3 5 4 6 5 7 19 8 6 9 7 10 8 11 9 12 10 13
REMARK SMILES IDX 14 14 11 15 13 16 15 17 12 18 18 19 16 20 17 21 22 22 23 23
REMARK SMILES IDX 24 24 25 25 26 26 27 27 79 28 28 29 78 30 29 31 30 32 31 33
REMARK SMILES IDX 72 34 32 35 77 36 71 37 73 38 33 39 76 40 70 41 69 42 34 44
REMARK SMILES IDX 60 45 43 46 59 47 44 48 47 49 58 50 74 51 45 52 46 53 57 55
REMARK SMILES IDX 75 56 48 57 35 58 36 59 41 60 37 61 38 62 40 63 42 64 39 65
REMARK SMILES IDX 61 66 62 67 67 68 63 69 64 70 66 71 68 72 65 73 49 74 50 75
REMARK SMILES IDX 55 76 51 77 52 78 54 79 56 80 53 81
REMARK H PARENT 73 43 47 54
REMARK Flexibility Score: inf
ROOT
ATOM      1  C   UNL A   1      31.705  31.733  26.834  1.00  0.00     0.274 C 
ENDROOT
BRANCH   1   2
ATOM      2  O   UNL A   1      32.805  30.811  27.003  1.00  0.00    -0.462 OA
BRANCH   2   3
ATOM      3  C   UNL A   1      32.694  29.484  27.249  1.00  0.00     0.312 C 
ATOM      4  O   UNL A   1      31.627  29.023  27.652  1.00  0.00    -0.252 OA
BRANCH   3   5
ATOM      5  C   UNL A   1      33.874  28.586  26.982  1.00  0.00     0.179 C 
BRANCH   5   6
ATOM      6  C   UNL A   1      33.667  27.611  25.874  1.00  0.00     0.064 A 
ATOM      7  C   UNL A   1      34.090  26.298  25.785  1.00  0.00     0.092 A 
ATOM      8  N   UNL A   1      32.944  28.053  24.771  1.00  0.00    -0.234 NA
ATOM      9  S   UNL A   1      33.630  25.628  24.277  1.00  0.00    -0.116 S 
ATOM     10  C   UNL A   1      32.920  27.128  23.836  1.00  0.00     0.156 A 
BRANCH  10  11
ATOM     11  S   UNL A   1      32.142  27.343  22.281  1.00  0.00    -0.039 SA
BRANCH  11  12
ATOM     12  C   UNL A   1      30.432  27.366  22.803  1.00  0.00     0.110 A 
ATOM     13  N   UNL A   1      30.021  26.269  23.472  1.00  0.00    -0.229 NA
ATOM     14  C   UNL A   1      29.623  28.485  22.605  1.00  0.00     0.006 A 
ATOM     15  C   UNL A   1      28.763  26.286  23.909  1.00  0.00     0.223 A 
ATOM     16  C   UNL A   1      28.335  28.387  23.118  1.00  0.00     0.048 A 
ATOM     17  C   UNL A   1      30.126  29.762  21.988  1.00  0.00     0.040 C 
ATOM     18  N   UNL A   1      27.894  27.292  23.769  1.00  0.00    -0.241 NA
ATOM     19  C   UNL A   1      27.333  29.499  22.941  1.00  0.00     0.056 C 
ATOM     20  C   UNL A   1      29.038  30.788  21.664  1.00  0.00     0.005 C 
ATOM     21  C   UNL A   1      28.000  30.859  22.774  1.00  0.00     0.007 C 
ENDBRANCH  11  12
ENDBRANCH  10  11
ENDBRANCH   5   6
ENDBRANCH   3   5
ENDBRANCH   2   3
ENDBRANCH   1   2
BRANCH   1  22
ATOM     22  C   UNL A   1      32.200  33.179  26.798  1.00  0.00     0.275 C 
BRANCH  22  23
ATOM     23  O   UNL A   1      32.222  33.723  28.130  1.00  0.00    -0.458 OA
BRANCH  23  24
ATOM     24  C   UNL A   1      33.224  34.602  28.390  1.00  0.00     0.338 C 
ATOM     25  O   UNL A   1      33.151  35.814  28.363  1.00  0.00    -0.246 OA
BRANCH  24  26
ATOM     26  C   UNL A   1      34.403  33.862  28.896  1.00  0.00     0.060 A 
ATOM     27  C   UNL A   1      34.173  32.725  29.682  1.00  0.00     0.016 A 
ATOM     28  C   UNL A   1      35.712  34.258  28.601  1.00  0.00     0.016 A 
ATOM     29  C   UNL A   1      35.249  32.003  30.200  1.00  0.00     0.010 A 
ATOM     30  C   UNL A   1      36.789  33.531  29.121  1.00  0.00     0.010 A 
ATOM     31  C   UNL A   1      36.564  32.415  29.943  1.00  0.00    -0.014 A 
BRANCH  31  32
ATOM     32  C   UNL A   1      37.700  31.752  30.627  1.00  0.00     0.031 A 
ATOM     33  C   UNL A   1      38.463  30.672  29.917  1.00  0.00     0.074 A 
ATOM     34  C   UNL A   1      38.089  32.125  31.858  1.00  0.00     0.049 A 
ATOM     35  N   UNL A   1      39.473  29.958  30.343  1.00  0.00    -0.248 NA
ATOM     36  C   UNL A   1      38.043  30.369  28.540  1.00  0.00     0.031 C 
ATOM     37  C   UNL A   1      37.495  33.201  32.643  1.00  0.00     0.029 A 
ATOM     38  N   UNL A   1      39.078  31.618  32.667  1.00  0.00    -0.354 N 
ATOM     39  C   UNL A   1      39.849  29.164  29.271  1.00  0.00     0.074 A 
ATOM     40  C   UNL A   1      38.908  29.423  28.201  1.00  0.00     0.031 C 
ATOM     41  C   UNL A   1      38.117  33.255  33.833  1.00  0.00     0.029 A 
ATOM     42  C   UNL A   1      39.113  32.193  33.911  1.00  0.00     0.049 A 
ATOM     43  H   UNL A   1      39.700  30.910  32.380  1.00  0.00     0.167 HD
ATOM     44  C   UNL A   1      40.907  28.326  29.170  1.00  0.00     0.037 A 
ATOM     45  C   UNL A   1      39.832  31.886  35.006  1.00  0.00     0.037 A 
ATOM     46  C   UNL A   1      41.831  28.036  30.233  1.00  0.00     0.049 A 
ATOM     47  C   UNL A   1      40.852  30.793  34.951  1.00  0.00     0.074 A 
ATOM     48  C   UNL A   1      42.943  27.211  30.207  1.00  0.00     0.029 A 
ATOM     49  N   UNL A   1      41.746  28.546  31.518  1.00  0.00    -0.354 N 
ATOM     50  N   UNL A   1      41.202  30.048  33.933  1.00  0.00    -0.248 NA
ATOM     51  C   UNL A   1      41.587  30.508  36.191  1.00  0.00     0.031 C 
ATOM     52  C   UNL A   1      43.502  27.185  31.490  1.00  0.00     0.029 A 
ATOM     53  C   UNL A   1      42.765  28.028  32.303  1.00  0.00     0.049 A 
ATOM     54  H   UNL A   1      41.062  29.183  31.828  1.00  0.00     0.167 HD
ATOM     55  C   UNL A   1      42.232  29.240  34.393  1.00  0.00     0.074 A 
ATOM     56  C   UNL A   1      42.432  29.566  35.790  1.00  0.00     0.031 C 
ATOM     57  C   UNL A   1      42.962  28.336  33.697  1.00  0.00     0.037 A 
BRANCH  44  58
ATOM     58  C   UNL A   1      41.125  27.674  27.840  1.00  0.00     0.057 A 
ATOM     59  C   UNL A   1      41.894  28.295  26.845  1.00  0.00     0.134 A 
ATOM     60  C   UNL A   1      40.588  26.414  27.557  1.00  0.00     0.134 A 
ATOM     61  F   UNL A   1      42.421  29.510  27.053  1.00  0.00    -0.206 F 
ATOM     62  C   UNL A   1      42.105  27.690  25.607  1.00  0.00     0.040 A 
ATOM     63  C   UNL A   1      40.811  25.790  26.328  1.00  0.00     0.040 A 
ATOM     64  F   UNL A   1      39.844  25.770  28.468  1.00  0.00    -0.206 F 
ATOM     65  C   UNL A   1      41.568  26.430  25.349  1.00  0.00     0.006 A 
ENDBRANCH  44  58
BRANCH  45  66
ATOM     66  C   UNL A   1      39.569  32.610  36.269  1.00  0.00     0.057 A 
ATOM     67  C   UNL A   1      40.297  33.745  36.631  1.00  0.00     0.134 A 
ATOM     68  C   UNL A   1      38.551  32.184  37.129  1.00  0.00     0.134 A 
ATOM     69  F   UNL A   1      41.305  34.176  35.859  1.00  0.00    -0.206 F 
ATOM     70  C   UNL A   1      40.009  34.447  37.803  1.00  0.00     0.040 A 
ATOM     71  C   UNL A   1      38.237  32.888  38.292  1.00  0.00     0.040 A 
ATOM     72  F   UNL A   1      37.857  31.072  36.850  1.00  0.00    -0.206 F 
ATOM     73  C   UNL A   1      38.968  34.025  38.631  1.00  0.00     0.006 A 
ENDBRANCH  45  66
BRANCH  57  74
ATOM     74  C   UNL A   1      44.086  27.660  34.420  1.00  0.00     0.057 A 
ATOM     75  C   UNL A   1      43.931  26.411  35.032  1.00  0.00     0.134 A 
ATOM     76  C   UNL A   1      45.354  28.256  34.475  1.00  0.00     0.134 A 
ATOM     77  F   UNL A   1      42.738  25.797  35.030  1.00  0.00    -0.206 F 
ATOM     78  C   UNL A   1      44.994  25.783  35.684  1.00  0.00     0.040 A 
ATOM     79  C   UNL A   1      46.429  27.629  35.105  1.00  0.00     0.040 A 
ATOM     80  F   UNL A   1      45.568  29.453  33.906  1.00  0.00    -0.206 F 
ATOM     81  C   UNL A   1      46.250  26.390  35.714  1.00  0.00     0.006 A 
ENDBRANCH  57  74
ENDBRANCH  31  32
ENDBRANCH  24  26
ENDBRANCH  23  24
ENDBRANCH  22  23
ENDBRANCH   1  22
TORSDOF 14
ENDMDL
