MODEL 1
REMARK VINA RESULT:     -10.4      0.000      0.000
REMARK SMILES C[N@H+]1CCO[C@](C)(C(=O)OCCOC(=O)c2ccc(-c3c4nc(c(-c5c(F)cccc5F)c5ccc([nH]5)c(-c5c(F)cccc5F)c5nc(c(-c6c(F)cccc6F)c6ccc3[nH]6)C=C5)C=C4)cc2)C1
REMARK SMILES IDX 12 1 11 2 10 3 8 4 9 5 6 6 1 7 2 8 3 9 70 10 4 12 5 13 7 14
REMARK SMILES IDX 13 15 14 16 15 17 16 18 17 19 69 20 18 21 68 22 19 23 20 24
REMARK SMILES IDX 21 25 62 26 22 27 67 28 61 29 63 30 23 31 66 32 60 33 59 34
REMARK SMILES IDX 24 36 50 37 33 38 49 39 34 40 37 41 48 42 64 43 35 44 36 45
REMARK SMILES IDX 47 47 65 48 38 49 25 50 26 51 31 52 27 53 28 54 30 55 32 56
REMARK SMILES IDX 29 57 51 58 52 59 57 60 53 61 54 62 56 63 58 64 55 65 39 66
REMARK SMILES IDX 40 67 45 68 41 69 42 70 44 71 46 72 43 73
REMARK H PARENT 2 11 63 35 37 46
REMARK Flexibility Score: inf
ROOT
ATOM      1  C   UNL A   1      40.546  19.576  26.126  1.00  0.00     0.275 C 
ENDROOT
BRANCH   1   2
ATOM      2  C   UNL A   1      41.981  19.049  26.194  1.00  0.00     0.274 C 
BRANCH   2   3
ATOM      3  O   UNL A   1      42.718  19.383  25.001  1.00  0.00    -0.460 OA
BRANCH   3   4
ATOM      4  C   UNL A   1      44.072  19.215  25.072  1.00  0.00     0.344 C 
ATOM      5  O   UNL A   1      44.615  18.126  25.232  1.00  0.00    -0.249 OA
BRANCH   4   6
ATOM      6  C   UNL A   1      44.839  20.560  24.980  1.00  0.00     0.211 C 
ATOM      7  C   UNL A   1      46.030  23.348  26.295  1.00  0.00     0.332 C 
ATOM      8  N   UNL A   1      44.668  22.963  25.947  1.00  0.00    -0.333 N 
ATOM      9  C   UNL A   1      44.270  23.366  24.592  1.00  0.00     0.290 C 
ATOM     10  C   UNL A   1      44.389  21.521  26.125  1.00  0.00     0.310 C 
ATOM     11  H   UNL A   1      44.103  23.483  26.618  1.00  0.00     0.348 HD
ATOM     12  C   UNL A   1      44.877  22.479  23.504  1.00  0.00     0.223 C 
ATOM     13  O   UNL A   1      44.520  21.107  23.677  1.00  0.00    -0.353 OA
ATOM     14  C   UNL A   1      46.327  20.197  25.003  1.00  0.00     0.061 C 
ENDBRANCH   4   6
ENDBRANCH   3   4
ENDBRANCH   2   3
ENDBRANCH   1   2
BRANCH   1  15
ATOM     15  O   UNL A   1      40.403  20.736  26.964  1.00  0.00    -0.458 OA
BRANCH  15  16
ATOM     16  C   UNL A   1      39.597  21.715  26.495  1.00  0.00     0.338 C 
ATOM     17  O   UNL A   1      38.622  21.601  25.774  1.00  0.00    -0.246 OA
BRANCH  16  18
ATOM     18  C   UNL A   1      40.050  23.004  27.035  1.00  0.00     0.060 A 
ATOM     19  C   UNL A   1      39.523  24.178  26.501  1.00  0.00     0.016 A 
ATOM     20  C   UNL A   1      41.057  23.055  27.999  1.00  0.00     0.016 A 
ATOM     21  C   UNL A   1      40.007  25.416  26.912  1.00  0.00     0.010 A 
ATOM     22  C   UNL A   1      41.521  24.299  28.438  1.00  0.00     0.010 A 
ATOM     23  C   UNL A   1      41.011  25.490  27.886  1.00  0.00    -0.014 A 
BRANCH  23  24
ATOM     24  C   UNL A   1      41.556  26.809  28.293  1.00  0.00     0.031 A 
ATOM     25  C   UNL A   1      40.652  27.838  28.907  1.00  0.00     0.074 A 
ATOM     26  C   UNL A   1      42.866  27.078  28.136  1.00  0.00     0.049 A 
ATOM     27  N   UNL A   1      40.905  29.085  29.216  1.00  0.00    -0.248 NA
ATOM     28  C   UNL A   1      39.279  27.409  29.213  1.00  0.00     0.031 C 
ATOM     29  C   UNL A   1      43.864  26.148  27.604  1.00  0.00     0.029 A 
ATOM     30  N   UNL A   1      43.583  28.215  28.413  1.00  0.00    -0.354 N 
ATOM     31  C   UNL A   1      39.718  29.599  29.719  1.00  0.00     0.074 A 
ATOM     32  C   UNL A   1      38.741  28.530  29.674  1.00  0.00     0.031 C 
ATOM     33  C   UNL A   1      45.065  26.747  27.606  1.00  0.00     0.029 A 
ATOM     34  C   UNL A   1      44.913  28.118  28.087  1.00  0.00     0.049 A 
ATOM     35  H   UNL A   1      43.182  29.022  28.809  1.00  0.00     0.167 HD
ATOM     36  C   UNL A   1      39.464  30.849  30.174  1.00  0.00     0.037 A 
ATOM     37  C   UNL A   1      45.894  29.039  28.137  1.00  0.00     0.037 A 
ATOM     38  C   UNL A   1      40.441  31.903  30.251  1.00  0.00     0.049 A 
ATOM     39  C   UNL A   1      45.578  30.431  28.606  1.00  0.00     0.074 A 
ATOM     40  C   UNL A   1      40.278  33.201  30.703  1.00  0.00     0.029 A 
ATOM     41  N   UNL A   1      41.769  31.775  29.873  1.00  0.00    -0.354 N 
ATOM     42  N   UNL A   1      44.440  30.919  29.035  1.00  0.00    -0.248 NA
ATOM     43  C   UNL A   1      46.679  31.404  28.580  1.00  0.00     0.031 C 
ATOM     44  C   UNL A   1      41.502  33.866  30.576  1.00  0.00     0.029 A 
ATOM     45  C   UNL A   1      42.433  32.974  30.071  1.00  0.00     0.049 A 
ATOM     46  H   UNL A   1      42.178  30.953  29.517  1.00  0.00     0.167 HD
ATOM     47  C   UNL A   1      44.686  32.252  29.329  1.00  0.00     0.074 A 
ATOM     48  C   UNL A   1      46.087  32.492  29.053  1.00  0.00     0.031 C 
ATOM     49  C   UNL A   1      43.826  33.197  29.783  1.00  0.00     0.037 A 
BRANCH  36  50
ATOM     50  C   UNL A   1      38.060  31.153  30.598  1.00  0.00     0.057 A 
ATOM     51  C   UNL A   1      37.635  30.993  31.921  1.00  0.00     0.134 A 
ATOM     52  C   UNL A   1      37.130  31.641  29.670  1.00  0.00     0.134 A 
ATOM     53  F   UNL A   1      38.474  30.516  32.853  1.00  0.00    -0.206 F 
ATOM     54  C   UNL A   1      36.326  31.294  32.305  1.00  0.00     0.040 A 
ATOM     55  C   UNL A   1      35.825  31.961  30.046  1.00  0.00     0.040 A 
ATOM     56  F   UNL A   1      37.478  31.818  28.387  1.00  0.00    -0.206 F 
ATOM     57  C   UNL A   1      35.419  31.784  31.368  1.00  0.00     0.006 A 
ENDBRANCH  36  50
BRANCH  37  58
ATOM     58  C   UNL A   1      47.264  28.683  27.694  1.00  0.00     0.057 A 
ATOM     59  C   UNL A   1      47.617  28.715  26.342  1.00  0.00     0.134 A 
ATOM     60  C   UNL A   1      48.249  28.303  28.613  1.00  0.00     0.134 A 
ATOM     61  F   UNL A   1      46.708  29.045  25.413  1.00  0.00    -0.206 F 
ATOM     62  C   UNL A   1      48.903  28.377  25.917  1.00  0.00     0.040 A 
ATOM     63  C   UNL A   1      49.544  27.983  28.205  1.00  0.00     0.040 A 
ATOM     64  F   UNL A   1      47.968  28.250  29.924  1.00  0.00    -0.206 F 
ATOM     65  C   UNL A   1      49.873  28.016  26.852  1.00  0.00     0.006 A 
ENDBRANCH  37  58
BRANCH  49  66
ATOM     66  C   UNL A   1      44.381  34.567  30.012  1.00  0.00     0.057 A 
ATOM     67  C   UNL A   1      44.956  34.927  31.238  1.00  0.00     0.134 A 
ATOM     68  C   UNL A   1      44.369  35.526  28.993  1.00  0.00     0.134 A 
ATOM     69  F   UNL A   1      44.984  34.055  32.257  1.00  0.00    -0.206 F 
ATOM     70  C   UNL A   1      45.485  36.201  31.446  1.00  0.00     0.040 A 
ATOM     71  C   UNL A   1      44.911  36.798  29.184  1.00  0.00     0.040 A 
ATOM     72  F   UNL A   1      43.837  35.240  27.795  1.00  0.00    -0.206 F 
ATOM     73  C   UNL A   1      45.467  37.139  30.416  1.00  0.00     0.006 A 
ENDBRANCH  49  66
ENDBRANCH  23  24
ENDBRANCH  16  18
ENDBRANCH  15  16
ENDBRANCH   1  15
TORSDOF 11
ENDMDL
MODEL 2
REMARK VINA RESULT:     -10.1      6.346     11.419
REMARK SMILES C[N@H+]1CCO[C@](C)(C(=O)OCCOC(=O)c2ccc(-c3c4nc(c(-c5c(F)cccc5F)c5ccc([nH]5)c(-c5c(F)cccc5F)c5nc(c(-c6c(F)cccc6F)c6ccc3[nH]6)C=C5)C=C4)cc2)C1
REMARK SMILES IDX 12 1 11 2 10 3 8 4 9 5 6 6 1 7 2 8 3 9 70 10 4 12 5 13 7 14
REMARK SMILES IDX 13 15 14 16 15 17 16 18 17 19 69 20 18 21 68 22 19 23 20 24
REMARK SMILES IDX 21 25 62 26 22 27 67 28 61 29 63 30 23 31 66 32 60 33 59 34
REMARK SMILES IDX 24 36 50 37 33 38 49 39 34 40 37 41 48 42 64 43 35 44 36 45
REMARK SMILES IDX 47 47 65 48 38 49 25 50 26 51 31 52 27 53 28 54 30 55 32 56
REMARK SMILES IDX 29 57 51 58 52 59 57 60 53 61 54 62 56 63 58 64 55 65 39 66
REMARK SMILES IDX 40 67 45 68 41 69 42 70 44 71 46 72 43 73
REMARK H PARENT 2 11 63 35 37 46
REMARK Flexibility Score: inf
ROOT
ATOM      1  C   UNL A   1      31.768  29.697  26.092  1.00  0.00     0.275 C 
ENDROOT
BRANCH   1   2
ATOM      2  C   UNL A   1      31.665  28.686  24.948  1.00  0.00     0.274 C 
BRANCH   2   3
ATOM      3  O   UNL A   1      31.044  29.271  23.786  1.00  0.00    -0.460 OA
BRANCH   3   4
ATOM      4  C   UNL A   1      29.843  28.734  23.420  1.00  0.00     0.344 C 
ATOM      5  O   UNL A   1      29.583  27.537  23.492  1.00  0.00    -0.249 OA
BRANCH   4   6
ATOM      6  C   UNL A   1      28.866  29.800  22.858  1.00  0.00     0.211 C 
ATOM      7  C   UNL A   1      27.655  31.660  20.410  1.00  0.00     0.332 C 
ATOM      8  N   UNL A   1      28.902  31.761  21.158  1.00  0.00    -0.333 N 
ATOM      9  C   UNL A   1      28.816  32.640  22.332  1.00  0.00     0.290 C 
ATOM     10  C   UNL A   1      29.460  30.455  21.571  1.00  0.00     0.310 C 
ATOM     11  H   UNL A   1      29.541  32.183  20.485  1.00  0.00     0.348 HD
ATOM     12  C   UNL A   1      28.078  31.996  23.506  1.00  0.00     0.223 C 
ATOM     13  O   UNL A   1      28.696  30.775  23.916  1.00  0.00    -0.353 OA
ATOM     14  C   UNL A   1      27.533  29.077  22.646  1.00  0.00     0.061 C 
ENDBRANCH   4   6
ENDBRANCH   3   4
ENDBRANCH   2   3
ENDBRANCH   1   2
BRANCH   1  15
ATOM     15  O   UNL A   1      32.998  30.437  25.992  1.00  0.00    -0.458 OA
BRANCH  15  16
ATOM     16  C   UNL A   1      33.214  31.366  26.950  1.00  0.00     0.338 C 
ATOM     17  O   UNL A   1      32.494  32.295  27.268  1.00  0.00    -0.246 OA
BRANCH  16  18
ATOM     18  C   UNL A   1      34.484  31.066  27.625  1.00  0.00     0.060 A 
ATOM     19  C   UNL A   1      34.758  29.748  27.986  1.00  0.00     0.016 A 
ATOM     20  C   UNL A   1      35.357  32.092  27.984  1.00  0.00     0.016 A 
ATOM     21  C   UNL A   1      35.899  29.443  28.722  1.00  0.00     0.010 A 
ATOM     22  C   UNL A   1      36.522  31.784  28.695  1.00  0.00     0.010 A 
ATOM     23  C   UNL A   1      36.793  30.458  29.083  1.00  0.00    -0.014 A 
BRANCH  23  24
ATOM     24  C   UNL A   1      37.988  30.138  29.905  1.00  0.00     0.031 A 
ATOM     25  C   UNL A   1      39.068  29.257  29.347  1.00  0.00     0.074 A 
ATOM     26  C   UNL A   1      38.118  30.656  31.140  1.00  0.00     0.049 A 
ATOM     27  N   UNL A   1      40.124  28.764  29.943  1.00  0.00    -0.248 NA
ATOM     28  C   UNL A   1      38.944  28.879  27.931  1.00  0.00     0.031 C 
ATOM     29  C   UNL A   1      37.170  31.569  31.780  1.00  0.00     0.029 A 
ATOM     30  N   UNL A   1      39.105  30.488  32.079  1.00  0.00    -0.354 N 
ATOM     31  C   UNL A   1      40.771  27.990  28.988  1.00  0.00     0.074 A 
ATOM     32  C   UNL A   1      39.989  28.078  27.772  1.00  0.00     0.031 C 
ATOM     33  C   UNL A   1      37.628  31.891  33.000  1.00  0.00     0.029 A 
ATOM     34  C   UNL A   1      38.872  31.167  33.249  1.00  0.00     0.049 A 
ATOM     35  H   UNL A   1      39.906  29.935  31.926  1.00  0.00     0.167 HD
ATOM     36  C   UNL A   1      41.910  27.270  29.114  1.00  0.00     0.037 A 
ATOM     37  C   UNL A   1      39.562  31.179  34.404  1.00  0.00     0.037 A 
ATOM     38  C   UNL A   1      42.707  27.207  30.312  1.00  0.00     0.049 A 
ATOM     39  C   UNL A   1      40.801  30.339  34.534  1.00  0.00     0.074 A 
ATOM     40  C   UNL A   1      43.881  26.509  30.533  1.00  0.00     0.029 A 
ATOM     41  N   UNL A   1      42.414  27.880  31.488  1.00  0.00    -0.354 N 
ATOM     42  N   UNL A   1      41.377  29.574  33.639  1.00  0.00    -0.248 NA
ATOM     43  C   UNL A   1      41.475  30.349  35.840  1.00  0.00     0.031 C 
ATOM     44  C   UNL A   1      44.286  26.738  31.852  1.00  0.00     0.029 A 
ATOM     45  C   UNL A   1      43.378  27.602  32.443  1.00  0.00     0.049 A 
ATOM     46  H   UNL A   1      41.635  28.467  31.624  1.00  0.00     0.167 HD
ATOM     47  C   UNL A   1      42.478  29.013  34.271  1.00  0.00     0.074 A 
ATOM     48  C   UNL A   1      42.504  29.544  35.619  1.00  0.00     0.031 C 
ATOM     49  C   UNL A   1      43.384  28.132  33.781  1.00  0.00     0.037 A 
BRANCH  36  50
ATOM     50  C   UNL A   1      42.348  26.464  27.930  1.00  0.00     0.057 A 
ATOM     51  C   UNL A   1      41.935  25.140  27.744  1.00  0.00     0.134 A 
ATOM     52  C   UNL A   1      43.172  27.032  26.950  1.00  0.00     0.134 A 
ATOM     53  F   UNL A   1      41.158  24.534  28.654  1.00  0.00    -0.206 F 
ATOM     54  C   UNL A   1      42.340  24.403  26.629  1.00  0.00     0.040 A 
ATOM     55  C   UNL A   1      43.568  26.312  25.824  1.00  0.00     0.040 A 
ATOM     56  F   UNL A   1      43.599  28.298  27.072  1.00  0.00    -0.206 F 
ATOM     57  C   UNL A   1      43.154  24.991  25.662  1.00  0.00     0.006 A 
ENDBRANCH  36  50
BRANCH  37  58
ATOM     58  C   UNL A   1      39.075  31.988  35.547  1.00  0.00     0.057 A 
ATOM     59  C   UNL A   1      38.242  31.432  36.523  1.00  0.00     0.134 A 
ATOM     60  C   UNL A   1      39.431  33.335  35.689  1.00  0.00     0.134 A 
ATOM     61  F   UNL A   1      37.845  30.155  36.426  1.00  0.00    -0.206 F 
ATOM     62  C   UNL A   1      37.775  32.189  37.599  1.00  0.00     0.040 A 
ATOM     63  C   UNL A   1      38.989  34.097  36.770  1.00  0.00     0.040 A 
ATOM     64  F   UNL A   1      40.226  33.924  34.782  1.00  0.00    -0.206 F 
ATOM     65  C   UNL A   1      38.155  33.524  37.728  1.00  0.00     0.006 A 
ENDBRANCH  37  58
BRANCH  49  66
ATOM     66  C   UNL A   1      44.477  27.697  34.706  1.00  0.00     0.057 A 
ATOM     67  C   UNL A   1      45.676  28.414  34.809  1.00  0.00     0.134 A 
ATOM     68  C   UNL A   1      44.321  26.570  35.521  1.00  0.00     0.134 A 
ATOM     69  F   UNL A   1      45.888  29.495  34.043  1.00  0.00    -0.206 F 
ATOM     70  C   UNL A   1      46.689  28.015  35.681  1.00  0.00     0.040 A 
ATOM     71  C   UNL A   1      45.320  26.171  36.409  1.00  0.00     0.040 A 
ATOM     72  F   UNL A   1      43.194  25.844  35.470  1.00  0.00    -0.206 F 
ATOM     73  C   UNL A   1      46.510  26.893  36.487  1.00  0.00     0.006 A 
ENDBRANCH  49  66
ENDBRANCH  23  24
ENDBRANCH  16  18
ENDBRANCH  15  16
ENDBRANCH   1  15
TORSDOF 11
ENDMDL
MODEL 3
REMARK VINA RESULT:     -10.1      0.737      6.750
REMARK SMILES C[N@H+]1CCO[C@](C)(C(=O)OCCOC(=O)c2ccc(-c3c4nc(c(-c5c(F)cccc5F)c5ccc([nH]5)c(-c5c(F)cccc5F)c5nc(c(-c6c(F)cccc6F)c6ccc3[nH]6)C=C5)C=C4)cc2)C1
REMARK SMILES IDX 12 1 11 2 10 3 8 4 9 5 6 6 1 7 2 8 3 9 70 10 4 12 5 13 7 14
REMARK SMILES IDX 13 15 14 16 15 17 16 18 17 19 69 20 18 21 68 22 19 23 20 24
REMARK SMILES IDX 21 25 62 26 22 27 67 28 61 29 63 30 23 31 66 32 60 33 59 34
REMARK SMILES IDX 24 36 50 37 33 38 49 39 34 40 37 41 48 42 64 43 35 44 36 45
REMARK SMILES IDX 47 47 65 48 38 49 25 50 26 51 31 52 27 53 28 54 30 55 32 56
REMARK SMILES IDX 29 57 51 58 52 59 57 60 53 61 54 62 56 63 58 64 55 65 39 66
REMARK SMILES IDX 40 67 45 68 41 69 42 70 44 71 46 72 43 73
REMARK H PARENT 2 11 63 35 37 46
REMARK Flexibility Score: inf
ROOT
ATOM      1  C   UNL A   1      40.678  19.673  26.293  1.00  0.00     0.275 C 
ENDROOT
BRANCH   1   2
ATOM      2  C   UNL A   1      42.063  19.028  26.213  1.00  0.00     0.274 C 
BRANCH   2   3
ATOM      3  O   UNL A   1      42.748  19.405  25.001  1.00  0.00    -0.460 OA
BRANCH   3   4
ATOM      4  C   UNL A   1      44.106  19.264  25.018  1.00  0.00     0.344 C 
ATOM      5  O   UNL A   1      44.676  18.181  25.106  1.00  0.00    -0.249 OA
BRANCH   4   6
ATOM      6  C   UNL A   1      44.842  20.628  24.964  1.00  0.00     0.211 C 
ATOM      7  C   UNL A   1      45.949  23.414  26.354  1.00  0.00     0.332 C 
ATOM      8  N   UNL A   1      44.601  23.005  25.978  1.00  0.00    -0.333 N 
ATOM      9  C   UNL A   1      44.212  23.427  24.626  1.00  0.00     0.290 C 
ATOM     10  C   UNL A   1      44.354  21.554  26.123  1.00  0.00     0.310 C 
ATOM     11  H   UNL A   1      44.015  23.497  26.651  1.00  0.00     0.348 HD
ATOM     12  C   UNL A   1      44.854  22.578  23.529  1.00  0.00     0.223 C 
ATOM     13  O   UNL A   1      44.528  21.194  23.668  1.00  0.00    -0.353 OA
ATOM     14  C   UNL A   1      46.337  20.299  25.001  1.00  0.00     0.061 C 
ENDBRANCH   4   6
ENDBRANCH   3   4
ENDBRANCH   2   3
ENDBRANCH   1   2
BRANCH   1  15
ATOM     15  O   UNL A   1      40.770  20.969  26.910  1.00  0.00    -0.458 OA
BRANCH  15  16
ATOM     16  C   UNL A   1      39.830  21.870  26.546  1.00  0.00     0.338 C 
ATOM     17  O   UNL A   1      38.735  21.655  26.059  1.00  0.00    -0.246 OA
BRANCH  16  18
ATOM     18  C   UNL A   1      40.311  23.219  26.876  1.00  0.00     0.060 A 
ATOM     19  C   UNL A   1      41.121  23.388  27.996  1.00  0.00     0.016 A 
ATOM     20  C   UNL A   1      39.889  24.323  26.136  1.00  0.00     0.016 A 
ATOM     21  C   UNL A   1      41.506  24.663  28.400  1.00  0.00     0.010 A 
ATOM     22  C   UNL A   1      40.302  25.604  26.520  1.00  0.00     0.010 A 
ATOM     23  C   UNL A   1      41.101  25.784  27.665  1.00  0.00    -0.014 A 
BRANCH  23  24
ATOM     24  C   UNL A   1      41.477  27.146  28.121  1.00  0.00     0.031 A 
ATOM     25  C   UNL A   1      42.910  27.589  28.063  1.00  0.00     0.074 A 
ATOM     26  C   UNL A   1      40.531  27.996  28.564  1.00  0.00     0.049 A 
ATOM     27  N   UNL A   1      43.458  28.685  28.522  1.00  0.00    -0.248 NA
ATOM     28  C   UNL A   1      43.854  26.676  27.401  1.00  0.00     0.031 C 
ATOM     29  C   UNL A   1      39.096  27.713  28.620  1.00  0.00     0.029 A 
ATOM     30  N   UNL A   1      40.638  29.276  29.049  1.00  0.00    -0.354 N 
ATOM     31  C   UNL A   1      44.813  28.580  28.239  1.00  0.00     0.074 A 
ATOM     32  C   UNL A   1      45.006  27.312  27.566  1.00  0.00     0.031 C 
ATOM     33  C   UNL A   1      38.456  28.791  29.099  1.00  0.00     0.029 A 
ATOM     34  C   UNL A   1      39.438  29.819  29.434  1.00  0.00     0.049 A 
ATOM     35  H   UNL A   1      41.495  29.758  29.113  1.00  0.00     0.167 HD
ATOM     36  C   UNL A   1      45.804  29.459  28.514  1.00  0.00     0.037 A 
ATOM     37  C   UNL A   1      39.161  30.999  30.021  1.00  0.00     0.037 A 
ATOM     38  C   UNL A   1      45.610  30.734  29.153  1.00  0.00     0.049 A 
ATOM     39  C   UNL A   1      40.284  31.939  30.356  1.00  0.00     0.074 A 
ATOM     40  C   UNL A   1      46.555  31.695  29.469  1.00  0.00     0.029 A 
ATOM     41  N   UNL A   1      44.382  31.230  29.563  1.00  0.00    -0.354 N 
ATOM     42  N   UNL A   1      41.567  31.808  30.125  1.00  0.00    -0.248 NA
ATOM     43  C   UNL A   1      39.922  33.182  31.051  1.00  0.00     0.031 C 
ATOM     44  C   UNL A   1      45.901  32.763  30.094  1.00  0.00     0.029 A 
ATOM     45  C   UNL A   1      44.546  32.478  30.140  1.00  0.00     0.049 A 
ATOM     46  H   UNL A   1      43.521  30.764  29.458  1.00  0.00     0.167 HD
ATOM     47  C   UNL A   1      42.165  32.948  30.643  1.00  0.00     0.074 A 
ATOM     48  C   UNL A   1      41.102  33.772  31.180  1.00  0.00     0.031 C 
ATOM     49  C   UNL A   1      43.478  33.281  30.676  1.00  0.00     0.037 A 
BRANCH  36  50
ATOM     50  C   UNL A   1      47.201  29.054  28.154  1.00  0.00     0.057 A 
ATOM     51  C   UNL A   1      48.036  28.391  29.060  1.00  0.00     0.134 A 
ATOM     52  C   UNL A   1      47.703  29.307  26.871  1.00  0.00     0.134 A 
ATOM     53  F   UNL A   1      47.619  28.134  30.308  1.00  0.00    -0.206 F 
ATOM     54  C   UNL A   1      49.332  28.008  28.707  1.00  0.00     0.040 A 
ATOM     55  C   UNL A   1      48.989  28.912  26.501  1.00  0.00     0.040 A 
ATOM     56  F   UNL A   1      46.950  29.936  25.957  1.00  0.00    -0.206 F 
ATOM     57  C   UNL A   1      49.809  28.263  27.423  1.00  0.00     0.006 A 
ENDBRANCH  36  50
BRANCH  37  58
ATOM     58  C   UNL A   1      37.761  31.341  30.365  1.00  0.00     0.057 A 
ATOM     59  C   UNL A   1      37.225  31.021  31.617  1.00  0.00     0.134 A 
ATOM     60  C   UNL A   1      36.926  31.996  29.451  1.00  0.00     0.134 A 
ATOM     61  F   UNL A   1      37.967  30.369  32.523  1.00  0.00    -0.206 F 
ATOM     62  C   UNL A   1      35.905  31.335  31.947  1.00  0.00     0.040 A 
ATOM     63  C   UNL A   1      35.613  32.336  29.775  1.00  0.00     0.040 A 
ATOM     64  F   UNL A   1      37.383  32.326  28.233  1.00  0.00    -0.206 F 
ATOM     65  C   UNL A   1      35.098  32.002  31.025  1.00  0.00     0.006 A 
ENDBRANCH  37  58
BRANCH  49  66
ATOM     66  C   UNL A   1      43.831  34.591  31.309  1.00  0.00     0.057 A 
ATOM     67  C   UNL A   1      43.836  35.780  30.569  1.00  0.00     0.134 A 
ATOM     68  C   UNL A   1      44.140  34.670  32.671  1.00  0.00     0.134 A 
ATOM     69  F   UNL A   1      43.561  35.765  29.257  1.00  0.00    -0.206 F 
ATOM     70  C   UNL A   1      44.152  37.003  31.163  1.00  0.00     0.040 A 
ATOM     71  C   UNL A   1      44.442  35.889  33.279  1.00  0.00     0.040 A 
ATOM     72  F   UNL A   1      44.148  33.565  33.433  1.00  0.00    -0.206 F 
ATOM     73  C   UNL A   1      44.452  37.060  32.522  1.00  0.00     0.006 A 
ENDBRANCH  49  66
ENDBRANCH  23  24
ENDBRANCH  16  18
ENDBRANCH  15  16
ENDBRANCH   1  15
TORSDOF 11
ENDMDL
