MODEL 1
REMARK VINA RESULT:     -10.1      0.000      0.000
REMARK SMILES CCCN(c1cccc(Cl)c1/C=C/C(=O)OCCOC(=O)c1ccc(-c2c3nc(c(-c4c(F)cccc4F)c4ccc([nH]4)c(-c4c(F)cccc4F)c4nc(c(-c5c(F)cccc5F)c5ccc2[nH]5)C=C4)C=C3)cc1)C1CC1
REMARK SMILES IDX 17 1 16 2 14 3 15 4 13 5 12 6 11 7 5 8 6 9 7 10 9 11 8 12
REMARK SMILES IDX 10 13 4 14 3 15 2 16 1 17 76 18 77 19 78 20 18 21 19 22
REMARK SMILES IDX 20 23 21 24 22 25 23 26 75 27 24 28 74 29 25 30 26 31 27 32
REMARK SMILES IDX 68 33 28 34 73 35 67 36 69 37 29 38 72 39 66 40 65 41 30 43
REMARK SMILES IDX 56 44 39 45 55 46 40 47 43 48 54 49 70 50 41 51 42 52 53 54
REMARK SMILES IDX 71 55 44 56 31 57 32 58 37 59 33 60 34 61 36 62 38 63 35 64
REMARK SMILES IDX 57 65 58 66 63 67 59 68 60 69 62 70 64 71 61 72 45 73 46 74
REMARK SMILES IDX 51 75 47 76 48 77 50 78 52 79 49 80
REMARK H PARENT 69 42 43 53
REMARK Flexibility Score: inf
ROOT
ATOM      1  C   UNL A   1      37.548  22.120  25.633  1.00  0.00     0.275 C 
ENDROOT
BRANCH   1   2
ATOM      2  O   UNL A   1      37.173  23.342  24.965  1.00  0.00    -0.459 OA
BRANCH   2   3
ATOM      3  C   UNL A   1      36.339  23.209  23.908  1.00  0.00     0.330 C 
ATOM      4  O   UNL A   1      36.660  22.968  22.753  1.00  0.00    -0.247 OA
BRANCH   3   5
ATOM      5  C   UNL A   1      34.926  23.396  24.285  1.00  0.00     0.094 C 
ATOM      6  C   UNL A   1      34.500  23.879  25.462  1.00  0.00     0.019 C 
BRANCH   6   7
ATOM      7  C   UNL A   1      33.060  23.985  25.783  1.00  0.00     0.017 A 
ATOM      8  C   UNL A   1      32.339  25.204  25.633  1.00  0.00     0.046 A 
ATOM      9  C   UNL A   1      30.981  25.225  26.011  1.00  0.00     0.026 A 
ATOM     10  C   UNL A   1      30.335  24.091  26.501  1.00  0.00     0.004 A 
ATOM     11  C   UNL A   1      32.387  22.846  26.278  1.00  0.00     0.050 A 
ATOM     12  C   UNL A   1      31.037  22.900  26.631  1.00  0.00     0.021 A 
ATOM     13  Cl  UNL A   1      33.188  21.321  26.490  1.00  0.00    -0.084 Cl
BRANCH   8  14
ATOM     14  N   UNL A   1      32.902  26.355  25.037  1.00  0.00    -0.368 N 
BRANCH  14  15
ATOM     15  C   UNL A   1      33.570  27.376  25.857  1.00  0.00     0.116 C 
BRANCH  15  16
ATOM     16  C   UNL A   1      32.721  28.643  26.021  1.00  0.00     0.018 C 
ATOM     17  C   UNL A   1      31.822  28.592  27.247  1.00  0.00     0.006 C 
ENDBRANCH  15  16
ENDBRANCH  14  15
BRANCH  14  18
ATOM     18  C   UNL A   1      32.608  26.655  23.628  1.00  0.00     0.082 C 
ATOM     19  C   UNL A   1      33.580  26.310  22.530  1.00  0.00     0.027 C 
ATOM     20  C   UNL A   1      32.274  25.584  22.624  1.00  0.00     0.027 C 
ENDBRANCH  14  18
ENDBRANCH   8  14
ENDBRANCH   6   7
ENDBRANCH   3   5
ENDBRANCH   2   3
ENDBRANCH   1   2
BRANCH   1  21
ATOM     21  C   UNL A   1      39.062  22.071  25.801  1.00  0.00     0.275 C 
BRANCH  21  22
ATOM     22  O   UNL A   1      39.433  22.901  26.914  1.00  0.00    -0.458 OA
BRANCH  22  23
ATOM     23  C   UNL A   1      40.535  23.662  26.730  1.00  0.00     0.338 C 
ATOM     24  O   UNL A   1      41.530  23.391  26.084  1.00  0.00    -0.246 OA
BRANCH  23  25
ATOM     25  C   UNL A   1      40.377  24.931  27.463  1.00  0.00     0.060 A 
ATOM     26  C   UNL A   1      41.331  25.938  27.331  1.00  0.00     0.016 A 
ATOM     27  C   UNL A   1      39.337  25.062  28.384  1.00  0.00     0.016 A 
ATOM     28  C   UNL A   1      41.305  27.030  28.198  1.00  0.00     0.010 A 
ATOM     29  C   UNL A   1      39.260  26.208  29.182  1.00  0.00     0.010 A 
ATOM     30  C   UNL A   1      40.269  27.186  29.130  1.00  0.00    -0.014 A 
BRANCH  30  31
ATOM     31  C   UNL A   1      40.268  28.329  30.086  1.00  0.00     0.031 A 
ATOM     32  C   UNL A   1      41.300  28.403  31.184  1.00  0.00     0.074 A 
ATOM     33  C   UNL A   1      39.364  29.323  29.974  1.00  0.00     0.049 A 
ATOM     34  N   UNL A   1      41.360  29.210  32.214  1.00  0.00    -0.248 NA
ATOM     35  C   UNL A   1      42.410  27.438  31.112  1.00  0.00     0.031 C 
ATOM     36  C   UNL A   1      38.344  29.432  28.931  1.00  0.00     0.029 A 
ATOM     37  N   UNL A   1      39.165  30.441  30.750  1.00  0.00    -0.354 N 
ATOM     38  C   UNL A   1      42.478  28.818  32.938  1.00  0.00     0.074 A 
ATOM     39  C   UNL A   1      43.073  27.705  32.229  1.00  0.00     0.031 C 
ATOM     40  C   UNL A   1      37.653  30.570  29.109  1.00  0.00     0.029 A 
ATOM     41  C   UNL A   1      38.122  31.227  30.325  1.00  0.00     0.049 A 
ATOM     42  H   UNL A   1      39.717  30.657  31.536  1.00  0.00     0.167 HD
ATOM     43  C   UNL A   1      42.967  29.336  34.091  1.00  0.00     0.037 A 
ATOM     44  C   UNL A   1      37.574  32.330  30.870  1.00  0.00     0.037 A 
ATOM     45  C   UNL A   1      42.413  30.473  34.778  1.00  0.00     0.049 A 
ATOM     46  C   UNL A   1      38.099  32.855  32.174  1.00  0.00     0.074 A 
ATOM     47  C   UNL A   1      42.837  31.060  35.959  1.00  0.00     0.029 A 
ATOM     48  N   UNL A   1      41.326  31.209  34.335  1.00  0.00    -0.354 N 
ATOM     49  N   UNL A   1      39.105  32.425  32.893  1.00  0.00    -0.248 NA
ATOM     50  C   UNL A   1      37.388  34.002  32.760  1.00  0.00     0.031 C 
ATOM     51  C   UNL A   1      41.992  32.139  36.242  1.00  0.00     0.029 A 
ATOM     52  C   UNL A   1      41.062  32.241  35.222  1.00  0.00     0.049 A 
ATOM     53  H   UNL A   1      40.818  31.027  33.512  1.00  0.00     0.167 HD
ATOM     54  C   UNL A   1      39.155  33.250  34.009  1.00  0.00     0.074 A 
ATOM     55  C   UNL A   1      38.088  34.219  33.864  1.00  0.00     0.031 C 
ATOM     56  C   UNL A   1      40.002  33.201  35.064  1.00  0.00     0.037 A 
BRANCH  43  57
ATOM     57  C   UNL A   1      44.151  28.654  34.707  1.00  0.00     0.057 A 
ATOM     58  C   UNL A   1      44.011  27.596  35.611  1.00  0.00     0.134 A 
ATOM     59  C   UNL A   1      45.451  29.041  34.356  1.00  0.00     0.134 A 
ATOM     60  F   UNL A   1      42.792  27.189  35.998  1.00  0.00    -0.206 F 
ATOM     61  C   UNL A   1      45.124  26.955  36.158  1.00  0.00     0.040 A 
ATOM     62  C   UNL A   1      46.572  28.395  34.881  1.00  0.00     0.040 A 
ATOM     63  F   UNL A   1      45.652  30.045  33.489  1.00  0.00    -0.206 F 
ATOM     64  C   UNL A   1      46.408  27.351  35.788  1.00  0.00     0.006 A 
ENDBRANCH  43  57
BRANCH  44  65
ATOM     65  C   UNL A   1      36.426  32.992  30.203  1.00  0.00     0.057 A 
ATOM     66  C   UNL A   1      36.621  33.868  29.130  1.00  0.00     0.134 A 
ATOM     67  C   UNL A   1      35.109  32.771  30.627  1.00  0.00     0.134 A 
ATOM     68  F   UNL A   1      37.862  34.139  28.698  1.00  0.00    -0.206 F 
ATOM     69  C   UNL A   1      35.549  34.510  28.508  1.00  0.00     0.040 A 
ATOM     70  C   UNL A   1      34.027  33.387  29.999  1.00  0.00     0.040 A 
ATOM     71  F   UNL A   1      34.859  31.944  31.653  1.00  0.00    -0.206 F 
ATOM     72  C   UNL A   1      34.247  34.263  28.939  1.00  0.00     0.006 A 
ENDBRANCH  44  65
BRANCH  56  73
ATOM     73  C   UNL A   1      39.826  34.238  36.132  1.00  0.00     0.057 A 
ATOM     74  C   UNL A   1      39.060  33.988  37.276  1.00  0.00     0.134 A 
ATOM     75  C   UNL A   1      40.455  35.484  36.028  1.00  0.00     0.134 A 
ATOM     76  F   UNL A   1      38.422  32.818  37.425  1.00  0.00    -0.206 F 
ATOM     77  C   UNL A   1      38.912  34.950  38.276  1.00  0.00     0.040 A 
ATOM     78  C   UNL A   1      40.329  36.449  37.029  1.00  0.00     0.040 A 
ATOM     79  F   UNL A   1      41.206  35.782  34.957  1.00  0.00    -0.206 F 
ATOM     80  C   UNL A   1      39.552  36.184  38.156  1.00  0.00     0.006 A 
ENDBRANCH  56  73
ENDBRANCH  30  31
ENDBRANCH  23  25
ENDBRANCH  22  23
ENDBRANCH  21  22
ENDBRANCH   1  21
TORSDOF 16
ENDMDL
MODEL 2
REMARK VINA RESULT:     -10.1      4.190      7.884
REMARK SMILES CCCN(c1cccc(Cl)c1/C=C/C(=O)OCCOC(=O)c1ccc(-c2c3nc(c(-c4c(F)cccc4F)c4ccc([nH]4)c(-c4c(F)cccc4F)c4nc(c(-c5c(F)cccc5F)c5ccc2[nH]5)C=C4)C=C3)cc1)C1CC1
REMARK SMILES IDX 17 1 16 2 14 3 15 4 13 5 12 6 11 7 5 8 6 9 7 10 9 11 8 12
REMARK SMILES IDX 10 13 4 14 3 15 2 16 1 17 76 18 77 19 78 20 18 21 19 22
REMARK SMILES IDX 20 23 21 24 22 25 23 26 75 27 24 28 74 29 25 30 26 31 27 32
REMARK SMILES IDX 68 33 28 34 73 35 67 36 69 37 29 38 72 39 66 40 65 41 30 43
REMARK SMILES IDX 56 44 39 45 55 46 40 47 43 48 54 49 70 50 41 51 42 52 53 54
REMARK SMILES IDX 71 55 44 56 31 57 32 58 37 59 33 60 34 61 36 62 38 63 35 64
REMARK SMILES IDX 57 65 58 66 63 67 59 68 60 69 62 70 64 71 61 72 45 73 46 74
REMARK SMILES IDX 51 75 47 76 48 77 50 78 52 79 49 80
REMARK H PARENT 69 42 43 53
REMARK Flexibility Score: inf
ROOT
ATOM      1  C   UNL A   1      34.944  20.937  24.630  1.00  0.00     0.275 C 
ENDROOT
BRANCH   1   2
ATOM      2  O   UNL A   1      34.963  22.374  24.751  1.00  0.00    -0.459 OA
BRANCH   2   3
ATOM      3  C   UNL A   1      34.950  23.069  23.590  1.00  0.00     0.330 C 
ATOM      4  O   UNL A   1      35.779  23.006  22.694  1.00  0.00    -0.247 OA
BRANCH   3   5
ATOM      5  C   UNL A   1      33.784  23.966  23.491  1.00  0.00     0.094 C 
ATOM      6  C   UNL A   1      33.846  25.302  23.390  1.00  0.00     0.019 C 
BRANCH   6   7
ATOM      7  C   UNL A   1      32.625  26.137  23.348  1.00  0.00     0.017 A 
ATOM      8  C   UNL A   1      32.041  26.681  24.527  1.00  0.00     0.046 A 
ATOM      9  C   UNL A   1      30.848  27.423  24.396  1.00  0.00     0.026 A 
ATOM     10  C   UNL A   1      30.252  27.648  23.156  1.00  0.00     0.004 A 
ATOM     11  C   UNL A   1      32.008  26.378  22.100  1.00  0.00     0.050 A 
ATOM     12  C   UNL A   1      30.834  27.129  22.007  1.00  0.00     0.021 A 
ATOM     13  Cl  UNL A   1      32.656  25.755  20.615  1.00  0.00    -0.084 Cl
BRANCH   8  14
ATOM     14  N   UNL A   1      32.653  26.587  25.796  1.00  0.00    -0.368 N 
BRANCH  14  15
ATOM     15  C   UNL A   1      32.054  25.772  26.863  1.00  0.00     0.116 C 
BRANCH  15  16
ATOM     16  C   UNL A   1      31.974  24.287  26.491  1.00  0.00     0.018 C 
ATOM     17  C   UNL A   1      30.542  23.778  26.411  1.00  0.00     0.006 C 
ENDBRANCH  15  16
ENDBRANCH  14  15
BRANCH  14  18
ATOM     18  C   UNL A   1      33.759  27.498  26.133  1.00  0.00     0.082 C 
ATOM     19  C   UNL A   1      33.709  28.961  25.779  1.00  0.00     0.027 C 
ATOM     20  C   UNL A   1      33.650  28.539  27.214  1.00  0.00     0.027 C 
ENDBRANCH  14  18
ENDBRANCH   8  14
ENDBRANCH   6   7
ENDBRANCH   3   5
ENDBRANCH   2   3
ENDBRANCH   1   2
BRANCH   1  21
ATOM     21  C   UNL A   1      36.307  20.372  25.008  1.00  0.00     0.275 C 
BRANCH  21  22
ATOM     22  O   UNL A   1      37.039  21.372  25.736  1.00  0.00    -0.458 OA
BRANCH  22  23
ATOM     23  C   UNL A   1      38.378  21.193  25.785  1.00  0.00     0.338 C 
ATOM     24  O   UNL A   1      39.016  20.228  25.405  1.00  0.00    -0.246 OA
BRANCH  23  25
ATOM     25  C   UNL A   1      39.004  22.375  26.403  1.00  0.00     0.060 A 
ATOM     26  C   UNL A   1      38.488  23.646  26.162  1.00  0.00     0.016 A 
ATOM     27  C   UNL A   1      40.189  22.221  27.125  1.00  0.00     0.016 A 
ATOM     28  C   UNL A   1      39.216  24.771  26.550  1.00  0.00     0.010 A 
ATOM     29  C   UNL A   1      40.863  23.351  27.598  1.00  0.00     0.010 A 
ATOM     30  C   UNL A   1      40.408  24.642  27.278  1.00  0.00    -0.014 A 
BRANCH  30  31
ATOM     31  C   UNL A   1      41.208  25.843  27.652  1.00  0.00     0.031 A 
ATOM     32  C   UNL A   1      40.606  26.913  28.529  1.00  0.00     0.074 A 
ATOM     33  C   UNL A   1      42.483  25.982  27.235  1.00  0.00     0.049 A 
ATOM     34  N   UNL A   1      41.067  28.105  28.817  1.00  0.00    -0.248 NA
ATOM     35  C   UNL A   1      39.315  26.599  29.161  1.00  0.00     0.031 C 
ATOM     36  C   UNL A   1      43.229  25.009  26.438  1.00  0.00     0.029 A 
ATOM     37  N   UNL A   1      43.380  27.004  27.433  1.00  0.00    -0.354 N 
ATOM     38  C   UNL A   1      40.101  28.701  29.619  1.00  0.00     0.074 A 
ATOM     39  C   UNL A   1      39.031  27.739  29.776  1.00  0.00     0.031 C 
ATOM     40  C   UNL A   1      44.479  25.461  26.248  1.00  0.00     0.029 A 
ATOM     41  C   UNL A   1      44.597  26.793  26.834  1.00  0.00     0.049 A 
ATOM     42  H   UNL A   1      43.170  27.813  27.956  1.00  0.00     0.167 HD
ATOM     43  C   UNL A   1      40.103  29.938  30.172  1.00  0.00     0.037 A 
ATOM     44  C   UNL A   1      45.676  27.592  26.728  1.00  0.00     0.037 A 
ATOM     45  C   UNL A   1      41.182  30.883  30.062  1.00  0.00     0.049 A 
ATOM     46  C   UNL A   1      45.635  28.977  27.304  1.00  0.00     0.074 A 
ATOM     47  C   UNL A   1      41.265  32.164  30.582  1.00  0.00     0.029 A 
ATOM     48  N   UNL A   1      42.377  30.642  29.404  1.00  0.00    -0.354 N 
ATOM     49  N   UNL A   1      44.682  29.560  27.988  1.00  0.00    -0.248 NA
ATOM     50  C   UNL A   1      46.811  29.828  27.064  1.00  0.00     0.031 C 
ATOM     51  C   UNL A   1      42.502  32.707  30.218  1.00  0.00     0.029 A 
ATOM     52  C   UNL A   1      43.201  31.752  29.498  1.00  0.00     0.049 A 
ATOM     53  H   UNL A   1      42.607  29.806  28.938  1.00  0.00     0.167 HD
ATOM     54  C   UNL A   1      45.144  30.840  28.267  1.00  0.00     0.074 A 
ATOM     55  C   UNL A   1      46.470  30.944  27.694  1.00  0.00     0.031 C 
ATOM     56  C   UNL A   1      44.519  31.842  28.930  1.00  0.00     0.037 A 
BRANCH  43  57
ATOM     57  C   UNL A   1      38.877  30.357  30.926  1.00  0.00     0.057 A 
ATOM     58  C   UNL A   1      37.812  31.016  30.303  1.00  0.00     0.134 A 
ATOM     59  C   UNL A   1      38.751  30.062  32.290  1.00  0.00     0.134 A 
ATOM     60  F   UNL A   1      37.879  31.339  29.003  1.00  0.00    -0.206 F 
ATOM     61  C   UNL A   1      36.667  31.380  31.015  1.00  0.00     0.040 A 
ATOM     62  C   UNL A   1      37.604  30.403  33.007  1.00  0.00     0.040 A 
ATOM     63  F   UNL A   1      39.736  29.427  32.943  1.00  0.00    -0.206 F 
ATOM     64  C   UNL A   1      36.559  31.068  32.369  1.00  0.00     0.006 A 
ENDBRANCH  43  57
BRANCH  44  65
ATOM     65  C   UNL A   1      46.880  27.117  26.002  1.00  0.00     0.057 A 
ATOM     66  C   UNL A   1      47.897  26.424  26.668  1.00  0.00     0.134 A 
ATOM     67  C   UNL A   1      47.046  27.352  24.632  1.00  0.00     0.134 A 
ATOM     68  F   UNL A   1      47.805  26.194  27.986  1.00  0.00    -0.206 F 
ATOM     69  C   UNL A   1      49.042  25.989  25.999  1.00  0.00     0.040 A 
ATOM     70  C   UNL A   1      48.173  26.901  23.946  1.00  0.00     0.040 A 
ATOM     71  F   UNL A   1      46.107  28.013  23.940  1.00  0.00    -0.206 F 
ATOM     72  C   UNL A   1      49.178  26.222  24.631  1.00  0.00     0.006 A 
ENDBRANCH  44  65
BRANCH  56  73
ATOM     73  C   UNL A   1      45.270  33.128  29.092  1.00  0.00     0.057 A 
ATOM     74  C   UNL A   1      45.137  34.175  28.172  1.00  0.00     0.134 A 
ATOM     75  C   UNL A   1      46.110  33.332  30.194  1.00  0.00     0.134 A 
ATOM     76  F   UNL A   1      44.358  34.035  27.090  1.00  0.00    -0.206 F 
ATOM     77  C   UNL A   1      45.826  35.378  28.336  1.00  0.00     0.040 A 
ATOM     78  C   UNL A   1      46.792  34.535  30.377  1.00  0.00     0.040 A 
ATOM     79  F   UNL A   1      46.276  32.367  31.111  1.00  0.00    -0.206 F 
ATOM     80  C   UNL A   1      46.653  35.562  29.444  1.00  0.00     0.006 A 
ENDBRANCH  56  73
ENDBRANCH  30  31
ENDBRANCH  23  25
ENDBRANCH  22  23
ENDBRANCH  21  22
ENDBRANCH   1  21
TORSDOF 16
ENDMDL
MODEL 3
REMARK VINA RESULT:     -10.1      5.130     11.007
REMARK SMILES CCCN(c1cccc(Cl)c1/C=C/C(=O)OCCOC(=O)c1ccc(-c2c3nc(c(-c4c(F)cccc4F)c4ccc([nH]4)c(-c4c(F)cccc4F)c4nc(c(-c5c(F)cccc5F)c5ccc2[nH]5)C=C4)C=C3)cc1)C1CC1
REMARK SMILES IDX 17 1 16 2 14 3 15 4 13 5 12 6 11 7 5 8 6 9 7 10 9 11 8 12
REMARK SMILES IDX 10 13 4 14 3 15 2 16 1 17 76 18 77 19 78 20 18 21 19 22
REMARK SMILES IDX 20 23 21 24 22 25 23 26 75 27 24 28 74 29 25 30 26 31 27 32
REMARK SMILES IDX 68 33 28 34 73 35 67 36 69 37 29 38 72 39 66 40 65 41 30 43
REMARK SMILES IDX 56 44 39 45 55 46 40 47 43 48 54 49 70 50 41 51 42 52 53 54
REMARK SMILES IDX 71 55 44 56 31 57 32 58 37 59 33 60 34 61 36 62 38 63 35 64
REMARK SMILES IDX 57 65 58 66 63 67 59 68 60 69 62 70 64 71 61 72 45 73 46 74
REMARK SMILES IDX 51 75 47 76 48 77 50 78 52 79 49 80
REMARK H PARENT 69 42 43 53
REMARK Flexibility Score: inf
ROOT
ATOM      1  C   UNL A   1      33.943  33.959  29.079  1.00  0.00     0.275 C 
ENDROOT
BRANCH   1   2
ATOM      2  O   UNL A   1      34.560  34.705  30.147  1.00  0.00    -0.459 OA
BRANCH   2   3
ATOM      3  C   UNL A   1      34.819  34.016  31.282  1.00  0.00     0.330 C 
ATOM      4  O   UNL A   1      34.028  33.331  31.916  1.00  0.00    -0.247 OA
BRANCH   3   5
ATOM      5  C   UNL A   1      36.219  34.169  31.721  1.00  0.00     0.094 C 
ATOM      6  C   UNL A   1      37.198  33.281  31.498  1.00  0.00     0.019 C 
BRANCH   6   7
ATOM      7  C   UNL A   1      38.567  33.486  32.020  1.00  0.00     0.017 A 
ATOM      8  C   UNL A   1      38.964  33.023  33.306  1.00  0.00     0.046 A 
ATOM      9  C   UNL A   1      40.275  33.308  33.741  1.00  0.00     0.026 A 
ATOM     10  C   UNL A   1      41.182  34.003  32.942  1.00  0.00     0.004 A 
ATOM     11  C   UNL A   1      39.501  34.185  31.223  1.00  0.00     0.050 A 
ATOM     12  C   UNL A   1      40.796  34.438  31.681  1.00  0.00     0.021 A 
ATOM     13  Cl  UNL A   1      39.103  34.781  29.642  1.00  0.00    -0.084 Cl
BRANCH   8  14
ATOM     14  N   UNL A   1      38.133  32.217  34.117  1.00  0.00    -0.368 N 
BRANCH  14  15
ATOM     15  C   UNL A   1      37.172  32.825  35.048  1.00  0.00     0.116 C 
BRANCH  15  16
ATOM     16  C   UNL A   1      37.844  33.779  36.044  1.00  0.00     0.018 C 
ATOM     17  C   UNL A   1      38.540  33.046  37.181  1.00  0.00     0.006 C 
ENDBRANCH  15  16
ENDBRANCH  14  15
BRANCH  14  18
ATOM     18  C   UNL A   1      38.398  30.773  34.210  1.00  0.00     0.082 C 
ATOM     19  C   UNL A   1      37.782  29.796  33.244  1.00  0.00     0.027 C 
ATOM     20  C   UNL A   1      39.258  30.042  33.215  1.00  0.00     0.027 C 
ENDBRANCH  14  18
ENDBRANCH   8  14
ENDBRANCH   6   7
ENDBRANCH   3   5
ENDBRANCH   2   3
ENDBRANCH   1   2
BRANCH   1  21
ATOM     21  C   UNL A   1      34.965  33.018  28.454  1.00  0.00     0.275 C 
BRANCH  21  22
ATOM     22  O   UNL A   1      34.872  31.736  29.098  1.00  0.00    -0.458 OA
BRANCH  22  23
ATOM     23  C   UNL A   1      34.862  30.668  28.271  1.00  0.00     0.338 C 
ATOM     24  O   UNL A   1      33.948  30.276  27.569  1.00  0.00    -0.246 OA
BRANCH  23  25
ATOM     25  C   UNL A   1      36.168  29.990  28.338  1.00  0.00     0.060 A 
ATOM     26  C   UNL A   1      36.575  29.371  29.517  1.00  0.00     0.016 A 
ATOM     27  C   UNL A   1      37.042  30.085  27.254  1.00  0.00     0.016 A 
ATOM     28  C   UNL A   1      37.896  28.941  29.651  1.00  0.00     0.010 A 
ATOM     29  C   UNL A   1      38.336  29.563  27.360  1.00  0.00     0.010 A 
ATOM     30  C   UNL A   1      38.793  29.024  28.576  1.00  0.00    -0.014 A 
BRANCH  30  31
ATOM     31  C   UNL A   1      40.215  28.607  28.734  1.00  0.00     0.031 A 
ATOM     32  C   UNL A   1      41.226  29.564  29.315  1.00  0.00     0.074 A 
ATOM     33  C   UNL A   1      40.615  27.368  28.385  1.00  0.00     0.049 A 
ATOM     34  N   UNL A   1      42.531  29.460  29.369  1.00  0.00    -0.248 NA
ATOM     35  C   UNL A   1      40.698  30.802  29.911  1.00  0.00     0.031 C 
ATOM     36  C   UNL A   1      39.749  26.307  27.871  1.00  0.00     0.029 A 
ATOM     37  N   UNL A   1      41.862  26.790  28.419  1.00  0.00    -0.354 N 
ATOM     38  C   UNL A   1      42.982  30.636  29.955  1.00  0.00     0.074 A 
ATOM     39  C   UNL A   1      41.813  31.439  30.243  1.00  0.00     0.031 C 
ATOM     40  C   UNL A   1      40.481  25.199  27.674  1.00  0.00     0.029 A 
ATOM     41  C   UNL A   1      41.881  25.494  27.964  1.00  0.00     0.049 A 
ATOM     42  H   UNL A   1      42.666  27.261  28.738  1.00  0.00     0.167 HD
ATOM     43  C   UNL A   1      44.254  31.016  30.225  1.00  0.00     0.037 A 
ATOM     44  C   UNL A   1      42.909  24.649  27.761  1.00  0.00     0.037 A 
ATOM     45  C   UNL A   1      45.419  30.206  29.988  1.00  0.00     0.049 A 
ATOM     46  C   UNL A   1      44.314  25.110  28.019  1.00  0.00     0.074 A 
ATOM     47  C   UNL A   1      46.749  30.515  30.222  1.00  0.00     0.029 A 
ATOM     48  N   UNL A   1      45.394  28.917  29.481  1.00  0.00    -0.354 N 
ATOM     49  N   UNL A   1      44.733  26.256  28.494  1.00  0.00    -0.248 NA
ATOM     50  C   UNL A   1      45.392  24.168  27.682  1.00  0.00     0.031 C 
ATOM     51  C   UNL A   1      47.529  29.420  29.835  1.00  0.00     0.029 A 
ATOM     52  C   UNL A   1      46.683  28.420  29.388  1.00  0.00     0.049 A 
ATOM     53  H   UNL A   1      44.579  28.427  29.224  1.00  0.00     0.167 HD
ATOM     54  C   UNL A   1      46.119  26.172  28.520  1.00  0.00     0.074 A 
ATOM     55  C   UNL A   1      46.471  24.855  28.031  1.00  0.00     0.031 C 
ATOM     56  C   UNL A   1      47.020  27.107  28.906  1.00  0.00     0.037 A 
BRANCH  43  57
ATOM     57  C   UNL A   1      44.458  32.392  30.785  1.00  0.00     0.057 A 
ATOM     58  C   UNL A   1      44.568  32.624  32.160  1.00  0.00     0.134 A 
ATOM     59  C   UNL A   1      44.584  33.493  29.928  1.00  0.00     0.134 A 
ATOM     60  F   UNL A   1      44.443  31.613  33.033  1.00  0.00    -0.206 F 
ATOM     61  C   UNL A   1      44.782  33.909  32.665  1.00  0.00     0.040 A 
ATOM     62  C   UNL A   1      44.816  34.778  30.419  1.00  0.00     0.040 A 
ATOM     63  F   UNL A   1      44.493  33.334  28.598  1.00  0.00    -0.206 F 
ATOM     64  C   UNL A   1      44.912  34.988  31.793  1.00  0.00     0.006 A 
ENDBRANCH  43  57
BRANCH  44  65
ATOM     65  C   UNL A   1      42.652  23.284  27.240  1.00  0.00     0.057 A 
ATOM     66  C   UNL A   1      42.340  22.228  28.104  1.00  0.00     0.134 A 
ATOM     67  C   UNL A   1      42.721  23.000  25.871  1.00  0.00     0.134 A 
ATOM     68  F   UNL A   1      42.286  22.435  29.429  1.00  0.00    -0.206 F 
ATOM     69  C   UNL A   1      42.114  20.937  27.626  1.00  0.00     0.040 A 
ATOM     70  C   UNL A   1      42.474  21.720  25.377  1.00  0.00     0.040 A 
ATOM     71  F   UNL A   1      43.019  23.970  24.993  1.00  0.00    -0.206 F 
ATOM     72  C   UNL A   1      42.174  20.683  26.257  1.00  0.00     0.006 A 
ENDBRANCH  44  65
BRANCH  56  73
ATOM     73  C   UNL A   1      48.468  26.732  28.836  1.00  0.00     0.057 A 
ATOM     74  C   UNL A   1      49.257  27.056  27.726  1.00  0.00     0.134 A 
ATOM     75  C   UNL A   1      49.087  26.068  29.903  1.00  0.00     0.134 A 
ATOM     76  F   UNL A   1      48.718  27.680  26.668  1.00  0.00    -0.206 F 
ATOM     77  C   UNL A   1      50.611  26.720  27.673  1.00  0.00     0.040 A 
ATOM     78  C   UNL A   1      50.443  25.740  29.868  1.00  0.00     0.040 A 
ATOM     79  F   UNL A   1      48.385  25.732  30.996  1.00  0.00    -0.206 F 
ATOM     80  C   UNL A   1      51.208  26.063  28.749  1.00  0.00     0.006 A 
ENDBRANCH  56  73
ENDBRANCH  30  31
ENDBRANCH  23  25
ENDBRANCH  22  23
ENDBRANCH  21  22
ENDBRANCH   1  21
TORSDOF 16
ENDMDL
