MODEL 1
REMARK VINA RESULT:     -10.0      0.000      0.000
REMARK SMILES Cc1noc(C)c1CNc1cnc(C(=O)OCCOC(=O)c2ccc(-c3c4nc(c(-c5c(F)cccc5F)c5ccc([nH]5)c(-c5c(F)cccc5F)c5nc(c(-c6c(F)cccc6F)c6ccc3[nH]6)C=C5)C=C4)cc2)cn1
REMARK SMILES IDX 17 1 16 2 14 3 15 4 13 5 10 6 11 7 77 8 12 9 76 10 9 11 8 13
REMARK SMILES IDX 7 14 1 15 2 16 3 17 4 18 5 19 6 20 18 21 19 22 20 23 21 24
REMARK SMILES IDX 22 25 23 26 75 27 24 28 74 29 25 30 26 31 27 32 68 33 28 34
REMARK SMILES IDX 73 35 67 36 69 37 29 38 72 39 66 40 65 41 30 43 56 44 39 45
REMARK SMILES IDX 55 46 40 47 43 48 54 49 70 50 41 51 42 52 53 54 71 55 44 56
REMARK SMILES IDX 31 57 32 58 37 59 33 60 34 61 36 62 38 63 35 64 57 65 58 66
REMARK SMILES IDX 63 67 59 68 60 69 62 70 64 71 61 72 45 73 46 74 51 75 47 76
REMARK SMILES IDX 48 77 50 78 52 79 49 80
REMARK H PARENT 9 12 69 42 43 53
REMARK Flexibility Score: inf
ROOT
ATOM      1  C   UNL A   1      32.733  36.592  31.120  1.00  0.00     0.275 C 
ENDROOT
BRANCH   1   2
ATOM      2  O   UNL A   1      33.987  36.906  31.759  1.00  0.00    -0.457 OA
BRANCH   2   3
ATOM      3  C   UNL A   1      34.043  36.664  33.090  1.00  0.00     0.358 C 
ATOM      4  O   UNL A   1      33.455  37.287  33.963  1.00  0.00    -0.244 OA
BRANCH   3   5
ATOM      5  C   UNL A   1      34.850  35.462  33.395  1.00  0.00     0.166 A 
ATOM      6  C   UNL A   1      36.128  33.107  33.770  1.00  0.00     0.144 A 
ATOM      7  C   UNL A   1      35.748  33.934  34.834  1.00  0.00     0.158 A 
ATOM      8  N   UNL A   1      35.894  33.479  32.502  1.00  0.00    -0.235 NA
ATOM      9  N   UNL A   1      35.109  35.127  34.683  1.00  0.00    -0.244 NA
ATOM     10  C   UNL A   1      35.233  34.650  32.340  1.00  0.00     0.149 A 
BRANCH   6  11
ATOM     11  N   UNL A   1      36.692  31.858  33.908  1.00  0.00    -0.365 N 
ATOM     12  H   UNL A   1      36.181  31.044  33.692  1.00  0.00     0.162 HD
BRANCH  11  13
ATOM     13  C   UNL A   1      38.063  31.776  34.382  1.00  0.00     0.156 C 
BRANCH  13  14
ATOM     14  C   UNL A   1      38.789  30.531  33.997  1.00  0.00     0.037 A 
ATOM     15  C   UNL A   1      40.876  30.571  35.589  1.00  0.00     0.071 C 
ATOM     16  C   UNL A   1      40.014  30.020  34.516  1.00  0.00     0.086 A 
ATOM     17  N   UNL A   1      40.359  28.875  33.914  1.00  0.00    -0.085 NA
ATOM     18  O   UNL A   1      39.360  28.612  33.001  1.00  0.00    -0.361 OA
ATOM     19  C   UNL A   1      38.425  29.594  33.054  1.00  0.00     0.138 A 
ATOM     20  C   UNL A   1      37.274  29.450  32.144  1.00  0.00     0.091 C 
ENDBRANCH  13  14
ENDBRANCH  11  13
ENDBRANCH   6  11
ENDBRANCH   3   5
ENDBRANCH   2   3
ENDBRANCH   1   2
BRANCH   1  21
ATOM     21  C   UNL A   1      32.939  36.024  29.713  1.00  0.00     0.275 C 
BRANCH  21  22
ATOM     22  O   UNL A   1      32.619  34.620  29.653  1.00  0.00    -0.458 OA
BRANCH  22  23
ATOM     23  C   UNL A   1      32.967  34.000  28.504  1.00  0.00     0.338 C 
ATOM     24  O   UNL A   1      32.335  33.951  27.462  1.00  0.00    -0.246 OA
BRANCH  23  25
ATOM     25  C   UNL A   1      34.310  33.415  28.626  1.00  0.00     0.060 A 
ATOM     26  C   UNL A   1      34.468  32.274  29.408  1.00  0.00     0.016 A 
ATOM     27  C   UNL A   1      35.425  34.088  28.134  1.00  0.00     0.016 A 
ATOM     28  C   UNL A   1      35.737  31.861  29.799  1.00  0.00     0.010 A 
ATOM     29  C   UNL A   1      36.703  33.606  28.439  1.00  0.00     0.010 A 
ATOM     30  C   UNL A   1      36.874  32.508  29.303  1.00  0.00    -0.014 A 
BRANCH  30  31
ATOM     31  C   UNL A   1      38.238  32.057  29.697  1.00  0.00     0.031 A 
ATOM     32  C   UNL A   1      38.778  30.753  29.176  1.00  0.00     0.074 A 
ATOM     33  C   UNL A   1      38.990  32.798  30.535  1.00  0.00     0.049 A 
ATOM     34  N   UNL A   1      39.797  30.051  29.600  1.00  0.00    -0.248 NA
ATOM     35  C   UNL A   1      38.068  30.152  28.035  1.00  0.00     0.031 C 
ATOM     36  C   UNL A   1      38.628  34.112  31.070  1.00  0.00     0.029 A 
ATOM     37  N   UNL A   1      40.219  32.544  31.093  1.00  0.00    -0.354 N 
ATOM     38  C   UNL A   1      39.808  28.895  28.829  1.00  0.00     0.074 A 
ATOM     39  C   UNL A   1      38.706  28.997  27.896  1.00  0.00     0.031 C 
ATOM     40  C   UNL A   1      39.613  34.553  31.865  1.00  0.00     0.029 A 
ATOM     41  C   UNL A   1      40.630  33.515  31.974  1.00  0.00     0.049 A 
ATOM     42  H   UNL A   1      40.752  31.743  30.884  1.00  0.00     0.167 HD
ATOM     43  C   UNL A   1      40.656  27.841  28.906  1.00  0.00     0.037 A 
ATOM     44  C   UNL A   1      41.671  33.544  32.827  1.00  0.00     0.037 A 
ATOM     45  C   UNL A   1      41.791  27.778  29.787  1.00  0.00     0.049 A 
ATOM     46  C   UNL A   1      42.587  32.358  32.911  1.00  0.00     0.074 A 
ATOM     47  C   UNL A   1      42.718  26.760  29.930  1.00  0.00     0.029 A 
ATOM     48  N   UNL A   1      42.167  28.788  30.660  1.00  0.00    -0.354 N 
ATOM     49  N   UNL A   1      42.542  31.234  32.237  1.00  0.00    -0.248 NA
ATOM     50  C   UNL A   1      43.681  32.429  33.889  1.00  0.00     0.031 C 
ATOM     51  C   UNL A   1      43.643  27.144  30.907  1.00  0.00     0.029 A 
ATOM     52  C   UNL A   1      43.309  28.414  31.348  1.00  0.00     0.049 A 
ATOM     53  H   UNL A   1      41.693  29.643  30.774  1.00  0.00     0.167 HD
ATOM     54  C   UNL A   1      43.605  30.472  32.699  1.00  0.00     0.074 A 
ATOM     55  C   UNL A   1      44.285  31.264  33.703  1.00  0.00     0.031 C 
ATOM     56  C   UNL A   1      43.980  29.225  32.329  1.00  0.00     0.037 A 
BRANCH  43  57
ATOM     57  C   UNL A   1      40.370  26.649  28.043  1.00  0.00     0.057 A 
ATOM     58  C   UNL A   1      40.982  26.462  26.799  1.00  0.00     0.134 A 
ATOM     59  C   UNL A   1      39.508  25.642  28.499  1.00  0.00     0.134 A 
ATOM     60  F   UNL A   1      41.807  27.396  26.301  1.00  0.00    -0.206 F 
ATOM     61  C   UNL A   1      40.739  25.321  26.033  1.00  0.00     0.040 A 
ATOM     62  C   UNL A   1      39.273  24.487  27.752  1.00  0.00     0.040 A 
ATOM     63  F   UNL A   1      38.894  25.758  29.687  1.00  0.00    -0.206 F 
ATOM     64  C   UNL A   1      39.889  24.325  26.512  1.00  0.00     0.006 A 
ENDBRANCH  43  57
BRANCH  44  65
ATOM     65  C   UNL A   1      41.858  34.714  33.721  1.00  0.00     0.057 A 
ATOM     66  C   UNL A   1      41.219  34.788  34.963  1.00  0.00     0.134 A 
ATOM     67  C   UNL A   1      42.691  35.780  33.357  1.00  0.00     0.134 A 
ATOM     68  F   UNL A   1      40.390  33.809  35.354  1.00  0.00    -0.206 F 
ATOM     69  C   UNL A   1      41.398  35.883  35.810  1.00  0.00     0.040 A 
ATOM     70  C   UNL A   1      42.900  36.867  34.206  1.00  0.00     0.040 A 
ATOM     71  F   UNL A   1      43.334  35.767  32.181  1.00  0.00    -0.206 F 
ATOM     72  C   UNL A   1      42.247  36.922  35.436  1.00  0.00     0.006 A 
ENDBRANCH  44  65
BRANCH  56  73
ATOM     73  C   UNL A   1      45.202  28.657  32.980  1.00  0.00     0.057 A 
ATOM     74  C   UNL A   1      46.473  28.808  32.414  1.00  0.00     0.134 A 
ATOM     75  C   UNL A   1      45.110  28.001  34.213  1.00  0.00     0.134 A 
ATOM     76  F   UNL A   1      46.621  29.416  31.228  1.00  0.00    -0.206 F 
ATOM     77  C   UNL A   1      47.614  28.318  33.052  1.00  0.00     0.040 A 
ATOM     78  C   UNL A   1      46.244  27.522  34.868  1.00  0.00     0.040 A 
ATOM     79  F   UNL A   1      43.918  27.831  34.806  1.00  0.00    -0.206 F 
ATOM     80  C   UNL A   1      47.501  27.680  34.286  1.00  0.00     0.006 A 
ENDBRANCH  56  73
ENDBRANCH  30  31
ENDBRANCH  23  25
ENDBRANCH  22  23
ENDBRANCH  21  22
ENDBRANCH   1  21
TORSDOF 14
ENDMDL
MODEL 2
REMARK VINA RESULT:      -9.7      4.765      9.113
REMARK SMILES Cc1noc(C)c1CNc1cnc(C(=O)OCCOC(=O)c2ccc(-c3c4nc(c(-c5c(F)cccc5F)c5ccc([nH]5)c(-c5c(F)cccc5F)c5nc(c(-c6c(F)cccc6F)c6ccc3[nH]6)C=C5)C=C4)cc2)cn1
REMARK SMILES IDX 17 1 16 2 14 3 15 4 13 5 10 6 11 7 77 8 12 9 76 10 9 11 8 13
REMARK SMILES IDX 7 14 1 15 2 16 3 17 4 18 5 19 6 20 18 21 19 22 20 23 21 24
REMARK SMILES IDX 22 25 23 26 75 27 24 28 74 29 25 30 26 31 27 32 68 33 28 34
REMARK SMILES IDX 73 35 67 36 69 37 29 38 72 39 66 40 65 41 30 43 56 44 39 45
REMARK SMILES IDX 55 46 40 47 43 48 54 49 70 50 41 51 42 52 53 54 71 55 44 56
REMARK SMILES IDX 31 57 32 58 37 59 33 60 34 61 36 62 38 63 35 64 57 65 58 66
REMARK SMILES IDX 63 67 59 68 60 69 62 70 64 71 61 72 45 73 46 74 51 75 47 76
REMARK SMILES IDX 48 77 50 78 52 79 49 80
REMARK H PARENT 9 12 69 42 43 53
REMARK Flexibility Score: inf
ROOT
ATOM      1  C   UNL A   1      33.879  34.116  28.782  1.00  0.00     0.275 C 
ENDROOT
BRANCH   1   2
ATOM      2  O   UNL A   1      34.012  32.914  27.998  1.00  0.00    -0.457 OA
BRANCH   2   3
ATOM      3  C   UNL A   1      32.866  32.441  27.451  1.00  0.00     0.358 C 
ATOM      4  O   UNL A   1      31.896  33.109  27.117  1.00  0.00    -0.244 OA
BRANCH   3   5
ATOM      5  C   UNL A   1      32.937  30.985  27.203  1.00  0.00     0.166 A 
ATOM      6  C   UNL A   1      33.306  28.383  26.558  1.00  0.00     0.144 A 
ATOM      7  C   UNL A   1      32.052  29.003  26.496  1.00  0.00     0.158 A 
ATOM      8  N   UNL A   1      34.382  29.066  26.980  1.00  0.00    -0.235 NA
ATOM      9  N   UNL A   1      31.828  30.306  26.817  1.00  0.00    -0.244 NA
ATOM     10  C   UNL A   1      34.178  30.372  27.274  1.00  0.00     0.149 A 
BRANCH   6  11
ATOM     11  N   UNL A   1      33.567  27.094  26.151  1.00  0.00    -0.365 N 
ATOM     12  H   UNL A   1      34.367  26.614  26.467  1.00  0.00     0.162 HD
BRANCH  11  13
ATOM     13  C   UNL A   1      32.628  26.462  25.240  1.00  0.00     0.156 C 
BRANCH  13  14
ATOM     14  C   UNL A   1      33.098  26.349  23.828  1.00  0.00     0.037 A 
ATOM     15  C   UNL A   1      32.320  28.628  22.783  1.00  0.00     0.071 C 
ATOM     16  C   UNL A   1      32.952  27.286  22.765  1.00  0.00     0.086 A 
ATOM     17  N   UNL A   1      33.500  26.829  21.633  1.00  0.00    -0.085 NA
ATOM     18  O   UNL A   1      34.024  25.592  21.939  1.00  0.00    -0.361 OA
ATOM     19  C   UNL A   1      33.789  25.309  23.245  1.00  0.00     0.138 A 
ATOM     20  C   UNL A   1      34.306  24.018  23.737  1.00  0.00     0.091 C 
ENDBRANCH  13  14
ENDBRANCH  11  13
ENDBRANCH   6  11
ENDBRANCH   3   5
ENDBRANCH   2   3
ENDBRANCH   1   2
BRANCH   1  21
ATOM     21  C   UNL A   1      34.132  33.854  30.269  1.00  0.00     0.275 C 
BRANCH  21  22
ATOM     22  O   UNL A   1      34.399  32.462  30.528  1.00  0.00    -0.458 OA
BRANCH  22  23
ATOM     23  C   UNL A   1      35.288  32.221  31.517  1.00  0.00     0.338 C 
ATOM     24  O   UNL A   1      35.187  32.512  32.696  1.00  0.00    -0.246 OA
BRANCH  23  25
ATOM     25  C   UNL A   1      36.431  31.454  31.000  1.00  0.00     0.060 A 
ATOM     26  C   UNL A   1      37.267  30.815  31.912  1.00  0.00     0.016 A 
ATOM     27  C   UNL A   1      36.781  31.521  29.654  1.00  0.00     0.016 A 
ATOM     28  C   UNL A   1      38.510  30.338  31.509  1.00  0.00     0.010 A 
ATOM     29  C   UNL A   1      37.983  30.943  29.232  1.00  0.00     0.010 A 
ATOM     30  C   UNL A   1      38.878  30.376  30.160  1.00  0.00    -0.014 A 
BRANCH  30  31
ATOM     31  C   UNL A   1      40.196  29.845  29.716  1.00  0.00     0.031 A 
ATOM     32  C   UNL A   1      41.385  30.764  29.628  1.00  0.00     0.074 A 
ATOM     33  C   UNL A   1      40.333  28.550  29.370  1.00  0.00     0.049 A 
ATOM     34  N   UNL A   1      42.527  30.584  29.016  1.00  0.00    -0.248 NA
ATOM     35  C   UNL A   1      41.268  32.064  30.310  1.00  0.00     0.031 C 
ATOM     36  C   UNL A   1      39.290  27.527  29.464  1.00  0.00     0.029 A 
ATOM     37  N   UNL A   1      41.413  27.871  28.858  1.00  0.00    -0.354 N 
ATOM     38  C   UNL A   1      43.234  31.769  29.175  1.00  0.00     0.074 A 
ATOM     39  C   UNL A   1      42.401  32.656  29.960  1.00  0.00     0.031 C 
ATOM     40  C   UNL A   1      39.780  26.354  29.038  1.00  0.00     0.029 A 
ATOM     41  C   UNL A   1      41.138  26.560  28.552  1.00  0.00     0.049 A 
ATOM     42  H   UNL A   1      42.296  28.285  28.723  1.00  0.00     0.167 HD
ATOM     43  C   UNL A   1      44.460  32.088  28.696  1.00  0.00     0.037 A 
ATOM     44  C   UNL A   1      41.867  25.641  27.892  1.00  0.00     0.037 A 
ATOM     45  C   UNL A   1      45.309  31.176  27.977  1.00  0.00     0.049 A 
ATOM     46  C   UNL A   1      43.215  26.020  27.353  1.00  0.00     0.074 A 
ATOM     47  C   UNL A   1      46.575  31.399  27.461  1.00  0.00     0.029 A 
ATOM     48  N   UNL A   1      44.988  29.858  27.692  1.00  0.00    -0.354 N 
ATOM     49  N   UNL A   1      43.842  27.169  27.436  1.00  0.00    -0.248 NA
ATOM     50  C   UNL A   1      43.948  24.988  26.605  1.00  0.00     0.031 C 
ATOM     51  C   UNL A   1      47.010  30.222  26.844  1.00  0.00     0.029 A 
ATOM     52  C   UNL A   1      46.029  29.258  27.004  1.00  0.00     0.049 A 
ATOM     53  H   UNL A   1      44.145  29.415  27.942  1.00  0.00     0.167 HD
ATOM     54  C   UNL A   1      45.044  26.995  26.765  1.00  0.00     0.074 A 
ATOM     55  C   UNL A   1      45.065  25.627  26.289  1.00  0.00     0.031 C 
ATOM     56  C   UNL A   1      46.037  27.890  26.557  1.00  0.00     0.037 A 
BRANCH  43  57
ATOM     57  C   UNL A   1      44.946  33.492  28.895  1.00  0.00     0.057 A 
ATOM     58  C   UNL A   1      45.730  33.862  29.994  1.00  0.00     0.134 A 
ATOM     59  C   UNL A   1      44.670  34.475  27.935  1.00  0.00     0.134 A 
ATOM     60  F   UNL A   1      46.019  32.970  30.954  1.00  0.00    -0.206 F 
ATOM     61  C   UNL A   1      46.214  35.164  30.136  1.00  0.00     0.040 A 
ATOM     62  C   UNL A   1      45.165  35.774  28.056  1.00  0.00     0.040 A 
ATOM     63  F   UNL A   1      43.928  34.182  26.856  1.00  0.00    -0.206 F 
ATOM     64  C   UNL A   1      45.938  36.122  29.162  1.00  0.00     0.006 A 
ENDBRANCH  43  57
BRANCH  44  65
ATOM     65  C   UNL A   1      41.302  24.291  27.647  1.00  0.00     0.057 A 
ATOM     66  C   UNL A   1      41.729  23.181  28.382  1.00  0.00     0.134 A 
ATOM     67  C   UNL A   1      40.310  24.083  26.679  1.00  0.00     0.134 A 
ATOM     68  F   UNL A   1      42.693  23.314  29.305  1.00  0.00    -0.206 F 
ATOM     69  C   UNL A   1      41.195  21.910  28.162  1.00  0.00     0.040 A 
ATOM     70  C   UNL A   1      39.749  22.824  26.466  1.00  0.00     0.040 A 
ATOM     71  F   UNL A   1      39.857  25.107  25.942  1.00  0.00    -0.206 F 
ATOM     72  C   UNL A   1      40.195  21.731  27.207  1.00  0.00     0.006 A 
ENDBRANCH  44  65
BRANCH  56  73
ATOM     73  C   UNL A   1      47.248  27.410  25.819  1.00  0.00     0.057 A 
ATOM     74  C   UNL A   1      48.301  26.766  26.479  1.00  0.00     0.134 A 
ATOM     75  C   UNL A   1      47.332  27.543  24.428  1.00  0.00     0.134 A 
ATOM     76  F   UNL A   1      48.282  26.620  27.811  1.00  0.00    -0.206 F 
ATOM     77  C   UNL A   1      49.405  26.276  25.777  1.00  0.00     0.040 A 
ATOM     78  C   UNL A   1      48.421  27.044  23.714  1.00  0.00     0.040 A 
ATOM     79  F   UNL A   1      46.350  28.147  23.742  1.00  0.00    -0.206 F 
ATOM     80  C   UNL A   1      49.462  26.409  24.390  1.00  0.00     0.006 A 
ENDBRANCH  56  73
ENDBRANCH  30  31
ENDBRANCH  23  25
ENDBRANCH  22  23
ENDBRANCH  21  22
ENDBRANCH   1  21
TORSDOF 14
ENDMDL
MODEL 3
REMARK VINA RESULT:      -9.5      4.633     10.620
REMARK SMILES Cc1noc(C)c1CNc1cnc(C(=O)OCCOC(=O)c2ccc(-c3c4nc(c(-c5c(F)cccc5F)c5ccc([nH]5)c(-c5c(F)cccc5F)c5nc(c(-c6c(F)cccc6F)c6ccc3[nH]6)C=C5)C=C4)cc2)cn1
REMARK SMILES IDX 17 1 16 2 14 3 15 4 13 5 10 6 11 7 77 8 12 9 76 10 9 11 8 13
REMARK SMILES IDX 7 14 1 15 2 16 3 17 4 18 5 19 6 20 18 21 19 22 20 23 21 24
REMARK SMILES IDX 22 25 23 26 75 27 24 28 74 29 25 30 26 31 27 32 68 33 28 34
REMARK SMILES IDX 73 35 67 36 69 37 29 38 72 39 66 40 65 41 30 43 56 44 39 45
REMARK SMILES IDX 55 46 40 47 43 48 54 49 70 50 41 51 42 52 53 54 71 55 44 56
REMARK SMILES IDX 31 57 32 58 37 59 33 60 34 61 36 62 38 63 35 64 57 65 58 66
REMARK SMILES IDX 63 67 59 68 60 69 62 70 64 71 61 72 45 73 46 74 51 75 47 76
REMARK SMILES IDX 48 77 50 78 52 79 49 80
REMARK H PARENT 9 12 69 42 43 53
REMARK Flexibility Score: inf
ROOT
ATOM      1  C   UNL A   1      40.922  20.384  26.503  1.00  0.00     0.275 C 
ENDROOT
BRANCH   1   2
ATOM      2  O   UNL A   1      39.900  21.313  26.091  1.00  0.00    -0.457 OA
BRANCH   2   3
ATOM      3  C   UNL A   1      38.819  20.764  25.485  1.00  0.00     0.358 C 
ATOM      4  O   UNL A   1      38.678  19.585  25.191  1.00  0.00    -0.244 OA
BRANCH   3   5
ATOM      5  C   UNL A   1      37.740  21.756  25.286  1.00  0.00     0.166 A 
ATOM      6  C   UNL A   1      35.754  23.592  25.231  1.00  0.00     0.144 A 
ATOM      7  C   UNL A   1      35.688  22.392  24.513  1.00  0.00     0.158 A 
ATOM      8  N   UNL A   1      36.841  23.890  25.959  1.00  0.00    -0.235 NA
ATOM      9  N   UNL A   1      36.670  21.448  24.512  1.00  0.00    -0.244 NA
ATOM     10  C   UNL A   1      37.811  22.947  25.991  1.00  0.00     0.149 A 
BRANCH   6  11
ATOM     11  N   UNL A   1      34.734  24.514  25.316  1.00  0.00    -0.365 N 
ATOM     12  H   UNL A   1      34.880  25.395  25.731  1.00  0.00     0.162 HD
BRANCH  11  13
ATOM     13  C   UNL A   1      33.436  24.148  24.776  1.00  0.00     0.156 C 
BRANCH  13  14
ATOM     14  C   UNL A   1      32.358  23.970  25.792  1.00  0.00     0.037 A 
ATOM     15  C   UNL A   1      30.390  25.394  24.795  1.00  0.00     0.071 C 
ATOM     16  C   UNL A   1      31.044  24.521  25.801  1.00  0.00     0.086 A 
ATOM     17  N   UNL A   1      30.363  24.140  26.888  1.00  0.00    -0.085 NA
ATOM     18  O   UNL A   1      31.214  23.324  27.602  1.00  0.00    -0.361 OA
ATOM     19  C   UNL A   1      32.399  23.219  26.947  1.00  0.00     0.138 A 
ATOM     20  C   UNL A   1      33.419  22.361  27.577  1.00  0.00     0.091 C 
ENDBRANCH  13  14
ENDBRANCH  11  13
ENDBRANCH   6  11
ENDBRANCH   3   5
ENDBRANCH   2   3
ENDBRANCH   1   2
BRANCH   1  21
ATOM     21  C   UNL A   1      42.286  20.738  25.904  1.00  0.00     0.275 C 
BRANCH  21  22
ATOM     22  O   UNL A   1      42.853  21.909  26.524  1.00  0.00    -0.458 OA
BRANCH  22  23
ATOM     23  C   UNL A   1      42.820  23.031  25.772  1.00  0.00     0.338 C 
ATOM     24  O   UNL A   1      43.070  23.139  24.584  1.00  0.00    -0.246 OA
BRANCH  23  25
ATOM     25  C   UNL A   1      42.347  24.170  26.573  1.00  0.00     0.060 A 
ATOM     26  C   UNL A   1      43.066  25.361  26.520  1.00  0.00     0.016 A 
ATOM     27  C   UNL A   1      41.325  24.007  27.504  1.00  0.00     0.016 A 
ATOM     28  C   UNL A   1      42.848  26.355  27.468  1.00  0.00     0.010 A 
ATOM     29  C   UNL A   1      41.034  25.053  28.387  1.00  0.00     0.010 A 
ATOM     30  C   UNL A   1      41.814  26.225  28.403  1.00  0.00    -0.014 A 
BRANCH  30  31
ATOM     31  C   UNL A   1      41.557  27.294  29.406  1.00  0.00     0.031 A 
ATOM     32  C   UNL A   1      42.372  27.352  30.670  1.00  0.00     0.074 A 
ATOM     33  C   UNL A   1      40.584  28.205  29.204  1.00  0.00     0.049 A 
ATOM     34  N   UNL A   1      42.137  28.007  31.777  1.00  0.00    -0.248 NA
ATOM     35  C   UNL A   1      43.609  26.553  30.696  1.00  0.00     0.031 C 
ATOM     36  C   UNL A   1      39.756  28.315  28.001  1.00  0.00     0.029 A 
ATOM     37  N   UNL A   1      40.119  29.210  30.016  1.00  0.00    -0.354 N 
ATOM     38  C   UNL A   1      43.153  27.647  32.654  1.00  0.00     0.074 A 
ATOM     39  C   UNL A   1      44.019  26.729  31.944  1.00  0.00     0.031 C 
ATOM     40  C   UNL A   1      38.896  29.334  28.148  1.00  0.00     0.029 A 
ATOM     41  C   UNL A   1      39.045  29.887  29.489  1.00  0.00     0.049 A 
ATOM     42  H   UNL A   1      40.515  29.425  30.892  1.00  0.00     0.167 HD
ATOM     43  C   UNL A   1      43.334  28.038  33.938  1.00  0.00     0.037 A 
ATOM     44  C   UNL A   1      38.225  30.801  30.039  1.00  0.00     0.037 A 
ATOM     45  C   UNL A   1      42.509  29.004  34.613  1.00  0.00     0.049 A 
ATOM     46  C   UNL A   1      38.431  31.207  31.469  1.00  0.00     0.074 A 
ATOM     47  C   UNL A   1      42.619  29.478  35.909  1.00  0.00     0.029 A 
ATOM     48  N   UNL A   1      41.434  29.663  34.035  1.00  0.00    -0.354 N 
ATOM     49  N   UNL A   1      39.344  30.799  32.318  1.00  0.00    -0.248 NA
ATOM     50  C   UNL A   1      37.481  32.177  32.030  1.00  0.00     0.031 C 
ATOM     51  C   UNL A   1      41.595  30.407  36.124  1.00  0.00     0.029 A 
ATOM     52  C   UNL A   1      40.869  30.535  34.951  1.00  0.00     0.049 A 
ATOM     53  H   UNL A   1      41.120  29.530  33.112  1.00  0.00     0.167 HD
ATOM     54  C   UNL A   1      39.087  31.471  33.503  1.00  0.00     0.074 A 
ATOM     55  C   UNL A   1      37.939  32.321  33.265  1.00  0.00     0.031 C 
ATOM     56  C   UNL A   1      39.740  31.385  34.687  1.00  0.00     0.037 A 
BRANCH  43  57
ATOM     57  C   UNL A   1      44.442  27.395  34.716  1.00  0.00     0.057 A 
ATOM     58  C   UNL A   1      44.263  26.204  35.428  1.00  0.00     0.134 A 
ATOM     59  C   UNL A   1      45.728  27.954  34.701  1.00  0.00     0.134 A 
ATOM     60  F   UNL A   1      43.054  25.627  35.492  1.00  0.00    -0.206 F 
ATOM     61  C   UNL A   1      45.320  25.596  36.106  1.00  0.00     0.040 A 
ATOM     62  C   UNL A   1      46.798  27.345  35.358  1.00  0.00     0.040 A 
ATOM     63  F   UNL A   1      45.967  29.093  34.032  1.00  0.00    -0.206 F 
ATOM     64  C   UNL A   1      46.594  26.162  36.066  1.00  0.00     0.006 A 
ENDBRANCH  43  57
BRANCH  44  65
ATOM     65  C   UNL A   1      37.090  31.342  29.250  1.00  0.00     0.057 A 
ATOM     66  C   UNL A   1      35.938  30.583  29.023  1.00  0.00     0.134 A 
ATOM     67  C   UNL A   1      37.128  32.637  28.717  1.00  0.00     0.134 A 
ATOM     68  F   UNL A   1      35.854  29.328  29.489  1.00  0.00    -0.206 F 
ATOM     69  C   UNL A   1      34.864  31.090  28.289  1.00  0.00     0.040 A 
ATOM     70  C   UNL A   1      36.052  33.165  28.004  1.00  0.00     0.040 A 
ATOM     71  F   UNL A   1      38.204  33.415  28.902  1.00  0.00    -0.206 F 
ATOM     72  C   UNL A   1      34.916  32.388  27.785  1.00  0.00     0.006 A 
ENDBRANCH  44  65
BRANCH  56  73
ATOM     73  C   UNL A   1      39.256  32.262  35.799  1.00  0.00     0.057 A 
ATOM     74  C   UNL A   1      39.720  33.573  35.955  1.00  0.00     0.134 A 
ATOM     75  C   UNL A   1      38.276  31.806  36.688  1.00  0.00     0.134 A 
ATOM     76  F   UNL A   1      40.667  34.060  35.141  1.00  0.00    -0.206 F 
ATOM     77  C   UNL A   1      39.228  34.401  36.965  1.00  0.00     0.040 A 
ATOM     78  C   UNL A   1      37.764  32.629  37.691  1.00  0.00     0.040 A 
ATOM     79  F   UNL A   1      37.790  30.559  36.585  1.00  0.00    -0.206 F 
ATOM     80  C   UNL A   1      38.242  33.931  37.832  1.00  0.00     0.006 A 
ENDBRANCH  56  73
ENDBRANCH  30  31
ENDBRANCH  23  25
ENDBRANCH  22  23
ENDBRANCH  21  22
ENDBRANCH   1  21
TORSDOF 14
ENDMDL
