MODEL 1
REMARK VINA RESULT:     -10.1      0.000      0.000
REMARK SMILES O=C(OCCOC(=O)[C@H]1CC[C@@H]([NH+]2CCCC2)CC1)c1ccc(-c2c3nc(c(-c4c(F)cccc4F)c4ccc([nH]4)c(-c4c(F)cccc4F)c4nc(c(-c5c(F)cccc5F)c5ccc2[nH]5)C=C4)C=C3)cc1
REMARK SMILES IDX 4 1 3 2 2 3 1 4 20 5 21 6 73 7 22 8 72 9 23 10 24 11 25 12
REMARK SMILES IDX 66 13 26 14 71 15 65 16 67 17 27 18 70 19 64 20 63 21 28 23
REMARK SMILES IDX 54 24 37 25 53 26 38 27 41 28 52 29 68 30 39 31 40 32 51 34
REMARK SMILES IDX 69 35 42 36 29 37 30 38 35 39 31 40 32 41 34 42 36 43 33 44
REMARK SMILES IDX 55 45 56 46 61 47 57 48 58 49 60 50 62 51 59 52 43 53 44 54
REMARK SMILES IDX 49 55 45 56 46 57 48 58 50 59 47 60 5 61 6 62 7 63 8 64 9 65
REMARK SMILES IDX 10 66 19 67 11 68 18 69 12 70 13 71 14 72 17 73 15 75 16 76
REMARK H PARENT 67 22 41 33 13 74
REMARK Flexibility Score: inf
ROOT
ATOM      1  C   UNL A   1      33.793  33.463  28.149  1.00  0.00     0.275 C 
ENDROOT
BRANCH   1   2
ATOM      2  O   UNL A   1      34.118  32.471  29.127  1.00  0.00    -0.458 OA
BRANCH   2   3
ATOM      3  C   UNL A   1      35.343  32.100  29.570  1.00  0.00     0.338 C 
ATOM      4  O   UNL A   1      35.991  32.930  30.209  1.00  0.00    -0.246 OA
BRANCH   3   5
ATOM      5  C   UNL A   1      35.999  30.773  29.259  1.00  0.00     0.060 A 
ATOM      6  C   UNL A   1      36.531  30.358  28.031  1.00  0.00     0.016 A 
ATOM      7  C   UNL A   1      36.291  29.968  30.372  1.00  0.00     0.016 A 
ATOM      8  C   UNL A   1      37.490  29.338  27.941  1.00  0.00     0.010 A 
ATOM      9  C   UNL A   1      37.379  29.083  30.317  1.00  0.00     0.010 A 
ATOM     10  C   UNL A   1      38.078  28.860  29.106  1.00  0.00    -0.014 A 
BRANCH  10  11
ATOM     11  C   UNL A   1      39.434  28.171  29.043  1.00  0.00     0.031 A 
ATOM     12  C   UNL A   1      40.523  29.173  29.436  1.00  0.00     0.074 A 
ATOM     13  C   UNL A   1      39.777  26.881  28.543  1.00  0.00     0.049 A 
ATOM     14  N   UNL A   1      41.815  29.042  29.595  1.00  0.00    -0.248 NA
ATOM     15  C   UNL A   1      40.055  30.573  29.641  1.00  0.00     0.031 C 
ATOM     16  C   UNL A   1      39.098  25.162  27.482  1.00  0.00     0.029 A 
ATOM     17  N   UNL A   1      41.551  26.396  28.513  1.00  0.00    -0.354 N 
ATOM     18  C   UNL A   1      42.263  30.309  29.961  1.00  0.00     0.074 A 
ATOM     19  C   UNL A   1      41.175  31.233  29.824  1.00  0.00     0.031 C 
ATOM     20  C   UNL A   1      40.275  24.233  27.104  1.00  0.00     0.029 A 
ATOM     21  C   UNL A   1      41.820  24.891  27.729  1.00  0.00     0.049 A 
ATOM     22  H   UNL A   1      42.271  26.943  28.905  1.00  0.00     0.167 HD
ATOM     23  C   UNL A   1      43.452  30.693  30.469  1.00  0.00     0.037 A 
ATOM     24  C   UNL A   1      42.913  24.114  27.617  1.00  0.00     0.037 A 
ATOM     25  C   UNL A   1      44.603  29.854  30.508  1.00  0.00     0.049 A 
ATOM     26  C   UNL A   1      44.149  24.620  28.244  1.00  0.00     0.074 A 
ATOM     27  C   UNL A   1      45.850  30.158  31.009  1.00  0.00     0.029 A 
ATOM     28  N   UNL A   1      44.667  28.576  29.970  1.00  0.00    -0.354 N 
ATOM     29  N   UNL A   1      44.356  25.790  28.792  1.00  0.00    -0.248 NA
ATOM     30  C   UNL A   1      45.294  23.709  28.262  1.00  0.00     0.031 C 
ATOM     31  C   UNL A   1      46.694  29.091  30.711  1.00  0.00     0.029 A 
ATOM     32  C   UNL A   1      45.949  28.082  30.119  1.00  0.00     0.049 A 
ATOM     33  H   UNL A   1      43.917  28.096  29.549  1.00  0.00     0.167 HD
ATOM     34  C   UNL A   1      45.668  25.773  29.206  1.00  0.00     0.074 A 
ATOM     35  C   UNL A   1      46.179  24.443  28.913  1.00  0.00     0.031 C 
ATOM     36  C   UNL A   1      46.401  26.768  29.751  1.00  0.00     0.037 A 
BRANCH  23  37
ATOM     37  C   UNL A   1      43.506  32.082  31.043  1.00  0.00     0.057 A 
ATOM     38  C   UNL A   1      43.155  32.325  32.385  1.00  0.00     0.134 A 
ATOM     39  C   UNL A   1      43.841  33.186  30.256  1.00  0.00     0.134 A 
ATOM     40  F   UNL A   1      42.778  31.314  33.184  1.00  0.00    -0.206 F 
ATOM     41  C   UNL A   1      43.104  33.616  32.907  1.00  0.00     0.040 A 
ATOM     42  C   UNL A   1      43.829  34.481  30.779  1.00  0.00     0.040 A 
ATOM     43  F   UNL A   1      44.159  33.029  28.963  1.00  0.00    -0.206 F 
ATOM     44  C   UNL A   1      43.452  34.699  32.104  1.00  0.00     0.006 A 
ENDBRANCH  23  37
BRANCH  24  45
ATOM     45  C   UNL A   1      42.811  22.757  26.991  1.00  0.00     0.057 A 
ATOM     46  C   UNL A   1      43.400  22.477  25.747  1.00  0.00     0.134 A 
ATOM     47  C   UNL A   1      42.198  21.677  27.646  1.00  0.00     0.134 A 
ATOM     48  F   UNL A   1      44.012  23.450  25.057  1.00  0.00    -0.206 F 
ATOM     49  C   UNL A   1      43.368  21.198  25.177  1.00  0.00     0.040 A 
ATOM     50  C   UNL A   1      42.204  20.382  27.111  1.00  0.00     0.040 A 
ATOM     51  F   UNL A   1      41.649  21.848  28.857  1.00  0.00    -0.206 F 
ATOM     52  C   UNL A   1      42.781  20.141  25.868  1.00  0.00     0.006 A 
ENDBRANCH  24  45
BRANCH  36  53
ATOM     53  C   UNL A   1      47.822  26.420  30.036  1.00  0.00     0.057 A 
ATOM     54  C   UNL A   1      48.823  26.590  29.073  1.00  0.00     0.134 A 
ATOM     55  C   UNL A   1      48.173  25.875  31.274  1.00  0.00     0.134 A 
ATOM     56  F   UNL A   1      48.529  27.094  27.863  1.00  0.00    -0.206 F 
ATOM     57  C   UNL A   1      50.121  26.158  29.309  1.00  0.00     0.040 A 
ATOM     58  C   UNL A   1      49.482  25.495  31.542  1.00  0.00     0.040 A 
ATOM     59  F   UNL A   1      47.251  25.708  32.235  1.00  0.00    -0.206 F 
ATOM     60  C   UNL A   1      50.453  25.612  30.550  1.00  0.00     0.006 A 
ENDBRANCH  36  53
ENDBRANCH  10  11
ENDBRANCH   3   5
ENDBRANCH   2   3
ENDBRANCH   1   2
BRANCH   1  61
ATOM     61  C   UNL A   1      33.255  34.787  28.723  1.00  0.00     0.274 C 
BRANCH  61  62
ATOM     62  O   UNL A   1      33.956  35.288  29.892  1.00  0.00    -0.462 OA
BRANCH  62  63
ATOM     63  C   UNL A   1      33.239  35.957  30.850  1.00  0.00     0.309 C 
ATOM     64  O   UNL A   1      32.591  36.967  30.599  1.00  0.00    -0.252 OA
BRANCH  63  65
ATOM     65  C   UNL A   1      33.340  35.367  32.295  1.00  0.00     0.099 C 
ATOM     66  C   UNL A   1      33.430  33.837  32.300  1.00  0.00     0.021 C 
ATOM     67  C   UNL A   1      34.343  36.109  33.210  1.00  0.00     0.021 C 
ATOM     68  C   UNL A   1      34.040  33.156  33.520  1.00  0.00     0.066 C 
ATOM     69  C   UNL A   1      35.005  35.268  34.318  1.00  0.00     0.066 C 
ATOM     70  C   UNL A   1      35.346  33.815  33.966  1.00  0.00     0.184 C 
BRANCH  70  71
ATOM     71  N   UNL A   1      36.400  33.531  32.989  1.00  0.00    -0.333 N 
ATOM     72  C   UNL A   1      37.222  31.849  33.289  1.00  0.00     0.262 C 
ATOM     73  C   UNL A   1      37.649  34.752  32.696  1.00  0.00     0.262 C 
ATOM     74  H   UNL A   1      35.853  33.538  32.128  1.00  0.00     0.348 HD
ATOM     75  C   UNL A   1      39.436  32.249  32.852  1.00  0.00     0.067 C 
ATOM     76  C   UNL A   1      39.410  34.163  32.465  1.00  0.00     0.067 C 
ENDBRANCH  70  71
ENDBRANCH  63  65
ENDBRANCH  62  63
ENDBRANCH  61  62
ENDBRANCH   1  61
TORSDOF 12
ENDMDL
MODEL 2
REMARK VINA RESULT:     -10.0      5.256     11.730
REMARK SMILES O=C(OCCOC(=O)[C@H]1CC[C@@H]([NH+]2CCCC2)CC1)c1ccc(-c2c3nc(c(-c4c(F)cccc4F)c4ccc([nH]4)c(-c4c(F)cccc4F)c4nc(c(-c5c(F)cccc5F)c5ccc2[nH]5)C=C4)C=C3)cc1
REMARK SMILES IDX 4 1 3 2 2 3 1 4 20 5 21 6 73 7 22 8 72 9 23 10 24 11 25 12
REMARK SMILES IDX 66 13 26 14 71 15 65 16 67 17 27 18 70 19 64 20 63 21 28 23
REMARK SMILES IDX 54 24 37 25 53 26 38 27 41 28 52 29 68 30 39 31 40 32 51 34
REMARK SMILES IDX 69 35 42 36 29 37 30 38 35 39 31 40 32 41 34 42 36 43 33 44
REMARK SMILES IDX 55 45 56 46 61 47 57 48 58 49 60 50 62 51 59 52 43 53 44 54
REMARK SMILES IDX 49 55 45 56 46 57 48 58 50 59 47 60 5 61 6 62 7 63 8 64 9 65
REMARK SMILES IDX 10 66 19 67 11 68 18 69 12 70 13 71 14 72 17 73 15 75 16 76
REMARK H PARENT 67 22 41 33 13 74
REMARK Flexibility Score: inf
ROOT
ATOM      1  C   UNL A   1      46.337  23.224  24.775  1.00  0.00     0.275 C 
ENDROOT
BRANCH   1   2
ATOM      2  O   UNL A   1      46.751  23.320  26.141  1.00  0.00    -0.458 OA
BRANCH   2   3
ATOM      3  C   UNL A   1      46.513  24.321  27.021  1.00  0.00     0.338 C 
ATOM      4  O   UNL A   1      47.299  24.453  27.959  1.00  0.00    -0.246 OA
BRANCH   3   5
ATOM      5  C   UNL A   1      45.302  25.229  26.976  1.00  0.00     0.060 A 
ATOM      6  C   UNL A   1      43.962  24.863  27.165  1.00  0.00     0.016 A 
ATOM      7  C   UNL A   1      45.579  26.604  26.955  1.00  0.00     0.016 A 
ATOM      8  C   UNL A   1      42.984  25.794  27.544  1.00  0.00     0.010 A 
ATOM      9  C   UNL A   1      44.657  27.503  27.513  1.00  0.00     0.010 A 
ATOM     10  C   UNL A   1      43.380  27.067  27.938  1.00  0.00    -0.014 A 
BRANCH  10  11
ATOM     11  C   UNL A   1      42.466  27.904  28.823  1.00  0.00     0.031 A 
ATOM     12  C   UNL A   1      42.884  27.723  30.286  1.00  0.00     0.074 A 
ATOM     13  C   UNL A   1      41.282  28.624  28.487  1.00  0.00     0.049 A 
ATOM     14  N   UNL A   1      42.456  28.275  31.392  1.00  0.00    -0.248 NA
ATOM     15  C   UNL A   1      43.944  26.703  30.523  1.00  0.00     0.031 C 
ATOM     16  C   UNL A   1      39.827  29.021  26.983  1.00  0.00     0.029 A 
ATOM     17  N   UNL A   1      40.346  29.449  29.838  1.00  0.00    -0.354 N 
ATOM     18  C   UNL A   1      43.228  27.707  32.401  1.00  0.00     0.074 A 
ATOM     19  C   UNL A   1      44.011  26.647  31.833  1.00  0.00     0.031 C 
ATOM     20  C   UNL A   1      38.613  29.786  27.562  1.00  0.00     0.029 A 
ATOM     21  C   UNL A   1      38.860  30.127  29.304  1.00  0.00     0.049 A 
ATOM     22  H   UNL A   1      40.663  29.496  30.770  1.00  0.00     0.167 HD
ATOM     23  C   UNL A   1      43.375  28.075  33.690  1.00  0.00     0.037 A 
ATOM     24  C   UNL A   1      37.962  30.925  29.910  1.00  0.00     0.037 A 
ATOM     25  C   UNL A   1      42.539  29.029  34.339  1.00  0.00     0.049 A 
ATOM     26  C   UNL A   1      38.246  31.291  31.311  1.00  0.00     0.074 A 
ATOM     27  C   UNL A   1      42.617  29.467  35.644  1.00  0.00     0.029 A 
ATOM     28  N   UNL A   1      41.437  29.639  33.757  1.00  0.00    -0.354 N 
ATOM     29  N   UNL A   1      39.198  30.841  32.087  1.00  0.00    -0.248 NA
ATOM     30  C   UNL A   1      37.358  32.283  31.920  1.00  0.00     0.031 C 
ATOM     31  C   UNL A   1      41.517  30.290  35.877  1.00  0.00     0.029 A 
ATOM     32  C   UNL A   1      40.816  30.447  34.691  1.00  0.00     0.049 A 
ATOM     33  H   UNL A   1      41.143  29.516  32.825  1.00  0.00     0.167 HD
ATOM     34  C   UNL A   1      39.017  31.476  33.294  1.00  0.00     0.074 A 
ATOM     35  C   UNL A   1      37.910  32.402  33.116  1.00  0.00     0.031 C 
ATOM     36  C   UNL A   1      39.681  31.298  34.457  1.00  0.00     0.037 A 
BRANCH  23  37
ATOM     37  C   UNL A   1      44.519  27.440  34.432  1.00  0.00     0.057 A 
ATOM     38  C   UNL A   1      44.334  26.260  35.176  1.00  0.00     0.134 A 
ATOM     39  C   UNL A   1      45.785  28.028  34.464  1.00  0.00     0.134 A 
ATOM     40  F   UNL A   1      43.130  25.667  35.225  1.00  0.00    -0.206 F 
ATOM     41  C   UNL A   1      45.356  25.712  35.949  1.00  0.00     0.040 A 
ATOM     42  C   UNL A   1      46.828  27.467  35.205  1.00  0.00     0.040 A 
ATOM     43  F   UNL A   1      46.024  29.169  33.800  1.00  0.00    -0.206 F 
ATOM     44  C   UNL A   1      46.612  26.312  35.956  1.00  0.00     0.006 A 
ENDBRANCH  23  37
BRANCH  24  45
ATOM     45  C   UNL A   1      36.813  31.491  29.135  1.00  0.00     0.057 A 
ATOM     46  C   UNL A   1      35.654  30.738  28.884  1.00  0.00     0.134 A 
ATOM     47  C   UNL A   1      36.796  32.822  28.691  1.00  0.00     0.134 A 
ATOM     48  F   UNL A   1      35.584  29.458  29.280  1.00  0.00    -0.206 F 
ATOM     49  C   UNL A   1      34.546  31.272  28.215  1.00  0.00     0.040 A 
ATOM     50  C   UNL A   1      35.675  33.385  28.067  1.00  0.00     0.040 A 
ATOM     51  F   UNL A   1      37.845  33.624  28.927  1.00  0.00    -0.206 F 
ATOM     52  C   UNL A   1      34.549  32.606  27.817  1.00  0.00     0.006 A 
ENDBRANCH  24  45
BRANCH  36  53
ATOM     53  C   UNL A   1      39.188  32.122  35.596  1.00  0.00     0.057 A 
ATOM     54  C   UNL A   1      39.611  33.444  35.778  1.00  0.00     0.134 A 
ATOM     55  C   UNL A   1      38.313  31.566  36.534  1.00  0.00     0.134 A 
ATOM     56  F   UNL A   1      40.463  34.014  34.912  1.00  0.00    -0.206 F 
ATOM     57  C   UNL A   1      39.234  34.165  36.904  1.00  0.00     0.040 A 
ATOM     58  C   UNL A   1      37.883  32.299  37.632  1.00  0.00     0.040 A 
ATOM     59  F   UNL A   1      37.868  30.308  36.394  1.00  0.00    -0.206 F 
ATOM     60  C   UNL A   1      38.364  33.592  37.832  1.00  0.00     0.006 A 
ENDBRANCH  36  53
ENDBRANCH  10  11
ENDBRANCH   3   5
ENDBRANCH   2   3
ENDBRANCH   1   2
BRANCH   1  61
ATOM     61  C   UNL A   1      45.951  21.807  24.313  1.00  0.00     0.274 C 
BRANCH  61  62
ATOM     62  O   UNL A   1      44.525  21.544  24.235  1.00  0.00    -0.462 OA
BRANCH  62  63
ATOM     63  C   UNL A   1      44.062  20.316  24.627  1.00  0.00     0.309 C 
ATOM     64  O   UNL A   1      44.123  19.329  23.903  1.00  0.00    -0.252 OA
BRANCH  63  65
ATOM     65  C   UNL A   1      43.408  20.269  26.048  1.00  0.00     0.099 C 
ATOM     66  C   UNL A   1      43.169  21.666  26.630  1.00  0.00     0.021 C 
ATOM     67  C   UNL A   1      42.231  19.273  26.167  1.00  0.00     0.021 C 
ATOM     68  C   UNL A   1      42.110  21.821  27.715  1.00  0.00     0.066 C 
ATOM     69  C   UNL A   1      41.145  19.622  27.203  1.00  0.00     0.066 C 
ATOM     70  C   UNL A   1      40.803  21.108  27.365  1.00  0.00     0.184 C 
BRANCH  70  71
ATOM     71  N   UNL A   1      40.129  21.821  26.276  1.00  0.00    -0.333 N 
ATOM     72  C   UNL A   1      39.560  23.553  26.799  1.00  0.00     0.262 C 
ATOM     73  C   UNL A   1      38.820  21.011  25.402  1.00  0.00     0.262 C 
ATOM     74  H   UNL A   1      40.885  21.860  25.593  1.00  0.00     0.348 HD
ATOM     75  C   UNL A   1      37.521  23.778  25.776  1.00  0.00     0.067 C 
ATOM     76  C   UNL A   1      37.323  22.029  24.929  1.00  0.00     0.067 C 
ENDBRANCH  70  71
ENDBRANCH  63  65
ENDBRANCH  62  63
ENDBRANCH  61  62
ENDBRANCH   1  61
TORSDOF 12
ENDMDL
MODEL 3
REMARK VINA RESULT:     -10.0      4.528      9.973
REMARK SMILES O=C(OCCOC(=O)[C@H]1CC[C@@H]([NH+]2CCCC2)CC1)c1ccc(-c2c3nc(c(-c4c(F)cccc4F)c4ccc([nH]4)c(-c4c(F)cccc4F)c4nc(c(-c5c(F)cccc5F)c5ccc2[nH]5)C=C4)C=C3)cc1
REMARK SMILES IDX 4 1 3 2 2 3 1 4 20 5 21 6 73 7 22 8 72 9 23 10 24 11 25 12
REMARK SMILES IDX 66 13 26 14 71 15 65 16 67 17 27 18 70 19 64 20 63 21 28 23
REMARK SMILES IDX 54 24 37 25 53 26 38 27 41 28 52 29 68 30 39 31 40 32 51 34
REMARK SMILES IDX 69 35 42 36 29 37 30 38 35 39 31 40 32 41 34 42 36 43 33 44
REMARK SMILES IDX 55 45 56 46 61 47 57 48 58 49 60 50 62 51 59 52 43 53 44 54
REMARK SMILES IDX 49 55 45 56 46 57 48 58 50 59 47 60 5 61 6 62 7 63 8 64 9 65
REMARK SMILES IDX 10 66 19 67 11 68 18 69 12 70 13 71 14 72 17 73 15 75 16 76
REMARK H PARENT 67 22 41 33 13 74
REMARK Flexibility Score: inf
ROOT
ATOM      1  C   UNL A   1      31.521  28.418  27.240  1.00  0.00     0.275 C 
ENDROOT
BRANCH   1   2
ATOM      2  O   UNL A   1      31.711  29.618  26.486  1.00  0.00    -0.458 OA
BRANCH   2   3
ATOM      3  C   UNL A   1      32.307  30.769  26.878  1.00  0.00     0.338 C 
ATOM      4  O   UNL A   1      31.605  31.778  26.946  1.00  0.00    -0.246 OA
BRANCH   3   5
ATOM      5  C   UNL A   1      33.789  30.915  27.152  1.00  0.00     0.060 A 
ATOM      6  C   UNL A   1      34.454  32.052  27.628  1.00  0.00     0.016 A 
ATOM      7  C   UNL A   1      34.527  29.721  27.125  1.00  0.00     0.016 A 
ATOM      8  C   UNL A   1      35.703  31.972  28.262  1.00  0.00     0.010 A 
ATOM      9  C   UNL A   1      35.679  29.605  27.918  1.00  0.00     0.010 A 
ATOM     10  C   UNL A   1      36.206  30.723  28.608  1.00  0.00    -0.014 A 
BRANCH  10  11
ATOM     11  C   UNL A   1      37.246  30.605  29.713  1.00  0.00     0.031 A 
ATOM     12  C   UNL A   1      38.310  29.587  29.292  1.00  0.00     0.074 A 
ATOM     13  C   UNL A   1      37.242  31.153  31.029  1.00  0.00     0.049 A 
ATOM     14  N   UNL A   1      39.421  29.198  29.861  1.00  0.00    -0.248 NA
ATOM     15  C   UNL A   1      38.028  28.862  28.021  1.00  0.00     0.031 C 
ATOM     16  C   UNL A   1      36.105  32.180  32.509  1.00  0.00     0.029 A 
ATOM     17  N   UNL A   1      38.624  30.717  32.163  1.00  0.00    -0.354 N 
ATOM     18  C   UNL A   1      39.959  28.251  28.994  1.00  0.00     0.074 A 
ATOM     19  C   UNL A   1      38.995  27.976  27.967  1.00  0.00     0.031 C 
ATOM     20  C   UNL A   1      36.816  32.158  33.882  1.00  0.00     0.029 A 
ATOM     21  C   UNL A   1      38.392  31.312  33.759  1.00  0.00     0.049 A 
ATOM     22  H   UNL A   1      39.413  30.197  31.885  1.00  0.00     0.167 HD
ATOM     23  C   UNL A   1      41.191  27.705  28.965  1.00  0.00     0.037 A 
ATOM     24  C   UNL A   1      39.199  31.350  34.835  1.00  0.00     0.037 A 
ATOM     25  C   UNL A   1      42.141  27.840  30.019  1.00  0.00     0.049 A 
ATOM     26  C   UNL A   1      40.539  30.753  34.674  1.00  0.00     0.074 A 
ATOM     27  C   UNL A   1      43.417  27.323  30.074  1.00  0.00     0.029 A 
ATOM     28  N   UNL A   1      41.895  28.482  31.225  1.00  0.00    -0.354 N 
ATOM     29  N   UNL A   1      41.006  30.077  33.656  1.00  0.00    -0.248 NA
ATOM     30  C   UNL A   1      41.473  30.933  35.787  1.00  0.00     0.031 C 
ATOM     31  C   UNL A   1      43.923  27.589  31.344  1.00  0.00     0.029 A 
ATOM     32  C   UNL A   1      43.005  28.360  32.040  1.00  0.00     0.049 A 
ATOM     33  H   UNL A   1      41.063  28.950  31.462  1.00  0.00     0.167 HD
ATOM     34  C   UNL A   1      42.289  29.725  34.008  1.00  0.00     0.074 A 
ATOM     35  C   UNL A   1      42.547  30.333  35.303  1.00  0.00     0.031 C 
ATOM     36  C   UNL A   1      43.170  28.946  33.343  1.00  0.00     0.037 A 
BRANCH  23  37
ATOM     37  C   UNL A   1      41.549  26.947  27.715  1.00  0.00     0.057 A 
ATOM     38  C   UNL A   1      41.440  25.545  27.662  1.00  0.00     0.134 A 
ATOM     39  C   UNL A   1      42.061  27.596  26.589  1.00  0.00     0.134 A 
ATOM     40  F   UNL A   1      40.997  24.856  28.726  1.00  0.00    -0.206 F 
ATOM     41  C   UNL A   1      41.859  24.819  26.549  1.00  0.00     0.040 A 
ATOM     42  C   UNL A   1      42.450  26.881  25.454  1.00  0.00     0.040 A 
ATOM     43  F   UNL A   1      42.218  28.928  26.582  1.00  0.00    -0.206 F 
ATOM     44  C   UNL A   1      42.357  25.490  25.435  1.00  0.00     0.006 A 
ENDBRANCH  23  37
BRANCH  24  45
ATOM     45  C   UNL A   1      38.773  32.078  36.071  1.00  0.00     0.057 A 
ATOM     46  C   UNL A   1      39.011  33.453  36.233  1.00  0.00     0.134 A 
ATOM     47  C   UNL A   1      38.044  31.449  37.093  1.00  0.00     0.134 A 
ATOM     48  F   UNL A   1      39.695  34.131  35.301  1.00  0.00    -0.206 F 
ATOM     49  C   UNL A   1      38.564  34.161  37.355  1.00  0.00     0.040 A 
ATOM     50  C   UNL A   1      37.546  32.156  38.196  1.00  0.00     0.040 A 
ATOM     51  F   UNL A   1      37.737  30.148  36.998  1.00  0.00    -0.206 F 
ATOM     52  C   UNL A   1      37.815  33.515  38.335  1.00  0.00     0.006 A 
ENDBRANCH  24  45
BRANCH  36  53
ATOM     53  C   UNL A   1      44.467  28.724  34.042  1.00  0.00     0.057 A 
ATOM     54  C   UNL A   1      44.651  27.649  34.917  1.00  0.00     0.134 A 
ATOM     55  C   UNL A   1      45.521  29.624  33.858  1.00  0.00     0.134 A 
ATOM     56  F   UNL A   1      43.660  26.769  35.137  1.00  0.00    -0.206 F 
ATOM     57  C   UNL A   1      45.824  27.517  35.649  1.00  0.00     0.040 A 
ATOM     58  C   UNL A   1      46.721  29.467  34.540  1.00  0.00     0.040 A 
ATOM     59  F   UNL A   1      45.398  30.661  33.017  1.00  0.00    -0.206 F 
ATOM     60  C   UNL A   1      46.865  28.426  35.456  1.00  0.00     0.006 A 
ENDBRANCH  36  53
ENDBRANCH  10  11
ENDBRANCH   3   5
ENDBRANCH   2   3
ENDBRANCH   1   2
BRANCH   1  61
ATOM     61  C   UNL A   1      31.887  27.120  26.497  1.00  0.00     0.274 C 
BRANCH  61  62
ATOM     62  O   UNL A   1      31.121  25.947  26.879  1.00  0.00    -0.462 OA
BRANCH  62  63
ATOM     63  C   UNL A   1      31.650  24.708  26.629  1.00  0.00     0.309 C 
ATOM     64  O   UNL A   1      31.288  23.705  27.235  1.00  0.00    -0.252 OA
BRANCH  63  65
ATOM     65  C   UNL A   1      32.778  24.668  25.546  1.00  0.00     0.099 C 
ATOM     66  C   UNL A   1      34.064  24.014  26.062  1.00  0.00     0.021 C 
ATOM     67  C   UNL A   1      32.295  24.206  24.150  1.00  0.00     0.021 C 
ATOM     68  C   UNL A   1      35.037  23.435  25.041  1.00  0.00     0.066 C 
ATOM     69  C   UNL A   1      33.341  23.498  23.267  1.00  0.00     0.066 C 
ATOM     70  C   UNL A   1      34.336  22.579  23.985  1.00  0.00     0.184 C 
BRANCH  70  71
ATOM     71  N   UNL A   1      33.866  21.332  24.593  1.00  0.00    -0.333 N 
ATOM     72  C   UNL A   1      35.278  20.100  24.885  1.00  0.00     0.262 C 
ATOM     73  C   UNL A   1      32.490  20.488  23.865  1.00  0.00     0.262 C 
ATOM     74  H   UNL A   1      33.489  21.692  25.470  1.00  0.00     0.348 HD
ATOM     75  C   UNL A   1      34.339  18.076  24.361  1.00  0.00     0.067 C 
ATOM     76  C   UNL A   1      32.554  18.620  23.783  1.00  0.00     0.067 C 
ENDBRANCH  70  71
ENDBRANCH  63  65
ENDBRANCH  62  63
ENDBRANCH  61  62
ENDBRANCH   1  61
TORSDOF 12
ENDMDL
