MODEL 1
REMARK VINA RESULT:     -10.2      0.000      0.000
REMARK SMILES CN(C)S(=O)(=O)c1ccc(N(CC(=O)OCCOC(=O)c2ccc(-c3c4nc(c(-c5c(F)cccc5F)c5ccc([nH]5)c(-c5c(F)cccc5F)c5nc(c(-c6c(F)cccc6F)c6ccc3[nH]6)C=C5)C=C4)cc2)C(C)(C)C)cc1
REMARK SMILES IDX 16 1 15 2 13 3 14 4 12 5 11 6 10 7 7 8 8 9 80 10 9 11 79 12
REMARK SMILES IDX 4 13 5 14 6 15 2 16 1 17 3 18 75 19 76 20 77 21 78 22 17 23
REMARK SMILES IDX 18 24 19 25 20 26 21 27 22 28 74 29 23 30 73 31 24 32 25 33
REMARK SMILES IDX 26 34 67 35 27 36 72 37 66 38 68 39 28 40 71 41 65 42 64 43
REMARK SMILES IDX 29 45 55 46 38 47 54 48 39 49 42 50 53 51 69 52 40 53 41 54
REMARK SMILES IDX 52 56 70 57 43 58 30 59 31 60 36 61 32 62 33 63 35 64 37 65
REMARK SMILES IDX 34 66 56 67 57 68 62 69 58 70 59 71 61 72 63 73 60 74 44 75
REMARK SMILES IDX 45 76 50 77 46 78 47 79 49 80 51 81 48 82
REMARK H PARENT 68 44 42 55
REMARK Flexibility Score: inf
ROOT
ATOM      1  C   UNL A   1      32.482  29.961  26.991  1.00  0.00     0.274 C 
ENDROOT
BRANCH   1   2
ATOM      2  O   UNL A   1      32.118  29.926  25.596  1.00  0.00    -0.461 OA
BRANCH   2   3
ATOM      3  C   UNL A   1      32.536  28.832  24.904  1.00  0.00     0.325 C 
ATOM      4  O   UNL A   1      33.318  28.866  23.955  1.00  0.00    -0.250 OA
BRANCH   3   5
ATOM      5  C   UNL A   1      32.084  27.506  25.511  1.00  0.00     0.239 C 
BRANCH   5   6
ATOM      6  N   UNL A   1      32.068  26.327  24.608  1.00  0.00    -0.356 N 
BRANCH   6   7
ATOM      7  C   UNL A   1      33.137  25.419  24.734  1.00  0.00     0.038 A 
ATOM      8  C   UNL A   1      35.149  23.394  24.913  1.00  0.00     0.082 A 
ATOM      9  C   UNL A   1      34.331  23.652  26.003  1.00  0.00     0.024 A 
ATOM     10  C   UNL A   1      35.039  24.168  23.770  1.00  0.00     0.024 A 
ATOM     11  C   UNL A   1      33.354  24.659  25.908  1.00  0.00     0.027 A 
ATOM     12  C   UNL A   1      34.056  25.164  23.700  1.00  0.00     0.027 A 
BRANCH   8  13
ATOM     13  S   UNL A   1      36.299  22.050  24.935  1.00  0.00     0.242 S 
ATOM     14  O   UNL A   1      36.925  21.957  23.632  1.00  0.00    -0.207 OA
ATOM     15  O   UNL A   1      35.620  20.918  25.527  1.00  0.00    -0.207 OA
BRANCH  13  16
ATOM     16  N   UNL A   1      37.498  22.597  26.036  1.00  0.00    -0.204 NA
ATOM     17  C   UNL A   1      38.726  21.775  26.006  1.00  0.00     0.124 C 
ATOM     18  C   UNL A   1      37.806  24.045  25.957  1.00  0.00     0.124 C 
ENDBRANCH  13  16
ENDBRANCH   8  13
ENDBRANCH   6   7
BRANCH   6  19
ATOM     19  C   UNL A   1      30.849  26.083  23.741  1.00  0.00     0.032 C 
ATOM     20  C   UNL A   1      29.568  26.565  24.455  1.00  0.00     0.034 C 
ATOM     21  C   UNL A   1      31.035  26.686  22.330  1.00  0.00     0.034 C 
ATOM     22  C   UNL A   1      30.579  24.582  23.452  1.00  0.00     0.034 C 
ENDBRANCH   6  19
ENDBRANCH   5   6
ENDBRANCH   3   5
ENDBRANCH   2   3
ENDBRANCH   1   2
BRANCH   1  23
ATOM     23  C   UNL A   1      33.847  30.624  27.154  1.00  0.00     0.275 C 
BRANCH  23  24
ATOM     24  O   UNL A   1      34.727  29.751  27.888  1.00  0.00    -0.458 OA
BRANCH  24  25
ATOM     25  C   UNL A   1      35.539  30.373  28.773  1.00  0.00     0.338 C 
ATOM     26  O   UNL A   1      35.249  31.295  29.519  1.00  0.00    -0.246 OA
BRANCH  25  27
ATOM     27  C   UNL A   1      36.891  29.779  28.764  1.00  0.00     0.060 A 
ATOM     28  C   UNL A   1      37.486  29.294  29.932  1.00  0.00     0.016 A 
ATOM     29  C   UNL A   1      37.633  29.854  27.584  1.00  0.00     0.016 A 
ATOM     30  C   UNL A   1      38.848  28.976  29.937  1.00  0.00     0.010 A 
ATOM     31  C   UNL A   1      38.962  29.432  27.568  1.00  0.00     0.010 A 
ATOM     32  C   UNL A   1      39.597  29.014  28.748  1.00  0.00    -0.014 A 
BRANCH  32  33
ATOM     33  C   UNL A   1      41.018  28.570  28.703  1.00  0.00     0.031 A 
ATOM     34  C   UNL A   1      42.146  29.547  28.909  1.00  0.00     0.074 A 
ATOM     35  C   UNL A   1      41.302  27.288  28.399  1.00  0.00     0.049 A 
ATOM     36  N   UNL A   1      43.431  29.386  28.703  1.00  0.00    -0.248 NA
ATOM     37  C   UNL A   1      41.783  30.886  29.399  1.00  0.00     0.031 C 
ATOM     38  C   UNL A   1      40.317  26.227  28.188  1.00  0.00     0.029 A 
ATOM     39  N   UNL A   1      42.508  26.663  28.197  1.00  0.00    -0.354 N 
ATOM     40  C   UNL A   1      44.023  30.609  28.995  1.00  0.00     0.074 A 
ATOM     41  C   UNL A   1      42.956  31.507  29.386  1.00  0.00     0.031 C 
ATOM     42  C   UNL A   1      40.955  25.080  27.915  1.00  0.00     0.029 A 
ATOM     43  C   UNL A   1      42.387  25.342  27.845  1.00  0.00     0.049 A 
ATOM     44  H   UNL A   1      43.376  27.118  28.297  1.00  0.00     0.167 HD
ATOM     45  C   UNL A   1      45.334  30.951  28.941  1.00  0.00     0.037 A 
ATOM     46  C   UNL A   1      43.313  24.444  27.463  1.00  0.00     0.037 A 
ATOM     47  C   UNL A   1      46.400  30.049  28.579  1.00  0.00     0.049 A 
ATOM     48  C   UNL A   1      44.748  24.862  27.352  1.00  0.00     0.074 A 
ATOM     49  C   UNL A   1      47.763  30.297  28.536  1.00  0.00     0.029 A 
ATOM     50  N   UNL A   1      46.225  28.728  28.199  1.00  0.00    -0.354 N 
ATOM     51  N   UNL A   1      45.292  26.024  27.617  1.00  0.00    -0.248 NA
ATOM     52  C   UNL A   1      45.694  23.847  26.869  1.00  0.00     0.031 C 
ATOM     53  C   UNL A   1      48.407  29.137  28.090  1.00  0.00     0.029 A 
ATOM     54  C   UNL A   1      47.451  28.154  27.898  1.00  0.00     0.049 A 
ATOM     55  H   UNL A   1      45.357  28.264  28.150  1.00  0.00     0.167 HD
ATOM     56  C   UNL A   1      46.646  25.876  27.353  1.00  0.00     0.074 A 
ATOM     57  C   UNL A   1      46.842  24.508  26.917  1.00  0.00     0.031 C 
ATOM     58  C   UNL A   1      47.637  26.793  27.464  1.00  0.00     0.037 A 
BRANCH  45  59
ATOM     59  C   UNL A   1      45.697  32.375  29.254  1.00  0.00     0.057 A 
ATOM     60  C   UNL A   1      45.732  33.369  28.268  1.00  0.00     0.134 A 
ATOM     61  C   UNL A   1      45.968  32.766  30.572  1.00  0.00     0.134 A 
ATOM     62  F   UNL A   1      45.491  33.061  26.984  1.00  0.00    -0.206 F 
ATOM     63  C   UNL A   1      46.046  34.694  28.578  1.00  0.00     0.040 A 
ATOM     64  C   UNL A   1      46.260  34.092  30.898  1.00  0.00     0.040 A 
ATOM     65  F   UNL A   1      45.941  31.867  31.568  1.00  0.00    -0.206 F 
ATOM     66  C   UNL A   1      46.305  35.060  29.898  1.00  0.00     0.006 A 
ENDBRANCH  45  59
BRANCH  46  67
ATOM     67  C   UNL A   1      42.897  23.058  27.139  1.00  0.00     0.057 A 
ATOM     68  C   UNL A   1      42.631  22.136  28.156  1.00  0.00     0.134 A 
ATOM     69  C   UNL A   1      42.727  22.633  25.815  1.00  0.00     0.134 A 
ATOM     70  F   UNL A   1      42.797  22.483  29.440  1.00  0.00    -0.206 F 
ATOM     71  C   UNL A   1      42.211  20.837  27.870  1.00  0.00     0.040 A 
ATOM     72  C   UNL A   1      42.283  21.344  25.516  1.00  0.00     0.040 A 
ATOM     73  F   UNL A   1      42.961  23.473  24.798  1.00  0.00    -0.206 F 
ATOM     74  C   UNL A   1      42.027  20.441  26.546  1.00  0.00     0.006 A 
ENDBRANCH  46  67
BRANCH  58  75
ATOM     75  C   UNL A   1      49.027  26.332  27.142  1.00  0.00     0.057 A 
ATOM     76  C   UNL A   1      49.872  25.794  28.120  1.00  0.00     0.134 A 
ATOM     77  C   UNL A   1      49.522  26.422  25.834  1.00  0.00     0.134 A 
ATOM     78  F   UNL A   1      49.462  25.699  29.394  1.00  0.00    -0.206 F 
ATOM     79  C   UNL A   1      51.170  25.382  27.814  1.00  0.00     0.040 A 
ATOM     80  C   UNL A   1      50.810  25.993  25.512  1.00  0.00     0.040 A 
ATOM     81  F   UNL A   1      48.762  26.926  24.851  1.00  0.00    -0.206 F 
ATOM     82  C   UNL A   1      51.641  25.477  26.505  1.00  0.00     0.006 A 
ENDBRANCH  58  75
ENDBRANCH  32  33
ENDBRANCH  25  27
ENDBRANCH  24  25
ENDBRANCH  23  24
ENDBRANCH   1  23
TORSDOF 16
ENDMDL
MODEL 2
REMARK VINA RESULT:     -10.2      2.154      4.216
REMARK SMILES CN(C)S(=O)(=O)c1ccc(N(CC(=O)OCCOC(=O)c2ccc(-c3c4nc(c(-c5c(F)cccc5F)c5ccc([nH]5)c(-c5c(F)cccc5F)c5nc(c(-c6c(F)cccc6F)c6ccc3[nH]6)C=C5)C=C4)cc2)C(C)(C)C)cc1
REMARK SMILES IDX 16 1 15 2 13 3 14 4 12 5 11 6 10 7 7 8 8 9 80 10 9 11 79 12
REMARK SMILES IDX 4 13 5 14 6 15 2 16 1 17 3 18 75 19 76 20 77 21 78 22 17 23
REMARK SMILES IDX 18 24 19 25 20 26 21 27 22 28 74 29 23 30 73 31 24 32 25 33
REMARK SMILES IDX 26 34 67 35 27 36 72 37 66 38 68 39 28 40 71 41 65 42 64 43
REMARK SMILES IDX 29 45 55 46 38 47 54 48 39 49 42 50 53 51 69 52 40 53 41 54
REMARK SMILES IDX 52 56 70 57 43 58 30 59 31 60 36 61 32 62 33 63 35 64 37 65
REMARK SMILES IDX 34 66 56 67 57 68 62 69 58 70 59 71 61 72 63 73 60 74 44 75
REMARK SMILES IDX 45 76 50 77 46 78 47 79 49 80 51 81 48 82
REMARK H PARENT 68 44 42 55
REMARK Flexibility Score: inf
ROOT
ATOM      1  C   UNL A   1      33.120  30.111  26.518  1.00  0.00     0.274 C 
ENDROOT
BRANCH   1   2
ATOM      2  O   UNL A   1      33.984  28.980  26.286  1.00  0.00    -0.461 OA
BRANCH   2   3
ATOM      3  C   UNL A   1      33.356  27.798  26.041  1.00  0.00     0.325 C 
ATOM      4  O   UNL A   1      32.457  27.330  26.737  1.00  0.00    -0.250 OA
BRANCH   3   5
ATOM      5  C   UNL A   1      33.744  27.156  24.711  1.00  0.00     0.239 C 
BRANCH   5   6
ATOM      6  N   UNL A   1      32.676  26.419  23.987  1.00  0.00    -0.356 N 
BRANCH   6   7
ATOM      7  C   UNL A   1      31.611  27.188  23.478  1.00  0.00     0.038 A 
ATOM      8  C   UNL A   1      29.456  28.881  22.659  1.00  0.00     0.082 A 
ATOM      9  C   UNL A   1      29.191  27.725  23.378  1.00  0.00     0.024 A 
ATOM     10  C   UNL A   1      30.755  29.171  22.276  1.00  0.00     0.024 A 
ATOM     11  C   UNL A   1      30.257  26.893  23.764  1.00  0.00     0.027 A 
ATOM     12  C   UNL A   1      31.799  28.327  22.675  1.00  0.00     0.027 A 
BRANCH   8  13
ATOM     13  S   UNL A   1      28.167  30.028  22.269  1.00  0.00     0.242 S 
ATOM     14  O   UNL A   1      27.098  29.866  23.232  1.00  0.00    -0.207 OA
ATOM     15  O   UNL A   1      27.923  29.926  20.846  1.00  0.00    -0.207 OA
BRANCH  13  16
ATOM     16  N   UNL A   1      28.907  31.546  22.582  1.00  0.00    -0.204 NA
ATOM     17  C   UNL A   1      28.322  32.647  21.787  1.00  0.00     0.124 C 
ATOM     18  C   UNL A   1      29.016  31.905  24.016  1.00  0.00     0.124 C 
ENDBRANCH  13  16
ENDBRANCH   8  13
ENDBRANCH   6   7
BRANCH   6  19
ATOM     19  C   UNL A   1      32.869  24.945  23.697  1.00  0.00     0.032 C 
ATOM     20  C   UNL A   1      32.026  24.084  24.663  1.00  0.00     0.034 C 
ATOM     21  C   UNL A   1      32.615  24.630  22.205  1.00  0.00     0.034 C 
ATOM     22  C   UNL A   1      34.323  24.449  23.920  1.00  0.00     0.034 C 
ENDBRANCH   6  19
ENDBRANCH   5   6
ENDBRANCH   3   5
ENDBRANCH   2   3
ENDBRANCH   1   2
BRANCH   1  23
ATOM     23  C   UNL A   1      33.701  30.990  27.622  1.00  0.00     0.275 C 
BRANCH  23  24
ATOM     24  O   UNL A   1      35.134  30.847  27.653  1.00  0.00    -0.458 OA
BRANCH  24  25
ATOM     25  C   UNL A   1      35.682  30.873  28.890  1.00  0.00     0.338 C 
ATOM     26  O   UNL A   1      35.186  31.328  29.908  1.00  0.00    -0.246 OA
BRANCH  25  27
ATOM     27  C   UNL A   1      37.016  30.238  28.894  1.00  0.00     0.060 A 
ATOM     28  C   UNL A   1      37.682  29.940  30.085  1.00  0.00     0.016 A 
ATOM     29  C   UNL A   1      37.672  30.084  27.671  1.00  0.00     0.016 A 
ATOM     30  C   UNL A   1      39.032  29.579  30.054  1.00  0.00     0.010 A 
ATOM     31  C   UNL A   1      38.987  29.619  27.639  1.00  0.00     0.010 A 
ATOM     32  C   UNL A   1      39.694  29.386  28.829  1.00  0.00    -0.014 A 
BRANCH  32  33
ATOM     33  C   UNL A   1      41.098  28.891  28.768  1.00  0.00     0.031 A 
ATOM     34  C   UNL A   1      42.264  29.830  28.939  1.00  0.00     0.074 A 
ATOM     35  C   UNL A   1      41.331  27.596  28.479  1.00  0.00     0.049 A 
ATOM     36  N   UNL A   1      43.538  29.620  28.713  1.00  0.00    -0.248 NA
ATOM     37  C   UNL A   1      41.957  31.189  29.413  1.00  0.00     0.031 C 
ATOM     38  C   UNL A   1      40.305  26.567  28.301  1.00  0.00     0.029 A 
ATOM     39  N   UNL A   1      42.510  26.925  28.267  1.00  0.00    -0.354 N 
ATOM     40  C   UNL A   1      44.179  30.825  28.975  1.00  0.00     0.074 A 
ATOM     41  C   UNL A   1      43.151  31.767  29.370  1.00  0.00     0.031 C 
ATOM     42  C   UNL A   1      40.897  25.394  28.036  1.00  0.00     0.029 A 
ATOM     43  C   UNL A   1      42.336  25.603  27.938  1.00  0.00     0.049 A 
ATOM     44  H   UNL A   1      43.395  27.350  28.344  1.00  0.00     0.167 HD
ATOM     45  C   UNL A   1      45.499  31.120  28.893  1.00  0.00     0.037 A 
ATOM     46  C   UNL A   1      43.223  24.667  27.554  1.00  0.00     0.037 A 
ATOM     47  C   UNL A   1      46.526  30.175  28.528  1.00  0.00     0.049 A 
ATOM     48  C   UNL A   1      44.669  25.032  27.412  1.00  0.00     0.074 A 
ATOM     49  C   UNL A   1      47.896  30.373  28.457  1.00  0.00     0.029 A 
ATOM     50  N   UNL A   1      46.298  28.855  28.172  1.00  0.00    -0.354 N 
ATOM     51  N   UNL A   1      45.259  26.178  27.649  1.00  0.00    -0.248 NA
ATOM     52  C   UNL A   1      45.570  23.976  26.930  1.00  0.00     0.031 C 
ATOM     53  C   UNL A   1      48.490  29.184  28.020  1.00  0.00     0.029 A 
ATOM     54  C   UNL A   1      47.497  28.233  27.859  1.00  0.00     0.049 A 
ATOM     55  H   UNL A   1      45.413  28.422  28.146  1.00  0.00     0.167 HD
ATOM     56  C   UNL A   1      46.602  25.978  27.364  1.00  0.00     0.074 A 
ATOM     57  C   UNL A   1      46.741  24.597  26.947  1.00  0.00     0.031 C 
ATOM     58  C   UNL A   1      47.627  26.860  27.443  1.00  0.00     0.037 A 
BRANCH  45  59
ATOM     59  C   UNL A   1      45.918  32.535  29.178  1.00  0.00     0.057 A 
ATOM     60  C   UNL A   1      45.974  33.510  28.175  1.00  0.00     0.134 A 
ATOM     61  C   UNL A   1      46.224  32.936  30.484  1.00  0.00     0.134 A 
ATOM     62  F   UNL A   1      45.702  33.191  26.900  1.00  0.00    -0.206 F 
ATOM     63  C   UNL A   1      46.340  34.829  28.457  1.00  0.00     0.040 A 
ATOM     64  C   UNL A   1      46.567  34.256  30.784  1.00  0.00     0.040 A 
ATOM     65  F   UNL A   1      46.179  32.055  31.495  1.00  0.00    -0.206 F 
ATOM     66  C   UNL A   1      46.632  35.206  29.767  1.00  0.00     0.006 A 
ENDBRANCH  45  59
BRANCH  46  67
ATOM     67  C   UNL A   1      42.752  23.292  27.259  1.00  0.00     0.057 A 
ATOM     68  C   UNL A   1      42.549  22.875  25.940  1.00  0.00     0.134 A 
ATOM     69  C   UNL A   1      42.523  22.359  28.279  1.00  0.00     0.134 A 
ATOM     70  F   UNL A   1      42.732  23.732  24.926  1.00  0.00    -0.206 F 
ATOM     71  C   UNL A   1      42.133  21.577  25.643  1.00  0.00     0.040 A 
ATOM     72  C   UNL A   1      42.132  21.051  27.994  1.00  0.00     0.040 A 
ATOM     73  F   UNL A   1      42.707  22.700  29.562  1.00  0.00    -0.206 F 
ATOM     74  C   UNL A   1      41.933  20.658  26.672  1.00  0.00     0.006 A 
ENDBRANCH  46  67
BRANCH  58  75
ATOM     75  C   UNL A   1      48.993  26.345  27.105  1.00  0.00     0.057 A 
ATOM     76  C   UNL A   1      49.521  26.443  25.812  1.00  0.00     0.134 A 
ATOM     77  C   UNL A   1      49.794  25.750  28.089  1.00  0.00     0.134 A 
ATOM     78  F   UNL A   1      48.797  26.985  24.822  1.00  0.00    -0.206 F 
ATOM     79  C   UNL A   1      50.789  25.946  25.503  1.00  0.00     0.040 A 
ATOM     80  C   UNL A   1      51.071  25.270  27.797  1.00  0.00     0.040 A 
ATOM     81  F   UNL A   1      49.348  25.628  29.349  1.00  0.00    -0.206 F 
ATOM     82  C   UNL A   1      51.569  25.361  26.499  1.00  0.00     0.006 A 
ENDBRANCH  58  75
ENDBRANCH  32  33
ENDBRANCH  25  27
ENDBRANCH  24  25
ENDBRANCH  23  24
ENDBRANCH   1  23
TORSDOF 16
ENDMDL
MODEL 3
REMARK VINA RESULT:     -10.2      2.312      7.898
REMARK SMILES CN(C)S(=O)(=O)c1ccc(N(CC(=O)OCCOC(=O)c2ccc(-c3c4nc(c(-c5c(F)cccc5F)c5ccc([nH]5)c(-c5c(F)cccc5F)c5nc(c(-c6c(F)cccc6F)c6ccc3[nH]6)C=C5)C=C4)cc2)C(C)(C)C)cc1
REMARK SMILES IDX 16 1 15 2 13 3 14 4 12 5 11 6 10 7 7 8 8 9 80 10 9 11 79 12
REMARK SMILES IDX 4 13 5 14 6 15 2 16 1 17 3 18 75 19 76 20 77 21 78 22 17 23
REMARK SMILES IDX 18 24 19 25 20 26 21 27 22 28 74 29 23 30 73 31 24 32 25 33
REMARK SMILES IDX 26 34 67 35 27 36 72 37 66 38 68 39 28 40 71 41 65 42 64 43
REMARK SMILES IDX 29 45 55 46 38 47 54 48 39 49 42 50 53 51 69 52 40 53 41 54
REMARK SMILES IDX 52 56 70 57 43 58 30 59 31 60 36 61 32 62 33 63 35 64 37 65
REMARK SMILES IDX 34 66 56 67 57 68 62 69 58 70 59 71 61 72 63 73 60 74 44 75
REMARK SMILES IDX 45 76 50 77 46 78 47 79 49 80 51 81 48 82
REMARK H PARENT 68 44 42 55
REMARK Flexibility Score: inf
ROOT
ATOM      1  C   UNL A   1      38.103  20.117  25.007  1.00  0.00     0.274 C 
ENDROOT
BRANCH   1   2
ATOM      2  O   UNL A   1      38.419  21.518  25.129  1.00  0.00    -0.461 OA
BRANCH   2   3
ATOM      3  C   UNL A   1      37.360  22.347  25.333  1.00  0.00     0.325 C 
ATOM      4  O   UNL A   1      37.354  23.287  26.126  1.00  0.00    -0.250 OA
BRANCH   3   5
ATOM      5  C   UNL A   1      36.204  22.124  24.361  1.00  0.00     0.239 C 
BRANCH   5   6
ATOM      6  N   UNL A   1      34.844  22.470  24.848  1.00  0.00    -0.356 N 
BRANCH   6   7
ATOM      7  C   UNL A   1      34.355  23.745  24.505  1.00  0.00     0.038 A 
ATOM      8  C   UNL A   1      33.603  26.408  23.780  1.00  0.00     0.082 A 
ATOM      9  C   UNL A   1      33.847  26.097  25.109  1.00  0.00     0.024 A 
ATOM     10  C   UNL A   1      33.650  25.411  22.819  1.00  0.00     0.024 A 
ATOM     11  C   UNL A   1      34.203  24.782  25.456  1.00  0.00     0.027 A 
ATOM     12  C   UNL A   1      34.009  24.109  23.191  1.00  0.00     0.027 A 
BRANCH   8  13
ATOM     13  S   UNL A   1      33.285  28.074  23.276  1.00  0.00     0.242 S 
ATOM     14  O   UNL A   1      33.973  28.316  22.025  1.00  0.00    -0.207 OA
ATOM     15  O   UNL A   1      33.502  28.917  24.432  1.00  0.00    -0.207 OA
BRANCH  13  16
ATOM     16  N   UNL A   1      31.603  28.049  22.933  1.00  0.00    -0.204 NA
ATOM     17  C   UNL A   1      30.790  27.562  24.068  1.00  0.00     0.124 C 
ATOM     18  C   UNL A   1      31.059  29.309  22.373  1.00  0.00     0.124 C 
ENDBRANCH  13  16
ENDBRANCH   8  13
ENDBRANCH   6   7
BRANCH   6  19
ATOM     19  C   UNL A   1      34.012  21.399  25.524  1.00  0.00     0.032 C 
ATOM     20  C   UNL A   1      34.369  20.002  24.972  1.00  0.00     0.034 C 
ATOM     21  C   UNL A   1      34.111  21.501  27.063  1.00  0.00     0.034 C 
ATOM     22  C   UNL A   1      32.488  21.531  25.259  1.00  0.00     0.034 C 
ENDBRANCH   6  19
ENDBRANCH   5   6
ENDBRANCH   3   5
ENDBRANCH   2   3
ENDBRANCH   1   2
BRANCH   1  23
ATOM     23  C   UNL A   1      39.167  19.281  25.712  1.00  0.00     0.275 C 
BRANCH  23  24
ATOM     24  O   UNL A   1      40.451  19.513  25.102  1.00  0.00    -0.458 OA
BRANCH  24  25
ATOM     25  C   UNL A   1      41.493  19.550  25.964  1.00  0.00     0.338 C 
ATOM     26  O   UNL A   1      42.214  18.620  26.292  1.00  0.00    -0.246 OA
BRANCH  25  27
ATOM     27  C   UNL A   1      41.702  20.915  26.488  1.00  0.00     0.060 A 
ATOM     28  C   UNL A   1      42.120  21.961  25.662  1.00  0.00     0.016 A 
ATOM     29  C   UNL A   1      41.625  21.106  27.869  1.00  0.00     0.016 A 
ATOM     30  C   UNL A   1      42.549  23.165  26.229  1.00  0.00     0.010 A 
ATOM     31  C   UNL A   1      41.951  22.345  28.421  1.00  0.00     0.010 A 
ATOM     32  C   UNL A   1      42.444  23.382  27.614  1.00  0.00    -0.014 A 
BRANCH  32  33
ATOM     33  C   UNL A   1      42.785  24.695  28.228  1.00  0.00     0.031 A 
ATOM     34  C   UNL A   1      41.726  25.738  28.478  1.00  0.00     0.074 A 
ATOM     35  C   UNL A   1      44.073  24.987  28.496  1.00  0.00     0.049 A 
ATOM     36  N   UNL A   1      41.865  26.999  28.807  1.00  0.00    -0.248 NA
ATOM     37  C   UNL A   1      40.326  25.311  28.324  1.00  0.00     0.031 C 
ATOM     38  C   UNL A   1      45.204  24.074  28.320  1.00  0.00     0.029 A 
ATOM     39  N   UNL A   1      44.652  26.143  28.958  1.00  0.00    -0.354 N 
ATOM     40  C   UNL A   1      40.580  27.527  28.859  1.00  0.00     0.074 A 
ATOM     41  C   UNL A   1      39.673  26.450  28.520  1.00  0.00     0.031 C 
ATOM     42  C   UNL A   1      46.333  24.693  28.695  1.00  0.00     0.029 A 
ATOM     43  C   UNL A   1      46.019  26.070  29.054  1.00  0.00     0.049 A 
ATOM     44  H   UNL A   1      44.135  26.947  29.199  1.00  0.00     0.167 HD
ATOM     45  C   UNL A   1      40.193  28.790  29.161  1.00  0.00     0.037 A 
ATOM     46  C   UNL A   1      46.932  27.012  29.352  1.00  0.00     0.037 A 
ATOM     47  C   UNL A   1      41.095  29.856  29.528  1.00  0.00     0.049 A 
ATOM     48  C   UNL A   1      46.486  28.417  29.622  1.00  0.00     0.074 A 
ATOM     49  C   UNL A   1      40.790  31.158  29.890  1.00  0.00     0.029 A 
ATOM     50  N   UNL A   1      42.475  29.742  29.581  1.00  0.00    -0.354 N 
ATOM     51  N   UNL A   1      45.270  28.905  29.654  1.00  0.00    -0.248 NA
ATOM     52  C   UNL A   1      47.542  29.406  29.879  1.00  0.00     0.031 C 
ATOM     53  C   UNL A   1      41.988  31.843  30.121  1.00  0.00     0.029 A 
ATOM     54  C   UNL A   1      43.037  30.956  29.946  1.00  0.00     0.049 A 
ATOM     55  H   UNL A   1      42.982  28.920  29.387  1.00  0.00     0.167 HD
ATOM     56  C   UNL A   1      45.412  30.252  29.953  1.00  0.00     0.074 A 
ATOM     57  C   UNL A   1      46.832  30.502  30.104  1.00  0.00     0.031 C 
ATOM     58  C   UNL A   1      44.450  31.196  30.092  1.00  0.00     0.037 A 
BRANCH  45  59
ATOM     59  C   UNL A   1      38.727  29.109  29.083  1.00  0.00     0.057 A 
ATOM     60  C   UNL A   1      37.891  29.042  30.204  1.00  0.00     0.134 A 
ATOM     61  C   UNL A   1      38.155  29.535  27.878  1.00  0.00     0.134 A 
ATOM     62  F   UNL A   1      38.372  28.632  31.388  1.00  0.00    -0.206 F 
ATOM     63  C   UNL A   1      36.534  29.366  30.124  1.00  0.00     0.040 A 
ATOM     64  C   UNL A   1      36.807  29.886  27.790  1.00  0.00     0.040 A 
ATOM     65  F   UNL A   1      38.902  29.633  26.767  1.00  0.00    -0.206 F 
ATOM     66  C   UNL A   1      35.990  29.795  28.914  1.00  0.00     0.006 A 
ENDBRANCH  45  59
BRANCH  46  67
ATOM     67  C   UNL A   1      48.370  26.650  29.389  1.00  0.00     0.057 A 
ATOM     68  C   UNL A   1      48.924  26.042  30.520  1.00  0.00     0.134 A 
ATOM     69  C   UNL A   1      49.212  26.873  28.292  1.00  0.00     0.134 A 
ATOM     70  F   UNL A   1      48.169  25.824  31.606  1.00  0.00    -0.206 F 
ATOM     71  C   UNL A   1      50.267  25.669  30.562  1.00  0.00     0.040 A 
ATOM     72  C   UNL A   1      50.552  26.482  28.312  1.00  0.00     0.040 A 
ATOM     73  F   UNL A   1      48.737  27.446  27.178  1.00  0.00    -0.206 F 
ATOM     74  C   UNL A   1      51.083  25.880  29.451  1.00  0.00     0.006 A 
ENDBRANCH  46  67
BRANCH  58  75
ATOM     75  C   UNL A   1      44.903  32.577  30.459  1.00  0.00     0.057 A 
ATOM     76  C   UNL A   1      45.094  32.962  31.792  1.00  0.00     0.134 A 
ATOM     77  C   UNL A   1      45.158  33.531  29.466  1.00  0.00     0.134 A 
ATOM     78  F   UNL A   1      44.849  32.100  32.790  1.00  0.00    -0.206 F 
ATOM     79  C   UNL A   1      45.501  34.256  32.126  1.00  0.00     0.040 A 
ATOM     80  C   UNL A   1      45.587  34.820  29.786  1.00  0.00     0.040 A 
ATOM     81  F   UNL A   1      44.997  33.225  28.170  1.00  0.00    -0.206 F 
ATOM     82  C   UNL A   1      45.753  35.187  31.120  1.00  0.00     0.006 A 
ENDBRANCH  58  75
ENDBRANCH  32  33
ENDBRANCH  25  27
ENDBRANCH  24  25
ENDBRANCH  23  24
ENDBRANCH   1  23
TORSDOF 16
ENDMDL
