MODEL 1
REMARK VINA RESULT:     -10.2      0.000      0.000
REMARK SMILES [NH3+][C@H](Cc1ccc2nsnc2c1)C(=O)OCCOC(=O)c1ccc(-c2c3nc(c(-c4c(F)cccc4F)c4ccc([nH]4)c(-c4c(F)cccc4F)c4nc(c(-c5c(F)cccc5F)c5ccc2[nH]5)C=C4)C=C3)cc1
REMARK SMILES IDX 16 1 15 2 13 3 14 4 2 5 1 6 3 10 4 11 5 12 12 13 6 14 11 15
REMARK SMILES IDX 7 16 10 17 8 18 9 19 17 20 18 21 19 22 20 23 21 24 22 25
REMARK SMILES IDX 74 26 23 27 73 28 24 29 25 30 26 31 67 32 27 33 72 34 66 35
REMARK SMILES IDX 68 36 28 37 71 38 65 39 64 40 29 42 55 43 38 44 54 45 39 46
REMARK SMILES IDX 42 47 53 48 69 49 40 50 41 51 52 53 70 54 43 55 30 56 31 57
REMARK SMILES IDX 36 58 32 59 33 60 35 61 37 62 34 63 56 64 57 65 62 66 58 67
REMARK SMILES IDX 59 68 61 69 63 70 60 71 44 72 45 73 50 74 46 75 47 76 49 77
REMARK SMILES IDX 51 78 48 79
REMARK H PARENT 1 7 1 8 1 9 68 41 42 52
REMARK Flexibility Score: inf
ROOT
ATOM      1  C   UNL A   1      44.530  18.823  24.887  1.00  0.00     0.274 C 
ENDROOT
BRANCH   1   2
ATOM      2  O   UNL A   1      44.679  20.094  24.225  1.00  0.00    -0.458 OA
BRANCH   2   3
ATOM      3  C   UNL A   1      45.441  21.017  24.871  1.00  0.00     0.365 C 
ATOM      4  O   UNL A   1      46.323  20.731  25.676  1.00  0.00    -0.245 OA
BRANCH   3   5
ATOM      5  C   UNL A   1      45.102  22.472  24.476  1.00  0.00     0.296 C 
BRANCH   5   6
ATOM      6  N   UNL A   1      44.749  22.510  23.035  1.00  0.00    -0.346 N 
ATOM      7  H   UNL A   1      43.750  22.335  22.926  1.00  0.00     0.345 HD
ATOM      8  H   UNL A   1      45.277  21.793  22.538  1.00  0.00     0.345 HD
ATOM      9  H   UNL A   1      44.976  23.428  22.653  1.00  0.00     0.345 HD
ENDBRANCH   5   6
BRANCH   5  10
ATOM     10  C   UNL A   1      46.082  23.557  25.006  1.00  0.00     0.113 C 
BRANCH  10  11
ATOM     11  C   UNL A   1      45.464  24.940  25.066  1.00  0.00    -0.039 A 
ATOM     12  C   UNL A   1      46.259  26.040  25.494  1.00  0.00     0.006 A 
ATOM     13  C   UNL A   1      44.075  25.049  24.827  1.00  0.00     0.035 A 
ATOM     14  C   UNL A   1      45.729  27.314  25.770  1.00  0.00     0.032 A 
ATOM     15  C   UNL A   1      43.489  26.297  25.130  1.00  0.00     0.105 A 
ATOM     16  C   UNL A   1      44.330  27.449  25.616  1.00  0.00     0.104 A 
ATOM     17  N   UNL A   1      42.181  26.585  25.058  1.00  0.00    -0.173 NA
ATOM     18  N   UNL A   1      43.609  28.548  25.885  1.00  0.00    -0.173 NA
ATOM     19  S   UNL A   1      42.024  28.158  25.570  1.00  0.00     0.069 S 
ENDBRANCH  10  11
ENDBRANCH   5  10
ENDBRANCH   3   5
ENDBRANCH   2   3
ENDBRANCH   1   2
BRANCH   1  20
ATOM     20  C   UNL A   1      43.264  18.785  25.754  1.00  0.00     0.275 C 
BRANCH  20  21
ATOM     21  O   UNL A   1      42.103  19.290  25.065  1.00  0.00    -0.458 OA
BRANCH  21  22
ATOM     22  C   UNL A   1      41.068  19.646  25.862  1.00  0.00     0.338 C 
ATOM     23  O   UNL A   1      40.075  18.989  26.121  1.00  0.00    -0.246 OA
BRANCH  22  24
ATOM     24  C   UNL A   1      41.366  20.919  26.536  1.00  0.00     0.060 A 
ATOM     25  C   UNL A   1      41.625  22.029  25.732  1.00  0.00     0.016 A 
ATOM     26  C   UNL A   1      41.486  21.011  27.921  1.00  0.00     0.016 A 
ATOM     27  C   UNL A   1      42.027  23.233  26.291  1.00  0.00     0.010 A 
ATOM     28  C   UNL A   1      41.859  22.234  28.491  1.00  0.00     0.010 A 
ATOM     29  C   UNL A   1      42.136  23.349  27.677  1.00  0.00    -0.014 A 
BRANCH  29  30
ATOM     30  C   UNL A   1      42.531  24.650  28.261  1.00  0.00     0.031 A 
ATOM     31  C   UNL A   1      41.500  25.709  28.504  1.00  0.00     0.074 A 
ATOM     32  C   UNL A   1      43.819  24.860  28.592  1.00  0.00     0.049 A 
ATOM     33  N   UNL A   1      41.667  26.952  28.871  1.00  0.00    -0.248 NA
ATOM     34  C   UNL A   1      40.095  25.319  28.307  1.00  0.00     0.031 C 
ATOM     35  C   UNL A   1      44.897  23.876  28.461  1.00  0.00     0.029 A 
ATOM     36  N   UNL A   1      44.442  25.971  29.098  1.00  0.00    -0.354 N 
ATOM     37  C   UNL A   1      40.395  27.507  28.911  1.00  0.00     0.074 A 
ATOM     38  C   UNL A   1      39.464  26.464  28.537  1.00  0.00     0.031 C 
ATOM     39  C   UNL A   1      46.048  24.431  28.868  1.00  0.00     0.029 A 
ATOM     40  C   UNL A   1      45.801  25.824  29.225  1.00  0.00     0.049 A 
ATOM     41  H   UNL A   1      43.961  26.793  29.347  1.00  0.00     0.167 HD
ATOM     42  C   UNL A   1      40.047  28.776  29.224  1.00  0.00     0.037 A 
ATOM     43  C   UNL A   1      46.748  26.725  29.541  1.00  0.00     0.037 A 
ATOM     44  C   UNL A   1      40.980  29.793  29.632  1.00  0.00     0.049 A 
ATOM     45  C   UNL A   1      46.340  28.142  29.822  1.00  0.00     0.074 A 
ATOM     46  C   UNL A   1      40.722  31.097  30.016  1.00  0.00     0.029 A 
ATOM     47  N   UNL A   1      42.354  29.617  29.708  1.00  0.00    -0.354 N 
ATOM     48  N   UNL A   1      45.137  28.664  29.844  1.00  0.00    -0.248 NA
ATOM     49  C   UNL A   1      47.418  29.100  30.100  1.00  0.00     0.031 C 
ATOM     50  C   UNL A   1      41.943  31.723  30.285  1.00  0.00     0.029 A 
ATOM     51  C   UNL A   1      42.960  30.798  30.102  1.00  0.00     0.049 A 
ATOM     52  H   UNL A   1      42.828  28.776  29.511  1.00  0.00     0.167 HD
ATOM     53  C   UNL A   1      45.312  30.008  30.142  1.00  0.00     0.074 A 
ATOM     54  C   UNL A   1      46.735  30.217  30.312  1.00  0.00     0.031 C 
ATOM     55  C   UNL A   1      44.378  30.983  30.258  1.00  0.00     0.037 A 
BRANCH  42  56
ATOM     56  C   UNL A   1      38.602  29.151  29.100  1.00  0.00     0.057 A 
ATOM     57  C   UNL A   1      37.724  29.103  30.188  1.00  0.00     0.134 A 
ATOM     58  C   UNL A   1      38.099  29.616  27.878  1.00  0.00     0.134 A 
ATOM     59  F   UNL A   1      38.142  28.653  31.380  1.00  0.00    -0.206 F 
ATOM     60  C   UNL A   1      36.390  29.495  30.063  1.00  0.00     0.040 A 
ATOM     61  C   UNL A   1      36.772  30.028  27.745  1.00  0.00     0.040 A 
ATOM     62  F   UNL A   1      38.891  29.688  26.798  1.00  0.00    -0.206 F 
ATOM     63  C   UNL A   1      35.913  29.965  28.840  1.00  0.00     0.006 A 
ENDBRANCH  42  56
BRANCH  43  64
ATOM     64  C   UNL A   1      48.177  26.329  29.534  1.00  0.00     0.057 A 
ATOM     65  C   UNL A   1      48.990  26.558  28.419  1.00  0.00     0.134 A 
ATOM     66  C   UNL A   1      48.763  25.711  30.645  1.00  0.00     0.134 A 
ATOM     67  F   UNL A   1      48.480  27.125  27.316  1.00  0.00    -0.206 F 
ATOM     68  C   UNL A   1      50.334  26.179  28.407  1.00  0.00     0.040 A 
ATOM     69  C   UNL A   1      50.110  25.349  30.656  1.00  0.00     0.040 A 
ATOM     70  F   UNL A   1      48.035  25.464  31.745  1.00  0.00    -0.206 F 
ATOM     71  C   UNL A   1      50.898  25.578  29.531  1.00  0.00     0.006 A 
ENDBRANCH  43  64
BRANCH  55  72
ATOM     72  C   UNL A   1      44.871  32.357  30.591  1.00  0.00     0.057 A 
ATOM     73  C   UNL A   1      45.136  33.298  29.589  1.00  0.00     0.134 A 
ATOM     74  C   UNL A   1      45.041  32.754  31.922  1.00  0.00     0.134 A 
ATOM     75  F   UNL A   1      45.005  32.971  28.295  1.00  0.00    -0.206 F 
ATOM     76  C   UNL A   1      45.565  34.589  29.902  1.00  0.00     0.040 A 
ATOM     77  C   UNL A   1      45.452  34.046  32.248  1.00  0.00     0.040 A 
ATOM     78  F   UNL A   1      44.799  31.897  32.925  1.00  0.00    -0.206 F 
ATOM     79  C   UNL A   1      45.718  34.967  31.236  1.00  0.00     0.006 A 
ENDBRANCH  55  72
ENDBRANCH  29  30
ENDBRANCH  22  24
ENDBRANCH  21  22
ENDBRANCH  20  21
ENDBRANCH   1  20
TORSDOF 14
ENDMDL
MODEL 2
REMARK VINA RESULT:      -9.5      0.927      6.490
REMARK SMILES [NH3+][C@H](Cc1ccc2nsnc2c1)C(=O)OCCOC(=O)c1ccc(-c2c3nc(c(-c4c(F)cccc4F)c4ccc([nH]4)c(-c4c(F)cccc4F)c4nc(c(-c5c(F)cccc5F)c5ccc2[nH]5)C=C4)C=C3)cc1
REMARK SMILES IDX 16 1 15 2 13 3 14 4 2 5 1 6 3 10 4 11 5 12 12 13 6 14 11 15
REMARK SMILES IDX 7 16 10 17 8 18 9 19 17 20 18 21 19 22 20 23 21 24 22 25
REMARK SMILES IDX 74 26 23 27 73 28 24 29 25 30 26 31 67 32 27 33 72 34 66 35
REMARK SMILES IDX 68 36 28 37 71 38 65 39 64 40 29 42 55 43 38 44 54 45 39 46
REMARK SMILES IDX 42 47 53 48 69 49 40 50 41 51 52 53 70 54 43 55 30 56 31 57
REMARK SMILES IDX 36 58 32 59 33 60 35 61 37 62 34 63 56 64 57 65 62 66 58 67
REMARK SMILES IDX 59 68 61 69 63 70 60 71 44 72 45 73 50 74 46 75 47 76 49 77
REMARK SMILES IDX 51 78 48 79
REMARK H PARENT 1 7 1 8 1 9 68 41 42 52
REMARK Flexibility Score: inf
ROOT
ATOM      1  C   UNL A   1      44.544  19.036  25.362  1.00  0.00     0.274 C 
ENDROOT
BRANCH   1   2
ATOM      2  O   UNL A   1      44.541  20.195  24.506  1.00  0.00    -0.458 OA
BRANCH   2   3
ATOM      3  C   UNL A   1      45.378  21.205  24.864  1.00  0.00     0.365 C 
ATOM      4  O   UNL A   1      46.334  21.062  25.621  1.00  0.00    -0.245 OA
BRANCH   3   5
ATOM      5  C   UNL A   1      45.019  22.557  24.207  1.00  0.00     0.296 C 
BRANCH   5   6
ATOM      6  N   UNL A   1      44.550  22.309  22.821  1.00  0.00    -0.346 N 
ATOM      7  H   UNL A   1      43.829  22.989  22.580  1.00  0.00     0.345 HD
ATOM      8  H   UNL A   1      44.165  21.367  22.756  1.00  0.00     0.345 HD
ATOM      9  H   UNL A   1      45.334  22.402  22.175  1.00  0.00     0.345 HD
ENDBRANCH   5   6
BRANCH   5  10
ATOM     10  C   UNL A   1      46.046  23.703  24.426  1.00  0.00     0.113 C 
BRANCH  10  11
ATOM     11  C   UNL A   1      45.434  24.940  25.055  1.00  0.00    -0.039 A 
ATOM     12  C   UNL A   1      44.047  25.201  24.873  1.00  0.00     0.006 A 
ATOM     13  C   UNL A   1      46.309  25.857  25.680  1.00  0.00     0.035 A 
ATOM     14  C   UNL A   1      43.435  26.410  25.247  1.00  0.00     0.032 A 
ATOM     15  C   UNL A   1      45.749  27.104  26.035  1.00  0.00     0.105 A 
ATOM     16  C   UNL A   1      44.288  27.389  25.808  1.00  0.00     0.104 A 
ATOM     17  N   UNL A   1      46.419  28.142  26.557  1.00  0.00    -0.173 NA
ATOM     18  N   UNL A   1      43.932  28.629  26.174  1.00  0.00    -0.173 NA
ATOM     19  S   UNL A   1      45.312  29.368  26.733  1.00  0.00     0.069 S 
ENDBRANCH  10  11
ENDBRANCH   5  10
ENDBRANCH   3   5
ENDBRANCH   2   3
ENDBRANCH   1   2
BRANCH   1  20
ATOM     20  C   UNL A   1      43.181  18.332  25.363  1.00  0.00     0.275 C 
BRANCH  20  21
ATOM     21  O   UNL A   1      42.374  18.684  26.504  1.00  0.00    -0.458 OA
BRANCH  21  22
ATOM     22  C   UNL A   1      41.313  19.483  26.239  1.00  0.00     0.338 C 
ATOM     23  O   UNL A   1      40.255  19.161  25.726  1.00  0.00    -0.246 OA
BRANCH  22  24
ATOM     24  C   UNL A   1      41.535  20.820  26.810  1.00  0.00     0.060 A 
ATOM     25  C   UNL A   1      41.826  21.859  25.924  1.00  0.00     0.016 A 
ATOM     26  C   UNL A   1      41.553  21.043  28.184  1.00  0.00     0.016 A 
ATOM     27  C   UNL A   1      42.160  23.120  26.394  1.00  0.00     0.010 A 
ATOM     28  C   UNL A   1      41.858  22.324  28.662  1.00  0.00     0.010 A 
ATOM     29  C   UNL A   1      42.167  23.366  27.768  1.00  0.00    -0.014 A 
BRANCH  29  30
ATOM     30  C   UNL A   1      42.491  24.726  28.252  1.00  0.00     0.031 A 
ATOM     31  C   UNL A   1      43.885  25.055  28.692  1.00  0.00     0.074 A 
ATOM     32  C   UNL A   1      41.528  25.666  28.270  1.00  0.00     0.049 A 
ATOM     33  N   UNL A   1      44.330  26.136  29.277  1.00  0.00    -0.248 NA
ATOM     34  C   UNL A   1      44.914  24.033  28.445  1.00  0.00     0.031 C 
ATOM     35  C   UNL A   1      40.153  25.476  27.803  1.00  0.00     0.029 A 
ATOM     36  N   UNL A   1      41.556  26.966  28.705  1.00  0.00    -0.354 N 
ATOM     37  C   UNL A   1      45.681  25.912  29.504  1.00  0.00     0.074 A 
ATOM     38  C   UNL A   1      45.986  24.594  28.990  1.00  0.00     0.031 C 
ATOM     39  C   UNL A   1      39.468  26.615  27.985  1.00  0.00     0.029 A 
ATOM     40  C   UNL A   1      40.335  27.589  28.639  1.00  0.00     0.049 A 
ATOM     41  H   UNL A   1      42.372  27.409  29.033  1.00  0.00     0.167 HD
ATOM     42  C   UNL A   1      46.577  26.734  30.098  1.00  0.00     0.037 A 
ATOM     43  C   UNL A   1      39.944  28.790  29.102  1.00  0.00     0.037 A 
ATOM     44  C   UNL A   1      46.268  28.058  30.569  1.00  0.00     0.049 A 
ATOM     45  C   UNL A   1      40.944  29.657  29.812  1.00  0.00     0.074 A 
ATOM     46  C   UNL A   1      47.117  28.989  31.143  1.00  0.00     0.029 A 
ATOM     47  N   UNL A   1      45.010  28.639  30.522  1.00  0.00    -0.354 N 
ATOM     48  N   UNL A   1      42.215  29.432  30.037  1.00  0.00    -0.248 NA
ATOM     49  C   UNL A   1      40.451  30.930  30.353  1.00  0.00     0.031 C 
ATOM     50  C   UNL A   1      46.363  30.118  31.480  1.00  0.00     0.029 A 
ATOM     51  C   UNL A   1      45.051  29.903  31.085  1.00  0.00     0.049 A 
ATOM     52  H   UNL A   1      44.206  28.214  30.144  1.00  0.00     0.167 HD
ATOM     53  C   UNL A   1      42.676  30.536  30.740  1.00  0.00     0.074 A 
ATOM     54  C   UNL A   1      41.552  31.438  30.887  1.00  0.00     0.031 C 
ATOM     55  C   UNL A   1      43.918  30.779  31.225  1.00  0.00     0.037 A 
BRANCH  42  56
ATOM     56  C   UNL A   1      47.965  26.214  30.308  1.00  0.00     0.057 A 
ATOM     57  C   UNL A   1      48.376  25.654  31.522  1.00  0.00     0.134 A 
ATOM     58  C   UNL A   1      48.890  26.232  29.255  1.00  0.00     0.134 A 
ATOM     59  F   UNL A   1      47.542  25.621  32.572  1.00  0.00    -0.206 F 
ATOM     60  C   UNL A   1      49.662  25.137  31.687  1.00  0.00     0.040 A 
ATOM     61  C   UNL A   1      50.172  25.702  29.401  1.00  0.00     0.040 A 
ATOM     62  F   UNL A   1      48.557  26.754  28.065  1.00  0.00    -0.206 F 
ATOM     63  C   UNL A   1      50.562  25.154  30.622  1.00  0.00     0.006 A 
ENDBRANCH  42  56
BRANCH  43  64
ATOM     64  C   UNL A   1      38.527  29.207  28.971  1.00  0.00     0.057 A 
ATOM     65  C   UNL A   1      38.018  29.684  27.760  1.00  0.00     0.134 A 
ATOM     66  C   UNL A   1      37.648  29.137  30.060  1.00  0.00     0.134 A 
ATOM     67  F   UNL A   1      38.816  29.797  26.689  1.00  0.00    -0.206 F 
ATOM     68  C   UNL A   1      36.686  30.085  27.636  1.00  0.00     0.040 A 
ATOM     69  C   UNL A   1      36.309  29.511  29.945  1.00  0.00     0.040 A 
ATOM     70  F   UNL A   1      38.077  28.688  31.249  1.00  0.00    -0.206 F 
ATOM     71  C   UNL A   1      35.826  29.993  28.730  1.00  0.00     0.006 A 
ENDBRANCH  43  64
BRANCH  55  72
ATOM     72  C   UNL A   1      44.121  32.071  31.953  1.00  0.00     0.057 A 
ATOM     73  C   UNL A   1      44.481  33.241  31.274  1.00  0.00     0.134 A 
ATOM     74  C   UNL A   1      43.918  32.155  33.335  1.00  0.00     0.134 A 
ATOM     75  F   UNL A   1      44.704  33.219  29.951  1.00  0.00    -0.206 F 
ATOM     76  C   UNL A   1      44.640  34.452  31.949  1.00  0.00     0.040 A 
ATOM     77  C   UNL A   1      44.055  33.363  34.018  1.00  0.00     0.040 A 
ATOM     78  F   UNL A   1      43.568  31.068  34.039  1.00  0.00    -0.206 F 
ATOM     79  C   UNL A   1      44.420  34.516  33.324  1.00  0.00     0.006 A 
ENDBRANCH  55  72
ENDBRANCH  29  30
ENDBRANCH  22  24
ENDBRANCH  21  22
ENDBRANCH  20  21
ENDBRANCH   1  20
TORSDOF 14
ENDMDL
MODEL 3
REMARK VINA RESULT:      -9.0      4.337      8.344
REMARK SMILES [NH3+][C@H](Cc1ccc2nsnc2c1)C(=O)OCCOC(=O)c1ccc(-c2c3nc(c(-c4c(F)cccc4F)c4ccc([nH]4)c(-c4c(F)cccc4F)c4nc(c(-c5c(F)cccc5F)c5ccc2[nH]5)C=C4)C=C3)cc1
REMARK SMILES IDX 16 1 15 2 13 3 14 4 2 5 1 6 3 10 4 11 5 12 12 13 6 14 11 15
REMARK SMILES IDX 7 16 10 17 8 18 9 19 17 20 18 21 19 22 20 23 21 24 22 25
REMARK SMILES IDX 74 26 23 27 73 28 24 29 25 30 26 31 67 32 27 33 72 34 66 35
REMARK SMILES IDX 68 36 28 37 71 38 65 39 64 40 29 42 55 43 38 44 54 45 39 46
REMARK SMILES IDX 42 47 53 48 69 49 40 50 41 51 52 53 70 54 43 55 30 56 31 57
REMARK SMILES IDX 36 58 32 59 33 60 35 61 37 62 34 63 56 64 57 65 62 66 58 67
REMARK SMILES IDX 59 68 61 69 63 70 60 71 44 72 45 73 50 74 46 75 47 76 49 77
REMARK SMILES IDX 51 78 48 79
REMARK H PARENT 1 7 1 8 1 9 68 41 42 52
REMARK Flexibility Score: inf
ROOT
ATOM      1  C   UNL A   1      44.621  20.464  25.182  1.00  0.00     0.274 C 
ENDROOT
BRANCH   1   2
ATOM      2  O   UNL A   1      43.226  20.176  24.966  1.00  0.00    -0.458 OA
BRANCH   2   3
ATOM      3  C   UNL A   1      42.679  19.231  25.776  1.00  0.00     0.365 C 
ATOM      4  O   UNL A   1      43.099  18.081  25.863  1.00  0.00    -0.245 OA
BRANCH   3   5
ATOM      5  C   UNL A   1      41.479  19.753  26.598  1.00  0.00     0.296 C 
BRANCH   5   6
ATOM      6  N   UNL A   1      41.663  19.365  28.019  1.00  0.00    -0.346 N 
ATOM      7  H   UNL A   1      40.785  18.999  28.387  1.00  0.00     0.345 HD
ATOM      8  H   UNL A   1      41.945  20.182  28.560  1.00  0.00     0.345 HD
ATOM      9  H   UNL A   1      42.385  18.647  28.084  1.00  0.00     0.345 HD
ENDBRANCH   5   6
BRANCH   5  10
ATOM     10  C   UNL A   1      40.079  19.519  25.964  1.00  0.00     0.113 C 
BRANCH  10  11
ATOM     11  C   UNL A   1      39.294  20.801  25.763  1.00  0.00    -0.039 A 
ATOM     12  C   UNL A   1      39.684  21.975  26.467  1.00  0.00     0.006 A 
ATOM     13  C   UNL A   1      38.116  20.733  24.985  1.00  0.00     0.035 A 
ATOM     14  C   UNL A   1      38.909  23.148  26.499  1.00  0.00     0.032 A 
ATOM     15  C   UNL A   1      37.284  21.871  25.019  1.00  0.00     0.105 A 
ATOM     16  C   UNL A   1      37.683  23.099  25.795  1.00  0.00     0.104 A 
ATOM     17  N   UNL A   1      36.086  21.983  24.426  1.00  0.00    -0.173 NA
ATOM     18  N   UNL A   1      36.764  24.075  25.744  1.00  0.00    -0.173 NA
ATOM     19  S   UNL A   1      35.510  23.491  24.822  1.00  0.00     0.069 S 
ENDBRANCH  10  11
ENDBRANCH   5  10
ENDBRANCH   3   5
ENDBRANCH   2   3
ENDBRANCH   1   2
BRANCH   1  20
ATOM     20  C   UNL A   1      44.818  21.840  25.832  1.00  0.00     0.275 C 
BRANCH  20  21
ATOM     21  O   UNL A   1      43.576  22.546  26.023  1.00  0.00    -0.458 OA
BRANCH  21  22
ATOM     22  C   UNL A   1      43.551  23.813  25.544  1.00  0.00     0.338 C 
ATOM     23  O   UNL A   1      43.777  24.176  24.402  1.00  0.00    -0.246 OA
BRANCH  22  24
ATOM     24  C   UNL A   1      43.043  24.732  26.574  1.00  0.00     0.060 A 
ATOM     25  C   UNL A   1      43.571  26.023  26.604  1.00  0.00     0.016 A 
ATOM     26  C   UNL A   1      42.141  24.319  27.552  1.00  0.00     0.016 A 
ATOM     27  C   UNL A   1      43.228  26.907  27.615  1.00  0.00     0.010 A 
ATOM     28  C   UNL A   1      41.767  25.220  28.556  1.00  0.00     0.010 A 
ATOM     29  C   UNL A   1      42.313  26.517  28.593  1.00  0.00    -0.014 A 
BRANCH  29  30
ATOM     30  C   UNL A   1      41.929  27.484  29.645  1.00  0.00     0.031 A 
ATOM     31  C   UNL A   1      42.665  27.506  30.950  1.00  0.00     0.074 A 
ATOM     32  C   UNL A   1      40.932  28.356  29.407  1.00  0.00     0.049 A 
ATOM     33  N   UNL A   1      42.390  28.175  32.039  1.00  0.00    -0.248 NA
ATOM     34  C   UNL A   1      43.868  26.664  31.044  1.00  0.00     0.031 C 
ATOM     35  C   UNL A   1      40.190  28.469  28.149  1.00  0.00     0.029 A 
ATOM     36  N   UNL A   1      40.364  29.307  30.215  1.00  0.00    -0.354 N 
ATOM     37  C   UNL A   1      43.359  27.806  32.962  1.00  0.00     0.074 A 
ATOM     38  C   UNL A   1      44.235  26.860  32.305  1.00  0.00     0.031 C 
ATOM     39  C   UNL A   1      39.261  29.428  28.273  1.00  0.00     0.029 A 
ATOM     40  C   UNL A   1      39.299  29.949  29.635  1.00  0.00     0.049 A 
ATOM     41  H   UNL A   1      40.690  29.510  31.122  1.00  0.00     0.167 HD
ATOM     42  C   UNL A   1      43.493  28.220  34.244  1.00  0.00     0.037 A 
ATOM     43  C   UNL A   1      38.417  30.820  30.159  1.00  0.00     0.037 A 
ATOM     44  C   UNL A   1      42.638  29.191  34.872  1.00  0.00     0.049 A 
ATOM     45  C   UNL A   1      38.552  31.213  31.602  1.00  0.00     0.074 A 
ATOM     46  C   UNL A   1      42.720  29.712  36.152  1.00  0.00     0.029 A 
ATOM     47  N   UNL A   1      41.544  29.788  34.265  1.00  0.00    -0.354 N 
ATOM     48  N   UNL A   1      39.462  30.850  32.473  1.00  0.00    -0.248 NA
ATOM     49  C   UNL A   1      37.528  32.118  32.141  1.00  0.00     0.031 C 
ATOM     50  C   UNL A   1      41.649  30.594  36.333  1.00  0.00     0.029 A 
ATOM     51  C   UNL A   1      40.922  30.648  35.155  1.00  0.00     0.049 A 
ATOM     52  H   UNL A   1      41.252  29.624  33.339  1.00  0.00     0.167 HD
ATOM     53  C   UNL A   1      39.124  31.483  33.660  1.00  0.00     0.074 A 
ATOM     54  C   UNL A   1      37.937  32.269  33.393  1.00  0.00     0.031 C 
ATOM     55  C   UNL A   1      39.738  31.415  34.866  1.00  0.00     0.037 A 
BRANCH  42  56
ATOM     56  C   UNL A   1      44.578  27.595  35.065  1.00  0.00     0.057 A 
ATOM     57  C   UNL A   1      44.379  26.415  35.791  1.00  0.00     0.134 A 
ATOM     58  C   UNL A   1      45.859  28.163  35.087  1.00  0.00     0.134 A 
ATOM     59  F   UNL A   1      43.172  25.832  35.821  1.00  0.00    -0.206 F 
ATOM     60  C   UNL A   1      45.414  25.825  36.518  1.00  0.00     0.040 A 
ATOM     61  C   UNL A   1      46.906  27.572  35.796  1.00  0.00     0.040 A 
ATOM     62  F   UNL A   1      46.115  29.292  34.411  1.00  0.00    -0.206 F 
ATOM     63  C   UNL A   1      46.683  26.401  36.517  1.00  0.00     0.006 A 
ENDBRANCH  42  56
BRANCH  43  64
ATOM     64  C   UNL A   1      37.290  31.318  29.334  1.00  0.00     0.057 A 
ATOM     65  C   UNL A   1      37.307  32.601  28.779  1.00  0.00     0.134 A 
ATOM     66  C   UNL A   1      36.169  30.518  29.080  1.00  0.00     0.134 A 
ATOM     67  F   UNL A   1      38.343  33.422  29.005  1.00  0.00    -0.206 F 
ATOM     68  C   UNL A   1      36.244  33.076  28.007  1.00  0.00     0.040 A 
ATOM     69  C   UNL A   1      35.110  30.970  28.291  1.00  0.00     0.040 A 
ATOM     70  F   UNL A   1      36.094  29.277  29.585  1.00  0.00    -0.206 F 
ATOM     71  C   UNL A   1      35.144  32.255  27.757  1.00  0.00     0.006 A 
ENDBRANCH  43  64
BRANCH  55  72
ATOM     72  C   UNL A   1      39.138  32.217  35.979  1.00  0.00     0.057 A 
ATOM     73  C   UNL A   1      38.202  31.658  36.858  1.00  0.00     0.134 A 
ATOM     74  C   UNL A   1      39.529  33.542  36.198  1.00  0.00     0.134 A 
ATOM     75  F   UNL A   1      37.778  30.397  36.689  1.00  0.00    -0.206 F 
ATOM     76  C   UNL A   1      37.667  32.397  37.913  1.00  0.00     0.040 A 
ATOM     77  C   UNL A   1      39.016  34.285  37.261  1.00  0.00     0.040 A 
ATOM     78  F   UNL A   1      40.426  34.130  35.392  1.00  0.00    -0.206 F 
ATOM     79  C   UNL A   1      38.079  33.713  38.120  1.00  0.00     0.006 A 
ENDBRANCH  55  72
ENDBRANCH  29  30
ENDBRANCH  22  24
ENDBRANCH  21  22
ENDBRANCH  20  21
ENDBRANCH   1  20
TORSDOF 14
ENDMDL
