MODEL 1
REMARK VINA RESULT:     -11.9      0.000      0.000
REMARK SMILES Cc1c(Br)c(C)c2c(c1Br)O[C@H](C(F)(F)F)C(C(=O)OCCOC(=O)c1ccc(-c3c4nc(c(-c5c(F)cccc5F)c5ccc([nH]5)c(-c5c(F)cccc5F)c5nc(c(-c6c(F)cccc6F)c6ccc3[nH]6)C=C5)C=C4)cc1)=C2
REMARK SMILES IDX 22 1 21 2 20 3 18 4 19 5 17 6 1 7 2 8 3 9 9 10 4 11 5 12
REMARK SMILES IDX 8 13 10 14 6 15 7 16 11 17 80 18 12 19 13 20 14 21 15 22
REMARK SMILES IDX 16 23 23 24 24 25 25 26 26 27 27 28 79 29 28 30 78 31 29 32
REMARK SMILES IDX 30 33 31 34 72 35 32 36 77 37 71 38 73 39 33 40 76 41 70 42
REMARK SMILES IDX 69 43 34 45 60 46 43 47 59 48 44 49 47 50 58 51 74 52 45 53
REMARK SMILES IDX 46 54 57 56 75 57 48 58 35 59 36 60 41 61 37 62 38 63 40 64
REMARK SMILES IDX 42 65 39 66 61 67 62 68 67 69 63 70 64 71 66 72 68 73 65 74
REMARK SMILES IDX 49 75 50 76 55 77 51 78 52 79 54 80 56 81 53 82
REMARK H PARENT 73 44 47 55
REMARK Flexibility Score: inf
ROOT
ATOM      1  C   UNL A   1      31.633  29.854  25.494  1.00  0.00     0.275 C 
ENDROOT
BRANCH   1   2
ATOM      2  C   UNL A   1      31.386  28.381  25.169  1.00  0.00     0.275 C 
BRANCH   2   3
ATOM      3  O   UNL A   1      32.417  27.542  25.735  1.00  0.00    -0.459 OA
BRANCH   3   4
ATOM      4  C   UNL A   1      33.349  27.092  24.863  1.00  0.00     0.338 C 
ATOM      5  O   UNL A   1      34.004  27.764  24.082  1.00  0.00    -0.246 OA
BRANCH   4   6
ATOM      6  C   UNL A   1      33.504  25.630  24.983  1.00  0.00     0.087 C 
ATOM      7  C   UNL A   1      35.525  19.404  24.892  1.00  0.00     0.047 C 
ATOM      8  C   UNL A   1      35.317  20.894  25.040  1.00  0.00    -0.019 A 
ATOM      9  C   UNL A   1      36.419  21.753  25.282  1.00  0.00     0.025 A 
ATOM     10  C   UNL A   1      34.041  21.477  24.877  1.00  0.00     0.064 A 
ATOM     11  Br  UNL A   1      38.179  20.990  25.401  1.00  0.00    -0.050 Br
ATOM     12  C   UNL A   1      36.253  23.154  25.399  1.00  0.00    -0.026 A 
ATOM     13  C   UNL A   1      33.859  22.868  24.973  1.00  0.00     0.142 A 
ATOM     14  Br  UNL A   1      32.509  20.403  24.459  1.00  0.00    -0.046 Br
ATOM     15  C   UNL A   1      37.411  24.079  25.708  1.00  0.00     0.046 C 
ATOM     16  C   UNL A   1      34.956  23.704  25.222  1.00  0.00     0.022 A 
ATOM     17  O   UNL A   1      32.577  23.343  24.844  1.00  0.00    -0.474 OA
ATOM     18  C   UNL A   1      34.722  25.146  25.247  1.00  0.00     0.027 C 
ATOM     19  C   UNL A   1      32.333  24.759  24.665  1.00  0.00     0.316 C 
BRANCH  19  20
ATOM     20  C   UNL A   1      31.814  25.009  23.240  1.00  0.00     0.430 C 
ATOM     21  F   UNL A   1      30.954  26.052  23.201  1.00  0.00    -0.167 F 
ATOM     22  F   UNL A   1      32.826  25.310  22.390  1.00  0.00    -0.167 F 
ATOM     23  F   UNL A   1      31.172  23.930  22.736  1.00  0.00    -0.167 F 
ENDBRANCH  19  20
ENDBRANCH   4   6
ENDBRANCH   3   4
ENDBRANCH   2   3
ENDBRANCH   1   2
BRANCH   1  24
ATOM     24  O   UNL A   1      32.245  29.981  26.791  1.00  0.00    -0.458 OA
BRANCH  24  25
ATOM     25  C   UNL A   1      32.864  31.159  27.030  1.00  0.00     0.338 C 
ATOM     26  O   UNL A   1      32.391  32.279  26.948  1.00  0.00    -0.246 OA
BRANCH  25  27
ATOM     27  C   UNL A   1      34.236  30.917  27.503  1.00  0.00     0.060 A 
ATOM     28  C   UNL A   1      34.667  29.605  27.649  1.00  0.00     0.016 A 
ATOM     29  C   UNL A   1      35.025  31.963  27.972  1.00  0.00     0.016 A 
ATOM     30  C   UNL A   1      35.806  29.326  28.399  1.00  0.00     0.010 A 
ATOM     31  C   UNL A   1      36.246  31.682  28.603  1.00  0.00     0.010 A 
ATOM     32  C   UNL A   1      36.628  30.356  28.876  1.00  0.00    -0.014 A 
BRANCH  32  33
ATOM     33  C   UNL A   1      37.845  30.034  29.685  1.00  0.00     0.031 A 
ATOM     34  C   UNL A   1      38.968  29.217  29.090  1.00  0.00     0.074 A 
ATOM     35  C   UNL A   1      37.983  30.512  30.941  1.00  0.00     0.049 A 
ATOM     36  N   UNL A   1      40.010  28.688  29.684  1.00  0.00    -0.248 NA
ATOM     37  C   UNL A   1      38.912  28.950  27.643  1.00  0.00     0.031 C 
ATOM     38  C   UNL A   1      37.018  31.366  31.637  1.00  0.00     0.029 A 
ATOM     39  N   UNL A   1      39.004  30.373  31.850  1.00  0.00    -0.354 N 
ATOM     40  C   UNL A   1      40.692  27.978  28.701  1.00  0.00     0.074 A 
ATOM     41  C   UNL A   1      39.947  28.139  27.472  1.00  0.00     0.031 C 
ATOM     42  C   UNL A   1      37.528  31.743  32.818  1.00  0.00     0.029 A 
ATOM     43  C   UNL A   1      38.794  31.054  33.027  1.00  0.00     0.049 A 
ATOM     44  H   UNL A   1      39.812  29.835  31.677  1.00  0.00     0.167 HD
ATOM     45  C   UNL A   1      41.837  27.260  28.814  1.00  0.00     0.037 A 
ATOM     46  C   UNL A   1      39.505  31.089  34.170  1.00  0.00     0.037 A 
ATOM     47  C   UNL A   1      42.616  27.160  30.021  1.00  0.00     0.049 A 
ATOM     48  C   UNL A   1      40.739  30.242  34.289  1.00  0.00     0.074 A 
ATOM     49  C   UNL A   1      43.784  26.448  30.236  1.00  0.00     0.029 A 
ATOM     50  N   UNL A   1      42.324  27.815  31.208  1.00  0.00    -0.354 N 
ATOM     51  N   UNL A   1      41.313  29.492  33.381  1.00  0.00    -0.248 NA
ATOM     52  C   UNL A   1      41.402  30.216  35.600  1.00  0.00     0.031 C 
ATOM     53  C   UNL A   1      44.181  26.645  31.561  1.00  0.00     0.029 A 
ATOM     54  C   UNL A   1      43.286  27.516  32.159  1.00  0.00     0.049 A 
ATOM     55  H   UNL A   1      41.549  28.404  31.353  1.00  0.00     0.167 HD
ATOM     56  C   UNL A   1      42.408  28.913  34.007  1.00  0.00     0.074 A 
ATOM     57  C   UNL A   1      42.432  29.415  35.365  1.00  0.00     0.031 C 
ATOM     58  C   UNL A   1      43.306  28.032  33.502  1.00  0.00     0.037 A 
BRANCH  45  59
ATOM     59  C   UNL A   1      42.322  26.505  27.610  1.00  0.00     0.057 A 
ATOM     60  C   UNL A   1      41.917  25.193  27.340  1.00  0.00     0.134 A 
ATOM     61  C   UNL A   1      43.140  27.136  26.661  1.00  0.00     0.134 A 
ATOM     62  F   UNL A   1      41.144  24.528  28.212  1.00  0.00    -0.206 F 
ATOM     63  C   UNL A   1      42.312  24.532  26.174  1.00  0.00     0.040 A 
ATOM     64  C   UNL A   1      43.520  26.496  25.481  1.00  0.00     0.040 A 
ATOM     65  F   UNL A   1      43.557  28.397  26.852  1.00  0.00    -0.206 F 
ATOM     66  C   UNL A   1      43.106  25.188  25.236  1.00  0.00     0.006 A 
ENDBRANCH  45  59
BRANCH  46  67
ATOM     67  C   UNL A   1      39.037  31.919  35.312  1.00  0.00     0.057 A 
ATOM     68  C   UNL A   1      39.350  33.280  35.389  1.00  0.00     0.134 A 
ATOM     69  C   UNL A   1      38.257  31.379  36.343  1.00  0.00     0.134 A 
ATOM     70  F   UNL A   1      40.117  33.852  34.449  1.00  0.00    -0.206 F 
ATOM     71  C   UNL A   1      38.903  34.075  36.447  1.00  0.00     0.040 A 
ATOM     72  C   UNL A   1      37.777  32.167  37.389  1.00  0.00     0.040 A 
ATOM     73  F   UNL A   1      37.923  30.080  36.331  1.00  0.00    -0.206 F 
ATOM     74  C   UNL A   1      38.104  33.520  37.445  1.00  0.00     0.006 A 
ENDBRANCH  46  67
BRANCH  58  75
ATOM     75  C   UNL A   1      44.408  27.575  34.408  1.00  0.00     0.057 A 
ATOM     76  C   UNL A   1      44.319  26.378  35.129  1.00  0.00     0.134 A 
ATOM     77  C   UNL A   1      45.599  28.307  34.509  1.00  0.00     0.134 A 
ATOM     78  F   UNL A   1      43.200  25.638  35.083  1.00  0.00    -0.206 F 
ATOM     79  C   UNL A   1      45.372  25.930  35.927  1.00  0.00     0.040 A 
ATOM     80  C   UNL A   1      46.667  27.857  35.285  1.00  0.00     0.040 A 
ATOM     81  F   UNL A   1      45.749  29.457  33.836  1.00  0.00    -0.206 F 
ATOM     82  C   UNL A   1      46.553  26.666  36.000  1.00  0.00     0.006 A 
ENDBRANCH  58  75
ENDBRANCH  32  33
ENDBRANCH  25  27
ENDBRANCH  24  25
ENDBRANCH   1  24
TORSDOF 12
ENDMDL
MODEL 2
REMARK VINA RESULT:     -11.8      3.915      8.733
REMARK SMILES Cc1c(Br)c(C)c2c(c1Br)O[C@H](C(F)(F)F)C(C(=O)OCCOC(=O)c1ccc(-c3c4nc(c(-c5c(F)cccc5F)c5ccc([nH]5)c(-c5c(F)cccc5F)c5nc(c(-c6c(F)cccc6F)c6ccc3[nH]6)C=C5)C=C4)cc1)=C2
REMARK SMILES IDX 22 1 21 2 20 3 18 4 19 5 17 6 1 7 2 8 3 9 9 10 4 11 5 12
REMARK SMILES IDX 8 13 10 14 6 15 7 16 11 17 80 18 12 19 13 20 14 21 15 22
REMARK SMILES IDX 16 23 23 24 24 25 25 26 26 27 27 28 79 29 28 30 78 31 29 32
REMARK SMILES IDX 30 33 31 34 72 35 32 36 77 37 71 38 73 39 33 40 76 41 70 42
REMARK SMILES IDX 69 43 34 45 60 46 43 47 59 48 44 49 47 50 58 51 74 52 45 53
REMARK SMILES IDX 46 54 57 56 75 57 48 58 35 59 36 60 41 61 37 62 38 63 40 64
REMARK SMILES IDX 42 65 39 66 61 67 62 68 67 69 63 70 64 71 66 72 68 73 65 74
REMARK SMILES IDX 49 75 50 76 55 77 51 78 52 79 54 80 56 81 53 82
REMARK H PARENT 73 44 47 55
REMARK Flexibility Score: inf
ROOT
ATOM      1  C   UNL A   1      35.991  20.829  25.008  1.00  0.00     0.275 C 
ENDROOT
BRANCH   1   2
ATOM      2  C   UNL A   1      34.736  21.604  24.607  1.00  0.00     0.275 C 
BRANCH   2   3
ATOM      3  O   UNL A   1      34.953  23.029  24.693  1.00  0.00    -0.459 OA
BRANCH   3   4
ATOM      4  C   UNL A   1      34.319  23.657  25.711  1.00  0.00     0.338 C 
ATOM      5  O   UNL A   1      34.329  23.333  26.888  1.00  0.00    -0.246 OA
BRANCH   4   6
ATOM      6  C   UNL A   1      33.598  24.844  25.215  1.00  0.00     0.087 C 
ATOM      7  C   UNL A   1      30.385  30.497  24.462  1.00  0.00     0.047 C 
ATOM      8  C   UNL A   1      31.318  29.353  24.788  1.00  0.00    -0.019 A 
ATOM      9  C   UNL A   1      32.270  29.479  25.831  1.00  0.00     0.025 A 
ATOM     10  C   UNL A   1      31.225  28.116  24.114  1.00  0.00     0.064 A 
ATOM     11  Br  UNL A   1      32.339  31.118  26.832  1.00  0.00    -0.050 Br
ATOM     12  C   UNL A   1      33.137  28.413  26.172  1.00  0.00    -0.026 A 
ATOM     13  C   UNL A   1      32.067  27.041  24.450  1.00  0.00     0.142 A 
ATOM     14  Br  UNL A   1      29.909  27.827  22.751  1.00  0.00    -0.046 Br
ATOM     15  C   UNL A   1      34.193  28.547  27.250  1.00  0.00     0.046 C 
ATOM     16  C   UNL A   1      33.009  27.181  25.477  1.00  0.00     0.022 A 
ATOM     17  O   UNL A   1      31.937  25.889  23.714  1.00  0.00    -0.474 OA
ATOM     18  C   UNL A   1      33.813  26.012  25.829  1.00  0.00     0.027 C 
ATOM     19  C   UNL A   1      32.564  24.660  24.154  1.00  0.00     0.316 C 
BRANCH  19  20
ATOM     20  C   UNL A   1      31.478  23.663  24.590  1.00  0.00     0.430 C 
ATOM     21  F   UNL A   1      30.281  23.957  24.032  1.00  0.00    -0.167 F 
ATOM     22  F   UNL A   1      31.784  22.399  24.207  1.00  0.00    -0.167 F 
ATOM     23  F   UNL A   1      31.311  23.649  25.932  1.00  0.00    -0.167 F 
ENDBRANCH  19  20
ENDBRANCH   4   6
ENDBRANCH   3   4
ENDBRANCH   2   3
ENDBRANCH   1   2
BRANCH   1  24
ATOM     24  O   UNL A   1      37.161  21.645  24.816  1.00  0.00    -0.458 OA
BRANCH  24  25
ATOM     25  C   UNL A   1      38.278  21.221  25.449  1.00  0.00     0.338 C 
ATOM     26  O   UNL A   1      38.776  20.110  25.415  1.00  0.00    -0.246 OA
BRANCH  25  27
ATOM     27  C   UNL A   1      38.904  22.342  26.166  1.00  0.00     0.060 A 
ATOM     28  C   UNL A   1      38.356  23.611  26.026  1.00  0.00     0.016 A 
ATOM     29  C   UNL A   1      40.123  22.181  26.819  1.00  0.00     0.016 A 
ATOM     30  C   UNL A   1      39.091  24.732  26.397  1.00  0.00     0.010 A 
ATOM     31  C   UNL A   1      40.795  23.306  27.320  1.00  0.00     0.010 A 
ATOM     32  C   UNL A   1      40.316  24.604  27.067  1.00  0.00    -0.014 A 
BRANCH  32  33
ATOM     33  C   UNL A   1      41.094  25.824  27.451  1.00  0.00     0.031 A 
ATOM     34  C   UNL A   1      40.485  26.869  28.356  1.00  0.00     0.074 A 
ATOM     35  C   UNL A   1      42.370  25.985  27.038  1.00  0.00     0.049 A 
ATOM     36  N   UNL A   1      40.929  28.066  28.653  1.00  0.00    -0.248 NA
ATOM     37  C   UNL A   1      39.208  26.533  29.007  1.00  0.00     0.031 C 
ATOM     38  C   UNL A   1      43.123  25.038  26.212  1.00  0.00     0.029 A 
ATOM     39  N   UNL A   1      43.275  26.991  27.281  1.00  0.00    -0.354 N 
ATOM     40  C   UNL A   1      39.959  28.644  29.467  1.00  0.00     0.074 A 
ATOM     41  C   UNL A   1      38.901  27.670  29.617  1.00  0.00     0.031 C 
ATOM     42  C   UNL A   1      44.389  25.462  26.091  1.00  0.00     0.029 A 
ATOM     43  C   UNL A   1      44.510  26.773  26.714  1.00  0.00     0.049 A 
ATOM     44  H   UNL A   1      43.060  27.794  27.811  1.00  0.00     0.167 HD
ATOM     45  C   UNL A   1      39.956  29.873  30.038  1.00  0.00     0.037 A 
ATOM     46  C   UNL A   1      45.606  27.553  26.651  1.00  0.00     0.037 A 
ATOM     47  C   UNL A   1      41.042  30.814  29.947  1.00  0.00     0.049 A 
ATOM     48  C   UNL A   1      45.557  28.931  27.244  1.00  0.00     0.074 A 
ATOM     49  C   UNL A   1      41.126  32.088  30.483  1.00  0.00     0.029 A 
ATOM     50  N   UNL A   1      42.246  30.572  29.303  1.00  0.00    -0.354 N 
ATOM     51  N   UNL A   1      44.592  29.502  27.921  1.00  0.00    -0.248 NA
ATOM     52  C   UNL A   1      46.733  29.786  27.032  1.00  0.00     0.031 C 
ATOM     53  C   UNL A   1      42.366  32.630  30.136  1.00  0.00     0.029 A 
ATOM     54  C   UNL A   1      43.073  31.677  29.422  1.00  0.00     0.049 A 
ATOM     55  H   UNL A   1      42.478  29.741  28.831  1.00  0.00     0.167 HD
ATOM     56  C   UNL A   1      45.046  30.778  28.223  1.00  0.00     0.074 A 
ATOM     57  C   UNL A   1      46.382  30.890  27.676  1.00  0.00     0.031 C 
ATOM     58  C   UNL A   1      44.405  31.772  28.885  1.00  0.00     0.037 A 
BRANCH  45  59
ATOM     59  C   UNL A   1      38.735  30.294  30.806  1.00  0.00     0.057 A 
ATOM     60  C   UNL A   1      37.658  30.945  30.195  1.00  0.00     0.134 A 
ATOM     61  C   UNL A   1      38.604  29.963  32.163  1.00  0.00     0.134 A 
ATOM     62  F   UNL A   1      37.724  31.300  28.902  1.00  0.00    -0.206 F 
ATOM     63  C   UNL A   1      36.496  31.257  30.904  1.00  0.00     0.040 A 
ATOM     64  C   UNL A   1      37.438  30.248  32.876  1.00  0.00     0.040 A 
ATOM     65  F   UNL A   1      39.595  29.330  32.809  1.00  0.00    -0.206 F 
ATOM     66  C   UNL A   1      36.379  30.898  32.245  1.00  0.00     0.006 A 
ENDBRANCH  45  59
BRANCH  46  67
ATOM     67  C   UNL A   1      46.826  27.065  25.956  1.00  0.00     0.057 A 
ATOM     68  C   UNL A   1      47.024  27.304  24.592  1.00  0.00     0.134 A 
ATOM     69  C   UNL A   1      47.830  26.363  26.637  1.00  0.00     0.134 A 
ATOM     70  F   UNL A   1      46.089  27.945  23.876  1.00  0.00    -0.206 F 
ATOM     71  C   UNL A   1      48.174  26.865  23.931  1.00  0.00     0.040 A 
ATOM     72  C   UNL A   1      48.998  25.948  25.998  1.00  0.00     0.040 A 
ATOM     73  F   UNL A   1      47.702  26.100  27.946  1.00  0.00    -0.206 F 
ATOM     74  C   UNL A   1      49.171  26.195  24.638  1.00  0.00     0.006 A 
ENDBRANCH  46  67
BRANCH  58  75
ATOM     75  C   UNL A   1      45.146  33.059  29.083  1.00  0.00     0.057 A 
ATOM     76  C   UNL A   1      46.000  33.256  30.173  1.00  0.00     0.134 A 
ATOM     77  C   UNL A   1      45.054  34.088  28.135  1.00  0.00     0.134 A 
ATOM     78  F   UNL A   1      46.122  32.314  31.121  1.00  0.00    -0.206 F 
ATOM     79  C   UNL A   1      46.730  34.436  30.322  1.00  0.00     0.040 A 
ATOM     80  C   UNL A   1      45.797  35.262  28.260  1.00  0.00     0.040 A 
ATOM     81  F   UNL A   1      44.260  33.956  27.063  1.00  0.00    -0.206 F 
ATOM     82  C   UNL A   1      46.637  35.439  29.358  1.00  0.00     0.006 A 
ENDBRANCH  58  75
ENDBRANCH  32  33
ENDBRANCH  25  27
ENDBRANCH  24  25
ENDBRANCH   1  24
TORSDOF 12
ENDMDL
MODEL 3
REMARK VINA RESULT:     -11.5      3.608      7.077
REMARK SMILES Cc1c(Br)c(C)c2c(c1Br)O[C@H](C(F)(F)F)C(C(=O)OCCOC(=O)c1ccc(-c3c4nc(c(-c5c(F)cccc5F)c5ccc([nH]5)c(-c5c(F)cccc5F)c5nc(c(-c6c(F)cccc6F)c6ccc3[nH]6)C=C5)C=C4)cc1)=C2
REMARK SMILES IDX 22 1 21 2 20 3 18 4 19 5 17 6 1 7 2 8 3 9 9 10 4 11 5 12
REMARK SMILES IDX 8 13 10 14 6 15 7 16 11 17 80 18 12 19 13 20 14 21 15 22
REMARK SMILES IDX 16 23 23 24 24 25 25 26 26 27 27 28 79 29 28 30 78 31 29 32
REMARK SMILES IDX 30 33 31 34 72 35 32 36 77 37 71 38 73 39 33 40 76 41 70 42
REMARK SMILES IDX 69 43 34 45 60 46 43 47 59 48 44 49 47 50 58 51 74 52 45 53
REMARK SMILES IDX 46 54 57 56 75 57 48 58 35 59 36 60 41 61 37 62 38 63 40 64
REMARK SMILES IDX 42 65 39 66 61 67 62 68 67 69 63 70 64 71 66 72 68 73 65 74
REMARK SMILES IDX 49 75 50 76 55 77 51 78 52 79 54 80 56 81 53 82
REMARK H PARENT 73 44 47 55
REMARK Flexibility Score: inf
ROOT
ATOM      1  C   UNL A   1      34.103  28.952  25.908  1.00  0.00     0.275 C 
ENDROOT
BRANCH   1   2
ATOM      2  C   UNL A   1      32.723  28.399  25.551  1.00  0.00     0.275 C 
BRANCH   2   3
ATOM      3  O   UNL A   1      32.792  26.993  25.228  1.00  0.00    -0.459 OA
BRANCH   3   4
ATOM      4  C   UNL A   1      32.149  26.164  26.082  1.00  0.00     0.338 C 
ATOM      5  O   UNL A   1      31.273  26.469  26.877  1.00  0.00    -0.246 OA
BRANCH   4   6
ATOM      6  C   UNL A   1      32.637  24.781  25.924  1.00  0.00     0.087 C 
ATOM      7  C   UNL A   1      36.001  19.316  24.633  1.00  0.00     0.047 C 
ATOM      8  C   UNL A   1      35.471  20.665  25.062  1.00  0.00    -0.019 A 
ATOM      9  C   UNL A   1      36.364  21.699  25.442  1.00  0.00     0.025 A 
ATOM     10  C   UNL A   1      34.090  20.954  25.032  1.00  0.00     0.064 A 
ATOM     11  Br  UNL A   1      38.255  21.359  25.386  1.00  0.00    -0.050 Br
ATOM     12  C   UNL A   1      35.894  22.979  25.822  1.00  0.00    -0.026 A 
ATOM     13  C   UNL A   1      33.605  22.225  25.391  1.00  0.00     0.142 A 
ATOM     14  Br  UNL A   1      32.817  19.646  24.446  1.00  0.00    -0.046 Br
ATOM     15  C   UNL A   1      36.830  24.078  26.279  1.00  0.00     0.046 C 
ATOM     16  C   UNL A   1      34.498  23.235  25.773  1.00  0.00     0.022 A 
ATOM     17  O   UNL A   1      32.244  22.404  25.374  1.00  0.00    -0.474 OA
ATOM     18  C   UNL A   1      33.946  24.555  26.072  1.00  0.00     0.027 C 
ATOM     19  C   UNL A   1      31.676  23.733  25.468  1.00  0.00     0.316 C 
BRANCH  19  20
ATOM     20  C   UNL A   1      31.030  24.105  24.124  1.00  0.00     0.430 C 
ATOM     21  F   UNL A   1      30.590  23.009  23.464  1.00  0.00    -0.167 F 
ATOM     22  F   UNL A   1      29.952  24.910  24.298  1.00  0.00    -0.167 F 
ATOM     23  F   UNL A   1      31.891  24.756  23.309  1.00  0.00    -0.167 F 
ENDBRANCH  19  20
ENDBRANCH   4   6
ENDBRANCH   3   4
ENDBRANCH   2   3
ENDBRANCH   1   2
BRANCH   1  24
ATOM     24  O   UNL A   1      34.326  28.852  27.327  1.00  0.00    -0.458 OA
BRANCH  24  25
ATOM     25  C   UNL A   1      34.753  29.985  27.930  1.00  0.00     0.338 C 
ATOM     26  O   UNL A   1      34.089  30.956  28.247  1.00  0.00    -0.246 OA
BRANCH  25  27
ATOM     27  C   UNL A   1      36.185  29.873  28.247  1.00  0.00     0.060 A 
ATOM     28  C   UNL A   1      37.111  30.154  27.251  1.00  0.00     0.016 A 
ATOM     29  C   UNL A   1      36.609  29.319  29.452  1.00  0.00     0.016 A 
ATOM     30  C   UNL A   1      38.432  29.742  27.393  1.00  0.00     0.010 A 
ATOM     31  C   UNL A   1      37.969  29.038  29.646  1.00  0.00     0.010 A 
ATOM     32  C   UNL A   1      38.894  29.193  28.597  1.00  0.00    -0.014 A 
BRANCH  32  33
ATOM     33  C   UNL A   1      40.318  28.752  28.726  1.00  0.00     0.031 A 
ATOM     34  C   UNL A   1      41.353  29.666  29.340  1.00  0.00     0.074 A 
ATOM     35  C   UNL A   1      40.692  27.511  28.344  1.00  0.00     0.049 A 
ATOM     36  N   UNL A   1      42.656  29.535  29.374  1.00  0.00    -0.248 NA
ATOM     37  C   UNL A   1      40.864  30.891  29.994  1.00  0.00     0.031 C 
ATOM     38  C   UNL A   1      39.802  26.487  27.791  1.00  0.00     0.029 A 
ATOM     39  N   UNL A   1      41.915  26.884  28.389  1.00  0.00    -0.354 N 
ATOM     40  C   UNL A   1      43.141  30.684  29.990  1.00  0.00     0.074 A 
ATOM     41  C   UNL A   1      41.995  31.505  30.313  1.00  0.00     0.031 C 
ATOM     42  C   UNL A   1      40.484  25.344  27.631  1.00  0.00     0.029 A 
ATOM     43  C   UNL A   1      41.886  25.584  27.942  1.00  0.00     0.049 A 
ATOM     44  H   UNL A   1      42.735  27.326  28.711  1.00  0.00     0.167 HD
ATOM     45  C   UNL A   1      44.426  31.020  30.265  1.00  0.00     0.037 A 
ATOM     46  C   UNL A   1      42.877  24.691  27.750  1.00  0.00     0.037 A 
ATOM     47  C   UNL A   1      45.560  30.171  30.007  1.00  0.00     0.049 A 
ATOM     48  C   UNL A   1      44.296  25.107  28.009  1.00  0.00     0.074 A 
ATOM     49  C   UNL A   1      46.900  30.429  30.241  1.00  0.00     0.029 A 
ATOM     50  N   UNL A   1      45.486  28.887  29.490  1.00  0.00    -0.354 N 
ATOM     51  N   UNL A   1      44.746  26.237  28.494  1.00  0.00    -0.248 NA
ATOM     52  C   UNL A   1      45.345  24.139  27.659  1.00  0.00     0.031 C 
ATOM     53  C   UNL A   1      47.640  29.316  29.834  1.00  0.00     0.029 A 
ATOM     54  C   UNL A   1      46.757  28.346  29.389  1.00  0.00     0.049 A 
ATOM     55  H   UNL A   1      44.654  28.428  29.232  1.00  0.00     0.167 HD
ATOM     56  C   UNL A   1      46.129  26.115  28.516  1.00  0.00     0.074 A 
ATOM     57  C   UNL A   1      46.442  24.792  28.017  1.00  0.00     0.031 C 
ATOM     58  C   UNL A   1      47.055  27.024  28.904  1.00  0.00     0.037 A 
BRANCH  45  59
ATOM     59  C   UNL A   1      44.692  32.373  30.861  1.00  0.00     0.057 A 
ATOM     60  C   UNL A   1      44.770  32.575  32.243  1.00  0.00     0.134 A 
ATOM     61  C   UNL A   1      44.962  33.471  30.032  1.00  0.00     0.134 A 
ATOM     62  F   UNL A   1      44.512  31.569  33.093  1.00  0.00    -0.206 F 
ATOM     63  C   UNL A   1      45.099  33.822  32.781  1.00  0.00     0.040 A 
ATOM     64  C   UNL A   1      45.317  34.715  30.556  1.00  0.00     0.040 A 
ATOM     65  F   UNL A   1      44.915  33.345  28.697  1.00  0.00    -0.206 F 
ATOM     66  C   UNL A   1      45.385  34.893  31.936  1.00  0.00     0.006 A 
ENDBRANCH  45  59
BRANCH  46  67
ATOM     67  C   UNL A   1      42.562  23.330  27.240  1.00  0.00     0.057 A 
ATOM     68  C   UNL A   1      42.203  22.298  28.114  1.00  0.00     0.134 A 
ATOM     69  C   UNL A   1      42.598  23.030  25.872  1.00  0.00     0.134 A 
ATOM     70  F   UNL A   1      42.176  22.512  29.438  1.00  0.00    -0.206 F 
ATOM     71  C   UNL A   1      41.889  21.020  27.646  1.00  0.00     0.040 A 
ATOM     72  C   UNL A   1      42.256  21.768  25.388  1.00  0.00     0.040 A 
ATOM     73  F   UNL A   1      42.937  23.974  24.981  1.00  0.00    -0.206 F 
ATOM     74  C   UNL A   1      41.904  20.756  26.277  1.00  0.00     0.006 A 
ENDBRANCH  46  67
BRANCH  58  75
ATOM     75  C   UNL A   1      48.495  26.616  28.833  1.00  0.00     0.057 A 
ATOM     76  C   UNL A   1      49.297  26.932  27.731  1.00  0.00     0.134 A 
ATOM     77  C   UNL A   1      49.102  25.956  29.911  1.00  0.00     0.134 A 
ATOM     78  F   UNL A   1      48.770  27.552  26.663  1.00  0.00    -0.206 F 
ATOM     79  C   UNL A   1      50.651  26.598  27.696  1.00  0.00     0.040 A 
ATOM     80  C   UNL A   1      50.460  25.638  29.897  1.00  0.00     0.040 A 
ATOM     81  F   UNL A   1      48.390  25.633  31.000  1.00  0.00    -0.206 F 
ATOM     82  C   UNL A   1      51.238  25.957  28.786  1.00  0.00     0.006 A 
ENDBRANCH  58  75
ENDBRANCH  32  33
ENDBRANCH  25  27
ENDBRANCH  24  25
ENDBRANCH   1  24
TORSDOF 12
ENDMDL
