MODEL 1
REMARK VINA RESULT:     -15.0      0.000      0.000
REMARK SMILES O=C(OCCOC(=O)[C@@H]1C[NH2+]CCN1C(=O)N[C@@H]1CCOC1)c1ccc(-c2c3nc(c(-c4c(F)cccc4F)c4ccc([nH]4)c(-c4c(F)cccc4F)c4nc(c(-c5c(F)cccc5F)c5ccc2[nH]5)C=C4)C=C3)cc1
REMARK SMILES IDX 4 1 3 2 2 3 1 4 23 5 24 6 76 7 25 8 75 9 26 10 27 11 28 12
REMARK SMILES IDX 69 13 29 14 74 15 68 16 70 17 30 18 73 19 67 20 66 21 31 23
REMARK SMILES IDX 57 24 40 25 56 26 41 27 44 28 55 29 71 30 42 31 43 32 54 34
REMARK SMILES IDX 72 35 45 36 32 37 33 38 38 39 34 40 35 41 37 42 39 43 36 44
REMARK SMILES IDX 58 45 59 46 64 47 60 48 61 49 63 50 65 51 62 52 46 53 47 54
REMARK SMILES IDX 52 55 48 56 49 57 51 58 53 59 50 60 5 61 6 62 7 63 8 64 9 65
REMARK SMILES IDX 10 66 14 67 11 68 13 69 12 70 15 73 16 74 17 75 18 77 19 78
REMARK SMILES IDX 22 79 20 80 21 81
REMARK H PARENT 70 22 44 33 11 71 11 72 17 76
REMARK Flexibility Score: inf
ROOT
ATOM      1  C   UNL A   1      46.071  24.415  33.749  1.00  0.00     0.275 C 
ENDROOT
BRANCH   1   2
ATOM      2  O   UNL A   1      46.348  23.750  35.449  1.00  0.00    -0.458 OA
BRANCH   2   3
ATOM      3  C   UNL A   1      45.985  24.353  36.960  1.00  0.00     0.338 C 
ATOM      4  O   UNL A   1      46.678  23.981  37.903  1.00  0.00    -0.246 OA
BRANCH   3   5
ATOM      5  C   UNL A   1      44.535  25.529  37.232  1.00  0.00     0.060 A 
ATOM      6  C   UNL A   1      42.764  25.185  36.395  1.00  0.00     0.016 A 
ATOM      7  C   UNL A   1      45.431  26.916  36.477  1.00  0.00     0.016 A 
ATOM      8  C   UNL A   1      42.246  25.965  34.942  1.00  0.00     0.010 A 
ATOM      9  C   UNL A   1      44.688  27.737  35.068  1.00  0.00     0.010 A 
ATOM     10  C   UNL A   1      43.085  27.286  34.419  1.00  0.00    -0.014 A 
BRANCH  10  11
ATOM     11  C   UNL A   1      42.111  28.110  33.632  1.00  0.00     0.031 A 
ATOM     12  C   UNL A   1      41.310  29.124  34.352  1.00  0.00     0.074 A 
ATOM     13  C   UNL A   1      42.127  28.107  32.260  1.00  0.00     0.049 A 
ATOM     14  N   UNL A   1      40.395  29.915  33.873  1.00  0.00    -0.248 NA
ATOM     15  C   UNL A   1      41.632  29.331  35.770  1.00  0.00     0.031 C 
ATOM     16  C   UNL A   1      43.090  27.414  31.379  1.00  0.00     0.029 A 
ATOM     17  N   UNL A   1      41.314  28.701  31.319  1.00  0.00    -0.354 N 
ATOM     18  C   UNL A   1      40.031  30.728  34.929  1.00  0.00     0.074 A 
ATOM     19  C   UNL A   1      40.802  30.316  36.082  1.00  0.00     0.031 C 
ATOM     20  C   UNL A   1      42.771  27.519  30.091  1.00  0.00     0.029 A 
ATOM     21  C   UNL A   1      41.540  28.247  30.027  1.00  0.00     0.049 A 
ATOM     22  H   UNL A   1      40.640  29.382  31.542  1.00  0.00     0.167 HD
ATOM     23  C   UNL A   1      39.135  31.737  34.906  1.00  0.00     0.037 A 
ATOM     24  C   UNL A   1      40.812  28.327  28.904  1.00  0.00     0.037 A 
ATOM     25  C   UNL A   1      38.399  32.106  33.725  1.00  0.00     0.049 A 
ATOM     26  C   UNL A   1      39.648  29.242  28.971  1.00  0.00     0.074 A 
ATOM     27  C   UNL A   1      37.424  33.072  33.586  1.00  0.00     0.029 A 
ATOM     28  N   UNL A   1      38.557  31.508  32.478  1.00  0.00    -0.354 N 
ATOM     29  N   UNL A   1      39.260  29.961  29.993  1.00  0.00    -0.248 NA
ATOM     30  C   UNL A   1      38.865  29.417  27.751  1.00  0.00     0.031 C 
ATOM     31  C   UNL A   1      36.938  33.006  32.277  1.00  0.00     0.029 A 
ATOM     32  C   UNL A   1      37.651  32.042  31.579  1.00  0.00     0.049 A 
ATOM     33  H   UNL A   1      39.215  30.808  32.267  1.00  0.00     0.167 HD
ATOM     34  C   UNL A   1      38.217  30.728  29.530  1.00  0.00     0.074 A 
ATOM     35  C   UNL A   1      38.034  30.379  28.131  1.00  0.00     0.031 C 
ATOM     36  C   UNL A   1      37.492  31.652  30.199  1.00  0.00     0.037 A 
BRANCH  23  37
ATOM     37  C   UNL A   1      38.855  32.411  36.209  1.00  0.00     0.057 A 
ATOM     38  C   UNL A   1      38.050  31.832  37.198  1.00  0.00     0.134 A 
ATOM     39  C   UNL A   1      39.357  33.695  36.447  1.00  0.00     0.134 A 
ATOM     40  F   UNL A   1      37.507  30.620  37.013  1.00  0.00    -0.206 F 
ATOM     41  C   UNL A   1      37.735  32.521  38.372  1.00  0.00     0.040 A 
ATOM     42  C   UNL A   1      39.069  34.383  37.625  1.00  0.00     0.040 A 
ATOM     43  F   UNL A   1      40.117  34.310  35.528  1.00  0.00    -0.206 F 
ATOM     44  C   UNL A   1      38.249  33.798  38.589  1.00  0.00     0.006 A 
ENDBRANCH  23  37
BRANCH  24  45
ATOM     45  C   UNL A   1      41.128  27.506  27.700  1.00  0.00     0.057 A 
ATOM     46  C   UNL A   1      41.868  28.008  26.626  1.00  0.00     0.134 A 
ATOM     47  C   UNL A   1      40.652  26.189  27.584  1.00  0.00     0.134 A 
ATOM     48  F   UNL A   1      42.364  29.253  26.673  1.00  0.00    -0.206 F 
ATOM     49  C   UNL A   1      42.077  27.258  25.462  1.00  0.00     0.040 A 
ATOM     50  C   UNL A   1      40.873  25.421  26.437  1.00  0.00     0.040 A 
ATOM     51  F   UNL A   1      39.955  25.629  28.585  1.00  0.00    -0.206 F 
ATOM     52  C   UNL A   1      41.572  25.963  25.363  1.00  0.00     0.006 A 
ENDBRANCH  24  45
BRANCH  36  53
ATOM     53  C   UNL A   1      36.443  32.343  29.400  1.00  0.00     0.057 A 
ATOM     54  C   UNL A   1      35.244  31.705  29.066  1.00  0.00     0.134 A 
ATOM     55  C   UNL A   1      36.628  33.668  28.991  1.00  0.00     0.134 A 
ATOM     56  F   UNL A   1      35.038  30.423  29.403  1.00  0.00    -0.206 F 
ATOM     57  C   UNL A   1      34.259  32.365  28.339  1.00  0.00     0.040 A 
ATOM     58  C   UNL A   1      35.634  34.349  28.295  1.00  0.00     0.040 A 
ATOM     59  F   UNL A   1      37.764  34.320  29.278  1.00  0.00    -0.206 F 
ATOM     60  C   UNL A   1      34.448  33.694  27.964  1.00  0.00     0.006 A 
ENDBRANCH  36  53
ENDBRANCH  10  11
ENDBRANCH   3   5
ENDBRANCH   2   3
ENDBRANCH   1   2
BRANCH   1  61
ATOM     61  C   UNL A   1      44.582  23.933  32.661  1.00  0.00     0.274 C 
BRANCH  61  62
ATOM     62  O   UNL A   1      44.252  24.145  30.897  1.00  0.00    -0.460 OA
BRANCH  62  63
ATOM     63  C   UNL A   1      43.762  23.644  29.481  1.00  0.00     0.334 C 
ATOM     64  O   UNL A   1      42.562  23.378  29.361  1.00  0.00    -0.250 OA
BRANCH  63  65
ATOM     65  C   UNL A   1      44.876  23.282  28.016  1.00  0.00     0.252 C 
ATOM     66  C   UNL A   1      45.880  24.474  27.964  1.00  0.00     0.298 C 
ATOM     67  N   UNL A   1      44.272  22.881  26.297  1.00  0.00    -0.300 N 
ATOM     68  N   UNL A   1      46.973  24.396  26.993  1.00  0.00    -0.343 N 
ATOM     69  C   UNL A   1      45.581  23.169  25.310  1.00  0.00     0.183 C 
ATOM     70  C   UNL A   1      46.454  24.384  25.637  1.00  0.00     0.282 C 
ATOM     71  H   UNL A   1      47.504  23.541  27.155  1.00  0.00     0.346 HD
ATOM     72  H   UNL A   1      47.572  25.213  27.108  1.00  0.00     0.346 HD
BRANCH  67  73
ATOM     73  C   UNL A   1      42.505  21.972  26.069  1.00  0.00     0.318 C 
ATOM     74  O   UNL A   1      41.265  22.192  26.036  1.00  0.00    -0.249 OA
ATOM     75  N   UNL A   1      42.794  20.200  25.752  1.00  0.00    -0.333 N 
ATOM     76  H   UNL A   1      42.066  19.676  26.156  1.00  0.00     0.165 HD
BRANCH  75  77
ATOM     77  C   UNL A   1      44.050  18.992  24.886  1.00  0.00     0.112 C 
ATOM     78  C   UNL A   1      45.331  18.336  25.720  1.00  0.00     0.056 C 
ATOM     79  C   UNL A   1      45.165  19.189  23.631  1.00  0.00     0.185 C 
ATOM     80  C   UNL A   1      46.640  19.056  25.318  1.00  0.00     0.162 C 
ATOM     81  O   UNL A   1      46.347  19.784  24.148  1.00  0.00    -0.379 OA
ENDBRANCH  75  77
ENDBRANCH  67  73
ENDBRANCH  63  65
ENDBRANCH  62  63
ENDBRANCH  61  62
ENDBRANCH   1  61
TORSDOF 13
ENDMDL
MODEL 2
REMARK VINA RESULT:     -14.6      1.606      3.290
REMARK SMILES O=C(OCCOC(=O)[C@@H]1C[NH2+]CCN1C(=O)N[C@@H]1CCOC1)c1ccc(-c2c3nc(c(-c4c(F)cccc4F)c4ccc([nH]4)c(-c4c(F)cccc4F)c4nc(c(-c5c(F)cccc5F)c5ccc2[nH]5)C=C4)C=C3)cc1
REMARK SMILES IDX 4 1 3 2 2 3 1 4 23 5 24 6 76 7 25 8 75 9 26 10 27 11 28 12
REMARK SMILES IDX 69 13 29 14 74 15 68 16 70 17 30 18 73 19 67 20 66 21 31 23
REMARK SMILES IDX 57 24 40 25 56 26 41 27 44 28 55 29 71 30 42 31 43 32 54 34
REMARK SMILES IDX 72 35 45 36 32 37 33 38 38 39 34 40 35 41 37 42 39 43 36 44
REMARK SMILES IDX 58 45 59 46 64 47 60 48 61 49 63 50 65 51 62 52 46 53 47 54
REMARK SMILES IDX 52 55 48 56 49 57 51 58 53 59 50 60 5 61 6 62 7 63 8 64 9 65
REMARK SMILES IDX 10 66 14 67 11 68 13 69 12 70 15 73 16 74 17 75 18 77 19 78
REMARK SMILES IDX 22 79 20 80 21 81
REMARK H PARENT 70 22 44 33 11 71 11 72 17 76
REMARK Flexibility Score: inf
ROOT
ATOM      1  C   UNL A   1      46.291  24.642  33.650  1.00  0.00     0.275 C 
ENDROOT
BRANCH   1   2
ATOM      2  O   UNL A   1      46.282  23.781  35.282  1.00  0.00    -0.458 OA
BRANCH   2   3
ATOM      3  C   UNL A   1      45.972  24.317  36.830  1.00  0.00     0.338 C 
ATOM      4  O   UNL A   1      46.674  23.878  37.736  1.00  0.00    -0.246 OA
BRANCH   3   5
ATOM      5  C   UNL A   1      44.567  25.522  37.195  1.00  0.00     0.060 A 
ATOM      6  C   UNL A   1      42.757  25.253  36.416  1.00  0.00     0.016 A 
ATOM      7  C   UNL A   1      45.472  26.909  36.451  1.00  0.00     0.016 A 
ATOM      8  C   UNL A   1      42.206  26.095  35.009  1.00  0.00     0.010 A 
ATOM      9  C   UNL A   1      44.700  27.796  35.100  1.00  0.00     0.010 A 
ATOM     10  C   UNL A   1      43.062  27.410  34.498  1.00  0.00    -0.014 A 
BRANCH  10  11
ATOM     11  C   UNL A   1      42.082  28.285  33.775  1.00  0.00     0.031 A 
ATOM     12  C   UNL A   1      41.433  29.379  34.530  1.00  0.00     0.074 A 
ATOM     13  C   UNL A   1      41.967  28.242  32.409  1.00  0.00     0.049 A 
ATOM     14  N   UNL A   1      40.539  30.226  34.110  1.00  0.00    -0.248 NA
ATOM     15  C   UNL A   1      41.904  29.600  35.904  1.00  0.00     0.031 C 
ATOM     16  C   UNL A   1      42.787  27.450  31.468  1.00  0.00     0.029 A 
ATOM     17  N   UNL A   1      41.116  28.871  31.527  1.00  0.00    -0.354 N 
ATOM     18  C   UNL A   1      40.340  31.094  35.166  1.00  0.00     0.074 A 
ATOM     19  C   UNL A   1      41.184  30.656  36.256  1.00  0.00     0.031 C 
ATOM     20  C   UNL A   1      42.356  27.544  30.213  1.00  0.00     0.029 A 
ATOM     21  C   UNL A   1      41.183  28.364  30.237  1.00  0.00     0.049 A 
ATOM     22  H   UNL A   1      40.519  29.610  31.787  1.00  0.00     0.167 HD
ATOM     23  C   UNL A   1      39.525  32.170  35.189  1.00  0.00     0.037 A 
ATOM     24  C   UNL A   1      40.359  28.470  29.184  1.00  0.00     0.037 A 
ATOM     25  C   UNL A   1      38.710  32.562  34.070  1.00  0.00     0.049 A 
ATOM     26  C   UNL A   1      39.280  29.475  29.326  1.00  0.00     0.074 A 
ATOM     27  C   UNL A   1      37.801  33.598  33.988  1.00  0.00     0.029 A 
ATOM     28  N   UNL A   1      38.702  31.918  32.836  1.00  0.00    -0.354 N 
ATOM     29  N   UNL A   1      39.046  30.251  30.353  1.00  0.00    -0.248 NA
ATOM     30  C   UNL A   1      38.399  29.676  28.178  1.00  0.00     0.031 C 
ATOM     31  C   UNL A   1      37.190  33.533  32.732  1.00  0.00     0.029 A 
ATOM     32  C   UNL A   1      37.758  32.496  32.006  1.00  0.00     0.049 A 
ATOM     33  H   UNL A   1      39.283  31.162  32.590  1.00  0.00     0.167 HD
ATOM     34  C   UNL A   1      38.025  31.084  29.961  1.00  0.00     0.074 A 
ATOM     35  C   UNL A   1      37.684  30.710  28.599  1.00  0.00     0.031 C 
ATOM     36  C   UNL A   1      37.439  32.081  30.662  1.00  0.00     0.037 A 
BRANCH  23  37
ATOM     37  C   UNL A   1      39.422  32.901  36.488  1.00  0.00     0.057 A 
ATOM     38  C   UNL A   1      40.227  34.005  36.798  1.00  0.00     0.134 A 
ATOM     39  C   UNL A   1      38.535  32.446  37.471  1.00  0.00     0.134 A 
ATOM     40  F   UNL A   1      41.124  34.464  35.913  1.00  0.00    -0.206 F 
ATOM     41  C   UNL A   1      40.168  34.616  38.052  1.00  0.00     0.040 A 
ATOM     42  C   UNL A   1      38.451  33.063  38.718  1.00  0.00     0.040 A 
ATOM     43  F   UNL A   1      37.753  31.381  37.240  1.00  0.00    -0.206 F 
ATOM     44  C   UNL A   1      39.275  34.147  39.014  1.00  0.00     0.006 A 
ENDBRANCH  23  37
BRANCH  24  45
ATOM     45  C   UNL A   1      40.496  27.592  27.986  1.00  0.00     0.057 A 
ATOM     46  C   UNL A   1      39.954  26.305  27.937  1.00  0.00     0.134 A 
ATOM     47  C   UNL A   1      41.218  28.021  26.860  1.00  0.00     0.134 A 
ATOM     48  F   UNL A   1      39.242  25.833  28.971  1.00  0.00    -0.206 F 
ATOM     49  C   UNL A   1      40.170  25.457  26.844  1.00  0.00     0.040 A 
ATOM     50  C   UNL A   1      41.422  27.193  25.752  1.00  0.00     0.040 A 
ATOM     51  F   UNL A   1      41.747  29.254  26.822  1.00  0.00    -0.206 F 
ATOM     52  C   UNL A   1      40.912  25.898  25.750  1.00  0.00     0.006 A 
ENDBRANCH  24  45
BRANCH  36  53
ATOM     53  C   UNL A   1      36.374  32.830  29.940  1.00  0.00     0.057 A 
ATOM     54  C   UNL A   1      35.019  32.580  30.179  1.00  0.00     0.134 A 
ATOM     55  C   UNL A   1      36.714  33.828  29.020  1.00  0.00     0.134 A 
ATOM     56  F   UNL A   1      34.644  31.606  31.023  1.00  0.00    -0.206 F 
ATOM     57  C   UNL A   1      34.029  33.299  29.517  1.00  0.00     0.040 A 
ATOM     58  C   UNL A   1      35.733  34.577  28.380  1.00  0.00     0.040 A 
ATOM     59  F   UNL A   1      37.999  34.098  28.749  1.00  0.00    -0.206 F 
ATOM     60  C   UNL A   1      34.386  34.310  28.626  1.00  0.00     0.006 A 
ENDBRANCH  36  53
ENDBRANCH  10  11
ENDBRANCH   3   5
ENDBRANCH   2   3
ENDBRANCH   1   2
BRANCH   1  61
ATOM     61  C   UNL A   1      44.890  24.479  32.366  1.00  0.00     0.274 C 
BRANCH  61  62
ATOM     62  O   UNL A   1      44.861  24.689  30.572  1.00  0.00    -0.460 OA
BRANCH  62  63
ATOM     63  C   UNL A   1      44.928  24.156  29.086  1.00  0.00     0.334 C 
ATOM     64  O   UNL A   1      46.034  24.157  28.535  1.00  0.00    -0.250 OA
BRANCH  63  65
ATOM     65  C   UNL A   1      43.447  23.662  28.046  1.00  0.00     0.252 C 
ATOM     66  C   UNL A   1      42.711  22.569  28.880  1.00  0.00     0.298 C 
ATOM     67  N   UNL A   1      43.532  23.149  26.255  1.00  0.00    -0.300 N 
ATOM     68  N   UNL A   1      41.424  22.086  28.375  1.00  0.00    -0.343 N 
ATOM     69  C   UNL A   1      42.107  22.335  25.978  1.00  0.00     0.183 C 
ATOM     70  C   UNL A   1      41.590  21.423  27.095  1.00  0.00     0.282 C 
ATOM     71  H   UNL A   1      40.791  22.878  28.262  1.00  0.00     0.346 HD
ATOM     72  H   UNL A   1      41.040  21.418  29.044  1.00  0.00     0.346 HD
BRANCH  67  73
ATOM     73  C   UNL A   1      44.982  23.891  25.094  1.00  0.00     0.318 C 
ATOM     74  O   UNL A   1      45.623  23.670  24.031  1.00  0.00    -0.249 OA
ATOM     75  N   UNL A   1      45.545  25.475  25.799  1.00  0.00    -0.333 N 
ATOM     76  H   UNL A   1      46.509  25.579  25.631  1.00  0.00     0.165 HD
BRANCH  75  77
ATOM     77  C   UNL A   1      44.892  27.029  26.772  1.00  0.00     0.112 C 
ATOM     78  C   UNL A   1      45.098  28.568  26.177  1.00  0.00     0.056 C 
ATOM     79  C   UNL A   1      45.298  27.714  28.263  1.00  0.00     0.185 C 
ATOM     80  C   UNL A   1      46.231  29.281  26.954  1.00  0.00     0.162 C 
ATOM     81  O   UNL A   1      46.467  28.508  28.107  1.00  0.00    -0.379 OA
ENDBRANCH  75  77
ENDBRANCH  67  73
ENDBRANCH  63  65
ENDBRANCH  62  63
ENDBRANCH  61  62
ENDBRANCH   1  61
TORSDOF 13
ENDMDL
MODEL 3
REMARK VINA RESULT:     -14.1      3.919      8.553
REMARK SMILES O=C(OCCOC(=O)[C@@H]1C[NH2+]CCN1C(=O)N[C@@H]1CCOC1)c1ccc(-c2c3nc(c(-c4c(F)cccc4F)c4ccc([nH]4)c(-c4c(F)cccc4F)c4nc(c(-c5c(F)cccc5F)c5ccc2[nH]5)C=C4)C=C3)cc1
REMARK SMILES IDX 4 1 3 2 2 3 1 4 23 5 24 6 76 7 25 8 75 9 26 10 27 11 28 12
REMARK SMILES IDX 69 13 29 14 74 15 68 16 70 17 30 18 73 19 67 20 66 21 31 23
REMARK SMILES IDX 57 24 40 25 56 26 41 27 44 28 55 29 71 30 42 31 43 32 54 34
REMARK SMILES IDX 72 35 45 36 32 37 33 38 38 39 34 40 35 41 37 42 39 43 36 44
REMARK SMILES IDX 58 45 59 46 64 47 60 48 61 49 63 50 65 51 62 52 46 53 47 54
REMARK SMILES IDX 52 55 48 56 49 57 51 58 53 59 50 60 5 61 6 62 7 63 8 64 9 65
REMARK SMILES IDX 10 66 14 67 11 68 13 69 12 70 15 73 16 74 17 75 18 77 19 78
REMARK SMILES IDX 22 79 20 80 21 81
REMARK H PARENT 70 22 44 33 11 71 11 72 17 76
REMARK Flexibility Score: inf
ROOT
ATOM      1  C   UNL A   1      42.337  21.029  26.372  1.00  0.00     0.275 C 
ENDROOT
BRANCH   1   2
ATOM      2  O   UNL A   1      42.743  22.197  25.001  1.00  0.00    -0.458 OA
BRANCH   2   3
ATOM      3  C   UNL A   1      43.473  23.695  24.985  1.00  0.00     0.338 C 
ATOM      4  O   UNL A   1      44.689  23.734  24.826  1.00  0.00    -0.246 OA
BRANCH   3   5
ATOM      5  C   UNL A   1      42.481  25.279  25.247  1.00  0.00     0.060 A 
ATOM      6  C   UNL A   1      43.317  26.891  26.058  1.00  0.00     0.016 A 
ATOM      7  C   UNL A   1      41.308  24.443  26.352  1.00  0.00     0.016 A 
ATOM      8  C   UNL A   1      43.133  27.305  27.726  1.00  0.00     0.010 A 
ATOM      9  C   UNL A   1      41.101  25.088  28.010  1.00  0.00     0.010 A 
ATOM     10  C   UNL A   1      41.953  26.546  28.596  1.00  0.00    -0.014 A 
BRANCH  10  11
ATOM     11  C   UNL A   1      41.572  27.496  29.692  1.00  0.00     0.031 A 
ATOM     12  C   UNL A   1      42.347  27.458  30.951  1.00  0.00     0.074 A 
ATOM     13  C   UNL A   1      40.702  28.531  29.460  1.00  0.00     0.049 A 
ATOM     14  N   UNL A   1      42.166  28.165  32.028  1.00  0.00    -0.248 NA
ATOM     15  C   UNL A   1      43.520  26.574  30.975  1.00  0.00     0.031 C 
ATOM     16  C   UNL A   1      40.101  28.921  28.168  1.00  0.00     0.029 A 
ATOM     17  N   UNL A   1      40.144  29.479  30.290  1.00  0.00    -0.354 N 
ATOM     18  C   UNL A   1      43.210  27.820  32.866  1.00  0.00     0.074 A 
ATOM     19  C   UNL A   1      44.003  26.821  32.185  1.00  0.00     0.031 C 
ATOM     20  C   UNL A   1      39.214  29.905  28.295  1.00  0.00     0.029 A 
ATOM     21  C   UNL A   1      39.123  30.205  29.691  1.00  0.00     0.049 A 
ATOM     22  H   UNL A   1      40.440  29.628  31.216  1.00  0.00     0.167 HD
ATOM     23  C   UNL A   1      43.468  28.325  34.091  1.00  0.00     0.037 A 
ATOM     24  C   UNL A   1      38.152  30.979  30.197  1.00  0.00     0.037 A 
ATOM     25  C   UNL A   1      42.643  29.324  34.718  1.00  0.00     0.049 A 
ATOM     26  C   UNL A   1      38.294  31.309  31.635  1.00  0.00     0.074 A 
ATOM     27  C   UNL A   1      42.766  29.874  35.977  1.00  0.00     0.029 A 
ATOM     28  N   UNL A   1      41.529  29.912  34.126  1.00  0.00    -0.354 N 
ATOM     29  N   UNL A   1      39.245  30.927  32.449  1.00  0.00    -0.248 NA
ATOM     30  C   UNL A   1      37.298  32.208  32.216  1.00  0.00     0.031 C 
ATOM     31  C   UNL A   1      41.684  30.738  36.176  1.00  0.00     0.029 A 
ATOM     32  C   UNL A   1      40.919  30.774  35.019  1.00  0.00     0.049 A 
ATOM     33  H   UNL A   1      41.221  29.740  33.208  1.00  0.00     0.167 HD
ATOM     34  C   UNL A   1      39.005  31.585  33.632  1.00  0.00     0.074 A 
ATOM     35  C   UNL A   1      37.811  32.388  33.425  1.00  0.00     0.031 C 
ATOM     36  C   UNL A   1      39.721  31.542  34.777  1.00  0.00     0.037 A 
BRANCH  23  37
ATOM     37  C   UNL A   1      44.614  27.721  34.833  1.00  0.00     0.057 A 
ATOM     38  C   UNL A   1      45.916  28.233  34.756  1.00  0.00     0.134 A 
ATOM     39  C   UNL A   1      44.415  26.563  35.593  1.00  0.00     0.134 A 
ATOM     40  F   UNL A   1      46.178  29.318  34.012  1.00  0.00    -0.206 F 
ATOM     41  C   UNL A   1      46.984  27.598  35.394  1.00  0.00     0.040 A 
ATOM     42  C   UNL A   1      45.469  25.934  36.253  1.00  0.00     0.040 A 
ATOM     43  F   UNL A   1      43.195  26.013  35.688  1.00  0.00    -0.206 F 
ATOM     44  C   UNL A   1      46.761  26.447  36.148  1.00  0.00     0.006 A 
ENDBRANCH  23  37
BRANCH  24  45
ATOM     45  C   UNL A   1      36.989  31.421  29.376  1.00  0.00     0.057 A 
ATOM     46  C   UNL A   1      35.918  30.573  29.080  1.00  0.00     0.134 A 
ATOM     47  C   UNL A   1      36.944  32.715  28.831  1.00  0.00     0.134 A 
ATOM     48  F   UNL A   1      35.887  29.328  29.577  1.00  0.00    -0.206 F 
ATOM     49  C   UNL A   1      34.878  30.970  28.231  1.00  0.00     0.040 A 
ATOM     50  C   UNL A   1      35.900  33.133  27.999  1.00  0.00     0.040 A 
ATOM     51  F   UNL A   1      37.924  33.595  29.092  1.00  0.00    -0.206 F 
ATOM     52  C   UNL A   1      34.871  32.251  27.682  1.00  0.00     0.006 A 
ENDBRANCH  24  45
BRANCH  36  53
ATOM     53  C   UNL A   1      39.215  32.404  35.881  1.00  0.00     0.057 A 
ATOM     54  C   UNL A   1      38.287  31.925  36.811  1.00  0.00     0.134 A 
ATOM     55  C   UNL A   1      39.688  33.712  36.027  1.00  0.00     0.134 A 
ATOM     56  F   UNL A   1      37.776  30.690  36.690  1.00  0.00    -0.206 F 
ATOM     57  C   UNL A   1      37.835  32.729  37.853  1.00  0.00     0.040 A 
ATOM     58  C   UNL A   1      39.271  34.511  37.086  1.00  0.00     0.040 A 
ATOM     59  F   UNL A   1      40.572  34.220  35.155  1.00  0.00    -0.206 F 
ATOM     60  C   UNL A   1      38.339  34.020  38.000  1.00  0.00     0.006 A 
ENDBRANCH  36  53
ENDBRANCH  10  11
ENDBRANCH   3   5
ENDBRANCH   2   3
ENDBRANCH   1   2
BRANCH   1  61
ATOM     61  C   UNL A   1      41.247  19.480  26.147  1.00  0.00     0.274 C 
BRANCH  61  62
ATOM     62  O   UNL A   1      39.655  19.228  25.331  1.00  0.00    -0.460 OA
BRANCH  62  63
ATOM     63  C   UNL A   1      38.117  19.519  25.113  1.00  0.00     0.334 C 
ATOM     64  O   UNL A   1      37.358  18.544  25.081  1.00  0.00    -0.250 OA
BRANCH  63  65
ATOM     65  C   UNL A   1      37.373  21.202  24.757  1.00  0.00     0.252 C 
ATOM     66  C   UNL A   1      38.226  22.209  25.588  1.00  0.00     0.298 C 
ATOM     67  N   UNL A   1      35.561  21.617  24.916  1.00  0.00    -0.300 N 
ATOM     68  N   UNL A   1      37.962  23.637  25.399  1.00  0.00    -0.343 N 
ATOM     69  C   UNL A   1      35.513  23.279  25.009  1.00  0.00     0.183 C 
ATOM     70  C   UNL A   1      36.613  23.969  25.821  1.00  0.00     0.282 C 
ATOM     71  H   UNL A   1      38.070  23.869  24.412  1.00  0.00     0.346 HD
ATOM     72  H   UNL A   1      38.623  24.170  25.964  1.00  0.00     0.346 HD
BRANCH  67  73
ATOM     73  C   UNL A   1      34.201  20.180  24.629  1.00  0.00     0.318 C 
ATOM     74  O   UNL A   1      34.061  18.928  24.597  1.00  0.00    -0.249 OA
ATOM     75  N   UNL A   1      32.573  20.958  24.364  1.00  0.00    -0.333 N 
ATOM     76  H   UNL A   1      32.054  20.414  23.729  1.00  0.00     0.165 HD
BRANCH  75  77
ATOM     77  C   UNL A   1      31.512  22.496  24.907  1.00  0.00     0.112 C 
ATOM     78  C   UNL A   1      32.205  23.995  25.107  1.00  0.00     0.056 C 
ATOM     79  C   UNL A   1      30.658  22.871  26.318  1.00  0.00     0.185 C 
ATOM     80  C   UNL A   1      32.363  24.301  26.615  1.00  0.00     0.162 C 
ATOM     81  O   UNL A   1      31.567  23.359  27.295  1.00  0.00    -0.379 OA
ENDBRANCH  75  77
ENDBRANCH  67  73
ENDBRANCH  63  65
ENDBRANCH  62  63
ENDBRANCH  61  62
ENDBRANCH   1  61
TORSDOF 13
ENDMDL
