MODEL 1
REMARK VINA RESULT:     -11.5      0.000      0.000
REMARK SMILES Cc1nsc(NC(=O)N2CCC[C@@H](C)C2)c1C(=O)OCCOC(=O)c1ccc(-c2c3nc(c(-c4c(F)cccc4F)c4ccc([nH]4)c(-c4c(F)cccc4F)c4nc(c(-c5c(F)cccc5F)c5ccc2[nH]5)C=C4)C=C3)cc1
REMARK SMILES IDX 20 1 19 2 17 3 18 4 16 5 1 6 2 7 3 8 4 9 5 10 6 11 7 12 8 14
REMARK SMILES IDX 9 15 10 16 15 17 11 18 13 19 12 20 14 21 21 22 22 23 23 24
REMARK SMILES IDX 24 25 25 26 26 27 78 28 27 29 77 30 28 31 29 32 30 33 71 34
REMARK SMILES IDX 31 35 76 36 70 37 72 38 32 39 75 40 69 41 68 42 33 44 59 45
REMARK SMILES IDX 42 46 58 47 43 48 46 49 57 50 73 51 44 52 45 53 56 55 74 56
REMARK SMILES IDX 47 57 34 58 35 59 40 60 36 61 37 62 39 63 41 64 38 65 60 66
REMARK SMILES IDX 61 67 66 68 62 69 63 70 65 71 67 72 64 73 48 74 49 75 54 76
REMARK SMILES IDX 50 77 51 78 53 79 55 80 52 81
REMARK H PARENT 6 13 72 43 46 54
REMARK Flexibility Score: inf
ROOT
ATOM      1  C   UNL A   1      32.397  30.456  26.187  1.00  0.00     0.275 C 
ENDROOT
BRANCH   1   2
ATOM      2  O   UNL A   1      31.817  29.194  26.562  1.00  0.00    -0.458 OA
BRANCH   2   3
ATOM      3  C   UNL A   1      32.356  28.056  26.042  1.00  0.00     0.343 C 
ATOM      4  O   UNL A   1      33.438  27.589  26.389  1.00  0.00    -0.246 OA
BRANCH   3   5
ATOM      5  C   UNL A   1      31.427  27.350  25.164  1.00  0.00     0.117 A 
ATOM      6  C   UNL A   1      31.299  28.972  23.069  1.00  0.00     0.069 C 
ATOM      7  C   UNL A   1      30.886  27.802  23.895  1.00  0.00     0.068 A 
ATOM      8  N   UNL A   1      29.891  27.067  23.396  1.00  0.00    -0.195 NA
ATOM      9  S   UNL A   1      29.487  25.915  24.497  1.00  0.00    -0.017 S 
ATOM     10  C   UNL A   1      30.825  26.142  25.516  1.00  0.00     0.132 A 
BRANCH  10  11
ATOM     11  N   UNL A   1      31.078  25.327  26.611  1.00  0.00    -0.297 N 
ATOM     12  C   UNL A   1      31.756  24.148  26.701  1.00  0.00     0.322 C 
ATOM     13  H   UNL A   1      30.707  25.655  27.462  1.00  0.00     0.172 HD
ATOM     14  O   UNL A   1      31.377  23.335  27.550  1.00  0.00    -0.248 OA
BRANCH  12  15
ATOM     15  N   UNL A   1      32.835  23.886  25.890  1.00  0.00    -0.324 N 
ATOM     16  C   UNL A   1      34.199  23.738  26.401  1.00  0.00     0.121 C 
ATOM     17  C   UNL A   1      32.592  23.216  24.616  1.00  0.00     0.124 C 
ATOM     18  C   UNL A   1      35.258  24.154  25.374  1.00  0.00     0.022 C 
ATOM     19  C   UNL A   1      33.532  23.779  23.546  1.00  0.00     0.005 C 
ATOM     20  C   UNL A   1      34.994  23.592  23.977  1.00  0.00     0.007 C 
ATOM     21  C   UNL A   1      33.278  23.134  22.187  1.00  0.00     0.009 C 
ENDBRANCH  12  15
ENDBRANCH  10  11
ENDBRANCH   3   5
ENDBRANCH   2   3
ENDBRANCH   1   2
BRANCH   1  22
ATOM     22  C   UNL A   1      33.117  31.084  27.375  1.00  0.00     0.275 C 
BRANCH  22  23
ATOM     23  O   UNL A   1      34.517  30.819  27.296  1.00  0.00    -0.458 OA
BRANCH  23  24
ATOM     24  C   UNL A   1      35.307  31.751  27.872  1.00  0.00     0.338 C 
ATOM     25  O   UNL A   1      35.330  32.944  27.627  1.00  0.00    -0.246 OA
BRANCH  24  26
ATOM     26  C   UNL A   1      36.316  31.083  28.699  1.00  0.00     0.060 A 
ATOM     27  C   UNL A   1      37.418  31.846  29.086  1.00  0.00     0.016 A 
ATOM     28  C   UNL A   1      36.304  29.684  28.800  1.00  0.00     0.016 A 
ATOM     29  C   UNL A   1      38.593  31.189  29.380  1.00  0.00     0.010 A 
ATOM     30  C   UNL A   1      37.476  29.031  29.096  1.00  0.00     0.010 A 
ATOM     31  C   UNL A   1      38.625  29.792  29.291  1.00  0.00    -0.014 A 
BRANCH  31  32
ATOM     32  C   UNL A   1      39.907  29.142  29.462  1.00  0.00     0.031 A 
ATOM     33  C   UNL A   1      40.367  29.112  30.868  1.00  0.00     0.074 A 
ATOM     34  C   UNL A   1      40.538  28.530  28.442  1.00  0.00     0.049 A 
ATOM     35  N   UNL A   1      41.445  29.612  31.368  1.00  0.00    -0.248 NA
ATOM     36  C   UNL A   1      39.431  28.565  31.867  1.00  0.00     0.031 C 
ATOM     37  C   UNL A   1      40.001  28.250  27.104  1.00  0.00     0.029 A 
ATOM     38  N   UNL A   1      41.752  27.915  28.423  1.00  0.00    -0.354 N 
ATOM     39  C   UNL A   1      41.416  29.273  32.717  1.00  0.00     0.074 A 
ATOM     40  C   UNL A   1      40.098  28.779  33.000  1.00  0.00     0.031 C 
ATOM     41  C   UNL A   1      40.778  27.324  26.501  1.00  0.00     0.029 A 
ATOM     42  C   UNL A   1      41.930  27.062  27.347  1.00  0.00     0.049 A 
ATOM     43  H   UNL A   1      42.441  28.064  29.111  1.00  0.00     0.167 HD
ATOM     44  C   UNL A   1      42.566  29.160  33.432  1.00  0.00     0.037 A 
ATOM     45  C   UNL A   1      42.912  26.143  27.203  1.00  0.00     0.037 A 
ATOM     46  C   UNL A   1      43.659  29.832  32.785  1.00  0.00     0.049 A 
ATOM     47  C   UNL A   1      44.023  26.509  28.112  1.00  0.00     0.074 A 
ATOM     48  C   UNL A   1      44.038  31.138  32.574  1.00  0.00     0.029 A 
ATOM     49  N   UNL A   1      44.372  29.052  31.914  1.00  0.00    -0.354 N 
ATOM     50  N   UNL A   1      44.754  27.581  27.975  1.00  0.00    -0.248 NA
ATOM     51  C   UNL A   1      44.131  25.849  29.408  1.00  0.00     0.031 C 
ATOM     52  C   UNL A   1      44.819  31.130  31.381  1.00  0.00     0.029 A 
ATOM     53  C   UNL A   1      44.902  29.820  30.911  1.00  0.00     0.049 A 
ATOM     54  H   UNL A   1      44.489  28.078  31.997  1.00  0.00     0.167 HD
ATOM     55  C   UNL A   1      45.070  27.956  29.269  1.00  0.00     0.074 A 
ATOM     56  C   UNL A   1      44.825  26.772  30.079  1.00  0.00     0.031 C 
ATOM     57  C   UNL A   1      45.199  29.272  29.605  1.00  0.00     0.037 A 
BRANCH  44  58
ATOM     58  C   UNL A   1      42.806  28.051  34.428  1.00  0.00     0.057 A 
ATOM     59  C   UNL A   1      42.975  26.736  33.961  1.00  0.00     0.134 A 
ATOM     60  C   UNL A   1      42.554  28.169  35.812  1.00  0.00     0.134 A 
ATOM     61  F   UNL A   1      43.189  26.492  32.659  1.00  0.00    -0.206 F 
ATOM     62  C   UNL A   1      42.843  25.622  34.799  1.00  0.00     0.040 A 
ATOM     63  C   UNL A   1      42.474  27.067  36.666  1.00  0.00     0.040 A 
ATOM     64  F   UNL A   1      42.264  29.340  36.392  1.00  0.00    -0.206 F 
ATOM     65  C   UNL A   1      42.587  25.785  36.155  1.00  0.00     0.006 A 
ENDBRANCH  44  58
BRANCH  45  66
ATOM     66  C   UNL A   1      42.801  24.818  26.561  1.00  0.00     0.057 A 
ATOM     67  C   UNL A   1      43.532  24.497  25.411  1.00  0.00     0.134 A 
ATOM     68  C   UNL A   1      42.158  23.747  27.209  1.00  0.00     0.134 A 
ATOM     69  F   UNL A   1      44.213  25.445  24.751  1.00  0.00    -0.206 F 
ATOM     70  C   UNL A   1      43.627  23.182  24.938  1.00  0.00     0.040 A 
ATOM     71  C   UNL A   1      42.240  22.433  26.744  1.00  0.00     0.040 A 
ATOM     72  F   UNL A   1      41.500  23.931  28.363  1.00  0.00    -0.206 F 
ATOM     73  C   UNL A   1      42.987  22.143  25.610  1.00  0.00     0.006 A 
ENDBRANCH  45  66
BRANCH  57  74
ATOM     74  C   UNL A   1      45.466  30.240  28.492  1.00  0.00     0.057 A 
ATOM     75  C   UNL A   1      44.470  30.922  27.780  1.00  0.00     0.134 A 
ATOM     76  C   UNL A   1      46.795  30.562  28.192  1.00  0.00     0.134 A 
ATOM     77  F   UNL A   1      43.173  30.742  28.060  1.00  0.00    -0.206 F 
ATOM     78  C   UNL A   1      44.785  31.847  26.781  1.00  0.00     0.040 A 
ATOM     79  C   UNL A   1      47.123  31.510  27.221  1.00  0.00     0.040 A 
ATOM     80  F   UNL A   1      47.800  29.984  28.870  1.00  0.00    -0.206 F 
ATOM     81  C   UNL A   1      46.115  32.147  26.502  1.00  0.00     0.006 A 
ENDBRANCH  57  74
ENDBRANCH  31  32
ENDBRANCH  24  26
ENDBRANCH  23  24
ENDBRANCH  22  23
ENDBRANCH   1  22
TORSDOF 13
ENDMDL
MODEL 2
REMARK VINA RESULT:     -11.4      1.866      6.210
REMARK SMILES Cc1nsc(NC(=O)N2CCC[C@@H](C)C2)c1C(=O)OCCOC(=O)c1ccc(-c2c3nc(c(-c4c(F)cccc4F)c4ccc([nH]4)c(-c4c(F)cccc4F)c4nc(c(-c5c(F)cccc5F)c5ccc2[nH]5)C=C4)C=C3)cc1
REMARK SMILES IDX 20 1 19 2 17 3 18 4 16 5 1 6 2 7 3 8 4 9 5 10 6 11 7 12 8 14
REMARK SMILES IDX 9 15 10 16 15 17 11 18 13 19 12 20 14 21 21 22 22 23 23 24
REMARK SMILES IDX 24 25 25 26 26 27 78 28 27 29 77 30 28 31 29 32 30 33 71 34
REMARK SMILES IDX 31 35 76 36 70 37 72 38 32 39 75 40 69 41 68 42 33 44 59 45
REMARK SMILES IDX 42 46 58 47 43 48 46 49 57 50 73 51 44 52 45 53 56 55 74 56
REMARK SMILES IDX 47 57 34 58 35 59 40 60 36 61 37 62 39 63 41 64 38 65 60 66
REMARK SMILES IDX 61 67 66 68 62 69 63 70 65 71 67 72 64 73 48 74 49 75 54 76
REMARK SMILES IDX 50 77 51 78 53 79 55 80 52 81
REMARK H PARENT 6 13 72 43 46 54
REMARK Flexibility Score: inf
ROOT
ATOM      1  C   UNL A   1      34.091  29.018  27.378  1.00  0.00     0.275 C 
ENDROOT
BRANCH   1   2
ATOM      2  O   UNL A   1      32.949  28.906  26.511  1.00  0.00    -0.458 OA
BRANCH   2   3
ATOM      3  C   UNL A   1      31.921  28.099  26.897  1.00  0.00     0.343 C 
ATOM      4  O   UNL A   1      31.451  28.084  28.032  1.00  0.00    -0.246 OA
BRANCH   3   5
ATOM      5  C   UNL A   1      31.317  27.390  25.774  1.00  0.00     0.117 A 
ATOM      6  C   UNL A   1      31.047  29.321  23.975  1.00  0.00     0.069 C 
ATOM      7  C   UNL A   1      30.842  27.949  24.521  1.00  0.00     0.068 A 
ATOM      8  N   UNL A   1      30.134  27.122  23.750  1.00  0.00    -0.195 NA
ATOM      9  S   UNL A   1      29.900  25.716  24.567  1.00  0.00    -0.017 S 
ATOM     10  C   UNL A   1      30.999  26.032  25.820  1.00  0.00     0.132 A 
BRANCH  10  11
ATOM     11  N   UNL A   1      31.310  25.096  26.796  1.00  0.00    -0.297 N 
ATOM     12  C   UNL A   1      31.992  23.919  26.711  1.00  0.00     0.322 C 
ATOM     13  H   UNL A   1      30.986  25.319  27.699  1.00  0.00     0.172 HD
ATOM     14  O   UNL A   1      31.659  23.009  27.476  1.00  0.00    -0.248 OA
BRANCH  12  15
ATOM     15  N   UNL A   1      33.026  23.760  25.817  1.00  0.00    -0.324 N 
ATOM     16  C   UNL A   1      34.431  23.707  26.226  1.00  0.00     0.121 C 
ATOM     17  C   UNL A   1      32.741  23.103  24.545  1.00  0.00     0.124 C 
ATOM     18  C   UNL A   1      35.377  24.228  25.139  1.00  0.00     0.022 C 
ATOM     19  C   UNL A   1      33.555  23.763  23.428  1.00  0.00     0.005 C 
ATOM     20  C   UNL A   1      35.055  23.679  23.748  1.00  0.00     0.007 C 
ATOM     21  C   UNL A   1      33.253  23.133  22.072  1.00  0.00     0.009 C 
ENDBRANCH  12  15
ENDBRANCH  10  11
ENDBRANCH   3   5
ENDBRANCH   2   3
ENDBRANCH   1   2
BRANCH   1  22
ATOM     22  C   UNL A   1      34.421  30.483  27.635  1.00  0.00     0.275 C 
BRANCH  22  23
ATOM     23  O   UNL A   1      35.836  30.672  27.650  1.00  0.00    -0.458 OA
BRANCH  23  24
ATOM     24  C   UNL A   1      36.454  30.269  28.782  1.00  0.00     0.338 C 
ATOM     25  O   UNL A   1      36.280  30.706  29.905  1.00  0.00    -0.246 OA
BRANCH  24  26
ATOM     26  C   UNL A   1      37.551  29.362  28.435  1.00  0.00     0.060 A 
ATOM     27  C   UNL A   1      37.969  28.472  29.425  1.00  0.00     0.016 A 
ATOM     28  C   UNL A   1      38.322  29.623  27.293  1.00  0.00     0.016 A 
ATOM     29  C   UNL A   1      39.261  27.999  29.371  1.00  0.00     0.010 A 
ATOM     30  C   UNL A   1      39.611  29.148  27.240  1.00  0.00     0.010 A 
ATOM     31  C   UNL A   1      40.091  28.420  28.325  1.00  0.00    -0.014 A 
BRANCH  31  32
ATOM     32  C   UNL A   1      41.482  28.023  28.375  1.00  0.00     0.031 A 
ATOM     33  C   UNL A   1      41.745  26.719  27.728  1.00  0.00     0.074 A 
ATOM     34  C   UNL A   1      42.438  28.837  28.864  1.00  0.00     0.049 A 
ATOM     35  N   UNL A   1      42.243  25.652  28.253  1.00  0.00    -0.248 NA
ATOM     36  C   UNL A   1      41.264  26.549  26.345  1.00  0.00     0.031 C 
ATOM     37  C   UNL A   1      42.299  30.252  29.230  1.00  0.00     0.029 A 
ATOM     38  N   UNL A   1      43.769  28.606  29.021  1.00  0.00    -0.354 N 
ATOM     39  C   UNL A   1      42.317  24.731  27.212  1.00  0.00     0.074 A 
ATOM     40  C   UNL A   1      41.562  25.271  26.116  1.00  0.00     0.031 C 
ATOM     41  C   UNL A   1      43.527  30.806  29.330  1.00  0.00     0.029 A 
ATOM     42  C   UNL A   1      44.522  29.758  29.178  1.00  0.00     0.049 A 
ATOM     43  H   UNL A   1      44.162  27.703  29.024  1.00  0.00     0.167 HD
ATOM     44  C   UNL A   1      43.230  23.726  27.235  1.00  0.00     0.037 A 
ATOM     45  C   UNL A   1      45.869  29.855  29.101  1.00  0.00     0.037 A 
ATOM     46  C   UNL A   1      43.730  23.495  28.563  1.00  0.00     0.049 A 
ATOM     47  C   UNL A   1      46.442  28.505  29.308  1.00  0.00     0.074 A 
ATOM     48  C   UNL A   1      43.243  22.943  29.726  1.00  0.00     0.029 A 
ATOM     49  N   UNL A   1      44.840  24.227  28.889  1.00  0.00    -0.354 N 
ATOM     50  N   UNL A   1      46.369  27.847  30.432  1.00  0.00    -0.248 NA
ATOM     51  C   UNL A   1      46.824  27.707  28.149  1.00  0.00     0.031 C 
ATOM     52  C   UNL A   1      43.960  23.572  30.786  1.00  0.00     0.029 A 
ATOM     53  C   UNL A   1      44.868  24.476  30.235  1.00  0.00     0.049 A 
ATOM     54  H   UNL A   1      45.523  24.529  28.248  1.00  0.00     0.167 HD
ATOM     55  C   UNL A   1      46.280  26.519  30.054  1.00  0.00     0.074 A 
ATOM     56  C   UNL A   1      46.747  26.483  28.677  1.00  0.00     0.031 C 
ATOM     57  C   UNL A   1      45.546  25.631  30.786  1.00  0.00     0.037 A 
BRANCH  44  58
ATOM     58  C   UNL A   1      44.017  23.305  26.017  1.00  0.00     0.057 A 
ATOM     59  C   UNL A   1      44.042  21.947  25.655  1.00  0.00     0.134 A 
ATOM     60  C   UNL A   1      44.994  24.111  25.395  1.00  0.00     0.134 A 
ATOM     61  F   UNL A   1      43.182  21.075  26.202  1.00  0.00    -0.206 F 
ATOM     62  C   UNL A   1      45.006  21.422  24.785  1.00  0.00     0.040 A 
ATOM     63  C   UNL A   1      45.927  23.607  24.485  1.00  0.00     0.040 A 
ATOM     64  F   UNL A   1      45.173  25.399  25.713  1.00  0.00    -0.206 F 
ATOM     65  C   UNL A   1      45.956  22.253  24.201  1.00  0.00     0.006 A 
ENDBRANCH  44  58
BRANCH  45  66
ATOM     66  C   UNL A   1      46.648  30.985  28.555  1.00  0.00     0.057 A 
ATOM     67  C   UNL A   1      46.610  31.313  27.195  1.00  0.00     0.134 A 
ATOM     68  C   UNL A   1      47.257  31.926  29.406  1.00  0.00     0.134 A 
ATOM     69  F   UNL A   1      46.012  30.497  26.316  1.00  0.00    -0.206 F 
ATOM     70  C   UNL A   1      47.139  32.516  26.709  1.00  0.00     0.040 A 
ATOM     71  C   UNL A   1      47.794  33.126  28.933  1.00  0.00     0.040 A 
ATOM     72  F   UNL A   1      47.274  31.749  30.735  1.00  0.00    -0.206 F 
ATOM     73  C   UNL A   1      47.725  33.430  27.580  1.00  0.00     0.006 A 
ENDBRANCH  45  66
BRANCH  57  74
ATOM     74  C   UNL A   1      45.253  25.992  32.210  1.00  0.00     0.057 A 
ATOM     75  C   UNL A   1      46.132  25.770  33.279  1.00  0.00     0.134 A 
ATOM     76  C   UNL A   1      44.066  26.678  32.495  1.00  0.00     0.134 A 
ATOM     77  F   UNL A   1      47.328  25.200  33.086  1.00  0.00    -0.206 F 
ATOM     78  C   UNL A   1      45.819  26.171  34.581  1.00  0.00     0.040 A 
ATOM     79  C   UNL A   1      43.758  27.115  33.784  1.00  0.00     0.040 A 
ATOM     80  F   UNL A   1      43.202  26.970  31.509  1.00  0.00    -0.206 F 
ATOM     81  C   UNL A   1      44.631  26.850  34.836  1.00  0.00     0.006 A 
ENDBRANCH  57  74
ENDBRANCH  31  32
ENDBRANCH  24  26
ENDBRANCH  23  24
ENDBRANCH  22  23
ENDBRANCH   1  22
TORSDOF 13
ENDMDL
MODEL 3
REMARK VINA RESULT:     -11.2     12.879     17.989
REMARK SMILES Cc1nsc(NC(=O)N2CCC[C@@H](C)C2)c1C(=O)OCCOC(=O)c1ccc(-c2c3nc(c(-c4c(F)cccc4F)c4ccc([nH]4)c(-c4c(F)cccc4F)c4nc(c(-c5c(F)cccc5F)c5ccc2[nH]5)C=C4)C=C3)cc1
REMARK SMILES IDX 20 1 19 2 17 3 18 4 16 5 1 6 2 7 3 8 4 9 5 10 6 11 7 12 8 14
REMARK SMILES IDX 9 15 10 16 15 17 11 18 13 19 12 20 14 21 21 22 22 23 23 24
REMARK SMILES IDX 24 25 25 26 26 27 78 28 27 29 77 30 28 31 29 32 30 33 71 34
REMARK SMILES IDX 31 35 76 36 70 37 72 38 32 39 75 40 69 41 68 42 33 44 59 45
REMARK SMILES IDX 42 46 58 47 43 48 46 49 57 50 73 51 44 52 45 53 56 55 74 56
REMARK SMILES IDX 47 57 34 58 35 59 40 60 36 61 37 62 39 63 41 64 38 65 60 66
REMARK SMILES IDX 61 67 66 68 62 69 63 70 65 71 67 72 64 73 48 74 49 75 54 76
REMARK SMILES IDX 50 77 51 78 53 79 55 80 52 81
REMARK H PARENT 6 13 72 43 46 54
REMARK Flexibility Score: inf
ROOT
ATOM      1  C   UNL A   1      47.098  43.582  19.895  1.00  0.00     0.275 C 
ENDROOT
BRANCH   1   2
ATOM      2  O   UNL A   1      45.683  43.645  19.643  1.00  0.00    -0.458 OA
BRANCH   2   3
ATOM      3  C   UNL A   1      44.849  42.938  20.457  1.00  0.00     0.343 C 
ATOM      4  O   UNL A   1      45.236  42.187  21.349  1.00  0.00    -0.246 OA
BRANCH   3   5
ATOM      5  C   UNL A   1      43.449  43.310  20.279  1.00  0.00     0.117 A 
ATOM      6  C   UNL A   1      42.632  43.618  22.784  1.00  0.00     0.069 C 
ATOM      7  C   UNL A   1      42.446  43.515  21.308  1.00  0.00     0.068 A 
ATOM      8  N   UNL A   1      41.190  43.636  20.875  1.00  0.00    -0.195 NA
ATOM      9  S   UNL A   1      41.165  43.363  19.255  1.00  0.00    -0.017 S 
ATOM     10  C   UNL A   1      42.846  43.404  19.024  1.00  0.00     0.132 A 
BRANCH  10  11
ATOM     11  N   UNL A   1      43.430  43.334  17.768  1.00  0.00    -0.297 N 
ATOM     12  C   UNL A   1      43.371  44.195  16.713  1.00  0.00     0.322 C 
ATOM     13  H   UNL A   1      43.978  42.531  17.613  1.00  0.00     0.172 HD
ATOM     14  O   UNL A   1      43.431  43.713  15.577  1.00  0.00    -0.248 OA
BRANCH  12  15
ATOM     15  N   UNL A   1      43.269  45.554  16.910  1.00  0.00    -0.324 N 
ATOM     16  C   UNL A   1      42.009  46.217  17.246  1.00  0.00     0.121 C 
ATOM     17  C   UNL A   1      44.465  46.280  17.327  1.00  0.00     0.124 C 
ATOM     18  C   UNL A   1      41.953  47.661  16.737  1.00  0.00     0.022 C 
ATOM     19  C   UNL A   1      44.494  47.657  16.657  1.00  0.00     0.005 C 
ATOM     20  C   UNL A   1      43.231  48.450  17.026  1.00  0.00     0.007 C 
ATOM     21  C   UNL A   1      45.753  48.432  17.035  1.00  0.00     0.009 C 
ENDBRANCH  12  15
ENDBRANCH  10  11
ENDBRANCH   3   5
ENDBRANCH   2   3
ENDBRANCH   1   2
BRANCH   1  22
ATOM     22  C   UNL A   1      47.585  44.884  20.519  1.00  0.00     0.275 C 
BRANCH  22  23
ATOM     23  O   UNL A   1      47.567  44.783  21.942  1.00  0.00    -0.458 OA
BRANCH  23  24
ATOM     24  C   UNL A   1      46.500  45.356  22.541  1.00  0.00     0.338 C 
ATOM     25  O   UNL A   1      45.704  46.127  22.035  1.00  0.00    -0.246 OA
BRANCH  24  26
ATOM     26  C   UNL A   1      46.556  45.092  23.981  1.00  0.00     0.060 A 
ATOM     27  C   UNL A   1      47.682  44.418  24.455  1.00  0.00     0.016 A 
ATOM     28  C   UNL A   1      45.390  45.229  24.749  1.00  0.00     0.016 A 
ATOM     29  C   UNL A   1      47.565  43.698  25.623  1.00  0.00     0.010 A 
ATOM     30  C   UNL A   1      45.276  44.511  25.915  1.00  0.00     0.010 A 
ATOM     31  C   UNL A   1      46.332  43.684  26.287  1.00  0.00    -0.014 A 
BRANCH  31  32
ATOM     32  C   UNL A   1      46.198  42.803  27.428  1.00  0.00     0.031 A 
ATOM     33  C   UNL A   1      45.353  41.619  27.161  1.00  0.00     0.074 A 
ATOM     34  C   UNL A   1      46.883  43.007  28.570  1.00  0.00     0.049 A 
ATOM     35  N   UNL A   1      44.268  41.260  27.757  1.00  0.00    -0.248 NA
ATOM     36  C   UNL A   1      45.698  40.803  25.983  1.00  0.00     0.031 C 
ATOM     37  C   UNL A   1      47.967  43.972  28.796  1.00  0.00     0.029 A 
ATOM     38  N   UNL A   1      46.842  42.309  29.737  1.00  0.00    -0.354 N 
ATOM     39  C   UNL A   1      43.896  40.062  27.154  1.00  0.00     0.074 A 
ATOM     40  C   UNL A   1      44.707  39.913  25.978  1.00  0.00     0.031 C 
ATOM     41  C   UNL A   1      48.631  43.635  29.923  1.00  0.00     0.029 A 
ATOM     42  C   UNL A   1      47.933  42.531  30.560  1.00  0.00     0.049 A 
ATOM     43  H   UNL A   1      46.104  41.702  29.974  1.00  0.00     0.167 HD
ATOM     44  C   UNL A   1      43.149  39.147  27.824  1.00  0.00     0.037 A 
ATOM     45  C   UNL A   1      48.284  41.801  31.644  1.00  0.00     0.037 A 
ATOM     46  C   UNL A   1      42.472  39.737  28.946  1.00  0.00     0.049 A 
ATOM     47  C   UNL A   1      47.093  41.048  32.099  1.00  0.00     0.074 A 
ATOM     48  C   UNL A   1      41.409  40.591  29.129  1.00  0.00     0.029 A 
ATOM     49  N   UNL A   1      43.179  39.705  30.119  1.00  0.00    -0.354 N 
ATOM     50  N   UNL A   1      46.023  41.606  32.593  1.00  0.00    -0.248 NA
ATOM     51  C   UNL A   1      46.934  39.655  31.698  1.00  0.00     0.031 C 
ATOM     52  C   UNL A   1      41.648  41.253  30.370  1.00  0.00     0.029 A 
ATOM     53  C   UNL A   1      42.842  40.771  30.908  1.00  0.00     0.049 A 
ATOM     54  H   UNL A   1      43.836  39.012  30.361  1.00  0.00     0.167 HD
ATOM     55  C   UNL A   1      44.982  40.793  32.180  1.00  0.00     0.074 A 
ATOM     56  C   UNL A   1      45.608  39.535  31.804  1.00  0.00     0.031 C 
ATOM     57  C   UNL A   1      43.757  41.319  31.887  1.00  0.00     0.037 A 
BRANCH  44  58
ATOM     58  C   UNL A   1      43.420  37.663  27.762  1.00  0.00     0.057 A 
ATOM     59  C   UNL A   1      44.681  37.181  28.156  1.00  0.00     0.134 A 
ATOM     60  C   UNL A   1      42.626  36.748  27.039  1.00  0.00     0.134 A 
ATOM     61  F   UNL A   1      45.538  37.968  28.823  1.00  0.00    -0.206 F 
ATOM     62  C   UNL A   1      45.138  35.906  27.802  1.00  0.00     0.040 A 
ATOM     63  C   UNL A   1      43.052  35.455  26.727  1.00  0.00     0.040 A 
ATOM     64  F   UNL A   1      41.448  37.087  26.500  1.00  0.00    -0.206 F 
ATOM     65  C   UNL A   1      44.324  35.040  27.081  1.00  0.00     0.006 A 
ENDBRANCH  44  58
BRANCH  45  66
ATOM     66  C   UNL A   1      49.654  41.493  32.100  1.00  0.00     0.057 A 
ATOM     67  C   UNL A   1      50.585  40.872  31.259  1.00  0.00     0.134 A 
ATOM     68  C   UNL A   1      50.160  42.029  33.299  1.00  0.00     0.134 A 
ATOM     69  F   UNL A   1      50.203  40.370  30.076  1.00  0.00    -0.206 F 
ATOM     70  C   UNL A   1      51.945  40.798  31.587  1.00  0.00     0.040 A 
ATOM     71  C   UNL A   1      51.512  41.956  33.641  1.00  0.00     0.040 A 
ATOM     72  F   UNL A   1      49.369  42.716  34.138  1.00  0.00    -0.206 F 
ATOM     73  C   UNL A   1      52.414  41.349  32.777  1.00  0.00     0.006 A 
ENDBRANCH  45  66
BRANCH  57  74
ATOM     74  C   UNL A   1      43.431  42.662  32.466  1.00  0.00     0.057 A 
ATOM     75  C   UNL A   1      43.785  43.884  31.878  1.00  0.00     0.134 A 
ATOM     76  C   UNL A   1      42.645  42.718  33.623  1.00  0.00     0.134 A 
ATOM     77  F   UNL A   1      44.461  43.926  30.722  1.00  0.00    -0.206 F 
ATOM     78  C   UNL A   1      43.413  45.106  32.444  1.00  0.00     0.040 A 
ATOM     79  C   UNL A   1      42.237  43.931  34.179  1.00  0.00     0.040 A 
ATOM     80  F   UNL A   1      42.228  41.585  34.211  1.00  0.00    -0.206 F 
ATOM     81  C   UNL A   1      42.632  45.132  33.596  1.00  0.00     0.006 A 
ENDBRANCH  57  74
ENDBRANCH  31  32
ENDBRANCH  24  26
ENDBRANCH  23  24
ENDBRANCH  22  23
ENDBRANCH   1  22
TORSDOF 13
ENDMDL
