MODEL 1
REMARK VINA RESULT:     -10.5      0.000      0.000
REMARK SMILES CN(C)c1cccc(C(=O)CCCC(=O)OCCOC(=O)c2ccc(-c3c4nc(c(-c5c(F)cccc5F)c5ccc([nH]5)c(-c5c(F)cccc5F)c5nc(c(-c6c(F)cccc6F)c6ccc3[nH]6)C=C5)C=C4)cc2)c1
REMARK SMILES IDX 16 1 14 2 15 3 13 4 12 5 11 6 9 7 10 8 8 9 4 10 5 11 76 12
REMARK SMILES IDX 6 13 7 14 2 15 1 16 3 17 17 18 18 19 19 20 20 21 21 22 22 23
REMARK SMILES IDX 23 24 75 25 24 26 74 27 25 28 26 29 27 30 68 31 28 32 73 33
REMARK SMILES IDX 67 34 69 35 29 36 72 37 66 38 65 39 30 41 56 42 39 43 55 44
REMARK SMILES IDX 40 45 43 46 54 47 70 48 41 49 42 50 53 52 71 53 44 54 31 55
REMARK SMILES IDX 32 56 37 57 33 58 34 59 36 60 38 61 35 62 57 63 58 64 63 65
REMARK SMILES IDX 59 66 60 67 62 68 64 69 61 70 45 71 46 72 51 73 47 74 48 75
REMARK SMILES IDX 50 76 52 77 49 78
REMARK H PARENT 69 40 43 51
REMARK Flexibility Score: inf
ROOT
ATOM      1  O   UNL A   1      32.757  30.876  26.959  1.00  0.00    -0.462 OA
ENDROOT
BRANCH   1   2
ATOM      2  C   UNL A   1      32.557  29.553  26.744  1.00  0.00     0.305 C 
ATOM      3  O   UNL A   1      32.921  28.667  27.508  1.00  0.00    -0.252 OA
BRANCH   2   4
ATOM      4  C   UNL A   1      31.875  29.242  25.424  1.00  0.00     0.123 C 
BRANCH   4   5
ATOM      5  C   UNL A   1      31.200  27.882  25.284  1.00  0.00     0.020 C 
BRANCH   5   6
ATOM      6  C   UNL A   1      31.504  27.092  24.007  1.00  0.00     0.081 C 
BRANCH   6   7
ATOM      7  C   UNL A   1      30.719  27.537  22.786  1.00  0.00     0.162 C 
ATOM      8  O   UNL A   1      31.107  27.228  21.658  1.00  0.00    -0.294 OA
BRANCH   7   9
ATOM      9  C   UNL A   1      29.487  28.376  22.926  1.00  0.00     0.020 A 
ATOM     10  C   UNL A   1      28.248  30.464  22.593  1.00  0.00     0.037 A 
ATOM     11  C   UNL A   1      27.084  29.818  23.014  1.00  0.00     0.026 A 
ATOM     12  C   UNL A   1      29.446  29.737  22.605  1.00  0.00     0.037 A 
ATOM     13  C   UNL A   1      27.116  28.479  23.414  1.00  0.00     0.003 A 
ATOM     14  C   UNL A   1      28.310  27.757  23.356  1.00  0.00     0.012 A 
BRANCH  10  15
ATOM     15  N   UNL A   1      28.256  31.769  22.131  1.00  0.00    -0.378 N 
ATOM     16  C   UNL A   1      28.903  32.784  22.956  1.00  0.00     0.143 C 
ATOM     17  C   UNL A   1      28.147  32.020  20.706  1.00  0.00     0.143 C 
ENDBRANCH  10  15
ENDBRANCH   7   9
ENDBRANCH   6   7
ENDBRANCH   5   6
ENDBRANCH   4   5
ENDBRANCH   2   4
ENDBRANCH   1   2
BRANCH   1  18
ATOM     18  C   UNL A   1      31.666  31.760  26.630  1.00  0.00     0.274 C 
BRANCH  18  19
ATOM     19  C   UNL A   1      32.003  33.228  26.894  1.00  0.00     0.275 C 
BRANCH  19  20
ATOM     20  O   UNL A   1      32.326  33.448  28.278  1.00  0.00    -0.458 OA
BRANCH  20  21
ATOM     21  C   UNL A   1      33.361  34.291  28.486  1.00  0.00     0.338 C 
ATOM     22  O   UNL A   1      33.305  35.504  28.658  1.00  0.00    -0.246 OA
BRANCH  21  23
ATOM     23  C   UNL A   1      34.592  33.520  28.701  1.00  0.00     0.060 A 
ATOM     24  C   UNL A   1      34.449  32.258  29.284  1.00  0.00     0.016 A 
ATOM     25  C   UNL A   1      35.857  34.026  28.401  1.00  0.00     0.016 A 
ATOM     26  C   UNL A   1      35.557  31.482  29.569  1.00  0.00     0.010 A 
ATOM     27  C   UNL A   1      36.984  33.268  28.735  1.00  0.00     0.010 A 
ATOM     28  C   UNL A   1      36.830  32.007  29.343  1.00  0.00    -0.014 A 
BRANCH  28  29
ATOM     29  C   UNL A   1      37.962  31.317  29.989  1.00  0.00     0.031 A 
ATOM     30  C   UNL A   1      38.202  31.583  31.447  1.00  0.00     0.074 A 
ATOM     31  C   UNL A   1      38.654  30.372  29.333  1.00  0.00     0.049 A 
ATOM     32  N   UNL A   1      39.129  31.112  32.237  1.00  0.00    -0.248 NA
ATOM     33  C   UNL A   1      37.254  32.498  32.107  1.00  0.00     0.031 C 
ATOM     34  C   UNL A   1      38.413  29.953  27.952  1.00  0.00     0.029 A 
ATOM     35  N   UNL A   1      39.686  29.577  29.753  1.00  0.00    -0.354 N 
ATOM     36  C   UNL A   1      38.888  31.689  33.478  1.00  0.00     0.074 A 
ATOM     37  C   UNL A   1      37.738  32.551  33.337  1.00  0.00     0.031 C 
ATOM     38  C   UNL A   1      39.280  28.976  27.637  1.00  0.00     0.029 A 
ATOM     39  C   UNL A   1      40.158  28.733  28.779  1.00  0.00     0.049 A 
ATOM     40  H   UNL A   1      40.055  29.608  30.666  1.00  0.00     0.167 HD
ATOM     41  C   UNL A   1      39.573  31.512  34.631  1.00  0.00     0.037 A 
ATOM     42  C   UNL A   1      41.200  27.881  28.811  1.00  0.00     0.037 A 
ATOM     43  C   UNL A   1      40.710  30.642  34.756  1.00  0.00     0.049 A 
ATOM     44  C   UNL A   1      41.996  27.764  30.083  1.00  0.00     0.074 A 
ATOM     45  C   UNL A   1      41.508  30.413  35.861  1.00  0.00     0.029 A 
ATOM     46  N   UNL A   1      41.205  29.851  33.729  1.00  0.00    -0.354 N 
ATOM     47  N   UNL A   1      41.807  28.357  31.238  1.00  0.00    -0.248 NA
ATOM     48  C   UNL A   1      43.157  26.864  30.055  1.00  0.00     0.031 C 
ATOM     49  C   UNL A   1      42.510  29.509  35.492  1.00  0.00     0.029 A 
ATOM     50  C   UNL A   1      42.307  29.140  34.171  1.00  0.00     0.049 A 
ATOM     51  H   UNL A   1      40.828  29.801  32.821  1.00  0.00     0.167 HD
ATOM     52  C   UNL A   1      42.807  27.888  32.079  1.00  0.00     0.074 A 
ATOM     53  C   UNL A   1      43.589  26.945  31.305  1.00  0.00     0.031 C 
ATOM     54  C   UNL A   1      43.063  28.207  33.373  1.00  0.00     0.037 A 
BRANCH  41  55
ATOM     55  C   UNL A   1      39.135  32.321  35.815  1.00  0.00     0.057 A 
ATOM     56  C   UNL A   1      39.562  33.640  36.018  1.00  0.00     0.134 A 
ATOM     57  C   UNL A   1      38.289  31.761  36.780  1.00  0.00     0.134 A 
ATOM     58  F   UNL A   1      40.396  34.226  35.147  1.00  0.00    -0.206 F 
ATOM     59  C   UNL A   1      39.182  34.364  37.151  1.00  0.00     0.040 A 
ATOM     60  C   UNL A   1      37.883  32.482  37.904  1.00  0.00     0.040 A 
ATOM     61  F   UNL A   1      37.850  30.499  36.650  1.00  0.00    -0.206 F 
ATOM     62  C   UNL A   1      38.335  33.785  38.095  1.00  0.00     0.006 A 
ENDBRANCH  41  55
BRANCH  42  63
ATOM     63  C   UNL A   1      41.572  27.108  27.600  1.00  0.00     0.057 A 
ATOM     64  C   UNL A   1      41.141  25.791  27.411  1.00  0.00     0.134 A 
ATOM     65  C   UNL A   1      42.394  27.663  26.610  1.00  0.00     0.134 A 
ATOM     66  F   UNL A   1      40.372  25.194  28.334  1.00  0.00    -0.206 F 
ATOM     67  C   UNL A   1      41.526  25.047  26.294  1.00  0.00     0.040 A 
ATOM     68  C   UNL A   1      42.766  26.941  25.475  1.00  0.00     0.040 A 
ATOM     69  F   UNL A   1      42.845  28.921  26.730  1.00  0.00    -0.206 F 
ATOM     70  C   UNL A   1      42.337  25.624  25.319  1.00  0.00     0.006 A 
ENDBRANCH  42  63
BRANCH  54  71
ATOM     71  C   UNL A   1      44.213  27.503  34.028  1.00  0.00     0.057 A 
ATOM     72  C   UNL A   1      44.057  26.260  34.656  1.00  0.00     0.134 A 
ATOM     73  C   UNL A   1      45.495  28.066  34.010  1.00  0.00     0.134 A 
ATOM     74  F   UNL A   1      42.851  25.675  34.716  1.00  0.00    -0.206 F 
ATOM     75  C   UNL A   1      45.132  25.618  35.271  1.00  0.00     0.040 A 
ATOM     76  C   UNL A   1      46.582  27.419  34.597  1.00  0.00     0.040 A 
ATOM     77  F   UNL A   1      45.713  29.248  33.413  1.00  0.00    -0.206 F 
ATOM     78  C   UNL A   1      46.399  26.196  35.239  1.00  0.00     0.006 A 
ENDBRANCH  54  71
ENDBRANCH  28  29
ENDBRANCH  21  23
ENDBRANCH  20  21
ENDBRANCH  19  20
ENDBRANCH  18  19
ENDBRANCH   1  18
TORSDOF 16
ENDMDL
MODEL 2
REMARK VINA RESULT:     -10.2      5.710      8.692
REMARK SMILES CN(C)c1cccc(C(=O)CCCC(=O)OCCOC(=O)c2ccc(-c3c4nc(c(-c5c(F)cccc5F)c5ccc([nH]5)c(-c5c(F)cccc5F)c5nc(c(-c6c(F)cccc6F)c6ccc3[nH]6)C=C5)C=C4)cc2)c1
REMARK SMILES IDX 16 1 14 2 15 3 13 4 12 5 11 6 9 7 10 8 8 9 4 10 5 11 76 12
REMARK SMILES IDX 6 13 7 14 2 15 1 16 3 17 17 18 18 19 19 20 20 21 21 22 22 23
REMARK SMILES IDX 23 24 75 25 24 26 74 27 25 28 26 29 27 30 68 31 28 32 73 33
REMARK SMILES IDX 67 34 69 35 29 36 72 37 66 38 65 39 30 41 56 42 39 43 55 44
REMARK SMILES IDX 40 45 43 46 54 47 70 48 41 49 42 50 53 52 71 53 44 54 31 55
REMARK SMILES IDX 32 56 37 57 33 58 34 59 36 60 38 61 35 62 57 63 58 64 63 65
REMARK SMILES IDX 59 66 60 67 62 68 64 69 61 70 45 71 46 72 51 73 47 74 48 75
REMARK SMILES IDX 50 76 52 77 49 78
REMARK H PARENT 69 40 43 51
REMARK Flexibility Score: inf
ROOT
ATOM      1  O   UNL A   1      35.164  22.987  22.855  1.00  0.00    -0.462 OA
ENDROOT
BRANCH   1   2
ATOM      2  C   UNL A   1      34.039  23.721  22.679  1.00  0.00     0.305 C 
ATOM      3  O   UNL A   1      34.030  24.919  22.421  1.00  0.00    -0.252 OA
BRANCH   2   4
ATOM      4  C   UNL A   1      32.755  22.937  22.883  1.00  0.00     0.123 C 
BRANCH   4   5
ATOM      5  C   UNL A   1      31.980  23.177  24.174  1.00  0.00     0.020 C 
BRANCH   5   6
ATOM      6  C   UNL A   1      31.578  21.936  24.975  1.00  0.00     0.081 C 
BRANCH   6   7
ATOM      7  C   UNL A   1      32.724  20.991  25.297  1.00  0.00     0.162 C 
ATOM      8  O   UNL A   1      33.569  21.311  26.133  1.00  0.00    -0.294 OA
BRANCH   7   9
ATOM      9  C   UNL A   1      32.861  19.679  24.588  1.00  0.00     0.020 A 
ATOM     10  C   UNL A   1      33.383  17.285  24.563  1.00  0.00     0.037 A 
ATOM     11  C   UNL A   1      32.880  17.209  23.262  1.00  0.00     0.026 A 
ATOM     12  C   UNL A   1      33.409  18.539  25.187  1.00  0.00     0.037 A 
ATOM     13  C   UNL A   1      32.398  18.351  22.616  1.00  0.00     0.003 A 
ATOM     14  C   UNL A   1      32.375  19.577  23.282  1.00  0.00     0.012 A 
BRANCH  10  15
ATOM     15  N   UNL A   1      33.814  16.173  25.267  1.00  0.00    -0.378 N 
ATOM     16  C   UNL A   1      32.866  15.084  25.475  1.00  0.00     0.143 C 
ATOM     17  C   UNL A   1      35.229  15.857  25.300  1.00  0.00     0.143 C 
ENDBRANCH  10  15
ENDBRANCH   7   9
ENDBRANCH   6   7
ENDBRANCH   5   6
ENDBRANCH   4   5
ENDBRANCH   2   4
ENDBRANCH   1   2
BRANCH   1  18
ATOM     18  C   UNL A   1      35.766  23.026  24.165  1.00  0.00     0.274 C 
BRANCH  18  19
ATOM     19  C   UNL A   1      36.769  21.891  24.381  1.00  0.00     0.275 C 
BRANCH  19  20
ATOM     20  O   UNL A   1      37.184  21.816  25.756  1.00  0.00    -0.458 OA
BRANCH  20  21
ATOM     21  C   UNL A   1      38.490  21.524  25.933  1.00  0.00     0.338 C 
ATOM     22  O   UNL A   1      39.100  20.559  25.486  1.00  0.00    -0.246 OA
BRANCH  21  23
ATOM     23  C   UNL A   1      39.169  22.659  26.573  1.00  0.00     0.060 A 
ATOM     24  C   UNL A   1      38.663  23.932  26.295  1.00  0.00     0.016 A 
ATOM     25  C   UNL A   1      40.299  22.502  27.375  1.00  0.00     0.016 A 
ATOM     26  C   UNL A   1      39.268  25.061  26.814  1.00  0.00     0.010 A 
ATOM     27  C   UNL A   1      40.947  23.643  27.859  1.00  0.00     0.010 A 
ATOM     28  C   UNL A   1      40.443  24.922  27.555  1.00  0.00    -0.014 A 
BRANCH  28  29
ATOM     29  C   UNL A   1      41.244  26.141  27.771  1.00  0.00     0.031 A 
ATOM     30  C   UNL A   1      40.654  27.222  28.629  1.00  0.00     0.074 A 
ATOM     31  C   UNL A   1      42.513  26.212  27.339  1.00  0.00     0.049 A 
ATOM     32  N   UNL A   1      41.149  28.384  28.961  1.00  0.00    -0.248 NA
ATOM     33  C   UNL A   1      39.326  26.945  29.205  1.00  0.00     0.031 C 
ATOM     34  C   UNL A   1      43.217  25.161  26.605  1.00  0.00     0.029 A 
ATOM     35  N   UNL A   1      43.442  27.208  27.480  1.00  0.00    -0.354 N 
ATOM     36  C   UNL A   1      40.186  28.983  29.763  1.00  0.00     0.074 A 
ATOM     37  C   UNL A   1      39.075  28.065  29.862  1.00  0.00     0.031 C 
ATOM     38  C   UNL A   1      44.472  25.571  26.355  1.00  0.00     0.029 A 
ATOM     39  C   UNL A   1      44.643  26.925  26.877  1.00  0.00     0.049 A 
ATOM     40  H   UNL A   1      43.267  28.046  27.967  1.00  0.00     0.167 HD
ATOM     41  C   UNL A   1      40.230  30.196  30.362  1.00  0.00     0.037 A 
ATOM     42  C   UNL A   1      45.741  27.693  26.746  1.00  0.00     0.037 A 
ATOM     43  C   UNL A   1      41.348  31.093  30.260  1.00  0.00     0.049 A 
ATOM     44  C   UNL A   1      45.732  29.071  27.352  1.00  0.00     0.074 A 
ATOM     45  C   UNL A   1      41.490  32.362  30.788  1.00  0.00     0.029 A 
ATOM     46  N   UNL A   1      42.524  30.803  29.583  1.00  0.00    -0.354 N 
ATOM     47  N   UNL A   1      44.797  29.662  28.058  1.00  0.00    -0.248 NA
ATOM     48  C   UNL A   1      46.931  29.893  27.137  1.00  0.00     0.031 C 
ATOM     49  C   UNL A   1      42.740  32.856  30.398  1.00  0.00     0.029 A 
ATOM     50  C   UNL A   1      43.394  31.875  29.669  1.00  0.00     0.049 A 
ATOM     51  H   UNL A   1      42.712  29.959  29.112  1.00  0.00     0.167 HD
ATOM     52  C   UNL A   1      45.299  30.912  28.389  1.00  0.00     0.074 A 
ATOM     53  C   UNL A   1      46.631  30.986  27.824  1.00  0.00     0.031 C 
ATOM     54  C   UNL A   1      44.715  31.915  29.094  1.00  0.00     0.037 A 
BRANCH  41  55
ATOM     55  C   UNL A   1      39.010  30.626  31.119  1.00  0.00     0.057 A 
ATOM     56  C   UNL A   1      38.822  30.317  32.473  1.00  0.00     0.134 A 
ATOM     57  C   UNL A   1      37.994  31.344  30.474  1.00  0.00     0.134 A 
ATOM     58  F   UNL A   1      39.743  29.608  33.142  1.00  0.00    -0.206 F 
ATOM     59  C   UNL A   1      37.658  30.686  33.151  1.00  0.00     0.040 A 
ATOM     60  C   UNL A   1      36.837  31.739  31.147  1.00  0.00     0.040 A 
ATOM     61  F   UNL A   1      38.107  31.665  29.176  1.00  0.00    -0.206 F 
ATOM     62  C   UNL A   1      36.663  31.404  32.488  1.00  0.00     0.006 A 
ENDBRANCH  41  55
BRANCH  42  63
ATOM     63  C   UNL A   1      46.914  27.197  25.985  1.00  0.00     0.057 A 
ATOM     64  C   UNL A   1      47.035  27.408  24.607  1.00  0.00     0.134 A 
ATOM     65  C   UNL A   1      47.935  26.474  26.615  1.00  0.00     0.134 A 
ATOM     66  F   UNL A   1      46.079  28.072  23.940  1.00  0.00    -0.206 F 
ATOM     67  C   UNL A   1      48.117  26.905  23.881  1.00  0.00     0.040 A 
ATOM     68  C   UNL A   1      49.035  25.989  25.908  1.00  0.00     0.040 A 
ATOM     69  F   UNL A   1      47.880  26.234  27.934  1.00  0.00    -0.206 F 
ATOM     70  C   UNL A   1      49.124  26.197  24.533  1.00  0.00     0.006 A 
ENDBRANCH  42  63
BRANCH  54  71
ATOM     71  C   UNL A   1      45.533  33.153  29.312  1.00  0.00     0.057 A 
ATOM     72  C   UNL A   1      45.475  34.241  28.432  1.00  0.00     0.134 A 
ATOM     73  C   UNL A   1      46.371  33.263  30.428  1.00  0.00     0.134 A 
ATOM     74  F   UNL A   1      44.700  34.191  27.338  1.00  0.00    -0.206 F 
ATOM     75  C   UNL A   1      46.248  35.384  28.639  1.00  0.00     0.040 A 
ATOM     76  C   UNL A   1      47.127  34.412  30.660  1.00  0.00     0.040 A 
ATOM     77  F   UNL A   1      46.462  32.261  31.315  1.00  0.00    -0.206 F 
ATOM     78  C   UNL A   1      47.074  35.473  29.758  1.00  0.00     0.006 A 
ENDBRANCH  54  71
ENDBRANCH  28  29
ENDBRANCH  21  23
ENDBRANCH  20  21
ENDBRANCH  19  20
ENDBRANCH  18  19
ENDBRANCH   1  18
TORSDOF 16
ENDMDL
MODEL 3
REMARK VINA RESULT:     -10.1      1.317      6.469
REMARK SMILES CN(C)c1cccc(C(=O)CCCC(=O)OCCOC(=O)c2ccc(-c3c4nc(c(-c5c(F)cccc5F)c5ccc([nH]5)c(-c5c(F)cccc5F)c5nc(c(-c6c(F)cccc6F)c6ccc3[nH]6)C=C5)C=C4)cc2)c1
REMARK SMILES IDX 16 1 14 2 15 3 13 4 12 5 11 6 9 7 10 8 8 9 4 10 5 11 76 12
REMARK SMILES IDX 6 13 7 14 2 15 1 16 3 17 17 18 18 19 19 20 20 21 21 22 22 23
REMARK SMILES IDX 23 24 75 25 24 26 74 27 25 28 26 29 27 30 68 31 28 32 73 33
REMARK SMILES IDX 67 34 69 35 29 36 72 37 66 38 65 39 30 41 56 42 39 43 55 44
REMARK SMILES IDX 40 45 43 46 54 47 70 48 41 49 42 50 53 52 71 53 44 54 31 55
REMARK SMILES IDX 32 56 37 57 33 58 34 59 36 60 38 61 35 62 57 63 58 64 63 65
REMARK SMILES IDX 59 66 60 67 62 68 64 69 61 70 45 71 46 72 51 73 47 74 48 75
REMARK SMILES IDX 50 76 52 77 49 78
REMARK H PARENT 69 40 43 51
REMARK Flexibility Score: inf
ROOT
ATOM      1  O   UNL A   1      32.873  30.861  26.261  1.00  0.00    -0.462 OA
ENDROOT
BRANCH   1   2
ATOM      2  C   UNL A   1      33.281  29.809  27.011  1.00  0.00     0.305 C 
ATOM      3  O   UNL A   1      34.408  29.690  27.478  1.00  0.00    -0.252 OA
BRANCH   2   4
ATOM      4  C   UNL A   1      32.223  28.736  27.191  1.00  0.00     0.123 C 
BRANCH   4   5
ATOM      5  C   UNL A   1      32.449  27.400  26.490  1.00  0.00     0.020 C 
BRANCH   5   6
ATOM      6  C   UNL A   1      33.022  27.458  25.071  1.00  0.00     0.081 C 
BRANCH   6   7
ATOM      7  C   UNL A   1      32.122  26.865  24.000  1.00  0.00     0.162 C 
ATOM      8  O   UNL A   1      32.553  25.989  23.250  1.00  0.00    -0.294 OA
BRANCH   7   9
ATOM      9  C   UNL A   1      30.716  27.350  23.821  1.00  0.00     0.020 A 
ATOM     10  C   UNL A   1      29.092  29.052  23.137  1.00  0.00     0.037 A 
ATOM     11  C   UNL A   1      28.071  28.114  23.298  1.00  0.00     0.026 A 
ATOM     12  C   UNL A   1      30.400  28.662  23.453  1.00  0.00     0.037 A 
ATOM     13  C   UNL A   1      28.355  26.818  23.739  1.00  0.00     0.003 A 
ATOM     14  C   UNL A   1      29.673  26.434  23.985  1.00  0.00     0.012 A 
BRANCH  10  15
ATOM     15  N   UNL A   1      28.869  30.327  22.645  1.00  0.00    -0.378 N 
ATOM     16  C   UNL A   1      28.254  30.455  21.328  1.00  0.00     0.143 C 
ATOM     17  C   UNL A   1      28.724  31.433  23.573  1.00  0.00     0.143 C 
ENDBRANCH  10  15
ENDBRANCH   7   9
ENDBRANCH   6   7
ENDBRANCH   5   6
ENDBRANCH   4   5
ENDBRANCH   2   4
ENDBRANCH   1   2
BRANCH   1  18
ATOM     18  C   UNL A   1      31.697  31.563  26.713  1.00  0.00     0.274 C 
BRANCH  18  19
ATOM     19  C   UNL A   1      31.911  33.077  26.783  1.00  0.00     0.275 C 
BRANCH  19  20
ATOM     20  O   UNL A   1      31.998  33.529  28.145  1.00  0.00    -0.458 OA
BRANCH  20  21
ATOM     21  C   UNL A   1      32.973  34.435  28.373  1.00  0.00     0.338 C 
ATOM     22  O   UNL A   1      32.842  35.648  28.492  1.00  0.00    -0.246 OA
BRANCH  21  23
ATOM     23  C   UNL A   1      34.230  33.742  28.687  1.00  0.00     0.060 A 
ATOM     24  C   UNL A   1      34.151  32.674  29.584  1.00  0.00     0.016 A 
ATOM     25  C   UNL A   1      35.461  34.151  28.172  1.00  0.00     0.016 A 
ATOM     26  C   UNL A   1      35.290  31.995  29.975  1.00  0.00     0.010 A 
ATOM     27  C   UNL A   1      36.622  33.502  28.605  1.00  0.00     0.010 A 
ATOM     28  C   UNL A   1      36.534  32.441  29.526  1.00  0.00    -0.014 A 
BRANCH  28  29
ATOM     29  C   UNL A   1      37.722  31.938  30.242  1.00  0.00     0.031 A 
ATOM     30  C   UNL A   1      38.474  30.793  29.628  1.00  0.00     0.074 A 
ATOM     31  C   UNL A   1      38.195  32.581  31.322  1.00  0.00     0.049 A 
ATOM     32  N   UNL A   1      39.536  30.168  30.061  1.00  0.00    -0.248 NA
ATOM     33  C   UNL A   1      37.965  30.295  28.338  1.00  0.00     0.031 C 
ATOM     34  C   UNL A   1      37.604  33.778  31.920  1.00  0.00     0.029 A 
ATOM     35  N   UNL A   1      39.298  32.327  32.091  1.00  0.00    -0.354 N 
ATOM     36  C   UNL A   1      39.807  29.193  29.111  1.00  0.00     0.074 A 
ATOM     37  C   UNL A   1      38.796  29.299  28.084  1.00  0.00     0.031 C 
ATOM     38  C   UNL A   1      38.353  34.154  32.970  1.00  0.00     0.029 A 
ATOM     39  C   UNL A   1      39.448  33.201  33.139  1.00  0.00     0.049 A 
ATOM     40  H   UNL A   1      39.924  31.588  31.912  1.00  0.00     0.167 HD
ATOM     41  C   UNL A   1      40.812  28.287  29.101  1.00  0.00     0.037 A 
ATOM     42  C   UNL A   1      40.357  33.207  34.131  1.00  0.00     0.037 A 
ATOM     43  C   UNL A   1      41.816  28.202  30.127  1.00  0.00     0.049 A 
ATOM     44  C   UNL A   1      41.417  32.138  34.142  1.00  0.00     0.074 A 
ATOM     45  C   UNL A   1      42.858  27.302  30.246  1.00  0.00     0.029 A 
ATOM     46  N   UNL A   1      41.898  29.063  31.213  1.00  0.00    -0.354 N 
ATOM     47  N   UNL A   1      41.635  31.177  33.276  1.00  0.00    -0.248 NA
ATOM     48  C   UNL A   1      42.355  32.150  35.273  1.00  0.00     0.031 C 
ATOM     49  C   UNL A   1      43.551  27.596  31.426  1.00  0.00     0.029 A 
ATOM     50  C   UNL A   1      42.968  28.707  32.015  1.00  0.00     0.049 A 
ATOM     51  H   UNL A   1      41.287  29.815  31.386  1.00  0.00     0.167 HD
ATOM     52  C   UNL A   1      42.744  30.484  33.743  1.00  0.00     0.074 A 
ATOM     53  C   UNL A   1      43.165  31.150  34.959  1.00  0.00     0.031 C 
ATOM     54  C   UNL A   1      43.360  29.394  33.221  1.00  0.00     0.037 A 
BRANCH  41  55
ATOM     55  C   UNL A   1      40.826  27.295  27.978  1.00  0.00     0.057 A 
ATOM     56  C   UNL A   1      40.134  26.078  28.046  1.00  0.00     0.134 A 
ATOM     57  C   UNL A   1      41.565  27.553  26.816  1.00  0.00     0.134 A 
ATOM     58  F   UNL A   1      39.430  25.758  29.141  1.00  0.00    -0.206 F 
ATOM     59  C   UNL A   1      40.195  25.145  27.009  1.00  0.00     0.040 A 
ATOM     60  C   UNL A   1      41.615  26.639  25.763  1.00  0.00     0.040 A 
ATOM     61  F   UNL A   1      42.257  28.695  26.690  1.00  0.00    -0.206 F 
ATOM     62  C   UNL A   1      40.935  25.427  25.861  1.00  0.00     0.006 A 
ENDBRANCH  41  55
BRANCH  42  63
ATOM     63  C   UNL A   1      40.284  34.225  35.209  1.00  0.00     0.057 A 
ATOM     64  C   UNL A   1      39.572  33.990  36.390  1.00  0.00     0.134 A 
ATOM     65  C   UNL A   1      40.905  35.473  35.070  1.00  0.00     0.134 A 
ATOM     66  F   UNL A   1      38.934  32.824  36.573  1.00  0.00    -0.206 F 
ATOM     67  C   UNL A   1      39.465  34.963  37.386  1.00  0.00     0.040 A 
ATOM     68  C   UNL A   1      40.829  36.445  36.069  1.00  0.00     0.040 A 
ATOM     69  F   UNL A   1      41.601  35.764  33.961  1.00  0.00    -0.206 F 
ATOM     70  C   UNL A   1      40.100  36.193  37.229  1.00  0.00     0.006 A 
ENDBRANCH  42  63
BRANCH  54  71
ATOM     71  C   UNL A   1      44.568  28.885  33.950  1.00  0.00     0.057 A 
ATOM     72  C   UNL A   1      44.473  27.891  34.932  1.00  0.00     0.134 A 
ATOM     73  C   UNL A   1      45.842  29.384  33.650  1.00  0.00     0.134 A 
ATOM     74  F   UNL A   1      43.279  27.382  35.272  1.00  0.00    -0.206 F 
ATOM     75  C   UNL A   1      45.602  27.432  35.612  1.00  0.00     0.040 A 
ATOM     76  C   UNL A   1      46.980  28.912  34.303  1.00  0.00     0.040 A 
ATOM     77  F   UNL A   1      46.000  30.328  32.711  1.00  0.00    -0.206 F 
ATOM     78  C   UNL A   1      46.860  27.940  35.295  1.00  0.00     0.006 A 
ENDBRANCH  54  71
ENDBRANCH  28  29
ENDBRANCH  21  23
ENDBRANCH  20  21
ENDBRANCH  19  20
ENDBRANCH  18  19
ENDBRANCH   1  18
TORSDOF 16
ENDMDL
