MODEL 1
REMARK VINA RESULT:     -11.9      0.000      0.000
REMARK SMILES Cc1c(CC(=O)N[C@H](CO)C(=O)OCCOC(=O)c2ccc(-c3c4nc(c(-c5c(F)cccc5F)c5ccc([nH]5)c(-c5c(F)cccc5F)c5nc(c(-c6c(F)cccc6F)c6ccc3[nH]6)C=C5)C=C4)cc2)cc(-c2ccc(S(C)(=O)=O)cc2)n1-c1ccc(F)cc1
REMARK SMILES IDX 13 1 11 2 12 3 8 4 7 5 5 6 6 7 4 9 3 10 1 11 2 12 85 13
REMARK SMILES IDX 73 14 74 15 86 16 87 17 92 18 88 19 91 20 89 21 90 22 75 23
REMARK SMILES IDX 76 24 84 25 77 26 83 27 78 28 79 29 80 30 81 31 82 32 9 33
REMARK SMILES IDX 10 34 14 36 15 37 16 38 17 39 18 40 19 41 20 42 72 43 21 44
REMARK SMILES IDX 71 45 22 46 23 47 24 48 65 49 25 50 70 51 64 52 66 53 26 54
REMARK SMILES IDX 69 55 63 56 62 57 27 59 53 60 36 61 52 62 37 63 40 64 51 65
REMARK SMILES IDX 67 66 38 67 39 68 50 70 68 71 41 72 28 73 29 74 34 75 30 76
REMARK SMILES IDX 31 77 33 78 35 79 32 80 54 81 55 82 60 83 56 84 57 85 59 86
REMARK SMILES IDX 61 87 58 88 42 89 43 90 48 91 44 92 45 93 47 94 49 95 46 96
REMARK H PARENT 7 8 10 35 66 58 40 69
REMARK Flexibility Score: inf
ROOT
ATOM      1  O   UNL A   1      33.182  28.534  24.478  1.00  0.00    -0.460 OA
ENDROOT
BRANCH   1   2
ATOM      2  C   UNL A   1      32.158  28.759  23.608  1.00  0.00     0.331 C 
ATOM      3  O   UNL A   1      32.338  28.992  22.417  1.00  0.00    -0.250 OA
BRANCH   2   4
ATOM      4  C   UNL A   1      30.763  28.829  24.261  1.00  0.00     0.218 C 
BRANCH   4   5
ATOM      5  N   UNL A   1      30.179  27.587  24.844  1.00  0.00    -0.341 N 
ATOM      6  C   UNL A   1      30.393  26.258  24.663  1.00  0.00     0.225 C 
ATOM      7  O   UNL A   1      30.246  25.548  25.666  1.00  0.00    -0.275 OA
ATOM      8  H   UNL A   1      29.480  27.773  25.511  1.00  0.00     0.164 HD
BRANCH   6   9
ATOM      9  C   UNL A   1      30.676  25.622  23.309  1.00  0.00     0.137 C 
BRANCH   9  10
ATOM     10  C   UNL A   1      31.704  24.514  23.369  1.00  0.00    -0.017 A 
ATOM     11  C   UNL A   1      33.889  25.830  23.840  1.00  0.00     0.065 C 
ATOM     12  C   UNL A   1      33.054  24.599  23.685  1.00  0.00     0.024 A 
ATOM     13  N   UNL A   1      33.566  23.309  23.805  1.00  0.00    -0.314 N 
ATOM     14  C   UNL A   1      31.472  23.149  23.041  1.00  0.00     0.033 A 
ATOM     15  C   UNL A   1      32.553  22.394  23.481  1.00  0.00     0.053 A 
BRANCH  13  16
ATOM     16  C   UNL A   1      34.849  22.954  24.319  1.00  0.00     0.046 A 
ATOM     17  C   UNL A   1      35.877  22.585  23.437  1.00  0.00     0.029 A 
ATOM     18  C   UNL A   1      35.013  22.794  25.703  1.00  0.00     0.029 A 
ATOM     19  C   UNL A   1      37.051  22.024  23.942  1.00  0.00     0.041 A 
ATOM     20  C   UNL A   1      36.187  22.226  26.196  1.00  0.00     0.041 A 
ATOM     21  C   UNL A   1      37.189  21.838  25.312  1.00  0.00     0.123 A 
ATOM     22  F   UNL A   1      38.293  21.247  25.789  1.00  0.00    -0.207 F 
ENDBRANCH  13  16
BRANCH  15  23
ATOM     23  C   UNL A   1      32.537  20.955  23.850  1.00  0.00    -0.001 A 
ATOM     24  C   UNL A   1      32.415  19.975  22.844  1.00  0.00     0.011 A 
ATOM     25  C   UNL A   1      32.809  20.522  25.156  1.00  0.00     0.011 A 
ATOM     26  C   UNL A   1      32.548  18.613  23.118  1.00  0.00     0.021 A 
ATOM     27  C   UNL A   1      32.958  19.153  25.442  1.00  0.00     0.021 A 
ATOM     28  C   UNL A   1      32.833  18.210  24.418  1.00  0.00     0.067 A 
BRANCH  28  29
ATOM     29  S   UNL A   1      33.191  16.492  24.706  1.00  0.00     0.175 S 
ATOM     30  C   UNL A   1      34.764  16.491  25.525  1.00  0.00     0.163 C 
ATOM     31  O   UNL A   1      32.189  16.016  25.637  1.00  0.00    -0.224 OA
ATOM     32  O   UNL A   1      33.368  15.858  23.409  1.00  0.00    -0.224 OA
ENDBRANCH  28  29
ENDBRANCH  15  23
ENDBRANCH   9  10
ENDBRANCH   6   9
ENDBRANCH   4   5
BRANCH   4  33
ATOM     33  C   UNL A   1      29.691  29.417  23.317  1.00  0.00     0.193 C 
BRANCH  33  34
ATOM     34  O   UNL A   1      29.665  28.644  22.107  1.00  0.00    -0.394 OA
ATOM     35  H   UNL A   1      30.556  28.614  21.723  1.00  0.00     0.210 HD
ENDBRANCH  33  34
ENDBRANCH   4  33
ENDBRANCH   2   4
ENDBRANCH   1   2
BRANCH   1  36
ATOM     36  C   UNL A   1      33.051  29.274  25.707  1.00  0.00     0.274 C 
BRANCH  36  37
ATOM     37  C   UNL A   1      34.131  29.143  26.800  1.00  0.00     0.275 C 
BRANCH  37  38
ATOM     38  O   UNL A   1      34.072  29.993  27.985  1.00  0.00    -0.458 OA
BRANCH  38  39
ATOM     39  C   UNL A   1      35.014  30.988  28.018  1.00  0.00     0.338 C 
ATOM     40  O   UNL A   1      34.804  32.129  27.628  1.00  0.00    -0.246 OA
BRANCH  39  41
ATOM     41  C   UNL A   1      36.409  30.559  28.453  1.00  0.00     0.060 A 
ATOM     42  C   UNL A   1      37.451  30.446  27.543  1.00  0.00     0.016 A 
ATOM     43  C   UNL A   1      36.629  29.958  29.711  1.00  0.00     0.016 A 
ATOM     44  C   UNL A   1      38.664  29.753  27.893  1.00  0.00     0.010 A 
ATOM     45  C   UNL A   1      37.830  29.198  30.037  1.00  0.00     0.010 A 
ATOM     46  C   UNL A   1      38.890  29.031  29.126  1.00  0.00    -0.014 A 
BRANCH  46  47
ATOM     47  C   UNL A   1      39.857  27.732  29.046  1.00  0.00     0.031 A 
ATOM     48  C   UNL A   1      40.811  28.003  30.162  1.00  0.00     0.074 A 
ATOM     49  C   UNL A   1      40.156  26.586  28.302  1.00  0.00     0.049 A 
ATOM     50  N   UNL A   1      41.478  29.124  30.194  1.00  0.00    -0.248 NA
ATOM     51  C   UNL A   1      40.744  27.289  31.437  1.00  0.00     0.031 C 
ATOM     52  C   UNL A   1      39.515  26.104  27.067  1.00  0.00     0.029 A 
ATOM     53  N   UNL A   1      41.131  25.544  28.480  1.00  0.00    -0.354 N 
ATOM     54  C   UNL A   1      42.151  29.132  31.389  1.00  0.00     0.074 A 
ATOM     55  C   UNL A   1      41.481  28.115  32.188  1.00  0.00     0.031 C 
ATOM     56  C   UNL A   1      39.986  24.875  26.691  1.00  0.00     0.029 A 
ATOM     57  C   UNL A   1      41.049  24.412  27.583  1.00  0.00     0.049 A 
ATOM     58  H   UNL A   1      41.821  25.599  29.179  1.00  0.00     0.167 HD
ATOM     59  C   UNL A   1      43.488  29.391  31.307  1.00  0.00     0.037 A 
ATOM     60  C   UNL A   1      41.802  23.237  27.501  1.00  0.00     0.037 A 
ATOM     61  C   UNL A   1      44.266  28.185  31.368  1.00  0.00     0.049 A 
ATOM     62  C   UNL A   1      43.072  23.489  28.188  1.00  0.00     0.074 A 
ATOM     63  C   UNL A   1      44.203  27.071  32.181  1.00  0.00     0.029 A 
ATOM     64  N   UNL A   1      44.911  27.800  30.212  1.00  0.00    -0.354 N 
ATOM     65  N   UNL A   1      44.039  24.135  27.616  1.00  0.00    -0.248 NA
ATOM     66  C   UNL A   1      43.378  22.930  29.502  1.00  0.00     0.031 C 
ATOM     67  C   UNL A   1      44.282  25.987  31.282  1.00  0.00     0.029 A 
ATOM     68  C   UNL A   1      44.798  26.436  30.074  1.00  0.00     0.049 A 
ATOM     69  H   UNL A   1      45.377  28.402  29.587  1.00  0.00     0.167 HD
ATOM     70  C   UNL A   1      44.803  24.517  28.668  1.00  0.00     0.074 A 
ATOM     71  C   UNL A   1      44.549  23.537  29.706  1.00  0.00     0.031 C 
ATOM     72  C   UNL A   1      45.016  25.849  28.778  1.00  0.00     0.037 A 
BRANCH  59  73
ATOM     73  C   UNL A   1      43.838  30.568  30.450  1.00  0.00     0.057 A 
ATOM     74  C   UNL A   1      44.182  31.772  31.065  1.00  0.00     0.134 A 
ATOM     75  C   UNL A   1      43.738  30.574  29.045  1.00  0.00     0.134 A 
ATOM     76  F   UNL A   1      44.358  31.827  32.395  1.00  0.00    -0.206 F 
ATOM     77  C   UNL A   1      44.348  32.947  30.326  1.00  0.00     0.040 A 
ATOM     78  C   UNL A   1      43.842  31.749  28.304  1.00  0.00     0.040 A 
ATOM     79  F   UNL A   1      43.551  29.434  28.360  1.00  0.00    -0.206 F 
ATOM     80  C   UNL A   1      44.141  32.944  28.948  1.00  0.00     0.006 A 
ENDBRANCH  59  73
BRANCH  60  81
ATOM     81  C   UNL A   1      41.895  21.830  26.849  1.00  0.00     0.057 A 
ATOM     82  C   UNL A   1      42.812  21.569  25.771  1.00  0.00     0.134 A 
ATOM     83  C   UNL A   1      41.485  20.665  27.506  1.00  0.00     0.134 A 
ATOM     84  F   UNL A   1      43.276  22.551  24.988  1.00  0.00    -0.206 F 
ATOM     85  C   UNL A   1      43.365  20.306  25.476  1.00  0.00     0.040 A 
ATOM     86  C   UNL A   1      42.002  19.378  27.183  1.00  0.00     0.040 A 
ATOM     87  F   UNL A   1      40.640  20.740  28.542  1.00  0.00    -0.206 F 
ATOM     88  C   UNL A   1      42.973  19.200  26.200  1.00  0.00     0.006 A 
ENDBRANCH  60  81
BRANCH  72  89
ATOM     89  C   UNL A   1      45.277  26.604  27.485  1.00  0.00     0.057 A 
ATOM     90  C   UNL A   1      44.314  27.054  26.553  1.00  0.00     0.134 A 
ATOM     91  C   UNL A   1      46.611  26.802  27.113  1.00  0.00     0.134 A 
ATOM     92  F   UNL A   1      43.000  27.030  26.813  1.00  0.00    -0.206 F 
ATOM     93  C   UNL A   1      44.666  27.570  25.299  1.00  0.00     0.040 A 
ATOM     94  C   UNL A   1      46.976  27.367  25.886  1.00  0.00     0.040 A 
ATOM     95  F   UNL A   1      47.600  26.448  27.949  1.00  0.00    -0.206 F 
ATOM     96  C   UNL A   1      46.003  27.728  24.961  1.00  0.00     0.006 A 
ENDBRANCH  72  89
ENDBRANCH  46  47
ENDBRANCH  39  41
ENDBRANCH  38  39
ENDBRANCH  37  38
ENDBRANCH  36  37
ENDBRANCH   1  36
TORSDOF 19
ENDMDL
MODEL 2
REMARK VINA RESULT:     -11.2      7.135      9.963
REMARK SMILES Cc1c(CC(=O)N[C@H](CO)C(=O)OCCOC(=O)c2ccc(-c3c4nc(c(-c5c(F)cccc5F)c5ccc([nH]5)c(-c5c(F)cccc5F)c5nc(c(-c6c(F)cccc6F)c6ccc3[nH]6)C=C5)C=C4)cc2)cc(-c2ccc(S(C)(=O)=O)cc2)n1-c1ccc(F)cc1
REMARK SMILES IDX 13 1 11 2 12 3 8 4 7 5 5 6 6 7 4 9 3 10 1 11 2 12 85 13
REMARK SMILES IDX 73 14 74 15 86 16 87 17 92 18 88 19 91 20 89 21 90 22 75 23
REMARK SMILES IDX 76 24 84 25 77 26 83 27 78 28 79 29 80 30 81 31 82 32 9 33
REMARK SMILES IDX 10 34 14 36 15 37 16 38 17 39 18 40 19 41 20 42 72 43 21 44
REMARK SMILES IDX 71 45 22 46 23 47 24 48 65 49 25 50 70 51 64 52 66 53 26 54
REMARK SMILES IDX 69 55 63 56 62 57 27 59 53 60 36 61 52 62 37 63 40 64 51 65
REMARK SMILES IDX 67 66 38 67 39 68 50 70 68 71 41 72 28 73 29 74 34 75 30 76
REMARK SMILES IDX 31 77 33 78 35 79 32 80 54 81 55 82 60 83 56 84 57 85 59 86
REMARK SMILES IDX 61 87 58 88 42 89 43 90 48 91 44 92 45 93 47 94 49 95 46 96
REMARK H PARENT 7 8 10 35 66 58 40 69
REMARK Flexibility Score: inf
ROOT
ATOM      1  O   UNL A   1      34.328  34.307  33.597  1.00  0.00    -0.460 OA
ENDROOT
BRANCH   1   2
ATOM      2  C   UNL A   1      34.312  35.484  32.910  1.00  0.00     0.331 C 
ATOM      3  O   UNL A   1      34.613  36.557  33.425  1.00  0.00    -0.250 OA
BRANCH   2   4
ATOM      4  C   UNL A   1      33.760  35.384  31.474  1.00  0.00     0.218 C 
BRANCH   4   5
ATOM      5  N   UNL A   1      34.693  35.018  30.370  1.00  0.00    -0.341 N 
ATOM      6  C   UNL A   1      35.076  33.849  29.795  1.00  0.00     0.225 C 
ATOM      7  O   UNL A   1      35.328  33.903  28.584  1.00  0.00    -0.275 OA
ATOM      8  H   UNL A   1      35.131  35.802  29.968  1.00  0.00     0.164 HD
BRANCH   6   9
ATOM      9  C   UNL A   1      35.311  32.560  30.570  1.00  0.00     0.137 C 
BRANCH   9  10
ATOM     10  C   UNL A   1      36.749  32.094  30.538  1.00  0.00    -0.017 A 
ATOM     11  C   UNL A   1      36.497  29.615  29.816  1.00  0.00     0.065 C 
ATOM     12  C   UNL A   1      37.254  30.866  30.130  1.00  0.00     0.024 A 
ATOM     13  N   UNL A   1      38.645  30.947  30.087  1.00  0.00    -0.314 N 
ATOM     14  C   UNL A   1      37.873  32.837  30.996  1.00  0.00     0.033 A 
ATOM     15  C   UNL A   1      39.033  32.212  30.553  1.00  0.00     0.053 A 
BRANCH  13  16
ATOM     16  C   UNL A   1      39.530  29.981  29.523  1.00  0.00     0.046 A 
ATOM     17  C   UNL A   1      39.587  29.814  28.131  1.00  0.00     0.029 A 
ATOM     18  C   UNL A   1      40.191  29.079  30.370  1.00  0.00     0.029 A 
ATOM     19  C   UNL A   1      40.275  28.726  27.593  1.00  0.00     0.041 A 
ATOM     20  C   UNL A   1      40.870  27.990  29.823  1.00  0.00     0.041 A 
ATOM     21  C   UNL A   1      40.896  27.819  28.443  1.00  0.00     0.123 A 
ATOM     22  F   UNL A   1      41.507  26.744  27.926  1.00  0.00    -0.207 F 
ENDBRANCH  13  16
BRANCH  15  23
ATOM     23  C   UNL A   1      40.350  32.857  30.310  1.00  0.00    -0.001 A 
ATOM     24  C   UNL A   1      40.413  34.080  29.613  1.00  0.00     0.011 A 
ATOM     25  C   UNL A   1      41.529  32.376  30.897  1.00  0.00     0.011 A 
ATOM     26  C   UNL A   1      41.601  34.801  29.492  1.00  0.00     0.021 A 
ATOM     27  C   UNL A   1      42.730  33.101  30.794  1.00  0.00     0.021 A 
ATOM     28  C   UNL A   1      42.754  34.313  30.097  1.00  0.00     0.067 A 
BRANCH  28  29
ATOM     29  S   UNL A   1      44.204  35.341  30.096  1.00  0.00     0.175 S 
ATOM     30  C   UNL A   1      43.649  36.902  30.729  1.00  0.00     0.163 C 
ATOM     31  O   UNL A   1      45.119  34.758  31.056  1.00  0.00    -0.224 OA
ATOM     32  O   UNL A   1      44.600  35.541  28.711  1.00  0.00    -0.224 OA
ENDBRANCH  28  29
ENDBRANCH  15  23
ENDBRANCH   9  10
ENDBRANCH   6   9
ENDBRANCH   4   5
BRANCH   4  33
ATOM     33  C   UNL A   1      33.030  36.668  31.024  1.00  0.00     0.193 C 
BRANCH  33  34
ATOM     34  O   UNL A   1      32.295  37.198  32.139  1.00  0.00    -0.394 OA
ATOM     35  H   UNL A   1      32.428  36.629  32.914  1.00  0.00     0.210 HD
ENDBRANCH  33  34
ENDBRANCH   4  33
ENDBRANCH   2   4
ENDBRANCH   1   2
BRANCH   1  36
ATOM     36  C   UNL A   1      35.542  34.107  34.345  1.00  0.00     0.274 C 
BRANCH  36  37
ATOM     37  C   UNL A   1      36.358  32.812  34.149  1.00  0.00     0.275 C 
BRANCH  37  38
ATOM     38  O   UNL A   1      37.097  32.244  35.272  1.00  0.00    -0.458 OA
BRANCH  38  39
ATOM     39  C   UNL A   1      38.332  32.802  35.480  1.00  0.00     0.338 C 
ATOM     40  O   UNL A   1      38.510  33.817  36.140  1.00  0.00    -0.246 OA
BRANCH  39  41
ATOM     41  C   UNL A   1      39.483  32.153  34.725  1.00  0.00     0.060 A 
ATOM     42  C   UNL A   1      39.332  30.932  34.080  1.00  0.00     0.016 A 
ATOM     43  C   UNL A   1      40.814  32.586  34.908  1.00  0.00     0.016 A 
ATOM     44  C   UNL A   1      40.481  30.183  33.642  1.00  0.00     0.010 A 
ATOM     45  C   UNL A   1      41.975  31.793  34.524  1.00  0.00     0.010 A 
ATOM     46  C   UNL A   1      41.861  30.534  33.904  1.00  0.00    -0.014 A 
BRANCH  46  47
ATOM     47  C   UNL A   1      42.907  29.308  34.075  1.00  0.00     0.031 A 
ATOM     48  C   UNL A   1      44.178  29.934  33.605  1.00  0.00     0.074 A 
ATOM     49  C   UNL A   1      43.019  27.950  34.390  1.00  0.00     0.049 A 
ATOM     50  N   UNL A   1      44.237  30.481  32.422  1.00  0.00    -0.248 NA
ATOM     51  C   UNL A   1      45.234  30.346  34.529  1.00  0.00     0.031 C 
ATOM     52  C   UNL A   1      41.950  27.003  34.750  1.00  0.00     0.029 A 
ATOM     53  N   UNL A   1      44.150  27.065  34.470  1.00  0.00    -0.354 N 
ATOM     54  C   UNL A   1      45.469  31.078  32.340  1.00  0.00     0.074 A 
ATOM     55  C   UNL A   1      45.923  31.162  33.722  1.00  0.00     0.031 C 
ATOM     56  C   UNL A   1      42.449  25.783  35.119  1.00  0.00     0.029 A 
ATOM     57  C   UNL A   1      43.906  25.736  34.986  1.00  0.00     0.049 A 
ATOM     58  H   UNL A   1      45.048  27.352  34.188  1.00  0.00     0.167 HD
ATOM     59  C   UNL A   1      46.202  30.762  31.234  1.00  0.00     0.037 A 
ATOM     60  C   UNL A   1      44.765  24.660  35.222  1.00  0.00     0.037 A 
ATOM     61  C   UNL A   1      47.184  29.753  31.519  1.00  0.00     0.049 A 
ATOM     62  C   UNL A   1      45.966  24.880  34.411  1.00  0.00     0.074 A 
ATOM     63  C   UNL A   1      48.080  29.586  32.556  1.00  0.00     0.029 A 
ATOM     64  N   UNL A   1      46.979  28.508  30.964  1.00  0.00    -0.354 N 
ATOM     65  N   UNL A   1      45.992  24.609  33.144  1.00  0.00    -0.248 NA
ATOM     66  C   UNL A   1      47.238  25.301  34.991  1.00  0.00     0.031 C 
ATOM     67  C   UNL A   1      47.923  28.235  32.930  1.00  0.00     0.029 A 
ATOM     68  C   UNL A   1      47.300  27.548  31.897  1.00  0.00     0.049 A 
ATOM     69  H   UNL A   1      46.656  28.333  30.051  1.00  0.00     0.167 HD
ATOM     70  C   UNL A   1      47.056  25.326  32.708  1.00  0.00     0.074 A 
ATOM     71  C   UNL A   1      47.927  25.462  33.859  1.00  0.00     0.031 C 
ATOM     72  C   UNL A   1      46.793  26.213  31.720  1.00  0.00     0.037 A 
BRANCH  59  73
ATOM     73  C   UNL A   1      45.443  30.847  29.945  1.00  0.00     0.057 A 
ATOM     74  C   UNL A   1      45.705  31.908  29.078  1.00  0.00     0.134 A 
ATOM     75  C   UNL A   1      44.392  29.979  29.594  1.00  0.00     0.134 A 
ATOM     76  F   UNL A   1      46.733  32.740  29.315  1.00  0.00    -0.206 F 
ATOM     77  C   UNL A   1      44.913  32.139  27.949  1.00  0.00     0.040 A 
ATOM     78  C   UNL A   1      43.559  30.233  28.506  1.00  0.00     0.040 A 
ATOM     79  F   UNL A   1      44.160  28.855  30.292  1.00  0.00    -0.206 F 
ATOM     80  C   UNL A   1      43.815  31.323  27.683  1.00  0.00     0.006 A 
ENDBRANCH  59  73
BRANCH  60  81
ATOM     81  C   UNL A   1      44.896  23.257  35.878  1.00  0.00     0.057 A 
ATOM     82  C   UNL A   1      44.774  22.056  35.095  1.00  0.00     0.134 A 
ATOM     83  C   UNL A   1      45.566  23.050  37.088  1.00  0.00     0.134 A 
ATOM     84  F   UNL A   1      44.115  22.040  33.930  1.00  0.00    -0.206 F 
ATOM     85  C   UNL A   1      45.374  20.822  35.419  1.00  0.00     0.040 A 
ATOM     86  C   UNL A   1      46.135  21.795  37.446  1.00  0.00     0.040 A 
ATOM     87  F   UNL A   1      45.773  24.074  37.925  1.00  0.00    -0.206 F 
ATOM     88  C   UNL A   1      46.080  20.691  36.597  1.00  0.00     0.006 A 
ENDBRANCH  60  81
BRANCH  72  89
ATOM     89  C   UNL A   1      45.837  25.754  30.632  1.00  0.00     0.057 A 
ATOM     90  C   UNL A   1      44.425  25.744  30.688  1.00  0.00     0.134 A 
ATOM     91  C   UNL A   1      46.397  25.189  29.480  1.00  0.00     0.134 A 
ATOM     92  F   UNL A   1      43.743  26.341  31.675  1.00  0.00    -0.206 F 
ATOM     93  C   UNL A   1      43.639  25.122  29.709  1.00  0.00     0.040 A 
ATOM     94  C   UNL A   1      45.619  24.614  28.468  1.00  0.00     0.040 A 
ATOM     95  F   UNL A   1      47.728  25.189  29.312  1.00  0.00    -0.206 F 
ATOM     96  C   UNL A   1      44.236  24.553  28.593  1.00  0.00     0.006 A 
ENDBRANCH  72  89
ENDBRANCH  46  47
ENDBRANCH  39  41
ENDBRANCH  38  39
ENDBRANCH  37  38
ENDBRANCH  36  37
ENDBRANCH   1  36
TORSDOF 19
ENDMDL
MODEL 3
REMARK VINA RESULT:     -10.7      5.649     11.418
REMARK SMILES Cc1c(CC(=O)N[C@H](CO)C(=O)OCCOC(=O)c2ccc(-c3c4nc(c(-c5c(F)cccc5F)c5ccc([nH]5)c(-c5c(F)cccc5F)c5nc(c(-c6c(F)cccc6F)c6ccc3[nH]6)C=C5)C=C4)cc2)cc(-c2ccc(S(C)(=O)=O)cc2)n1-c1ccc(F)cc1
REMARK SMILES IDX 13 1 11 2 12 3 8 4 7 5 5 6 6 7 4 9 3 10 1 11 2 12 85 13
REMARK SMILES IDX 73 14 74 15 86 16 87 17 92 18 88 19 91 20 89 21 90 22 75 23
REMARK SMILES IDX 76 24 84 25 77 26 83 27 78 28 79 29 80 30 81 31 82 32 9 33
REMARK SMILES IDX 10 34 14 36 15 37 16 38 17 39 18 40 19 41 20 42 72 43 21 44
REMARK SMILES IDX 71 45 22 46 23 47 24 48 65 49 25 50 70 51 64 52 66 53 26 54
REMARK SMILES IDX 69 55 63 56 62 57 27 59 53 60 36 61 52 62 37 63 40 64 51 65
REMARK SMILES IDX 67 66 38 67 39 68 50 70 68 71 41 72 28 73 29 74 34 75 30 76
REMARK SMILES IDX 31 77 33 78 35 79 32 80 54 81 55 82 60 83 56 84 57 85 59 86
REMARK SMILES IDX 61 87 58 88 42 89 43 90 48 91 44 92 45 93 47 94 49 95 46 96
REMARK H PARENT 7 8 10 35 66 58 40 69
REMARK Flexibility Score: inf
ROOT
ATOM      1  O   UNL A   1      46.280  27.727  37.445  1.00  0.00    -0.460 OA
ENDROOT
BRANCH   1   2
ATOM      2  C   UNL A   1      44.919  27.777  37.400  1.00  0.00     0.331 C 
ATOM      3  O   UNL A   1      44.269  28.670  37.936  1.00  0.00    -0.250 OA
BRANCH   2   4
ATOM      4  C   UNL A   1      44.252  26.556  36.736  1.00  0.00     0.218 C 
BRANCH   4   5
ATOM      5  N   UNL A   1      42.777  26.575  36.517  1.00  0.00    -0.341 N 
ATOM      6  C   UNL A   1      41.976  26.807  35.445  1.00  0.00     0.225 C 
ATOM      7  O   UNL A   1      40.920  26.162  35.413  1.00  0.00    -0.275 OA
ATOM      8  H   UNL A   1      42.268  26.375  37.335  1.00  0.00     0.164 HD
BRANCH   6   9
ATOM      9  C   UNL A   1      42.259  27.867  34.389  1.00  0.00     0.137 C 
BRANCH   9  10
ATOM     10  C   UNL A   1      41.175  28.916  34.285  1.00  0.00    -0.017 A 
ATOM     11  C   UNL A   1      41.890  30.612  36.112  1.00  0.00     0.065 C 
ATOM     12  C   UNL A   1      41.072  30.126  34.959  1.00  0.00     0.024 A 
ATOM     13  N   UNL A   1      40.017  30.853  34.411  1.00  0.00    -0.314 N 
ATOM     14  C   UNL A   1      39.995  28.814  33.496  1.00  0.00     0.033 A 
ATOM     15  C   UNL A   1      39.390  30.065  33.436  1.00  0.00     0.053 A 
BRANCH  13  16
ATOM     16  C   UNL A   1      39.710  32.222  34.671  1.00  0.00     0.046 A 
ATOM     17  C   UNL A   1      40.437  33.236  34.026  1.00  0.00     0.029 A 
ATOM     18  C   UNL A   1      38.820  32.541  35.707  1.00  0.00     0.029 A 
ATOM     19  C   UNL A   1      40.296  34.559  34.445  1.00  0.00     0.041 A 
ATOM     20  C   UNL A   1      38.692  33.866  36.123  1.00  0.00     0.041 A 
ATOM     21  C   UNL A   1      39.437  34.859  35.496  1.00  0.00     0.123 A 
ATOM     22  F   UNL A   1      39.347  36.122  35.933  1.00  0.00    -0.207 F 
ENDBRANCH  13  16
BRANCH  15  23
ATOM     23  C   UNL A   1      38.504  30.568  32.354  1.00  0.00    -0.001 A 
ATOM     24  C   UNL A   1      37.106  30.558  32.531  1.00  0.00     0.011 A 
ATOM     25  C   UNL A   1      39.015  31.215  31.219  1.00  0.00     0.011 A 
ATOM     26  C   UNL A   1      36.240  31.157  31.616  1.00  0.00     0.021 A 
ATOM     27  C   UNL A   1      38.153  31.834  30.297  1.00  0.00     0.021 A 
ATOM     28  C   UNL A   1      36.771  31.806  30.506  1.00  0.00     0.067 A 
BRANCH  28  29
ATOM     29  S   UNL A   1      35.666  32.727  29.462  1.00  0.00     0.175 S 
ATOM     30  C   UNL A   1      35.699  31.874  27.908  1.00  0.00     0.163 C 
ATOM     31  O   UNL A   1      34.344  32.581  30.036  1.00  0.00    -0.224 OA
ATOM     32  O   UNL A   1      36.251  34.043  29.257  1.00  0.00    -0.224 OA
ENDBRANCH  28  29
ENDBRANCH  15  23
ENDBRANCH   9  10
ENDBRANCH   6   9
ENDBRANCH   4   5
BRANCH   4  33
ATOM     33  C   UNL A   1      44.569  25.232  37.465  1.00  0.00     0.193 C 
BRANCH  33  34
ATOM     34  O   UNL A   1      43.334  24.602  37.839  1.00  0.00    -0.394 OA
ATOM     35  H   UNL A   1      42.624  25.264  37.853  1.00  0.00     0.210 HD
ENDBRANCH  33  34
ENDBRANCH   4  33
ENDBRANCH   2   4
ENDBRANCH   1   2
BRANCH   1  36
ATOM     36  C   UNL A   1      46.876  28.967  37.872  1.00  0.00     0.274 C 
BRANCH  36  37
ATOM     37  C   UNL A   1      47.785  29.753  36.905  1.00  0.00     0.275 C 
BRANCH  37  38
ATOM     38  O   UNL A   1      48.721  29.036  36.045  1.00  0.00    -0.458 OA
BRANCH  38  39
ATOM     39  C   UNL A   1      48.492  29.191  34.703  1.00  0.00     0.338 C 
ATOM     40  O   UNL A   1      48.686  30.240  34.103  1.00  0.00    -0.246 OA
BRANCH  39  41
ATOM     41  C   UNL A   1      47.847  28.003  34.004  1.00  0.00     0.060 A 
ATOM     42  C   UNL A   1      48.476  27.349  32.953  1.00  0.00     0.016 A 
ATOM     43  C   UNL A   1      46.474  27.716  34.167  1.00  0.00     0.016 A 
ATOM     44  C   UNL A   1      47.744  26.445  32.104  1.00  0.00     0.010 A 
ATOM     45  C   UNL A   1      45.722  26.853  33.264  1.00  0.00     0.010 A 
ATOM     46  C   UNL A   1      46.318  26.205  32.166  1.00  0.00    -0.014 A 
BRANCH  46  47
ATOM     47  C   UNL A   1      45.574  25.857  30.769  1.00  0.00     0.031 A 
ATOM     48  C   UNL A   1      45.934  27.043  29.937  1.00  0.00     0.074 A 
ATOM     49  C   UNL A   1      44.702  24.961  30.142  1.00  0.00     0.049 A 
ATOM     50  N   UNL A   1      45.663  28.246  30.364  1.00  0.00    -0.248 NA
ATOM     51  C   UNL A   1      46.938  26.977  28.875  1.00  0.00     0.031 C 
ATOM     52  C   UNL A   1      44.044  23.773  30.713  1.00  0.00     0.029 A 
ATOM     53  N   UNL A   1      44.182  24.893  28.803  1.00  0.00    -0.354 N 
ATOM     54  C   UNL A   1      46.229  29.107  29.459  1.00  0.00     0.074 A 
ATOM     55  C   UNL A   1      47.179  28.284  28.721  1.00  0.00     0.031 C 
ATOM     56  C   UNL A   1      43.359  23.061  29.765  1.00  0.00     0.029 A 
ATOM     57  C   UNL A   1      43.412  23.718  28.459  1.00  0.00     0.049 A 
ATOM     58  H   UNL A   1      44.343  25.613  28.151  1.00  0.00     0.167 HD
ATOM     59  C   UNL A   1      45.400  30.073  28.970  1.00  0.00     0.037 A 
ATOM     60  C   UNL A   1      42.803  23.325  27.264  1.00  0.00     0.037 A 
ATOM     61  C   UNL A   1      44.888  29.727  27.673  1.00  0.00     0.049 A 
ATOM     62  C   UNL A   1      42.630  24.531  26.450  1.00  0.00     0.074 A 
ATOM     63  C   UNL A   1      45.483  29.212  26.540  1.00  0.00     0.029 A 
ATOM     64  N   UNL A   1      43.546  29.422  27.594  1.00  0.00    -0.354 N 
ATOM     65  N   UNL A   1      41.657  25.361  26.660  1.00  0.00    -0.248 NA
ATOM     66  C   UNL A   1      43.459  24.816  25.282  1.00  0.00     0.031 C 
ATOM     67  C   UNL A   1      44.621  28.167  26.145  1.00  0.00     0.029 A 
ATOM     68  C   UNL A   1      43.384  28.347  26.750  1.00  0.00     0.049 A 
ATOM     69  H   UNL A   1      42.821  29.895  28.063  1.00  0.00     0.167 HD
ATOM     70  C   UNL A   1      42.086  26.486  26.038  1.00  0.00     0.074 A 
ATOM     71  C   UNL A   1      42.986  26.031  24.996  1.00  0.00     0.031 C 
ATOM     72  C   UNL A   1      42.163  27.588  26.819  1.00  0.00     0.037 A 
BRANCH  59  73
ATOM     73  C   UNL A   1      44.604  30.792  30.017  1.00  0.00     0.057 A 
ATOM     74  C   UNL A   1      45.024  32.057  30.432  1.00  0.00     0.134 A 
ATOM     75  C   UNL A   1      43.510  30.226  30.698  1.00  0.00     0.134 A 
ATOM     76  F   UNL A   1      46.020  32.686  29.788  1.00  0.00    -0.206 F 
ATOM     77  C   UNL A   1      44.430  32.700  31.522  1.00  0.00     0.040 A 
ATOM     78  C   UNL A   1      42.950  30.829  31.821  1.00  0.00     0.040 A 
ATOM     79  F   UNL A   1      42.951  29.079  30.277  1.00  0.00    -0.206 F 
ATOM     80  C   UNL A   1      43.416  32.069  32.241  1.00  0.00     0.006 A 
ENDBRANCH  59  73
BRANCH  60  81
ATOM     81  C   UNL A   1      42.103  22.155  26.518  1.00  0.00     0.057 A 
ATOM     82  C   UNL A   1      42.865  21.076  25.946  1.00  0.00     0.134 A 
ATOM     83  C   UNL A   1      40.762  21.819  26.731  1.00  0.00     0.134 A 
ATOM     84  F   UNL A   1      44.154  21.222  25.618  1.00  0.00    -0.206 F 
ATOM     85  C   UNL A   1      42.377  19.769  25.743  1.00  0.00     0.040 A 
ATOM     86  C   UNL A   1      40.249  20.513  26.484  1.00  0.00     0.040 A 
ATOM     87  F   UNL A   1      39.923  22.712  27.271  1.00  0.00    -0.206 F 
ATOM     88  C   UNL A   1      41.061  19.475  26.032  1.00  0.00     0.006 A 
ENDBRANCH  60  81
BRANCH  72  89
ATOM     89  C   UNL A   1      41.035  27.795  27.815  1.00  0.00     0.057 A 
ATOM     90  C   UNL A   1      40.886  27.169  29.074  1.00  0.00     0.134 A 
ATOM     91  C   UNL A   1      39.973  28.618  27.423  1.00  0.00     0.134 A 
ATOM     92  F   UNL A   1      41.861  26.439  29.631  1.00  0.00    -0.206 F 
ATOM     93  C   UNL A   1      39.713  27.281  29.833  1.00  0.00     0.040 A 
ATOM     94  C   UNL A   1      38.819  28.781  28.199  1.00  0.00     0.040 A 
ATOM     95  F   UNL A   1      40.038  29.291  26.264  1.00  0.00    -0.206 F 
ATOM     96  C   UNL A   1      38.674  28.089  29.396  1.00  0.00     0.006 A 
ENDBRANCH  72  89
ENDBRANCH  46  47
ENDBRANCH  39  41
ENDBRANCH  38  39
ENDBRANCH  37  38
ENDBRANCH  36  37
ENDBRANCH   1  36
TORSDOF 19
ENDMDL
