MODEL 1
REMARK VINA RESULT:     -10.8      0.000      0.000
REMARK SMILES O=C(CS[C@@H]1CCS(=O)(=O)C1)Nc1nc(CC(=O)OCCOC(=O)c2ccc(-c3c4nc(c(-c5c(F)cccc5F)c5ccc([nH]5)c(-c5c(F)cccc5F)c5nc(c(-c6c(F)cccc6F)c6ccc3[nH]6)C=C5)C=C4)cc2)cs1
REMARK SMILES IDX 19 1 17 2 18 3 16 4 15 5 13 6 14 7 80 8 79 9 12 10 1 11 2 12
REMARK SMILES IDX 3 14 4 15 5 16 6 17 11 18 7 19 8 20 9 21 10 22 20 23 21 24
REMARK SMILES IDX 22 25 23 26 24 27 25 28 26 29 78 30 27 31 77 32 28 33 29 34
REMARK SMILES IDX 30 35 71 36 31 37 76 38 70 39 72 40 32 41 75 42 69 43 68 44
REMARK SMILES IDX 33 46 59 47 42 48 58 49 43 50 46 51 57 52 73 53 44 54 45 55
REMARK SMILES IDX 56 57 74 58 47 59 34 60 35 61 40 62 36 63 37 64 39 65 41 66
REMARK SMILES IDX 38 67 60 68 61 69 66 70 62 71 63 72 65 73 67 74 64 75 48 76
REMARK SMILES IDX 49 77 54 78 50 79 51 80 53 81 55 82 52 83
REMARK H PARENT 12 13 72 45 46 56
REMARK Flexibility Score: inf
ROOT
ATOM      1  O   UNL A   1      42.078  21.991  25.375  1.00  0.00    -0.462 OA
ENDROOT
BRANCH   1   2
ATOM      2  C   UNL A   1      41.425  21.624  26.509  1.00  0.00     0.312 C 
ATOM      3  O   UNL A   1      41.766  20.696  27.237  1.00  0.00    -0.252 OA
BRANCH   2   4
ATOM      4  C   UNL A   1      40.192  22.443  26.797  1.00  0.00     0.179 C 
BRANCH   4   5
ATOM      5  C   UNL A   1      38.948  22.019  26.094  1.00  0.00     0.065 A 
ATOM      6  C   UNL A   1      36.949  22.469  25.284  1.00  0.00     0.189 A 
ATOM      7  N   UNL A   1      37.971  22.980  25.915  1.00  0.00    -0.224 NA
ATOM      8  S   UNL A   1      37.045  20.814  24.901  1.00  0.00    -0.105 S 
ATOM      9  C   UNL A   1      38.652  20.798  25.513  1.00  0.00     0.093 A 
BRANCH   6  10
ATOM     10  N   UNL A   1      35.818  23.108  24.863  1.00  0.00    -0.301 N 
ATOM     11  O   UNL A   1      36.357  23.029  22.599  1.00  0.00    -0.274 OA
ATOM     12  C   UNL A   1      35.625  23.378  23.524  1.00  0.00     0.236 C 
ATOM     13  H   UNL A   1      35.135  23.376  25.520  1.00  0.00     0.172 HD
BRANCH  12  14
ATOM     14  C   UNL A   1      34.388  24.191  23.208  1.00  0.00     0.170 C 
BRANCH  14  15
ATOM     15  S   UNL A   1      32.821  23.408  23.690  1.00  0.00    -0.148 SA
BRANCH  15  16
ATOM     16  C   UNL A   1      32.116  24.641  24.873  1.00  0.00     0.063 C 
ATOM     17  C   UNL A   1      32.904  24.539  26.193  1.00  0.00     0.031 C 
ATOM     18  C   UNL A   1      30.672  24.374  25.298  1.00  0.00     0.151 C 
ATOM     19  C   UNL A   1      32.479  23.243  26.891  1.00  0.00     0.138 C 
ATOM     20  S   UNL A   1      30.767  23.001  26.430  1.00  0.00     0.151 S 
ATOM     21  O   UNL A   1      30.655  21.778  25.659  1.00  0.00    -0.229 OA
ATOM     22  O   UNL A   1      29.920  23.277  27.570  1.00  0.00    -0.229 OA
ENDBRANCH  15  16
ENDBRANCH  14  15
ENDBRANCH  12  14
ENDBRANCH   6  10
ENDBRANCH   4   5
ENDBRANCH   2   4
ENDBRANCH   1   2
BRANCH   1  23
ATOM     23  C   UNL A   1      43.514  21.891  25.409  1.00  0.00     0.274 C 
BRANCH  23  24
ATOM     24  C   UNL A   1      44.157  22.936  24.499  1.00  0.00     0.275 C 
BRANCH  24  25
ATOM     25  O   UNL A   1      43.511  24.211  24.670  1.00  0.00    -0.458 OA
BRANCH  25  26
ATOM     26  C   UNL A   1      44.298  25.211  25.123  1.00  0.00     0.338 C 
ATOM     27  O   UNL A   1      45.405  25.534  24.727  1.00  0.00    -0.246 OA
BRANCH  26  28
ATOM     28  C   UNL A   1      43.606  25.929  26.199  1.00  0.00     0.060 A 
ATOM     29  C   UNL A   1      43.943  27.256  26.478  1.00  0.00     0.016 A 
ATOM     30  C   UNL A   1      42.706  25.239  27.010  1.00  0.00     0.016 A 
ATOM     31  C   UNL A   1      43.393  27.896  27.586  1.00  0.00     0.010 A 
ATOM     32  C   UNL A   1      42.127  25.892  28.099  1.00  0.00     0.010 A 
ATOM     33  C   UNL A   1      42.479  27.218  28.407  1.00  0.00    -0.014 A 
BRANCH  33  34
ATOM     34  C   UNL A   1      41.908  27.876  29.607  1.00  0.00     0.031 A 
ATOM     35  C   UNL A   1      40.659  28.703  29.487  1.00  0.00     0.074 A 
ATOM     36  C   UNL A   1      42.524  27.752  30.797  1.00  0.00     0.049 A 
ATOM     37  N   UNL A   1      40.088  29.473  30.377  1.00  0.00    -0.248 NA
ATOM     38  C   UNL A   1      39.967  28.663  28.190  1.00  0.00     0.031 C 
ATOM     39  C   UNL A   1      43.722  26.952  31.051  1.00  0.00     0.029 A 
ATOM     40  N   UNL A   1      42.232  28.315  32.014  1.00  0.00    -0.354 N 
ATOM     41  C   UNL A   1      38.984  30.030  29.744  1.00  0.00     0.074 A 
ATOM     42  C   UNL A   1      38.974  29.520  28.389  1.00  0.00     0.031 C 
ATOM     43  C   UNL A   1      44.065  27.076  32.343  1.00  0.00     0.029 A 
ATOM     44  C   UNL A   1      43.145  28.004  32.992  1.00  0.00     0.049 A 
ATOM     45  H   UNL A   1      41.444  28.884  32.171  1.00  0.00     0.167 HD
ATOM     46  C   UNL A   1      38.064  30.885  30.249  1.00  0.00     0.037 A 
ATOM     47  C   UNL A   1      43.248  28.447  34.259  1.00  0.00     0.037 A 
ATOM     48  C   UNL A   1      38.065  31.375  31.602  1.00  0.00     0.049 A 
ATOM     49  C   UNL A   1      42.244  29.436  34.780  1.00  0.00     0.074 A 
ATOM     50  C   UNL A   1      37.166  32.232  32.212  1.00  0.00     0.029 A 
ATOM     51  N   UNL A   1      39.015  31.047  32.558  1.00  0.00    -0.354 N 
ATOM     52  N   UNL A   1      41.211  29.964  34.170  1.00  0.00    -0.248 NA
ATOM     53  C   UNL A   1      42.426  29.900  36.163  1.00  0.00     0.031 C 
ATOM     54  C   UNL A   1      37.589  32.450  33.527  1.00  0.00     0.029 A 
ATOM     55  C   UNL A   1      38.731  31.697  33.748  1.00  0.00     0.049 A 
ATOM     56  H   UNL A   1      39.778  30.442  32.413  1.00  0.00     0.167 HD
ATOM     57  C   UNL A   1      40.608  30.802  35.098  1.00  0.00     0.074 A 
ATOM     58  C   UNL A   1      41.383  30.703  36.317  1.00  0.00     0.031 C 
ATOM     59  C   UNL A   1      39.511  31.584  34.953  1.00  0.00     0.037 A 
BRANCH  46  60
ATOM     60  C   UNL A   1      36.986  31.366  29.324  1.00  0.00     0.057 A 
ATOM     61  C   UNL A   1      35.889  30.564  28.985  1.00  0.00     0.134 A 
ATOM     62  C   UNL A   1      37.026  32.663  28.796  1.00  0.00     0.134 A 
ATOM     63  F   UNL A   1      35.797  29.308  29.448  1.00  0.00    -0.206 F 
ATOM     64  C   UNL A   1      34.878  31.030  28.141  1.00  0.00     0.040 A 
ATOM     65  C   UNL A   1      36.012  33.147  27.969  1.00  0.00     0.040 A 
ATOM     66  F   UNL A   1      38.048  33.484  29.085  1.00  0.00    -0.206 F 
ATOM     67  C   UNL A   1      34.936  32.328  27.636  1.00  0.00     0.006 A 
ENDBRANCH  46  60
BRANCH  47  68
ATOM     68  C   UNL A   1      44.361  27.975  35.119  1.00  0.00     0.057 A 
ATOM     69  C   UNL A   1      44.322  26.716  35.726  1.00  0.00     0.134 A 
ATOM     70  C   UNL A   1      45.485  28.774  35.360  1.00  0.00     0.134 A 
ATOM     71  F   UNL A   1      43.259  25.917  35.551  1.00  0.00    -0.206 F 
ATOM     72  C   UNL A   1      45.355  26.270  36.552  1.00  0.00     0.040 A 
ATOM     73  C   UNL A   1      46.537  28.332  36.163  1.00  0.00     0.040 A 
ATOM     74  F   UNL A   1      45.583  29.992  34.807  1.00  0.00    -0.206 F 
ATOM     75  C   UNL A   1      46.470  27.078  36.767  1.00  0.00     0.006 A 
ENDBRANCH  47  68
BRANCH  59  76
ATOM     76  C   UNL A   1      39.068  32.366  36.153  1.00  0.00     0.057 A 
ATOM     77  C   UNL A   1      38.234  31.808  37.130  1.00  0.00     0.134 A 
ATOM     78  C   UNL A   1      39.506  33.682  36.348  1.00  0.00     0.134 A 
ATOM     79  F   UNL A   1      37.769  30.557  36.993  1.00  0.00    -0.206 F 
ATOM     80  C   UNL A   1      37.835  32.540  38.250  1.00  0.00     0.040 A 
ATOM     81  C   UNL A   1      39.133  34.415  37.474  1.00  0.00     0.040 A 
ATOM     82  F   UNL A   1      40.312  34.271  35.451  1.00  0.00    -0.206 F 
ATOM     83  C   UNL A   1      38.291  33.845  38.428  1.00  0.00     0.006 A 
ENDBRANCH  59  76
ENDBRANCH  33  34
ENDBRANCH  26  28
ENDBRANCH  25  26
ENDBRANCH  24  25
ENDBRANCH  23  24
ENDBRANCH   1  23
TORSDOF 16
ENDMDL
MODEL 2
REMARK VINA RESULT:     -10.5      4.861     10.121
REMARK SMILES O=C(CS[C@@H]1CCS(=O)(=O)C1)Nc1nc(CC(=O)OCCOC(=O)c2ccc(-c3c4nc(c(-c5c(F)cccc5F)c5ccc([nH]5)c(-c5c(F)cccc5F)c5nc(c(-c6c(F)cccc6F)c6ccc3[nH]6)C=C5)C=C4)cc2)cs1
REMARK SMILES IDX 19 1 17 2 18 3 16 4 15 5 13 6 14 7 80 8 79 9 12 10 1 11 2 12
REMARK SMILES IDX 3 14 4 15 5 16 6 17 11 18 7 19 8 20 9 21 10 22 20 23 21 24
REMARK SMILES IDX 22 25 23 26 24 27 25 28 26 29 78 30 27 31 77 32 28 33 29 34
REMARK SMILES IDX 30 35 71 36 31 37 76 38 70 39 72 40 32 41 75 42 69 43 68 44
REMARK SMILES IDX 33 46 59 47 42 48 58 49 43 50 46 51 57 52 73 53 44 54 45 55
REMARK SMILES IDX 56 57 74 58 47 59 34 60 35 61 40 62 36 63 37 64 39 65 41 66
REMARK SMILES IDX 38 67 60 68 61 69 66 70 62 71 63 72 65 73 67 74 64 75 48 76
REMARK SMILES IDX 49 77 54 78 50 79 51 80 53 81 55 82 52 83
REMARK H PARENT 12 13 72 45 46 56
REMARK Flexibility Score: inf
ROOT
ATOM      1  O   UNL A   1      34.669  34.475  29.140  1.00  0.00    -0.462 OA
ENDROOT
BRANCH   1   2
ATOM      2  C   UNL A   1      34.765  33.151  29.431  1.00  0.00     0.312 C 
ATOM      3  O   UNL A   1      34.239  32.614  30.402  1.00  0.00    -0.252 OA
BRANCH   2   4
ATOM      4  C   UNL A   1      35.621  32.372  28.464  1.00  0.00     0.179 C 
BRANCH   4   5
ATOM      5  C   UNL A   1      35.001  31.145  27.887  1.00  0.00     0.065 A 
ATOM      6  C   UNL A   1      33.337  30.137  26.852  1.00  0.00     0.189 A 
ATOM      7  N   UNL A   1      33.749  31.285  27.317  1.00  0.00    -0.224 NA
ATOM      8  S   UNL A   1      34.368  28.806  27.097  1.00  0.00    -0.105 S 
ATOM      9  C   UNL A   1      35.537  29.875  27.768  1.00  0.00     0.093 A 
BRANCH   6  10
ATOM     10  N   UNL A   1      32.188  29.874  26.163  1.00  0.00    -0.301 N 
ATOM     11  O   UNL A   1      33.256  29.291  24.179  1.00  0.00    -0.274 OA
ATOM     12  C   UNL A   1      32.238  29.501  24.837  1.00  0.00     0.236 C 
ATOM     13  H   UNL A   1      31.317  29.952  26.617  1.00  0.00     0.172 HD
BRANCH  12  14
ATOM     14  C   UNL A   1      30.891  29.352  24.163  1.00  0.00     0.170 C 
BRANCH  14  15
ATOM     15  S   UNL A   1      29.780  30.775  24.363  1.00  0.00    -0.148 SA
BRANCH  15  16
ATOM     16  C   UNL A   1      28.304  30.261  23.376  1.00  0.00     0.063 C 
ATOM     17  C   UNL A   1      28.805  29.661  22.048  1.00  0.00     0.031 C 
ATOM     18  C   UNL A   1      27.396  31.407  22.930  1.00  0.00     0.151 C 
ATOM     19  C   UNL A   1      29.307  30.816  21.175  1.00  0.00     0.138 C 
ATOM     20  S   UNL A   1      28.282  32.216  21.612  1.00  0.00     0.151 S 
ATOM     21  O   UNL A   1      29.115  33.246  22.199  1.00  0.00    -0.229 OA
ATOM     22  O   UNL A   1      27.359  32.490  20.531  1.00  0.00    -0.229 OA
ENDBRANCH  15  16
ENDBRANCH  14  15
ENDBRANCH  12  14
ENDBRANCH   6  10
ENDBRANCH   4   5
ENDBRANCH   2   4
ENDBRANCH   1   2
BRANCH   1  23
ATOM     23  C   UNL A   1      33.346  34.969  28.860  1.00  0.00     0.274 C 
BRANCH  23  24
ATOM     24  C   UNL A   1      32.915  36.001  29.901  1.00  0.00     0.275 C 
BRANCH  24  25
ATOM     25  O   UNL A   1      32.416  35.342  31.080  1.00  0.00    -0.458 OA
BRANCH  25  26
ATOM     26  C   UNL A   1      32.810  35.872  32.258  1.00  0.00     0.338 C 
ATOM     27  O   UNL A   1      32.295  36.786  32.879  1.00  0.00    -0.246 OA
BRANCH  26  28
ATOM     28  C   UNL A   1      33.990  35.152  32.749  1.00  0.00     0.060 A 
ATOM     29  C   UNL A   1      35.268  35.641  32.468  1.00  0.00     0.016 A 
ATOM     30  C   UNL A   1      33.822  33.923  33.386  1.00  0.00     0.016 A 
ATOM     31  C   UNL A   1      36.391  34.888  32.807  1.00  0.00     0.010 A 
ATOM     32  C   UNL A   1      34.948  33.187  33.758  1.00  0.00     0.010 A 
ATOM     33  C   UNL A   1      36.240  33.654  33.456  1.00  0.00    -0.014 A 
BRANCH  33  34
ATOM     34  C   UNL A   1      37.423  32.828  33.796  1.00  0.00     0.031 A 
ATOM     35  C   UNL A   1      38.177  33.085  35.071  1.00  0.00     0.074 A 
ATOM     36  C   UNL A   1      37.837  31.867  32.950  1.00  0.00     0.049 A 
ATOM     37  N   UNL A   1      39.312  32.579  35.478  1.00  0.00    -0.248 NA
ATOM     38  C   UNL A   1      37.574  34.046  36.008  1.00  0.00     0.031 C 
ATOM     39  C   UNL A   1      37.175  31.498  31.699  1.00  0.00     0.029 A 
ATOM     40  N   UNL A   1      38.927  31.035  33.011  1.00  0.00    -0.354 N 
ATOM     41  C   UNL A   1      39.575  33.176  36.704  1.00  0.00     0.074 A 
ATOM     42  C   UNL A   1      38.487  34.093  36.969  1.00  0.00     0.031 C 
ATOM     43  C   UNL A   1      37.872  30.516  31.108  1.00  0.00     0.029 A 
ATOM     44  C   UNL A   1      39.056  30.224  31.910  1.00  0.00     0.049 A 
ATOM     45  H   UNL A   1      39.554  31.021  33.769  1.00  0.00     0.167 HD
ATOM     46  C   UNL A   1      40.627  32.974  37.533  1.00  0.00     0.037 A 
ATOM     47  C   UNL A   1      40.038  29.368  31.570  1.00  0.00     0.037 A 
ATOM     48  C   UNL A   1      41.698  32.047  37.276  1.00  0.00     0.049 A 
ATOM     49  C   UNL A   1      41.221  29.200  32.481  1.00  0.00     0.074 A 
ATOM     50  C   UNL A   1      42.799  31.759  38.064  1.00  0.00     0.029 A 
ATOM     51  N   UNL A   1      41.799  31.253  36.143  1.00  0.00    -0.354 N 
ATOM     52  N   UNL A   1      41.464  29.777  33.633  1.00  0.00    -0.248 NA
ATOM     53  C   UNL A   1      42.270  28.270  32.041  1.00  0.00     0.031 C 
ATOM     54  C   UNL A   1      43.585  30.817  37.392  1.00  0.00     0.029 A 
ATOM     55  C   UNL A   1      42.952  30.488  36.204  1.00  0.00     0.049 A 
ATOM     56  H   UNL A   1      41.148  31.236  35.405  1.00  0.00     0.167 HD
ATOM     57  C   UNL A   1      42.679  29.264  34.066  1.00  0.00     0.074 A 
ATOM     58  C   UNL A   1      43.119  28.320  33.058  1.00  0.00     0.031 C 
ATOM     59  C   UNL A   1      43.371  29.550  35.195  1.00  0.00     0.037 A 
BRANCH  46  60
ATOM     60  C   UNL A   1      40.684  33.789  38.790  1.00  0.00     0.057 A 
ATOM     61  C   UNL A   1      41.402  34.989  38.863  1.00  0.00     0.134 A 
ATOM     62  C   UNL A   1      39.978  33.387  39.932  1.00  0.00     0.134 A 
ATOM     63  F   UNL A   1      42.108  35.423  37.808  1.00  0.00    -0.206 F 
ATOM     64  C   UNL A   1      41.429  35.752  40.032  1.00  0.00     0.040 A 
ATOM     65  C   UNL A   1      39.980  34.152  41.099  1.00  0.00     0.040 A 
ATOM     66  F   UNL A   1      39.267  32.249  39.927  1.00  0.00    -0.206 F 
ATOM     67  C   UNL A   1      40.712  35.337  41.152  1.00  0.00     0.006 A 
ENDBRANCH  46  60
BRANCH  47  68
ATOM     68  C   UNL A   1      39.956  28.620  30.291  1.00  0.00     0.057 A 
ATOM     69  C   UNL A   1      40.559  29.109  29.128  1.00  0.00     0.134 A 
ATOM     70  C   UNL A   1      39.267  27.405  30.200  1.00  0.00     0.134 A 
ATOM     71  F   UNL A   1      41.211  30.281  29.149  1.00  0.00    -0.206 F 
ATOM     72  C   UNL A   1      40.471  28.423  27.915  1.00  0.00     0.040 A 
ATOM     73  C   UNL A   1      39.192  26.695  29.001  1.00  0.00     0.040 A 
ATOM     74  F   UNL A   1      38.668  26.882  31.281  1.00  0.00    -0.206 F 
ATOM     75  C   UNL A   1      39.791  27.208  27.852  1.00  0.00     0.006 A 
ENDBRANCH  47  68
BRANCH  59  76
ATOM     76  C   UNL A   1      44.655  28.809  35.415  1.00  0.00     0.057 A 
ATOM     77  C   UNL A   1      45.883  29.313  34.969  1.00  0.00     0.134 A 
ATOM     78  C   UNL A   1      44.666  27.592  36.108  1.00  0.00     0.134 A 
ATOM     79  F   UNL A   1      45.937  30.466  34.287  1.00  0.00    -0.206 F 
ATOM     80  C   UNL A   1      47.076  28.621  35.189  1.00  0.00     0.040 A 
ATOM     81  C   UNL A   1      45.854  26.902  36.353  1.00  0.00     0.040 A 
ATOM     82  F   UNL A   1      43.523  27.059  36.566  1.00  0.00    -0.206 F 
ATOM     83  C   UNL A   1      47.064  27.415  35.888  1.00  0.00     0.006 A 
ENDBRANCH  59  76
ENDBRANCH  33  34
ENDBRANCH  26  28
ENDBRANCH  25  26
ENDBRANCH  24  25
ENDBRANCH  23  24
ENDBRANCH   1  23
TORSDOF 16
ENDMDL
MODEL 3
REMARK VINA RESULT:     -10.4      5.578     11.023
REMARK SMILES O=C(CS[C@@H]1CCS(=O)(=O)C1)Nc1nc(CC(=O)OCCOC(=O)c2ccc(-c3c4nc(c(-c5c(F)cccc5F)c5ccc([nH]5)c(-c5c(F)cccc5F)c5nc(c(-c6c(F)cccc6F)c6ccc3[nH]6)C=C5)C=C4)cc2)cs1
REMARK SMILES IDX 19 1 17 2 18 3 16 4 15 5 13 6 14 7 80 8 79 9 12 10 1 11 2 12
REMARK SMILES IDX 3 14 4 15 5 16 6 17 11 18 7 19 8 20 9 21 10 22 20 23 21 24
REMARK SMILES IDX 22 25 23 26 24 27 25 28 26 29 78 30 27 31 77 32 28 33 29 34
REMARK SMILES IDX 30 35 71 36 31 37 76 38 70 39 72 40 32 41 75 42 69 43 68 44
REMARK SMILES IDX 33 46 59 47 42 48 58 49 43 50 46 51 57 52 73 53 44 54 45 55
REMARK SMILES IDX 56 57 74 58 47 59 34 60 35 61 40 62 36 63 37 64 39 65 41 66
REMARK SMILES IDX 38 67 60 68 61 69 66 70 62 71 63 72 65 73 67 74 64 75 48 76
REMARK SMILES IDX 49 77 54 78 50 79 51 80 53 81 55 82 52 83
REMARK H PARENT 12 13 72 45 46 56
REMARK Flexibility Score: inf
ROOT
ATOM      1  O   UNL A   1      33.744  35.284  32.034  1.00  0.00    -0.462 OA
ENDROOT
BRANCH   1   2
ATOM      2  C   UNL A   1      32.985  36.352  31.673  1.00  0.00     0.312 C 
ATOM      3  O   UNL A   1      32.317  37.025  32.454  1.00  0.00    -0.252 OA
BRANCH   2   4
ATOM      4  C   UNL A   1      32.995  36.638  30.192  1.00  0.00     0.179 C 
BRANCH   4   5
ATOM      5  C   UNL A   1      33.567  35.567  29.326  1.00  0.00     0.065 A 
ATOM      6  C   UNL A   1      33.355  33.678  28.212  1.00  0.00     0.189 A 
ATOM      7  N   UNL A   1      32.723  34.532  28.970  1.00  0.00    -0.224 NA
ATOM      8  S   UNL A   1      34.996  34.006  27.906  1.00  0.00    -0.105 S 
ATOM      9  C   UNL A   1      34.824  35.494  28.751  1.00  0.00     0.093 A 
BRANCH   6  10
ATOM     10  N   UNL A   1      32.853  32.563  27.605  1.00  0.00    -0.301 N 
ATOM     11  O   UNL A   1      34.533  31.136  28.356  1.00  0.00    -0.274 OA
ATOM     12  C   UNL A   1      33.520  31.359  27.696  1.00  0.00     0.236 C 
ATOM     13  H   UNL A   1      32.010  32.619  27.101  1.00  0.00     0.172 HD
BRANCH  12  14
ATOM     14  C   UNL A   1      32.917  30.232  26.883  1.00  0.00     0.170 C 
BRANCH  14  15
ATOM     15  S   UNL A   1      33.906  28.709  26.845  1.00  0.00    -0.148 SA
BRANCH  15  16
ATOM     16  C   UNL A   1      32.626  27.420  26.506  1.00  0.00     0.063 C 
ATOM     17  C   UNL A   1      33.340  26.173  25.950  1.00  0.00     0.031 C 
ATOM     18  C   UNL A   1      31.626  27.778  25.406  1.00  0.00     0.151 C 
ATOM     19  C   UNL A   1      33.774  26.486  24.515  1.00  0.00     0.138 C 
ATOM     20  S   UNL A   1      32.532  27.606  23.881  1.00  0.00     0.151 S 
ATOM     21  O   UNL A   1      33.153  28.881  23.584  1.00  0.00    -0.229 OA
ATOM     22  O   UNL A   1      31.702  26.909  22.923  1.00  0.00    -0.229 OA
ENDBRANCH  15  16
ENDBRANCH  14  15
ENDBRANCH  12  14
ENDBRANCH   6  10
ENDBRANCH   4   5
ENDBRANCH   2   4
ENDBRANCH   1   2
BRANCH   1  23
ATOM     23  C   UNL A   1      34.706  35.514  33.081  1.00  0.00     0.274 C 
BRANCH  23  24
ATOM     24  C   UNL A   1      36.077  34.965  32.694  1.00  0.00     0.275 C 
BRANCH  24  25
ATOM     25  O   UNL A   1      35.942  33.959  31.672  1.00  0.00    -0.458 OA
BRANCH  25  26
ATOM     26  C   UNL A   1      35.948  32.680  32.105  1.00  0.00     0.338 C 
ATOM     27  O   UNL A   1      35.146  32.132  32.841  1.00  0.00    -0.246 OA
BRANCH  26  28
ATOM     28  C   UNL A   1      37.093  31.972  31.521  1.00  0.00     0.060 A 
ATOM     29  C   UNL A   1      38.033  31.363  32.357  1.00  0.00     0.016 A 
ATOM     30  C   UNL A   1      37.294  32.021  30.142  1.00  0.00     0.016 A 
ATOM     31  C   UNL A   1      39.193  30.814  31.816  1.00  0.00     0.010 A 
ATOM     32  C   UNL A   1      38.439  31.438  29.597  1.00  0.00     0.010 A 
ATOM     33  C   UNL A   1      39.406  30.848  30.430  1.00  0.00    -0.014 A 
BRANCH  33  34
ATOM     34  C   UNL A   1      40.650  30.295  29.842  1.00  0.00     0.031 A 
ATOM     35  C   UNL A   1      41.841  31.186  29.630  1.00  0.00     0.074 A 
ATOM     36  C   UNL A   1      40.702  29.001  29.476  1.00  0.00     0.049 A 
ATOM     37  N   UNL A   1      42.961  30.936  29.001  1.00  0.00    -0.248 NA
ATOM     38  C   UNL A   1      41.756  32.542  30.194  1.00  0.00     0.031 C 
ATOM     39  C   UNL A   1      39.627  28.026  29.659  1.00  0.00     0.029 A 
ATOM     40  N   UNL A   1      41.699  28.289  28.857  1.00  0.00    -0.354 N 
ATOM     41  C   UNL A   1      43.704  32.108  29.070  1.00  0.00     0.074 A 
ATOM     42  C   UNL A   1      42.902  33.074  29.790  1.00  0.00     0.031 C 
ATOM     43  C   UNL A   1      40.020  26.843  29.161  1.00  0.00     0.029 A 
ATOM     44  C   UNL A   1      41.350  26.990  28.578  1.00  0.00     0.049 A 
ATOM     45  H   UNL A   1      42.579  28.672  28.635  1.00  0.00     0.167 HD
ATOM     46  C   UNL A   1      44.942  32.351  28.580  1.00  0.00     0.037 A 
ATOM     47  C   UNL A   1      42.015  26.038  27.898  1.00  0.00     0.037 A 
ATOM     48  C   UNL A   1      45.746  31.383  27.882  1.00  0.00     0.049 A 
ATOM     49  C   UNL A   1      43.365  26.349  27.318  1.00  0.00     0.074 A 
ATOM     50  C   UNL A   1      47.020  31.530  27.362  1.00  0.00     0.029 A 
ATOM     51  N   UNL A   1      45.351  30.081  27.608  1.00  0.00    -0.354 N 
ATOM     52  N   UNL A   1      44.054  27.462  27.381  1.00  0.00    -0.248 NA
ATOM     53  C   UNL A   1      44.027  25.274  26.565  1.00  0.00     0.031 C 
ATOM     54  C   UNL A   1      47.384  30.329  26.743  1.00  0.00     0.029 A 
ATOM     55  C   UNL A   1      46.351  29.421  26.913  1.00  0.00     0.049 A 
ATOM     56  H   UNL A   1      44.488  29.686  27.869  1.00  0.00     0.167 HD
ATOM     57  C   UNL A   1      45.237  27.217  26.697  1.00  0.00     0.074 A 
ATOM     58  C   UNL A   1      45.178  25.844  26.238  1.00  0.00     0.031 C 
ATOM     59  C   UNL A   1      46.278  28.053  26.468  1.00  0.00     0.037 A 
BRANCH  46  60
ATOM     60  C   UNL A   1      45.499  33.732  28.763  1.00  0.00     0.057 A 
ATOM     61  C   UNL A   1      45.359  34.723  27.783  1.00  0.00     0.134 A 
ATOM     62  C   UNL A   1      46.151  34.086  29.951  1.00  0.00     0.134 A 
ATOM     63  F   UNL A   1      44.755  34.445  26.617  1.00  0.00    -0.206 F 
ATOM     64  C   UNL A   1      45.861  36.012  27.972  1.00  0.00     0.040 A 
ATOM     65  C   UNL A   1      46.638  35.376  30.161  1.00  0.00     0.040 A 
ATOM     66  F   UNL A   1      46.316  33.184  30.931  1.00  0.00    -0.206 F 
ATOM     67  C   UNL A   1      46.498  36.342  29.167  1.00  0.00     0.006 A 
ENDBRANCH  46  60
BRANCH  47  68
ATOM     68  C   UNL A   1      41.398  24.701  27.705  1.00  0.00     0.057 A 
ATOM     69  C   UNL A   1      41.802  23.602  28.470  1.00  0.00     0.134 A 
ATOM     70  C   UNL A   1      40.399  24.491  26.748  1.00  0.00     0.134 A 
ATOM     71  F   UNL A   1      42.773  23.739  29.385  1.00  0.00    -0.206 F 
ATOM     72  C   UNL A   1      41.243  22.337  28.283  1.00  0.00     0.040 A 
ATOM     73  C   UNL A   1      39.813  23.237  26.567  1.00  0.00     0.040 A 
ATOM     74  F   UNL A   1      39.968  25.504  25.983  1.00  0.00    -0.206 F 
ATOM     75  C   UNL A   1      40.240  22.154  27.333  1.00  0.00     0.006 A 
ENDBRANCH  47  68
BRANCH  59  76
ATOM     76  C   UNL A   1      47.450  27.495  25.718  1.00  0.00     0.057 A 
ATOM     77  C   UNL A   1      47.539  27.578  24.323  1.00  0.00     0.134 A 
ATOM     78  C   UNL A   1      48.515  26.896  26.402  1.00  0.00     0.134 A 
ATOM     79  F   UNL A   1      46.545  28.127  23.609  1.00  0.00    -0.206 F 
ATOM     80  C   UNL A   1      48.639  27.066  23.633  1.00  0.00     0.040 A 
ATOM     81  C   UNL A   1      49.630  26.401  25.726  1.00  0.00     0.040 A 
ATOM     82  F   UNL A   1      48.492  26.792  27.740  1.00  0.00    -0.206 F 
ATOM     83  C   UNL A   1      49.692  26.481  24.336  1.00  0.00     0.006 A 
ENDBRANCH  59  76
ENDBRANCH  33  34
ENDBRANCH  26  28
ENDBRANCH  25  26
ENDBRANCH  24  25
ENDBRANCH  23  24
ENDBRANCH   1  23
TORSDOF 16
ENDMDL
