MODEL 1
REMARK VINA RESULT:     -11.5      0.000      0.000
REMARK SMILES CCc1cc(OC(F)(F)F)cc2c1O[C@@H](C(F)(F)F)C(C(=O)OCCOC(=O)c1ccc(-c3c4nc(c(-c5c(F)cccc5F)c5ccc([nH]5)c(-c5c(F)cccc5F)c5nc(c(-c6c(F)cccc6F)c6ccc3[nH]6)C=C5)C=C4)cc1)=C2
REMARK SMILES IDX 24 1 23 2 21 3 22 4 20 5 3 6 4 7 13 8 5 9 12 10 14 11 11 12
REMARK SMILES IDX 83 13 15 14 2 15 1 16 6 17 7 18 8 19 9 20 10 21 16 22 17 23
REMARK SMILES IDX 18 24 19 25 25 26 26 27 27 28 28 29 29 30 30 31 82 32 31 33
REMARK SMILES IDX 81 34 32 35 33 36 34 37 75 38 35 39 80 40 74 41 76 42 36 43
REMARK SMILES IDX 79 44 73 45 72 46 37 48 63 49 46 50 62 51 47 52 50 53 61 54
REMARK SMILES IDX 77 55 48 56 49 57 60 59 78 60 51 61 38 62 39 63 44 64 40 65
REMARK SMILES IDX 41 66 43 67 45 68 42 69 64 70 65 71 70 72 66 73 67 74 69 75
REMARK SMILES IDX 71 76 68 77 52 78 53 79 58 80 54 81 55 82 57 83 59 84 56 85
REMARK H PARENT 76 47 50 58
REMARK Flexibility Score: inf
ROOT
ATOM      1  C   UNL A   1      32.379  29.692  25.480  1.00  0.00     0.275 C 
ENDROOT
BRANCH   1   2
ATOM      2  O   UNL A   1      31.373  28.656  25.492  1.00  0.00    -0.459 OA
BRANCH   2   3
ATOM      3  C   UNL A   1      31.640  27.581  26.277  1.00  0.00     0.338 C 
ATOM      4  O   UNL A   1      31.365  27.490  27.462  1.00  0.00    -0.246 OA
BRANCH   3   5
ATOM      5  C   UNL A   1      32.264  26.479  25.512  1.00  0.00     0.087 C 
ATOM      6  C   UNL A   1      33.813  23.301  23.252  1.00  0.00    -0.002 A 
ATOM      7  C   UNL A   1      35.143  22.902  23.463  1.00  0.00     0.054 A 
ATOM      8  C   UNL A   1      33.282  24.304  24.084  1.00  0.00     0.131 A 
ATOM      9  C   UNL A   1      35.909  23.469  24.488  1.00  0.00     0.130 A 
ATOM     10  C   UNL A   1      34.054  24.927  25.069  1.00  0.00     0.021 A 
ATOM     11  O   UNL A   1      31.952  24.590  23.940  1.00  0.00    -0.475 OA
ATOM     12  C   UNL A   1      35.368  24.499  25.268  1.00  0.00     0.058 A 
ATOM     13  C   UNL A   1      33.463  25.991  25.880  1.00  0.00     0.027 C 
ATOM     14  C   UNL A   1      31.535  25.933  24.298  1.00  0.00     0.316 C 
BRANCH   6  15
ATOM     15  C   UNL A   1      32.968  22.760  22.114  1.00  0.00     0.036 C 
ATOM     16  C   UNL A   1      32.150  21.505  22.387  1.00  0.00     0.009 C 
ENDBRANCH   6  15
BRANCH   9  17
ATOM     17  O   UNL A   1      37.192  23.121  24.809  1.00  0.00    -0.406 OA
BRANCH  17  18
ATOM     18  C   UNL A   1      37.401  21.828  25.358  1.00  0.00     0.573 C 
ATOM     19  F   UNL A   1      38.535  21.779  26.090  1.00  0.00    -0.132 F 
ATOM     20  F   UNL A   1      36.353  21.455  26.124  1.00  0.00    -0.132 F 
ATOM     21  F   UNL A   1      37.518  20.940  24.346  1.00  0.00    -0.132 F 
ENDBRANCH  17  18
ENDBRANCH   9  17
BRANCH  14  22
ATOM     22  C   UNL A   1      29.993  25.936  24.299  1.00  0.00     0.430 C 
ATOM     23  F   UNL A   1      29.489  27.075  23.773  1.00  0.00    -0.167 F 
ATOM     24  F   UNL A   1      29.519  24.935  23.508  1.00  0.00    -0.167 F 
ATOM     25  F   UNL A   1      29.467  25.744  25.527  1.00  0.00    -0.167 F 
ENDBRANCH  14  22
ENDBRANCH   3   5
ENDBRANCH   2   3
ENDBRANCH   1   2
BRANCH   1  26
ATOM     26  C   UNL A   1      31.870  30.991  26.111  1.00  0.00     0.275 C 
BRANCH  26  27
ATOM     27  O   UNL A   1      32.419  31.187  27.427  1.00  0.00    -0.458 OA
BRANCH  27  28
ATOM     28  C   UNL A   1      33.251  32.251  27.538  1.00  0.00     0.338 C 
ATOM     29  O   UNL A   1      32.949  33.428  27.417  1.00  0.00    -0.246 OA
BRANCH  28  30
ATOM     30  C   UNL A   1      34.583  31.822  28.010  1.00  0.00     0.060 A 
ATOM     31  C   UNL A   1      34.709  30.482  28.392  1.00  0.00     0.016 A 
ATOM     32  C   UNL A   1      35.677  32.685  28.113  1.00  0.00     0.016 A 
ATOM     33  C   UNL A   1      35.934  29.985  28.827  1.00  0.00     0.010 A 
ATOM     34  C   UNL A   1      36.898  32.198  28.602  1.00  0.00     0.010 A 
ATOM     35  C   UNL A   1      37.029  30.846  28.962  1.00  0.00    -0.014 A 
BRANCH  35  36
ATOM     36  C   UNL A   1      38.247  30.331  29.630  1.00  0.00     0.031 A 
ATOM     37  C   UNL A   1      38.535  30.770  31.037  1.00  0.00     0.074 A 
ATOM     38  C   UNL A   1      39.037  29.422  29.030  1.00  0.00     0.049 A 
ATOM     39  N   UNL A   1      39.478  30.376  31.853  1.00  0.00    -0.248 NA
ATOM     40  C   UNL A   1      37.622  31.773  31.605  1.00  0.00     0.031 C 
ATOM     41  C   UNL A   1      38.834  28.872  27.693  1.00  0.00     0.029 A 
ATOM     42  N   UNL A   1      40.170  28.795  29.487  1.00  0.00    -0.354 N 
ATOM     43  C   UNL A   1      39.258  31.061  33.040  1.00  0.00     0.074 A 
ATOM     44  C   UNL A   1      38.110  31.918  32.829  1.00  0.00     0.031 C 
ATOM     45  C   UNL A   1      39.819  27.994  27.430  1.00  0.00     0.029 A 
ATOM     46  C   UNL A   1      40.725  27.931  28.576  1.00  0.00     0.049 A 
ATOM     47  H   UNL A   1      40.547  28.950  30.383  1.00  0.00     0.167 HD
ATOM     48  C   UNL A   1      39.943  30.982  34.204  1.00  0.00     0.037 A 
ATOM     49  C   UNL A   1      41.841  27.181  28.661  1.00  0.00     0.037 A 
ATOM     50  C   UNL A   1      41.114  30.170  34.405  1.00  0.00     0.049 A 
ATOM     51  C   UNL A   1      42.649  27.190  29.935  1.00  0.00     0.074 A 
ATOM     52  C   UNL A   1      41.898  30.052  35.539  1.00  0.00     0.029 A 
ATOM     53  N   UNL A   1      41.678  29.351  33.440  1.00  0.00    -0.354 N 
ATOM     54  N   UNL A   1      42.415  27.817  31.061  1.00  0.00    -0.248 NA
ATOM     55  C   UNL A   1      43.872  26.374  29.949  1.00  0.00     0.031 C 
ATOM     56  C   UNL A   1      42.964  29.194  35.245  1.00  0.00     0.029 A 
ATOM     57  C   UNL A   1      42.814  28.739  33.945  1.00  0.00     0.049 A 
ATOM     58  H   UNL A   1      41.325  29.223  32.529  1.00  0.00     0.167 HD
ATOM     59  C   UNL A   1      43.434  27.440  31.928  1.00  0.00     0.074 A 
ATOM     60  C   UNL A   1      44.286  26.526  31.199  1.00  0.00     0.031 C 
ATOM     61  C   UNL A   1      43.642  27.814  33.215  1.00  0.00     0.037 A 
BRANCH  48  62
ATOM     62  C   UNL A   1      39.456  31.830  35.339  1.00  0.00     0.057 A 
ATOM     63  C   UNL A   1      39.908  33.144  35.521  1.00  0.00     0.134 A 
ATOM     64  C   UNL A   1      38.525  31.332  36.257  1.00  0.00     0.134 A 
ATOM     65  F   UNL A   1      40.816  33.674  34.687  1.00  0.00    -0.206 F 
ATOM     66  C   UNL A   1      39.463  33.926  36.589  1.00  0.00     0.040 A 
ATOM     67  C   UNL A   1      38.057  32.111  37.315  1.00  0.00     0.040 A 
ATOM     68  F   UNL A   1      38.055  30.080  36.138  1.00  0.00    -0.206 F 
ATOM     69  C   UNL A   1      38.531  33.410  37.486  1.00  0.00     0.006 A 
ENDBRANCH  48  62
BRANCH  49  70
ATOM     70  C   UNL A   1      42.279  26.356  27.506  1.00  0.00     0.057 A 
ATOM     71  C   UNL A   1      41.911  25.011  27.389  1.00  0.00     0.134 A 
ATOM     72  C   UNL A   1      43.124  26.882  26.521  1.00  0.00     0.134 A 
ATOM     73  F   UNL A   1      41.128  24.442  28.316  1.00  0.00    -0.206 F 
ATOM     74  C   UNL A   1      42.386  24.211  26.347  1.00  0.00     0.040 A 
ATOM     75  C   UNL A   1      43.586  26.101  25.461  1.00  0.00     0.040 A 
ATOM     76  F   UNL A   1      43.519  28.162  26.580  1.00  0.00    -0.206 F 
ATOM     77  C   UNL A   1      43.225  24.758  25.377  1.00  0.00     0.006 A 
ENDBRANCH  49  70
BRANCH  61  78
ATOM     78  C   UNL A   1      44.803  27.192  33.937  1.00  0.00     0.057 A 
ATOM     79  C   UNL A   1      46.067  27.795  33.976  1.00  0.00     0.134 A 
ATOM     80  C   UNL A   1      44.641  25.988  34.634  1.00  0.00     0.134 A 
ATOM     81  F   UNL A   1      46.293  28.944  33.320  1.00  0.00    -0.206 F 
ATOM     82  C   UNL A   1      47.135  27.208  34.659  1.00  0.00     0.040 A 
ATOM     83  C   UNL A   1      45.693  25.406  35.343  1.00  0.00     0.040 A 
ATOM     84  F   UNL A   1      43.455  25.363  34.647  1.00  0.00    -0.206 F 
ATOM     85  C   UNL A   1      46.946  26.013  35.350  1.00  0.00     0.006 A 
ENDBRANCH  61  78
ENDBRANCH  35  36
ENDBRANCH  28  30
ENDBRANCH  27  28
ENDBRANCH  26  27
ENDBRANCH   1  26
TORSDOF 15
ENDMDL
MODEL 2
REMARK VINA RESULT:     -11.4      2.832      8.143
REMARK SMILES CCc1cc(OC(F)(F)F)cc2c1O[C@@H](C(F)(F)F)C(C(=O)OCCOC(=O)c1ccc(-c3c4nc(c(-c5c(F)cccc5F)c5ccc([nH]5)c(-c5c(F)cccc5F)c5nc(c(-c6c(F)cccc6F)c6ccc3[nH]6)C=C5)C=C4)cc1)=C2
REMARK SMILES IDX 24 1 23 2 21 3 22 4 20 5 3 6 4 7 13 8 5 9 12 10 14 11 11 12
REMARK SMILES IDX 83 13 15 14 2 15 1 16 6 17 7 18 8 19 9 20 10 21 16 22 17 23
REMARK SMILES IDX 18 24 19 25 25 26 26 27 27 28 28 29 29 30 30 31 82 32 31 33
REMARK SMILES IDX 81 34 32 35 33 36 34 37 75 38 35 39 80 40 74 41 76 42 36 43
REMARK SMILES IDX 79 44 73 45 72 46 37 48 63 49 46 50 62 51 47 52 50 53 61 54
REMARK SMILES IDX 77 55 48 56 49 57 60 59 78 60 51 61 38 62 39 63 44 64 40 65
REMARK SMILES IDX 41 66 43 67 45 68 42 69 64 70 65 71 70 72 66 73 67 74 69 75
REMARK SMILES IDX 71 76 68 77 52 78 53 79 58 80 54 81 55 82 57 83 59 84 56 85
REMARK H PARENT 76 47 50 58
REMARK Flexibility Score: inf
ROOT
ATOM      1  C   UNL A   1      42.700  21.869  25.778  1.00  0.00     0.275 C 
ENDROOT
BRANCH   1   2
ATOM      2  O   UNL A   1      41.329  22.270  25.566  1.00  0.00    -0.459 OA
BRANCH   2   3
ATOM      3  C   UNL A   1      40.432  21.818  26.479  1.00  0.00     0.338 C 
ATOM      4  O   UNL A   1      40.714  21.256  27.525  1.00  0.00    -0.246 OA
BRANCH   3   5
ATOM      5  C   UNL A   1      39.040  22.138  26.092  1.00  0.00     0.087 C 
ATOM      6  C   UNL A   1      35.128  23.271  25.083  1.00  0.00    -0.002 A 
ATOM      7  C   UNL A   1      34.230  22.288  24.637  1.00  0.00     0.054 A 
ATOM      8  C   UNL A   1      36.405  22.859  25.507  1.00  0.00     0.131 A 
ATOM      9  C   UNL A   1      34.587  20.935  24.638  1.00  0.00     0.130 A 
ATOM     10  C   UNL A   1      36.801  21.519  25.452  1.00  0.00     0.021 A 
ATOM     11  O   UNL A   1      37.218  23.816  26.049  1.00  0.00    -0.475 OA
ATOM     12  C   UNL A   1      35.882  20.561  25.019  1.00  0.00     0.058 A 
ATOM     13  C   UNL A   1      38.154  21.151  25.869  1.00  0.00     0.027 C 
ATOM     14  C   UNL A   1      38.647  23.595  25.932  1.00  0.00     0.316 C 
BRANCH   6  15
ATOM     15  C   UNL A   1      34.806  24.753  25.040  1.00  0.00     0.036 C 
ATOM     16  C   UNL A   1      33.729  25.261  25.989  1.00  0.00     0.009 C 
ENDBRANCH   6  15
BRANCH   9  17
ATOM     17  O   UNL A   1      33.777  19.897  24.271  1.00  0.00    -0.406 OA
BRANCH  17  18
ATOM     18  C   UNL A   1      32.666  19.606  25.108  1.00  0.00     0.573 C 
ATOM     19  F   UNL A   1      32.074  18.443  24.758  1.00  0.00    -0.132 F 
ATOM     20  F   UNL A   1      33.043  19.548  26.404  1.00  0.00    -0.132 F 
ATOM     21  F   UNL A   1      31.755  20.595  24.980  1.00  0.00    -0.132 F 
ENDBRANCH  17  18
ENDBRANCH   9  17
BRANCH  14  22
ATOM     22  C   UNL A   1      39.336  24.649  26.823  1.00  0.00     0.430 C 
ATOM     23  F   UNL A   1      40.346  25.276  26.178  1.00  0.00    -0.167 F 
ATOM     24  F   UNL A   1      38.456  25.633  27.155  1.00  0.00    -0.167 F 
ATOM     25  F   UNL A   1      39.801  24.135  27.981  1.00  0.00    -0.167 F 
ENDBRANCH  14  22
ENDBRANCH   3   5
ENDBRANCH   2   3
ENDBRANCH   1   2
BRANCH   1  26
ATOM     26  C   UNL A   1      43.652  22.529  24.777  1.00  0.00     0.275 C 
BRANCH  26  27
ATOM     27  O   UNL A   1      43.448  23.953  24.718  1.00  0.00    -0.458 OA
BRANCH  27  28
ATOM     28  C   UNL A   1      44.475  24.691  25.203  1.00  0.00     0.338 C 
ATOM     29  O   UNL A   1      45.588  24.802  24.714  1.00  0.00    -0.246 OA
BRANCH  28  30
ATOM     30  C   UNL A   1      44.029  25.515  26.345  1.00  0.00     0.060 A 
ATOM     31  C   UNL A   1      43.238  24.876  27.305  1.00  0.00     0.016 A 
ATOM     32  C   UNL A   1      44.334  26.872  26.480  1.00  0.00     0.016 A 
ATOM     33  C   UNL A   1      42.792  25.569  28.427  1.00  0.00     0.010 A 
ATOM     34  C   UNL A   1      43.840  27.585  27.582  1.00  0.00     0.010 A 
ATOM     35  C   UNL A   1      43.066  26.935  28.558  1.00  0.00    -0.014 A 
BRANCH  35  36
ATOM     36  C   UNL A   1      42.395  27.682  29.647  1.00  0.00     0.031 A 
ATOM     37  C   UNL A   1      43.018  27.675  31.014  1.00  0.00     0.074 A 
ATOM     38  C   UNL A   1      41.299  28.425  29.408  1.00  0.00     0.049 A 
ATOM     39  N   UNL A   1      42.669  28.334  32.089  1.00  0.00    -0.248 NA
ATOM     40  C   UNL A   1      44.207  26.826  31.183  1.00  0.00     0.031 C 
ATOM     41  C   UNL A   1      40.633  28.562  28.116  1.00  0.00     0.029 A 
ATOM     42  N   UNL A   1      40.563  29.216  30.255  1.00  0.00    -0.354 N 
ATOM     43  C   UNL A   1      43.610  28.002  33.054  1.00  0.00     0.074 A 
ATOM     44  C   UNL A   1      44.527  27.059  32.447  1.00  0.00     0.031 C 
ATOM     45  C   UNL A   1      39.575  29.382  28.257  1.00  0.00     0.029 A 
ATOM     46  C   UNL A   1      39.486  29.815  29.650  1.00  0.00     0.049 A 
ATOM     47  H   UNL A   1      40.787  29.341  31.205  1.00  0.00     0.167 HD
ATOM     48  C   UNL A   1      43.708  28.444  34.329  1.00  0.00     0.037 A 
ATOM     49  C   UNL A   1      38.536  30.617  30.170  1.00  0.00     0.037 A 
ATOM     50  C   UNL A   1      42.772  29.341  34.953  1.00  0.00     0.049 A 
ATOM     51  C   UNL A   1      38.608  31.013  31.623  1.00  0.00     0.074 A 
ATOM     52  C   UNL A   1      42.767  29.817  36.252  1.00  0.00     0.029 A 
ATOM     53  N   UNL A   1      41.662  29.883  34.324  1.00  0.00    -0.354 N 
ATOM     54  N   UNL A   1      39.518  30.717  32.519  1.00  0.00    -0.248 NA
ATOM     55  C   UNL A   1      37.522  31.864  32.132  1.00  0.00     0.031 C 
ATOM     56  C   UNL A   1      41.629  30.613  36.422  1.00  0.00     0.029 A 
ATOM     57  C   UNL A   1      40.953  30.673  35.214  1.00  0.00     0.049 A 
ATOM     58  H   UNL A   1      41.413  29.728  33.383  1.00  0.00     0.167 HD
ATOM     59  C   UNL A   1      39.139  31.379  33.681  1.00  0.00     0.074 A 
ATOM     60  C   UNL A   1      37.918  32.094  33.376  1.00  0.00     0.031 C 
ATOM     61  C   UNL A   1      39.750  31.396  34.892  1.00  0.00     0.037 A 
BRANCH  48  62
ATOM     62  C   UNL A   1      44.855  27.926  35.142  1.00  0.00     0.057 A 
ATOM     63  C   UNL A   1      44.753  26.746  35.889  1.00  0.00     0.134 A 
ATOM     64  C   UNL A   1      46.075  28.612  35.176  1.00  0.00     0.134 A 
ATOM     65  F   UNL A   1      43.604  26.053  35.914  1.00  0.00    -0.206 F 
ATOM     66  C   UNL A   1      45.819  26.275  36.658  1.00  0.00     0.040 A 
ATOM     67  C   UNL A   1      47.154  28.140  35.923  1.00  0.00     0.040 A 
ATOM     68  F   UNL A   1      46.235  29.750  34.484  1.00  0.00    -0.206 F 
ATOM     69  C   UNL A   1      47.026  26.972  36.671  1.00  0.00     0.006 A 
ENDBRANCH  48  62
BRANCH  49  70
ATOM     70  C   UNL A   1      37.420  31.104  29.319  1.00  0.00     0.057 A 
ATOM     71  C   UNL A   1      37.413  32.402  28.797  1.00  0.00     0.134 A 
ATOM     72  C   UNL A   1      36.307  30.296  29.055  1.00  0.00     0.134 A 
ATOM     73  F   UNL A   1      38.436  33.233  29.040  1.00  0.00    -0.206 F 
ATOM     74  C   UNL A   1      36.329  32.889  28.064  1.00  0.00     0.040 A 
ATOM     75  C   UNL A   1      35.227  30.762  28.303  1.00  0.00     0.040 A 
ATOM     76  F   UNL A   1      36.249  29.044  29.532  1.00  0.00    -0.206 F 
ATOM     77  C   UNL A   1      35.232  32.066  27.813  1.00  0.00     0.006 A 
ENDBRANCH  49  70
BRANCH  61  78
ATOM     78  C   UNL A   1      39.142  32.258  35.962  1.00  0.00     0.057 A 
ATOM     79  C   UNL A   1      38.201  31.764  36.873  1.00  0.00     0.134 A 
ATOM     80  C   UNL A   1      39.535  33.595  36.101  1.00  0.00     0.134 A 
ATOM     81  F   UNL A   1      37.774  30.494  36.789  1.00  0.00    -0.206 F 
ATOM     82  C   UNL A   1      37.652  32.576  37.868  1.00  0.00     0.040 A 
ATOM     83  C   UNL A   1      39.014  34.409  37.107  1.00  0.00     0.040 A 
ATOM     84  F   UNL A   1      40.440  34.130  35.269  1.00  0.00    -0.206 F 
ATOM     85  C   UNL A   1      38.064  33.902  37.990  1.00  0.00     0.006 A 
ENDBRANCH  61  78
ENDBRANCH  35  36
ENDBRANCH  28  30
ENDBRANCH  27  28
ENDBRANCH  26  27
ENDBRANCH   1  26
TORSDOF 15
ENDMDL
MODEL 3
REMARK VINA RESULT:     -11.4      2.727      3.794
REMARK SMILES CCc1cc(OC(F)(F)F)cc2c1O[C@@H](C(F)(F)F)C(C(=O)OCCOC(=O)c1ccc(-c3c4nc(c(-c5c(F)cccc5F)c5ccc([nH]5)c(-c5c(F)cccc5F)c5nc(c(-c6c(F)cccc6F)c6ccc3[nH]6)C=C5)C=C4)cc1)=C2
REMARK SMILES IDX 24 1 23 2 21 3 22 4 20 5 3 6 4 7 13 8 5 9 12 10 14 11 11 12
REMARK SMILES IDX 83 13 15 14 2 15 1 16 6 17 7 18 8 19 9 20 10 21 16 22 17 23
REMARK SMILES IDX 18 24 19 25 25 26 26 27 27 28 28 29 29 30 30 31 82 32 31 33
REMARK SMILES IDX 81 34 32 35 33 36 34 37 75 38 35 39 80 40 74 41 76 42 36 43
REMARK SMILES IDX 79 44 73 45 72 46 37 48 63 49 46 50 62 51 47 52 50 53 61 54
REMARK SMILES IDX 77 55 48 56 49 57 60 59 78 60 51 61 38 62 39 63 44 64 40 65
REMARK SMILES IDX 41 66 43 67 45 68 42 69 64 70 65 71 70 72 66 73 67 74 69 75
REMARK SMILES IDX 71 76 68 77 52 78 53 79 58 80 54 81 55 82 57 83 59 84 56 85
REMARK H PARENT 76 47 50 58
REMARK Flexibility Score: inf
ROOT
ATOM      1  C   UNL A   1      33.119  29.553  25.735  1.00  0.00     0.275 C 
ENDROOT
BRANCH   1   2
ATOM      2  O   UNL A   1      31.876  28.821  25.662  1.00  0.00    -0.459 OA
BRANCH   2   3
ATOM      3  C   UNL A   1      31.833  27.658  26.361  1.00  0.00     0.338 C 
ATOM      4  O   UNL A   1      31.346  27.521  27.471  1.00  0.00    -0.246 OA
BRANCH   3   5
ATOM      5  C   UNL A   1      32.402  26.529  25.591  1.00  0.00     0.087 C 
ATOM      6  C   UNL A   1      33.790  23.278  23.331  1.00  0.00    -0.002 A 
ATOM      7  C   UNL A   1      35.121  22.860  23.488  1.00  0.00     0.054 A 
ATOM      8  C   UNL A   1      33.315  24.307  24.165  1.00  0.00     0.131 A 
ATOM      9  C   UNL A   1      35.945  23.435  24.463  1.00  0.00     0.130 A 
ATOM     10  C   UNL A   1      34.143  24.937  25.099  1.00  0.00     0.021 A 
ATOM     11  O   UNL A   1      31.985  24.614  24.077  1.00  0.00    -0.475 OA
ATOM     12  C   UNL A   1      35.458  24.490  25.245  1.00  0.00     0.058 A 
ATOM     13  C   UNL A   1      33.609  26.028  25.914  1.00  0.00     0.027 C 
ATOM     14  C   UNL A   1      31.607  25.970  24.426  1.00  0.00     0.316 C 
BRANCH   6  15
ATOM     15  C   UNL A   1      32.883  22.728  22.246  1.00  0.00     0.036 C 
ATOM     16  C   UNL A   1      32.160  21.420  22.537  1.00  0.00     0.009 C 
ENDBRANCH   6  15
BRANCH   9  17
ATOM     17  O   UNL A   1      37.235  23.072  24.731  1.00  0.00    -0.406 OA
BRANCH  17  18
ATOM     18  C   UNL A   1      37.445  21.806  25.340  1.00  0.00     0.573 C 
ATOM     19  F   UNL A   1      36.453  21.503  26.206  1.00  0.00    -0.132 F 
ATOM     20  F   UNL A   1      37.543  20.833  24.408  1.00  0.00    -0.132 F 
ATOM     21  F   UNL A   1      38.606  21.844  26.031  1.00  0.00    -0.132 F 
ENDBRANCH  17  18
ENDBRANCH   9  17
BRANCH  14  22
ATOM     22  C   UNL A   1      30.068  26.000  24.499  1.00  0.00     0.430 C 
ATOM     23  F   UNL A   1      29.570  27.222  24.200  1.00  0.00    -0.167 F 
ATOM     24  F   UNL A   1      29.535  25.159  23.570  1.00  0.00    -0.167 F 
ATOM     25  F   UNL A   1      29.590  25.609  25.699  1.00  0.00    -0.167 F 
ENDBRANCH  14  22
ENDBRANCH   3   5
ENDBRANCH   2   3
ENDBRANCH   1   2
BRANCH   1  26
ATOM     26  C   UNL A   1      33.136  30.535  26.909  1.00  0.00     0.275 C 
BRANCH  26  27
ATOM     27  O   UNL A   1      33.860  30.000  28.033  1.00  0.00    -0.458 OA
BRANCH  27  28
ATOM     28  C   UNL A   1      34.737  30.862  28.601  1.00  0.00     0.338 C 
ATOM     29  O   UNL A   1      34.466  31.903  29.180  1.00  0.00    -0.246 OA
BRANCH  28  30
ATOM     30  C   UNL A   1      36.101  30.296  28.593  1.00  0.00     0.060 A 
ATOM     31  C   UNL A   1      36.578  29.797  29.809  1.00  0.00     0.016 A 
ATOM     32  C   UNL A   1      36.916  30.269  27.457  1.00  0.00     0.016 A 
ATOM     33  C   UNL A   1      37.844  29.224  29.889  1.00  0.00     0.010 A 
ATOM     34  C   UNL A   1      38.212  29.741  27.549  1.00  0.00     0.010 A 
ATOM     35  C   UNL A   1      38.679  29.217  28.767  1.00  0.00    -0.014 A 
BRANCH  35  36
ATOM     36  C   UNL A   1      40.090  28.799  28.946  1.00  0.00     0.031 A 
ATOM     37  C   UNL A   1      41.033  29.735  29.647  1.00  0.00     0.074 A 
ATOM     38  C   UNL A   1      40.505  27.576  28.570  1.00  0.00     0.049 A 
ATOM     39  N   UNL A   1      42.277  29.546  30.005  1.00  0.00    -0.248 NA
ATOM     40  C   UNL A   1      40.492  31.053  30.010  1.00  0.00     0.031 C 
ATOM     41  C   UNL A   1      39.675  26.556  27.936  1.00  0.00     0.029 A 
ATOM     42  N   UNL A   1      41.740  26.987  28.687  1.00  0.00    -0.354 N 
ATOM     43  C   UNL A   1      42.660  30.708  30.660  1.00  0.00     0.074 A 
ATOM     44  C   UNL A   1      41.527  31.609  30.623  1.00  0.00     0.031 C 
ATOM     45  C   UNL A   1      40.428  25.465  27.705  1.00  0.00     0.029 A 
ATOM     46  C   UNL A   1      41.793  25.716  28.167  1.00  0.00     0.049 A 
ATOM     47  H   UNL A   1      42.513  27.432  29.102  1.00  0.00     0.167 HD
ATOM     48  C   UNL A   1      43.844  31.000  31.244  1.00  0.00     0.037 A 
ATOM     49  C   UNL A   1      42.829  24.861  28.073  1.00  0.00     0.037 A 
ATOM     50  C   UNL A   1      44.990  30.129  31.241  1.00  0.00     0.049 A 
ATOM     51  C   UNL A   1      44.171  25.252  28.640  1.00  0.00     0.074 A 
ATOM     52  C   UNL A   1      46.246  30.353  31.776  1.00  0.00     0.029 A 
ATOM     53  N   UNL A   1      45.022  28.873  30.656  1.00  0.00    -0.354 N 
ATOM     54  N   UNL A   1      44.514  26.340  29.284  1.00  0.00    -0.248 NA
ATOM     55  C   UNL A   1      45.266  24.285  28.475  1.00  0.00     0.031 C 
ATOM     56  C   UNL A   1      47.052  29.249  31.476  1.00  0.00     0.029 A 
ATOM     57  C   UNL A   1      46.282  28.317  30.799  1.00  0.00     0.049 A 
ATOM     58  H   UNL A   1      44.260  28.440  30.204  1.00  0.00     0.167 HD
ATOM     59  C   UNL A   1      45.848  26.172  29.636  1.00  0.00     0.074 A 
ATOM     60  C   UNL A   1      46.251  24.874  29.139  1.00  0.00     0.031 C 
ATOM     61  C   UNL A   1      46.665  27.015  30.316  1.00  0.00     0.037 A 
BRANCH  48  62
ATOM     62  C   UNL A   1      43.965  32.339  31.905  1.00  0.00     0.057 A 
ATOM     63  C   UNL A   1      43.668  32.518  33.263  1.00  0.00     0.134 A 
ATOM     64  C   UNL A   1      44.386  33.460  31.180  1.00  0.00     0.134 A 
ATOM     65  F   UNL A   1      43.240  31.488  34.008  1.00  0.00    -0.206 F 
ATOM     66  C   UNL A   1      43.766  33.771  33.871  1.00  0.00     0.040 A 
ATOM     67  C   UNL A   1      44.508  34.712  31.782  1.00  0.00     0.040 A 
ATOM     68  F   UNL A   1      44.683  33.354  29.876  1.00  0.00    -0.206 F 
ATOM     69  C   UNL A   1      44.193  34.871  33.129  1.00  0.00     0.006 A 
ENDBRANCH  48  62
BRANCH  49  70
ATOM     70  C   UNL A   1      42.655  23.544  27.408  1.00  0.00     0.057 A 
ATOM     71  C   UNL A   1      42.815  23.399  26.025  1.00  0.00     0.134 A 
ATOM     72  C   UNL A   1      42.269  22.412  28.135  1.00  0.00     0.134 A 
ATOM     73  F   UNL A   1      43.155  24.454  25.270  1.00  0.00    -0.206 F 
ATOM     74  C   UNL A   1      42.575  22.181  25.386  1.00  0.00     0.040 A 
ATOM     75  C   UNL A   1      42.050  21.182  27.512  1.00  0.00     0.040 A 
ATOM     76  F   UNL A   1      42.093  22.487  29.462  1.00  0.00    -0.206 F 
ATOM     77  C   UNL A   1      42.193  21.067  26.131  1.00  0.00     0.006 A 
ENDBRANCH  49  70
BRANCH  61  78
ATOM     78  C   UNL A   1      48.058  26.539  30.613  1.00  0.00     0.057 A 
ATOM     79  C   UNL A   1      48.371  25.825  31.776  1.00  0.00     0.134 A 
ATOM     80  C   UNL A   1      49.095  26.768  29.699  1.00  0.00     0.134 A 
ATOM     81  F   UNL A   1      47.427  25.579  32.698  1.00  0.00    -0.206 F 
ATOM     82  C   UNL A   1      49.670  25.381  32.033  1.00  0.00     0.040 A 
ATOM     83  C   UNL A   1      50.391  26.307  29.932  1.00  0.00     0.040 A 
ATOM     84  F   UNL A   1      48.863  27.436  28.559  1.00  0.00    -0.206 F 
ATOM     85  C   UNL A   1      50.683  25.617  31.106  1.00  0.00     0.006 A 
ENDBRANCH  61  78
ENDBRANCH  35  36
ENDBRANCH  28  30
ENDBRANCH  27  28
ENDBRANCH  26  27
ENDBRANCH   1  26
TORSDOF 15
ENDMDL
