MODEL 1
REMARK VINA RESULT:     -11.5      0.000      0.000
REMARK SMILES O=C(CSc1nnc(Cc2ccncc2)n1-c1ccccc1Cl)OCCOC(=O)c1ccc(-c2c3nc(c(-c4c(F)cccc4F)c4ccc([nH]4)c(-c4c(F)cccc4F)c4nc(c(-c5c(F)cccc5F)c5ccc2[nH]5)C=C4)C=C3)cc1
REMARK SMILES IDX 25 1 24 2 2 3 1 4 3 5 4 6 5 7 6 8 16 9 7 10 8 11 17 12 18 13
REMARK SMILES IDX 22 14 19 15 21 16 23 17 20 18 9 19 10 20 11 21 15 22 12 23
REMARK SMILES IDX 14 24 13 25 26 26 27 27 28 28 29 29 30 30 31 31 83 32 32 33
REMARK SMILES IDX 82 34 33 35 34 36 35 37 76 38 36 39 81 40 75 41 77 42 37 43
REMARK SMILES IDX 80 44 74 45 73 46 38 48 64 49 47 50 63 51 48 52 51 53 62 54
REMARK SMILES IDX 78 55 49 56 50 57 61 59 79 60 52 61 39 62 40 63 45 64 41 65
REMARK SMILES IDX 42 66 44 67 46 68 43 69 65 70 66 71 71 72 67 73 68 74 70 75
REMARK SMILES IDX 72 76 69 77 53 78 54 79 59 80 55 81 56 82 58 83 60 84 57 85
REMARK H PARENT 77 47 51 58
REMARK Flexibility Score: inf
ROOT
ATOM      1  C   UNL A   1      36.738  21.795  25.675  1.00  0.00     0.274 C 
ENDROOT
BRANCH   1   2
ATOM      2  O   UNL A   1      35.843  21.784  24.542  1.00  0.00    -0.461 OA
BRANCH   2   3
ATOM      3  C   UNL A   1      35.574  22.913  23.847  1.00  0.00     0.316 C 
ATOM      4  O   UNL A   1      35.991  23.046  22.699  1.00  0.00    -0.251 OA
BRANCH   3   5
ATOM      5  C   UNL A   1      34.825  24.039  24.512  1.00  0.00     0.200 C 
BRANCH   5   6
ATOM      6  S   UNL A   1      33.060  24.048  24.304  1.00  0.00    -0.074 SA
BRANCH   6   7
ATOM      7  C   UNL A   1      32.560  25.431  23.399  1.00  0.00     0.196 A 
ATOM      8  N   UNL A   1      32.102  25.261  22.176  1.00  0.00    -0.123 NA
ATOM      9  N   UNL A   1      32.396  26.756  23.764  1.00  0.00    -0.272 N 
ATOM     10  N   UNL A   1      31.622  26.451  21.719  1.00  0.00    -0.134 NA
ATOM     11  C   UNL A   1      31.810  27.354  22.658  1.00  0.00     0.142 A 
BRANCH   9  12
ATOM     12  C   UNL A   1      32.621  27.399  24.992  1.00  0.00     0.068 A 
ATOM     13  C   UNL A   1      33.833  28.074  25.183  1.00  0.00     0.028 A 
ATOM     14  C   UNL A   1      31.715  27.245  26.049  1.00  0.00     0.065 A 
ATOM     15  C   UNL A   1      34.105  28.655  26.424  1.00  0.00     0.002 A 
ATOM     16  C   UNL A   1      31.971  27.881  27.264  1.00  0.00     0.023 A 
ATOM     17  Cl  UNL A   1      30.307  26.251  25.925  1.00  0.00    -0.082 Cl
ATOM     18  C   UNL A   1      33.163  28.584  27.452  1.00  0.00     0.002 A 
ENDBRANCH   9  12
BRANCH  11  19
ATOM     19  C   UNL A   1      31.459  28.800  22.536  1.00  0.00     0.113 C 
BRANCH  19  20
ATOM     20  C   UNL A   1      29.965  29.020  22.520  1.00  0.00    -0.037 A 
ATOM     21  C   UNL A   1      29.415  30.094  21.812  1.00  0.00     0.024 A 
ATOM     22  C   UNL A   1      29.102  28.188  23.237  1.00  0.00     0.024 A 
ATOM     23  C   UNL A   1      28.046  30.297  21.862  1.00  0.00     0.111 A 
ATOM     24  C   UNL A   1      27.745  28.476  23.230  1.00  0.00     0.111 A 
ATOM     25  N   UNL A   1      27.196  29.508  22.553  1.00  0.00    -0.265 NA
ENDBRANCH  19  20
ENDBRANCH  11  19
ENDBRANCH   6   7
ENDBRANCH   5   6
ENDBRANCH   3   5
ENDBRANCH   2   3
ENDBRANCH   1   2
BRANCH   1  26
ATOM     26  C   UNL A   1      38.194  21.590  25.261  1.00  0.00     0.275 C 
BRANCH  26  27
ATOM     27  O   UNL A   1      38.830  20.880  26.316  1.00  0.00    -0.458 OA
BRANCH  27  28
ATOM     28  C   UNL A   1      39.944  20.179  26.015  1.00  0.00     0.338 C 
ATOM     29  O   UNL A   1      40.020  19.108  25.452  1.00  0.00    -0.246 OA
BRANCH  28  30
ATOM     30  C   UNL A   1      41.082  20.945  26.553  1.00  0.00     0.060 A 
ATOM     31  C   UNL A   1      41.337  20.843  27.922  1.00  0.00     0.016 A 
ATOM     32  C   UNL A   1      41.680  21.934  25.754  1.00  0.00     0.016 A 
ATOM     33  C   UNL A   1      41.923  21.920  28.546  1.00  0.00     0.010 A 
ATOM     34  C   UNL A   1      42.258  23.006  26.372  1.00  0.00     0.010 A 
ATOM     35  C   UNL A   1      42.229  23.033  27.763  1.00  0.00    -0.014 A 
BRANCH  35  36
ATOM     36  C   UNL A   1      42.327  24.324  28.406  1.00  0.00     0.031 A 
ATOM     37  C   UNL A   1      41.159  25.202  28.201  1.00  0.00     0.074 A 
ATOM     38  C   UNL A   1      43.354  24.542  29.255  1.00  0.00     0.049 A 
ATOM     39  N   UNL A   1      41.128  26.386  27.690  1.00  0.00    -0.248 NA
ATOM     40  C   UNL A   1      39.831  24.628  28.479  1.00  0.00     0.031 C 
ATOM     41  C   UNL A   1      44.377  23.582  29.705  1.00  0.00     0.029 A 
ATOM     42  N   UNL A   1      43.628  25.640  30.006  1.00  0.00    -0.354 N 
ATOM     43  C   UNL A   1      39.801  26.789  27.785  1.00  0.00     0.074 A 
ATOM     44  C   UNL A   1      39.029  25.616  28.089  1.00  0.00     0.031 C 
ATOM     45  C   UNL A   1      44.995  24.066  30.805  1.00  0.00     0.029 A 
ATOM     46  C   UNL A   1      44.504  25.406  31.060  1.00  0.00     0.049 A 
ATOM     47  H   UNL A   1      43.239  26.525  29.820  1.00  0.00     0.167 HD
ATOM     48  C   UNL A   1      39.468  28.101  27.891  1.00  0.00     0.037 A 
ATOM     49  C   UNL A   1      44.697  26.232  32.117  1.00  0.00     0.037 A 
ATOM     50  C   UNL A   1      40.517  28.959  27.410  1.00  0.00     0.049 A 
ATOM     51  C   UNL A   1      44.176  27.569  31.726  1.00  0.00     0.074 A 
ATOM     52  C   UNL A   1      41.156  29.110  26.194  1.00  0.00     0.029 A 
ATOM     53  N   UNL A   1      41.323  29.579  28.332  1.00  0.00    -0.354 N 
ATOM     54  N   UNL A   1      44.714  28.312  30.796  1.00  0.00    -0.248 NA
ATOM     55  C   UNL A   1      42.779  27.856  32.021  1.00  0.00     0.031 C 
ATOM     56  C   UNL A   1      42.517  29.375  26.521  1.00  0.00     0.029 A 
ATOM     57  C   UNL A   1      42.620  29.418  27.911  1.00  0.00     0.049 A 
ATOM     58  H   UNL A   1      41.026  30.051  29.144  1.00  0.00     0.167 HD
ATOM     59  C   UNL A   1      43.639  28.873  30.116  1.00  0.00     0.074 A 
ATOM     60  C   UNL A   1      42.475  28.606  30.959  1.00  0.00     0.031 C 
ATOM     61  C   UNL A   1      43.742  29.241  28.805  1.00  0.00     0.037 A 
BRANCH  48  62
ATOM     62  C   UNL A   1      38.351  28.585  28.776  1.00  0.00     0.057 A 
ATOM     63  C   UNL A   1      37.396  29.472  28.257  1.00  0.00     0.134 A 
ATOM     64  C   UNL A   1      38.335  28.435  30.180  1.00  0.00     0.134 A 
ATOM     65  F   UNL A   1      37.332  29.717  26.940  1.00  0.00    -0.206 F 
ATOM     66  C   UNL A   1      36.526  30.196  29.080  1.00  0.00     0.040 A 
ATOM     67  C   UNL A   1      37.434  29.108  31.005  1.00  0.00     0.040 A 
ATOM     68  F   UNL A   1      39.250  27.711  30.838  1.00  0.00    -0.206 F 
ATOM     69  C   UNL A   1      36.545  30.017  30.459  1.00  0.00     0.006 A 
ENDBRANCH  48  62
BRANCH  49  70
ATOM     70  C   UNL A   1      44.926  25.834  33.527  1.00  0.00     0.057 A 
ATOM     71  C   UNL A   1      43.883  25.356  34.330  1.00  0.00     0.134 A 
ATOM     72  C   UNL A   1      46.225  25.677  34.048  1.00  0.00     0.134 A 
ATOM     73  F   UNL A   1      42.614  25.412  33.899  1.00  0.00    -0.206 F 
ATOM     74  C   UNL A   1      44.117  24.755  35.576  1.00  0.00     0.040 A 
ATOM     75  C   UNL A   1      46.471  25.089  35.293  1.00  0.00     0.040 A 
ATOM     76  F   UNL A   1      47.307  26.012  33.332  1.00  0.00    -0.206 F 
ATOM     77  C   UNL A   1      45.415  24.614  36.058  1.00  0.00     0.006 A 
ENDBRANCH  49  70
BRANCH  61  78
ATOM     78  C   UNL A   1      45.106  29.197  28.169  1.00  0.00     0.057 A 
ATOM     79  C   UNL A   1      45.616  28.066  27.514  1.00  0.00     0.134 A 
ATOM     80  C   UNL A   1      45.847  30.376  28.059  1.00  0.00     0.134 A 
ATOM     81  F   UNL A   1      44.925  26.922  27.473  1.00  0.00    -0.206 F 
ATOM     82  C   UNL A   1      46.828  28.096  26.816  1.00  0.00     0.040 A 
ATOM     83  C   UNL A   1      47.043  30.429  27.339  1.00  0.00     0.040 A 
ATOM     84  F   UNL A   1      45.388  31.514  28.604  1.00  0.00    -0.206 F 
ATOM     85  C   UNL A   1      47.542  29.284  26.722  1.00  0.00     0.006 A 
ENDBRANCH  61  78
ENDBRANCH  35  36
ENDBRANCH  28  30
ENDBRANCH  27  28
ENDBRANCH  26  27
ENDBRANCH   1  26
TORSDOF 16
ENDMDL
MODEL 2
REMARK VINA RESULT:     -11.5      4.218      8.887
REMARK SMILES O=C(CSc1nnc(Cc2ccncc2)n1-c1ccccc1Cl)OCCOC(=O)c1ccc(-c2c3nc(c(-c4c(F)cccc4F)c4ccc([nH]4)c(-c4c(F)cccc4F)c4nc(c(-c5c(F)cccc5F)c5ccc2[nH]5)C=C4)C=C3)cc1
REMARK SMILES IDX 25 1 24 2 2 3 1 4 3 5 4 6 5 7 6 8 16 9 7 10 8 11 17 12 18 13
REMARK SMILES IDX 22 14 19 15 21 16 23 17 20 18 9 19 10 20 11 21 15 22 12 23
REMARK SMILES IDX 14 24 13 25 26 26 27 27 28 28 29 29 30 30 31 31 83 32 32 33
REMARK SMILES IDX 82 34 33 35 34 36 35 37 76 38 36 39 81 40 75 41 77 42 37 43
REMARK SMILES IDX 80 44 74 45 73 46 38 48 64 49 47 50 63 51 48 52 51 53 62 54
REMARK SMILES IDX 78 55 49 56 50 57 61 59 79 60 52 61 39 62 40 63 45 64 41 65
REMARK SMILES IDX 42 66 44 67 46 68 43 69 65 70 66 71 71 72 67 73 68 74 70 75
REMARK SMILES IDX 72 76 69 77 53 78 54 79 59 80 55 81 56 82 58 83 60 84 57 85
REMARK H PARENT 77 47 51 58
REMARK Flexibility Score: inf
ROOT
ATOM      1  C   UNL A   1      31.815  29.458  27.077  1.00  0.00     0.274 C 
ENDROOT
BRANCH   1   2
ATOM      2  O   UNL A   1      32.188  28.525  26.038  1.00  0.00    -0.461 OA
BRANCH   2   3
ATOM      3  C   UNL A   1      31.886  27.210  26.132  1.00  0.00     0.316 C 
ATOM      4  O   UNL A   1      30.944  26.840  26.828  1.00  0.00    -0.251 OA
BRANCH   3   5
ATOM      5  C   UNL A   1      32.757  26.194  25.439  1.00  0.00     0.200 C 
BRANCH   5   6
ATOM      6  S   UNL A   1      31.940  25.085  24.315  1.00  0.00    -0.074 SA
BRANCH   6   7
ATOM      7  C   UNL A   1      32.034  23.458  24.887  1.00  0.00     0.196 A 
ATOM      8  N   UNL A   1      30.920  22.785  25.080  1.00  0.00    -0.123 NA
ATOM      9  N   UNL A   1      33.113  22.609  25.063  1.00  0.00    -0.272 N 
ATOM     10  N   UNL A   1      31.235  21.492  25.371  1.00  0.00    -0.134 NA
ATOM     11  C   UNL A   1      32.546  21.384  25.379  1.00  0.00     0.142 A 
BRANCH   9  12
ATOM     12  C   UNL A   1      34.486  22.824  24.859  1.00  0.00     0.068 A 
ATOM     13  C   UNL A   1      34.999  22.700  23.561  1.00  0.00     0.028 A 
ATOM     14  C   UNL A   1      35.343  23.013  25.950  1.00  0.00     0.065 A 
ATOM     15  C   UNL A   1      36.373  22.836  23.352  1.00  0.00     0.002 A 
ATOM     16  C   UNL A   1      36.706  23.207  25.721  1.00  0.00     0.023 A 
ATOM     17  Cl  UNL A   1      34.786  22.966  27.585  1.00  0.00    -0.082 Cl
ATOM     18  C   UNL A   1      37.220  23.118  24.426  1.00  0.00     0.002 A 
ENDBRANCH   9  12
BRANCH  11  19
ATOM     19  C   UNL A   1      33.299  20.134  25.698  1.00  0.00     0.113 C 
BRANCH  19  20
ATOM     20  C   UNL A   1      33.293  19.161  24.545  1.00  0.00    -0.037 A 
ATOM     21  C   UNL A   1      32.345  19.278  23.522  1.00  0.00     0.024 A 
ATOM     22  C   UNL A   1      34.203  18.102  24.485  1.00  0.00     0.024 A 
ATOM     23  C   UNL A   1      32.336  18.336  22.507  1.00  0.00     0.111 A 
ATOM     24  C   UNL A   1      34.110  17.207  23.430  1.00  0.00     0.111 A 
ATOM     25  N   UNL A   1      33.202  17.304  22.435  1.00  0.00    -0.265 NA
ENDBRANCH  19  20
ENDBRANCH  11  19
ENDBRANCH   6   7
ENDBRANCH   5   6
ENDBRANCH   3   5
ENDBRANCH   2   3
ENDBRANCH   1   2
BRANCH   1  26
ATOM     26  C   UNL A   1      31.955  30.909  26.625  1.00  0.00     0.275 C 
BRANCH  26  27
ATOM     27  O   UNL A   1      32.948  31.507  27.450  1.00  0.00    -0.458 OA
BRANCH  27  28
ATOM     28  C   UNL A   1      32.831  32.826  27.713  1.00  0.00     0.338 C 
ATOM     29  O   UNL A   1      31.955  33.582  27.353  1.00  0.00    -0.246 OA
BRANCH  28  30
ATOM     30  C   UNL A   1      34.020  33.205  28.498  1.00  0.00     0.060 A 
ATOM     31  C   UNL A   1      35.024  33.918  27.841  1.00  0.00     0.016 A 
ATOM     32  C   UNL A   1      34.223  32.618  29.759  1.00  0.00     0.016 A 
ATOM     33  C   UNL A   1      36.317  33.763  28.288  1.00  0.00     0.010 A 
ATOM     34  C   UNL A   1      35.505  32.461  30.202  1.00  0.00     0.010 A 
ATOM     35  C   UNL A   1      36.527  32.913  29.374  1.00  0.00    -0.014 A 
BRANCH  35  36
ATOM     36  C   UNL A   1      37.831  32.309  29.535  1.00  0.00     0.031 A 
ATOM     37  C   UNL A   1      37.925  30.916  29.058  1.00  0.00     0.074 A 
ATOM     38  C   UNL A   1      38.859  33.094  29.924  1.00  0.00     0.049 A 
ATOM     39  N   UNL A   1      38.275  29.865  29.720  1.00  0.00    -0.248 NA
ATOM     40  C   UNL A   1      37.434  30.637  27.697  1.00  0.00     0.031 C 
ATOM     41  C   UNL A   1      38.857  34.553  30.128  1.00  0.00     0.029 A 
ATOM     42  N   UNL A   1      40.167  32.772  30.094  1.00  0.00    -0.354 N 
ATOM     43  C   UNL A   1      38.256  28.828  28.795  1.00  0.00     0.074 A 
ATOM     44  C   UNL A   1      37.553  29.313  27.639  1.00  0.00     0.031 C 
ATOM     45  C   UNL A   1      40.130  35.004  30.157  1.00  0.00     0.029 A 
ATOM     46  C   UNL A   1      41.026  33.865  30.101  1.00  0.00     0.049 A 
ATOM     47  H   UNL A   1      40.480  31.845  30.202  1.00  0.00     0.167 HD
ATOM     48  C   UNL A   1      39.063  27.746  28.931  1.00  0.00     0.037 A 
ATOM     49  C   UNL A   1      42.371  33.806  29.948  1.00  0.00     0.037 A 
ATOM     50  C   UNL A   1      39.510  27.579  30.287  1.00  0.00     0.049 A 
ATOM     51  C   UNL A   1      42.779  32.402  30.223  1.00  0.00     0.074 A 
ATOM     52  C   UNL A   1      38.868  27.384  31.495  1.00  0.00     0.029 A 
ATOM     53  N   UNL A   1      40.785  27.978  30.606  1.00  0.00    -0.354 N 
ATOM     54  N   UNL A   1      42.691  31.839  31.399  1.00  0.00    -0.248 NA
ATOM     55  C   UNL A   1      42.818  31.483  29.094  1.00  0.00     0.031 C 
ATOM     56  C   UNL A   1      39.624  28.134  32.442  1.00  0.00     0.029 A 
ATOM     57  C   UNL A   1      40.706  28.701  31.769  1.00  0.00     0.049 A 
ATOM     58  H   UNL A   1      41.603  27.782  30.092  1.00  0.00     0.167 HD
ATOM     59  C   UNL A   1      42.261  30.542  31.146  1.00  0.00     0.074 A 
ATOM     60  C   UNL A   1      42.420  30.363  29.704  1.00  0.00     0.031 C 
ATOM     61  C   UNL A   1      41.545  29.838  32.071  1.00  0.00     0.037 A 
BRANCH  48  62
ATOM     62  C   UNL A   1      39.733  27.082  27.758  1.00  0.00     0.057 A 
ATOM     63  C   UNL A   1      39.680  25.686  27.634  1.00  0.00     0.134 A 
ATOM     64  C   UNL A   1      40.654  27.728  26.904  1.00  0.00     0.134 A 
ATOM     65  F   UNL A   1      38.863  24.959  28.412  1.00  0.00    -0.206 F 
ATOM     66  C   UNL A   1      40.520  24.982  26.764  1.00  0.00     0.040 A 
ATOM     67  C   UNL A   1      41.455  27.042  25.992  1.00  0.00     0.040 A 
ATOM     68  F   UNL A   1      40.902  29.042  26.975  1.00  0.00    -0.206 F 
ATOM     69  C   UNL A   1      41.413  25.659  25.941  1.00  0.00     0.006 A 
ENDBRANCH  48  62
BRANCH  49  70
ATOM     70  C   UNL A   1      43.226  34.767  29.210  1.00  0.00     0.057 A 
ATOM     71  C   UNL A   1      44.519  35.080  29.647  1.00  0.00     0.134 A 
ATOM     72  C   UNL A   1      42.888  35.215  27.918  1.00  0.00     0.134 A 
ATOM     73  F   UNL A   1      44.954  34.654  30.841  1.00  0.00    -0.206 F 
ATOM     74  C   UNL A   1      45.425  35.794  28.846  1.00  0.00     0.040 A 
ATOM     75  C   UNL A   1      43.777  35.935  27.114  1.00  0.00     0.040 A 
ATOM     76  F   UNL A   1      41.713  34.897  27.357  1.00  0.00    -0.206 F 
ATOM     77  C   UNL A   1      45.056  36.218  27.573  1.00  0.00     0.006 A 
ENDBRANCH  49  70
BRANCH  61  78
ATOM     78  C   UNL A   1      41.398  30.435  33.445  1.00  0.00     0.057 A 
ATOM     79  C   UNL A   1      40.344  31.289  33.807  1.00  0.00     0.134 A 
ATOM     80  C   UNL A   1      42.235  29.998  34.475  1.00  0.00     0.134 A 
ATOM     81  F   UNL A   1      39.429  31.674  32.911  1.00  0.00    -0.206 F 
ATOM     82  C   UNL A   1      40.156  31.720  35.125  1.00  0.00     0.040 A 
ATOM     83  C   UNL A   1      42.041  30.395  35.800  1.00  0.00     0.040 A 
ATOM     84  F   UNL A   1      43.224  29.128  34.216  1.00  0.00    -0.206 F 
ATOM     85  C   UNL A   1      41.004  31.266  36.128  1.00  0.00     0.006 A 
ENDBRANCH  61  78
ENDBRANCH  35  36
ENDBRANCH  28  30
ENDBRANCH  27  28
ENDBRANCH  26  27
ENDBRANCH   1  26
TORSDOF 16
ENDMDL
MODEL 3
REMARK VINA RESULT:     -11.2      2.394      6.558
REMARK SMILES O=C(CSc1nnc(Cc2ccncc2)n1-c1ccccc1Cl)OCCOC(=O)c1ccc(-c2c3nc(c(-c4c(F)cccc4F)c4ccc([nH]4)c(-c4c(F)cccc4F)c4nc(c(-c5c(F)cccc5F)c5ccc2[nH]5)C=C4)C=C3)cc1
REMARK SMILES IDX 25 1 24 2 2 3 1 4 3 5 4 6 5 7 6 8 16 9 7 10 8 11 17 12 18 13
REMARK SMILES IDX 22 14 19 15 21 16 23 17 20 18 9 19 10 20 11 21 15 22 12 23
REMARK SMILES IDX 14 24 13 25 26 26 27 27 28 28 29 29 30 30 31 31 83 32 32 33
REMARK SMILES IDX 82 34 33 35 34 36 35 37 76 38 36 39 81 40 75 41 77 42 37 43
REMARK SMILES IDX 80 44 74 45 73 46 38 48 64 49 47 50 63 51 48 52 51 53 62 54
REMARK SMILES IDX 78 55 49 56 50 57 61 59 79 60 52 61 39 62 40 63 45 64 41 65
REMARK SMILES IDX 42 66 44 67 46 68 43 69 65 70 66 71 71 72 67 73 68 74 70 75
REMARK SMILES IDX 72 76 69 77 53 78 54 79 59 80 55 81 56 82 58 83 60 84 57 85
REMARK H PARENT 77 47 51 58
REMARK Flexibility Score: inf
ROOT
ATOM      1  C   UNL A   1      40.798  20.565  27.154  1.00  0.00     0.274 C 
ENDROOT
BRANCH   1   2
ATOM      2  O   UNL A   1      40.323  21.339  26.031  1.00  0.00    -0.461 OA
BRANCH   2   3
ATOM      3  C   UNL A   1      39.153  22.015  26.088  1.00  0.00     0.316 C 
ATOM      4  O   UNL A   1      39.072  23.059  26.731  1.00  0.00    -0.251 OA
BRANCH   3   5
ATOM      5  C   UNL A   1      37.928  21.445  25.419  1.00  0.00     0.200 C 
BRANCH   5   6
ATOM      6  S   UNL A   1      36.371  22.177  25.864  1.00  0.00    -0.074 SA
BRANCH   6   7
ATOM      7  C   UNL A   1      35.570  22.803  24.467  1.00  0.00     0.196 A 
ATOM      8  N   UNL A   1      36.221  22.842  23.324  1.00  0.00    -0.123 NA
ATOM      9  N   UNL A   1      34.253  23.167  24.251  1.00  0.00    -0.272 N 
ATOM     10  N   UNL A   1      35.355  23.216  22.340  1.00  0.00    -0.134 NA
ATOM     11  C   UNL A   1      34.179  23.428  22.892  1.00  0.00     0.142 A 
BRANCH   9  12
ATOM     12  C   UNL A   1      33.151  23.170  25.124  1.00  0.00     0.068 A 
ATOM     13  C   UNL A   1      32.256  22.093  25.077  1.00  0.00     0.028 A 
ATOM     14  C   UNL A   1      32.879  24.291  25.917  1.00  0.00     0.065 A 
ATOM     15  C   UNL A   1      31.116  22.115  25.884  1.00  0.00     0.002 A 
ATOM     16  C   UNL A   1      31.770  24.274  26.763  1.00  0.00     0.023 A 
ATOM     17  Cl  UNL A   1      33.841  25.725  25.855  1.00  0.00    -0.082 Cl
ATOM     18  C   UNL A   1      30.890  23.190  26.747  1.00  0.00     0.002 A 
ENDBRANCH   9  12
BRANCH  11  19
ATOM     19  C   UNL A   1      32.964  23.894  22.160  1.00  0.00     0.113 C 
BRANCH  19  20
ATOM     20  C   UNL A   1      32.663  25.348  22.432  1.00  0.00    -0.037 A 
ATOM     21  C   UNL A   1      33.655  26.321  22.265  1.00  0.00     0.024 A 
ATOM     22  C   UNL A   1      31.408  25.756  22.890  1.00  0.00     0.024 A 
ATOM     23  C   UNL A   1      33.359  27.638  22.574  1.00  0.00     0.111 A 
ATOM     24  C   UNL A   1      31.210  27.098  23.178  1.00  0.00     0.111 A 
ATOM     25  N   UNL A   1      32.155  28.050  23.023  1.00  0.00    -0.265 NA
ENDBRANCH  19  20
ENDBRANCH  11  19
ENDBRANCH   6   7
ENDBRANCH   5   6
ENDBRANCH   3   5
ENDBRANCH   2   3
ENDBRANCH   1   2
BRANCH   1  26
ATOM     26  C   UNL A   1      42.173  19.953  26.891  1.00  0.00     0.275 C 
BRANCH  26  27
ATOM     27  O   UNL A   1      42.468  20.171  25.517  1.00  0.00    -0.458 OA
BRANCH  27  28
ATOM     28  C   UNL A   1      43.756  20.057  25.129  1.00  0.00     0.338 C 
ATOM     29  O   UNL A   1      44.379  19.042  24.902  1.00  0.00    -0.246 OA
BRANCH  28  30
ATOM     30  C   UNL A   1      44.302  21.425  25.078  1.00  0.00     0.060 A 
ATOM     31  C   UNL A   1      45.510  21.661  25.737  1.00  0.00     0.016 A 
ATOM     32  C   UNL A   1      43.483  22.473  24.622  1.00  0.00     0.016 A 
ATOM     33  C   UNL A   1      45.735  22.926  26.229  1.00  0.00     0.010 A 
ATOM     34  C   UNL A   1      43.702  23.728  25.113  1.00  0.00     0.010 A 
ATOM     35  C   UNL A   1      44.742  23.885  26.024  1.00  0.00    -0.014 A 
BRANCH  35  36
ATOM     36  C   UNL A   1      44.668  25.007  26.933  1.00  0.00     0.031 A 
ATOM     37  C   UNL A   1      45.788  25.960  26.826  1.00  0.00     0.074 A 
ATOM     38  C   UNL A   1      43.535  25.179  27.649  1.00  0.00     0.049 A 
ATOM     39  N   UNL A   1      46.611  26.336  27.746  1.00  0.00    -0.248 NA
ATOM     40  C   UNL A   1      46.120  26.457  25.479  1.00  0.00     0.031 C 
ATOM     41  C   UNL A   1      42.283  24.407  27.563  1.00  0.00     0.029 A 
ATOM     42  N   UNL A   1      43.213  26.171  28.518  1.00  0.00    -0.354 N 
ATOM     43  C   UNL A   1      47.427  27.284  27.140  1.00  0.00     0.074 A 
ATOM     44  C   UNL A   1      47.214  27.174  25.723  1.00  0.00     0.031 C 
ATOM     45  C   UNL A   1      41.288  25.098  28.160  1.00  0.00     0.029 A 
ATOM     46  C   UNL A   1      41.851  26.286  28.771  1.00  0.00     0.049 A 
ATOM     47  H   UNL A   1      43.885  26.758  28.932  1.00  0.00     0.167 HD
ATOM     48  C   UNL A   1      48.003  28.281  27.859  1.00  0.00     0.037 A 
ATOM     49  C   UNL A   1      41.247  27.357  29.342  1.00  0.00     0.037 A 
ATOM     50  C   UNL A   1      48.081  27.956  29.257  1.00  0.00     0.049 A 
ATOM     51  C   UNL A   1      42.309  28.140  30.029  1.00  0.00     0.074 A 
ATOM     52  C   UNL A   1      48.686  26.944  29.979  1.00  0.00     0.029 A 
ATOM     53  N   UNL A   1      47.161  28.519  30.108  1.00  0.00    -0.354 N 
ATOM     54  N   UNL A   1      42.968  27.709  31.071  1.00  0.00    -0.248 NA
ATOM     55  C   UNL A   1      42.973  29.185  29.261  1.00  0.00     0.031 C 
ATOM     56  C   UNL A   1      47.773  26.642  31.030  1.00  0.00     0.029 A 
ATOM     57  C   UNL A   1      46.692  27.517  30.919  1.00  0.00     0.049 A 
ATOM     58  H   UNL A   1      46.889  29.465  30.129  1.00  0.00     0.167 HD
ATOM     59  C   UNL A   1      44.278  28.124  30.867  1.00  0.00     0.074 A 
ATOM     60  C   UNL A   1      44.206  29.085  29.767  1.00  0.00     0.031 C 
ATOM     61  C   UNL A   1      45.331  27.440  31.402  1.00  0.00     0.037 A 
BRANCH  48  62
ATOM     62  C   UNL A   1      48.140  29.684  27.332  1.00  0.00     0.057 A 
ATOM     63  C   UNL A   1      49.393  30.313  27.366  1.00  0.00     0.134 A 
ATOM     64  C   UNL A   1      47.046  30.534  27.053  1.00  0.00     0.134 A 
ATOM     65  F   UNL A   1      50.504  29.615  27.647  1.00  0.00    -0.206 F 
ATOM     66  C   UNL A   1      49.540  31.694  27.188  1.00  0.00     0.040 A 
ATOM     67  C   UNL A   1      47.188  31.901  26.818  1.00  0.00     0.040 A 
ATOM     68  F   UNL A   1      45.777  30.109  27.093  1.00  0.00    -0.206 F 
ATOM     69  C   UNL A   1      48.435  32.493  26.915  1.00  0.00     0.006 A 
ENDBRANCH  48  62
BRANCH  49  70
ATOM     70  C   UNL A   1      39.923  27.924  28.990  1.00  0.00     0.057 A 
ATOM     71  C   UNL A   1      38.890  28.007  29.932  1.00  0.00     0.134 A 
ATOM     72  C   UNL A   1      39.717  28.628  27.788  1.00  0.00     0.134 A 
ATOM     73  F   UNL A   1      39.013  27.415  31.129  1.00  0.00    -0.206 F 
ATOM     74  C   UNL A   1      37.722  28.748  29.695  1.00  0.00     0.040 A 
ATOM     75  C   UNL A   1      38.554  29.362  27.534  1.00  0.00     0.040 A 
ATOM     76  F   UNL A   1      40.672  28.697  26.850  1.00  0.00    -0.206 F 
ATOM     77  C   UNL A   1      37.554  29.433  28.495  1.00  0.00     0.006 A 
ENDBRANCH  49  70
BRANCH  61  78
ATOM     78  C   UNL A   1      45.027  26.334  32.377  1.00  0.00     0.057 A 
ATOM     79  C   UNL A   1      44.763  26.555  33.738  1.00  0.00     0.134 A 
ATOM     80  C   UNL A   1      44.819  25.038  31.898  1.00  0.00     0.134 A 
ATOM     81  F   UNL A   1      44.831  27.783  34.263  1.00  0.00    -0.206 F 
ATOM     82  C   UNL A   1      44.351  25.525  34.591  1.00  0.00     0.040 A 
ATOM     83  C   UNL A   1      44.377  24.007  32.731  1.00  0.00     0.040 A 
ATOM     84  F   UNL A   1      44.987  24.767  30.594  1.00  0.00    -0.206 F 
ATOM     85  C   UNL A   1      44.150  24.247  34.084  1.00  0.00     0.006 A 
ENDBRANCH  61  78
ENDBRANCH  35  36
ENDBRANCH  28  30
ENDBRANCH  27  28
ENDBRANCH  26  27
ENDBRANCH   1  26
TORSDOF 16
ENDMDL
