MODEL 1
REMARK VINA RESULT:     -12.0      0.000      0.000
REMARK SMILES O=C(OCCOC(=O)[C@@H]1CCCC[C@H]1C(=O)Nc1cnn(Cc2ccc(Cl)c(Cl)c2)c1)c1ccc(-c2c3nc(c(-c4c(F)cccc4F)c4ccc([nH]4)c(-c4c(F)cccc4F)c4nc(c(-c5c(F)cccc5F)c5ccc2[nH]5)C=C4)C=C3)cc1
REMARK SMILES IDX 5 1 4 2 3 3 2 4 1 5 32 6 33 7 85 8 34 9 84 10 35 11 36 12
REMARK SMILES IDX 37 13 78 14 38 15 83 16 77 17 79 18 39 19 82 20 76 21 75 22
REMARK SMILES IDX 40 24 66 25 49 26 65 27 50 28 53 29 64 30 80 31 51 32 52 33
REMARK SMILES IDX 63 35 81 36 54 37 41 38 42 39 47 40 43 41 44 42 46 43 48 44
REMARK SMILES IDX 45 45 67 46 68 47 73 48 69 49 70 50 72 51 74 52 71 53 55 54
REMARK SMILES IDX 56 55 61 56 57 57 58 58 60 59 62 60 59 61 6 62 7 63 8 64
REMARK SMILES IDX 9 65 10 66 14 67 11 68 13 69 12 70 15 71 16 72 17 73 18 75
REMARK SMILES IDX 19 76 31 77 20 78 21 79 22 80 23 81 24 82 30 83 25 84 28 85
REMARK SMILES IDX 26 86 29 87 27 88
REMARK H PARENT 79 23 53 34 17 74
REMARK Flexibility Score: inf
ROOT
ATOM      1  C   UNL A   1      33.348  30.521  27.019  1.00  0.00     0.274 C 
ENDROOT
BRANCH   1   2
ATOM      2  C   UNL A   1      34.628  29.669  26.994  1.00  0.00     0.275 C 
BRANCH   2   3
ATOM      3  O   UNL A   1      35.212  29.320  28.252  1.00  0.00    -0.458 OA
BRANCH   3   4
ATOM      4  C   UNL A   1      36.105  30.170  28.773  1.00  0.00     0.338 C 
ATOM      5  O   UNL A   1      35.813  31.286  29.197  1.00  0.00    -0.246 OA
BRANCH   4   6
ATOM      6  C   UNL A   1      37.437  29.582  29.018  1.00  0.00     0.060 A 
ATOM      7  C   UNL A   1      37.806  28.738  30.084  1.00  0.00     0.016 A 
ATOM      8  C   UNL A   1      38.336  29.835  27.996  1.00  0.00     0.016 A 
ATOM      9  C   UNL A   1      39.088  28.187  30.147  1.00  0.00     0.010 A 
ATOM     10  C   UNL A   1      39.551  29.204  28.011  1.00  0.00     0.010 A 
ATOM     11  C   UNL A   1      39.977  28.441  29.110  1.00  0.00    -0.014 A 
BRANCH  11  12
ATOM     12  C   UNL A   1      41.339  27.893  29.065  1.00  0.00     0.031 A 
ATOM     13  C   UNL A   1      41.601  26.593  28.330  1.00  0.00     0.074 A 
ATOM     14  C   UNL A   1      42.344  28.744  29.381  1.00  0.00     0.049 A 
ATOM     15  N   UNL A   1      42.451  25.648  28.593  1.00  0.00    -0.248 NA
ATOM     16  C   UNL A   1      40.824  26.294  27.125  1.00  0.00     0.031 C 
ATOM     17  C   UNL A   1      42.277  30.126  29.902  1.00  0.00     0.029 A 
ATOM     18  N   UNL A   1      43.671  28.599  29.159  1.00  0.00    -0.354 N 
ATOM     19  C   UNL A   1      42.435  24.761  27.503  1.00  0.00     0.074 A 
ATOM     20  C   UNL A   1      41.410  25.215  26.613  1.00  0.00     0.031 C 
ATOM     21  C   UNL A   1      43.446  30.761  29.677  1.00  0.00     0.029 A 
ATOM     22  C   UNL A   1      44.404  29.774  29.229  1.00  0.00     0.049 A 
ATOM     23  H   UNL A   1      44.083  27.727  28.962  1.00  0.00     0.167 HD
ATOM     24  C   UNL A   1      43.330  23.747  27.352  1.00  0.00     0.037 A 
ATOM     25  C   UNL A   1      45.720  29.923  28.958  1.00  0.00     0.037 A 
ATOM     26  C   UNL A   1      43.874  23.351  28.618  1.00  0.00     0.049 A 
ATOM     27  C   UNL A   1      46.320  28.569  29.050  1.00  0.00     0.074 A 
ATOM     28  C   UNL A   1      43.301  22.853  29.773  1.00  0.00     0.029 A 
ATOM     29  N   UNL A   1      45.087  23.863  29.004  1.00  0.00    -0.354 N 
ATOM     30  N   UNL A   1      46.354  27.879  30.160  1.00  0.00    -0.248 NA
ATOM     31  C   UNL A   1      46.400  27.792  27.822  1.00  0.00     0.031 C 
ATOM     32  C   UNL A   1      43.897  23.626  30.813  1.00  0.00     0.029 A 
ATOM     33  C   UNL A   1      44.865  24.447  30.229  1.00  0.00     0.049 A 
ATOM     34  H   UNL A   1      45.937  23.821  28.510  1.00  0.00     0.167 HD
ATOM     35  C   UNL A   1      46.054  26.579  29.784  1.00  0.00     0.074 A 
ATOM     36  C   UNL A   1      46.145  26.579  28.320  1.00  0.00     0.031 C 
ATOM     37  C   UNL A   1      45.478  25.686  30.646  1.00  0.00     0.037 A 
BRANCH  24  38
ATOM     38  C   UNL A   1      43.921  23.305  26.039  1.00  0.00     0.057 A 
ATOM     39  C   UNL A   1      43.895  21.944  25.681  1.00  0.00     0.134 A 
ATOM     40  C   UNL A   1      44.796  24.110  25.283  1.00  0.00     0.134 A 
ATOM     41  F   UNL A   1      43.090  21.080  26.320  1.00  0.00    -0.206 F 
ATOM     42  C   UNL A   1      44.752  21.406  24.712  1.00  0.00     0.040 A 
ATOM     43  C   UNL A   1      45.632  23.588  24.289  1.00  0.00     0.040 A 
ATOM     44  F   UNL A   1      44.952  25.416  25.536  1.00  0.00    -0.206 F 
ATOM     45  C   UNL A   1      45.639  22.225  24.027  1.00  0.00     0.006 A 
ENDBRANCH  24  38
BRANCH  25  46
ATOM     46  C   UNL A   1      46.392  31.089  28.349  1.00  0.00     0.057 A 
ATOM     47  C   UNL A   1      46.164  31.449  27.017  1.00  0.00     0.134 A 
ATOM     48  C   UNL A   1      47.086  32.027  29.136  1.00  0.00     0.134 A 
ATOM     49  F   UNL A   1      45.480  30.633  26.203  1.00  0.00    -0.206 F 
ATOM     50  C   UNL A   1      46.585  32.681  26.498  1.00  0.00     0.040 A 
ATOM     51  C   UNL A   1      47.513  33.260  28.632  1.00  0.00     0.040 A 
ATOM     52  F   UNL A   1      47.301  31.809  30.443  1.00  0.00    -0.206 F 
ATOM     53  C   UNL A   1      47.252  33.597  27.309  1.00  0.00     0.006 A 
ENDBRANCH  25  46
BRANCH  37  54
ATOM     54  C   UNL A   1      45.236  26.100  32.078  1.00  0.00     0.057 A 
ATOM     55  C   UNL A   1      44.029  26.637  32.553  1.00  0.00     0.134 A 
ATOM     56  C   UNL A   1      46.167  25.742  33.054  1.00  0.00     0.134 A 
ATOM     57  F   UNL A   1      43.019  26.905  31.729  1.00  0.00    -0.206 F 
ATOM     58  C   UNL A   1      43.771  26.846  33.911  1.00  0.00     0.040 A 
ATOM     59  C   UNL A   1      45.916  25.916  34.421  1.00  0.00     0.040 A 
ATOM     60  F   UNL A   1      47.319  25.152  32.701  1.00  0.00    -0.206 F 
ATOM     61  C   UNL A   1      44.717  26.476  34.854  1.00  0.00     0.006 A 
ENDBRANCH  37  54
ENDBRANCH  11  12
ENDBRANCH   4   6
ENDBRANCH   3   4
ENDBRANCH   2   3
ENDBRANCH   1   2
BRANCH   1  62
ATOM     62  O   UNL A   1      32.260  30.047  26.175  1.00  0.00    -0.462 OA
BRANCH  62  63
ATOM     63  C   UNL A   1      31.761  28.816  26.509  1.00  0.00     0.309 C 
ATOM     64  O   UNL A   1      31.586  28.442  27.666  1.00  0.00    -0.252 OA
BRANCH  63  65
ATOM     65  C   UNL A   1      31.659  27.820  25.354  1.00  0.00     0.111 C 
ATOM     66  C   UNL A   1      31.835  28.681  24.091  1.00  0.00     0.016 C 
ATOM     67  C   UNL A   1      30.450  26.863  25.306  1.00  0.00     0.093 C 
ATOM     68  C   UNL A   1      31.719  27.879  22.810  1.00  0.00     0.001 C 
ATOM     69  C   UNL A   1      30.176  26.282  23.890  1.00  0.00     0.014 C 
ATOM     70  C   UNL A   1      30.343  27.257  22.744  1.00  0.00     0.001 C 
BRANCH  67  71
ATOM     71  C   UNL A   1      30.543  25.618  26.206  1.00  0.00     0.228 C 
ATOM     72  O   UNL A   1      29.571  24.889  26.412  1.00  0.00    -0.274 OA
ATOM     73  N   UNL A   1      31.743  25.200  26.709  1.00  0.00    -0.323 N 
ATOM     74  H   UNL A   1      32.116  25.536  27.556  1.00  0.00     0.170 HD
BRANCH  73  75
ATOM     75  C   UNL A   1      32.389  24.258  25.918  1.00  0.00     0.079 A 
ATOM     76  C   UNL A   1      32.320  22.862  25.969  1.00  0.00     0.161 A 
ATOM     77  C   UNL A   1      33.303  24.547  24.930  1.00  0.00     0.135 A 
ATOM     78  N   UNL A   1      33.168  22.293  25.108  1.00  0.00    -0.179 NA
ATOM     79  N   UNL A   1      33.838  23.343  24.576  1.00  0.00    -0.266 N 
BRANCH  79  80
ATOM     80  C   UNL A   1      34.988  23.132  23.703  1.00  0.00     0.179 C 
BRANCH  80  81
ATOM     81  C   UNL A   1      36.287  22.863  24.442  1.00  0.00    -0.025 A 
ATOM     82  C   UNL A   1      36.882  23.822  25.278  1.00  0.00     0.007 A 
ATOM     83  C   UNL A   1      36.862  21.581  24.401  1.00  0.00     0.027 A 
ATOM     84  C   UNL A   1      38.005  23.516  26.049  1.00  0.00     0.022 A 
ATOM     85  C   UNL A   1      37.984  21.265  25.182  1.00  0.00     0.060 A 
ATOM     86  C   UNL A   1      38.552  22.234  26.014  1.00  0.00     0.059 A 
ATOM     87  Cl  UNL A   1      38.594  19.650  25.094  1.00  0.00    -0.083 Cl
ATOM     88  Cl  UNL A   1      39.903  21.907  27.040  1.00  0.00    -0.083 Cl
ENDBRANCH  80  81
ENDBRANCH  79  80
ENDBRANCH  73  75
ENDBRANCH  67  71
ENDBRANCH  63  65
ENDBRANCH  62  63
ENDBRANCH   1  62
TORSDOF 15
ENDMDL
MODEL 2
REMARK VINA RESULT:     -11.8      1.956      5.940
REMARK SMILES O=C(OCCOC(=O)[C@@H]1CCCC[C@H]1C(=O)Nc1cnn(Cc2ccc(Cl)c(Cl)c2)c1)c1ccc(-c2c3nc(c(-c4c(F)cccc4F)c4ccc([nH]4)c(-c4c(F)cccc4F)c4nc(c(-c5c(F)cccc5F)c5ccc2[nH]5)C=C4)C=C3)cc1
REMARK SMILES IDX 5 1 4 2 3 3 2 4 1 5 32 6 33 7 85 8 34 9 84 10 35 11 36 12
REMARK SMILES IDX 37 13 78 14 38 15 83 16 77 17 79 18 39 19 82 20 76 21 75 22
REMARK SMILES IDX 40 24 66 25 49 26 65 27 50 28 53 29 64 30 80 31 51 32 52 33
REMARK SMILES IDX 63 35 81 36 54 37 41 38 42 39 47 40 43 41 44 42 46 43 48 44
REMARK SMILES IDX 45 45 67 46 68 47 73 48 69 49 70 50 72 51 74 52 71 53 55 54
REMARK SMILES IDX 56 55 61 56 57 57 58 58 60 59 62 60 59 61 6 62 7 63 8 64
REMARK SMILES IDX 9 65 10 66 14 67 11 68 13 69 12 70 15 71 16 72 17 73 18 75
REMARK SMILES IDX 19 76 31 77 20 78 21 79 22 80 23 81 24 82 30 83 25 84 28 85
REMARK SMILES IDX 26 86 29 87 27 88
REMARK H PARENT 79 23 53 34 17 74
REMARK Flexibility Score: inf
ROOT
ATOM      1  C   UNL A   1      32.211  30.253  27.046  1.00  0.00     0.274 C 
ENDROOT
BRANCH   1   2
ATOM      2  C   UNL A   1      33.189  31.428  27.218  1.00  0.00     0.275 C 
BRANCH   2   3
ATOM      3  O   UNL A   1      34.199  31.303  28.223  1.00  0.00    -0.458 OA
BRANCH   3   4
ATOM      4  C   UNL A   1      35.404  31.819  27.952  1.00  0.00     0.338 C 
ATOM      5  O   UNL A   1      35.579  32.978  27.585  1.00  0.00    -0.246 OA
BRANCH   4   6
ATOM      6  C   UNL A   1      36.539  30.961  28.350  1.00  0.00     0.060 A 
ATOM      7  C   UNL A   1      36.654  29.570  28.158  1.00  0.00     0.016 A 
ATOM      8  C   UNL A   1      37.609  31.679  28.853  1.00  0.00     0.016 A 
ATOM      9  C   UNL A   1      37.824  28.895  28.514  1.00  0.00     0.010 A 
ATOM     10  C   UNL A   1      38.789  31.027  29.095  1.00  0.00     0.010 A 
ATOM     11  C   UNL A   1      38.896  29.630  29.008  1.00  0.00    -0.014 A 
BRANCH  11  12
ATOM     12  C   UNL A   1      40.179  29.025  29.388  1.00  0.00     0.031 A 
ATOM     13  C   UNL A   1      40.533  28.874  30.854  1.00  0.00     0.074 A 
ATOM     14  C   UNL A   1      40.824  28.321  28.426  1.00  0.00     0.049 A 
ATOM     15  N   UNL A   1      41.690  28.943  31.439  1.00  0.00    -0.248 NA
ATOM     16  C   UNL A   1      39.463  28.594  31.814  1.00  0.00     0.031 C 
ATOM     17  C   UNL A   1      40.499  28.174  26.991  1.00  0.00     0.029 A 
ATOM     18  N   UNL A   1      41.849  27.450  28.566  1.00  0.00    -0.354 N 
ATOM     19  C   UNL A   1      41.504  28.538  32.773  1.00  0.00     0.074 A 
ATOM     20  C   UNL A   1      40.100  28.324  32.950  1.00  0.00     0.031 C 
ATOM     21  C   UNL A   1      41.108  27.079  26.491  1.00  0.00     0.029 A 
ATOM     22  C   UNL A   1      42.041  26.600  27.486  1.00  0.00     0.049 A 
ATOM     23  H   UNL A   1      42.413  27.419  29.372  1.00  0.00     0.167 HD
ATOM     24  C   UNL A   1      42.533  28.316  33.636  1.00  0.00     0.037 A 
ATOM     25  C   UNL A   1      42.927  25.582  27.406  1.00  0.00     0.037 A 
ATOM     26  C   UNL A   1      43.699  29.053  33.243  1.00  0.00     0.049 A 
ATOM     27  C   UNL A   1      43.954  25.841  28.446  1.00  0.00     0.074 A 
ATOM     28  C   UNL A   1      43.948  30.404  33.082  1.00  0.00     0.029 A 
ATOM     29  N   UNL A   1      44.668  28.414  32.512  1.00  0.00    -0.354 N 
ATOM     30  N   UNL A   1      44.744  26.883  28.424  1.00  0.00    -0.248 NA
ATOM     31  C   UNL A   1      43.742  25.237  29.754  1.00  0.00     0.031 C 
ATOM     32  C   UNL A   1      44.621  30.481  31.828  1.00  0.00     0.029 A 
ATOM     33  C   UNL A   1      44.834  29.175  31.380  1.00  0.00     0.049 A 
ATOM     34  H   UNL A   1      45.145  27.586  32.749  1.00  0.00     0.167 HD
ATOM     35  C   UNL A   1      44.807  27.313  29.740  1.00  0.00     0.074 A 
ATOM     36  C   UNL A   1      44.211  26.224  30.522  1.00  0.00     0.031 C 
ATOM     37  C   UNL A   1      45.065  28.615  30.069  1.00  0.00     0.037 A 
BRANCH  24  38
ATOM     38  C   UNL A   1      42.573  27.221  34.669  1.00  0.00     0.057 A 
ATOM     39  C   UNL A   1      42.992  25.928  34.304  1.00  0.00     0.134 A 
ATOM     40  C   UNL A   1      41.906  27.311  35.907  1.00  0.00     0.134 A 
ATOM     41  F   UNL A   1      43.651  25.717  33.153  1.00  0.00    -0.206 F 
ATOM     42  C   UNL A   1      42.680  24.794  35.066  1.00  0.00     0.040 A 
ATOM     43  C   UNL A   1      41.619  26.188  36.692  1.00  0.00     0.040 A 
ATOM     44  F   UNL A   1      41.418  28.471  36.364  1.00  0.00    -0.206 F 
ATOM     45  C   UNL A   1      41.973  24.920  36.254  1.00  0.00     0.006 A 
ENDBRANCH  24  38
BRANCH  25  46
ATOM     46  C   UNL A   1      42.762  24.293  26.705  1.00  0.00     0.057 A 
ATOM     47  C   UNL A   1      43.613  23.914  25.663  1.00  0.00     0.134 A 
ATOM     48  C   UNL A   1      41.915  23.289  27.211  1.00  0.00     0.134 A 
ATOM     49  F   UNL A   1      44.478  24.796  25.142  1.00  0.00    -0.206 F 
ATOM     50  C   UNL A   1      43.637  22.606  25.160  1.00  0.00     0.040 A 
ATOM     51  C   UNL A   1      41.926  21.979  26.719  1.00  0.00     0.040 A 
ATOM     52  F   UNL A   1      41.105  23.528  28.255  1.00  0.00    -0.206 F 
ATOM     53  C   UNL A   1      42.799  21.630  25.696  1.00  0.00     0.006 A 
ENDBRANCH  25  46
BRANCH  37  54
ATOM     54  C   UNL A   1      45.373  29.603  28.968  1.00  0.00     0.057 A 
ATOM     55  C   UNL A   1      46.605  29.684  28.300  1.00  0.00     0.134 A 
ATOM     56  C   UNL A   1      44.330  30.345  28.411  1.00  0.00     0.134 A 
ATOM     57  F   UNL A   1      47.640  28.932  28.664  1.00  0.00    -0.206 F 
ATOM     58  C   UNL A   1      46.807  30.483  27.170  1.00  0.00     0.040 A 
ATOM     59  C   UNL A   1      44.505  31.127  27.263  1.00  0.00     0.040 A 
ATOM     60  F   UNL A   1      43.097  30.272  28.936  1.00  0.00    -0.206 F 
ATOM     61  C   UNL A   1      45.749  31.204  26.642  1.00  0.00     0.006 A 
ENDBRANCH  37  54
ENDBRANCH  11  12
ENDBRANCH   4   6
ENDBRANCH   3   4
ENDBRANCH   2   3
ENDBRANCH   1   2
BRANCH   1  62
ATOM     62  O   UNL A   1      32.783  28.927  27.229  1.00  0.00    -0.462 OA
BRANCH  62  63
ATOM     63  C   UNL A   1      31.958  27.888  26.889  1.00  0.00     0.309 C 
ATOM     64  O   UNL A   1      31.246  27.291  27.691  1.00  0.00    -0.252 OA
BRANCH  63  65
ATOM     65  C   UNL A   1      32.155  27.338  25.476  1.00  0.00     0.111 C 
ATOM     66  C   UNL A   1      33.460  27.992  24.989  1.00  0.00     0.016 C 
ATOM     67  C   UNL A   1      30.985  27.434  24.474  1.00  0.00     0.093 C 
ATOM     68  C   UNL A   1      33.817  27.608  23.567  1.00  0.00     0.001 C 
ATOM     69  C   UNL A   1      31.432  27.333  22.989  1.00  0.00     0.014 C 
ATOM     70  C   UNL A   1      32.711  28.065  22.643  1.00  0.00     0.001 C 
BRANCH  67  71
ATOM     71  C   UNL A   1      29.896  26.354  24.608  1.00  0.00     0.228 C 
ATOM     72  O   UNL A   1      29.162  26.049  23.666  1.00  0.00    -0.274 OA
ATOM     73  N   UNL A   1      29.787  25.600  25.742  1.00  0.00    -0.323 N 
ATOM     74  H   UNL A   1      29.258  25.879  26.524  1.00  0.00     0.170 HD
BRANCH  73  75
ATOM     75  C   UNL A   1      30.490  24.402  25.693  1.00  0.00     0.079 A 
ATOM     76  C   UNL A   1      30.714  23.466  26.708  1.00  0.00     0.161 A 
ATOM     77  C   UNL A   1      31.173  23.929  24.597  1.00  0.00     0.135 A 
ATOM     78  N   UNL A   1      31.526  22.486  26.305  1.00  0.00    -0.179 NA
ATOM     79  N   UNL A   1      31.885  22.859  25.053  1.00  0.00    -0.266 N 
BRANCH  79  80
ATOM     80  C   UNL A   1      32.915  22.130  24.321  1.00  0.00     0.179 C 
BRANCH  80  81
ATOM     81  C   UNL A   1      34.335  22.542  24.670  1.00  0.00    -0.025 A 
ATOM     82  C   UNL A   1      34.644  23.831  25.134  1.00  0.00     0.007 A 
ATOM     83  C   UNL A   1      35.364  21.585  24.655  1.00  0.00     0.027 A 
ATOM     84  C   UNL A   1      35.930  24.155  25.571  1.00  0.00     0.022 A 
ATOM     85  C   UNL A   1      36.654  21.902  25.104  1.00  0.00     0.060 A 
ATOM     86  C   UNL A   1      36.936  23.190  25.571  1.00  0.00     0.059 A 
ATOM     87  Cl  UNL A   1      37.842  20.647  25.085  1.00  0.00    -0.083 Cl
ATOM     88  Cl  UNL A   1      38.486  23.642  26.184  1.00  0.00    -0.083 Cl
ENDBRANCH  80  81
ENDBRANCH  79  80
ENDBRANCH  73  75
ENDBRANCH  67  71
ENDBRANCH  63  65
ENDBRANCH  62  63
ENDBRANCH   1  62
TORSDOF 15
ENDMDL
MODEL 3
REMARK VINA RESULT:     -11.8      4.583      8.996
REMARK SMILES O=C(OCCOC(=O)[C@@H]1CCCC[C@H]1C(=O)Nc1cnn(Cc2ccc(Cl)c(Cl)c2)c1)c1ccc(-c2c3nc(c(-c4c(F)cccc4F)c4ccc([nH]4)c(-c4c(F)cccc4F)c4nc(c(-c5c(F)cccc5F)c5ccc2[nH]5)C=C4)C=C3)cc1
REMARK SMILES IDX 5 1 4 2 3 3 2 4 1 5 32 6 33 7 85 8 34 9 84 10 35 11 36 12
REMARK SMILES IDX 37 13 78 14 38 15 83 16 77 17 79 18 39 19 82 20 76 21 75 22
REMARK SMILES IDX 40 24 66 25 49 26 65 27 50 28 53 29 64 30 80 31 51 32 52 33
REMARK SMILES IDX 63 35 81 36 54 37 41 38 42 39 47 40 43 41 44 42 46 43 48 44
REMARK SMILES IDX 45 45 67 46 68 47 73 48 69 49 70 50 72 51 74 52 71 53 55 54
REMARK SMILES IDX 56 55 61 56 57 57 58 58 60 59 62 60 59 61 6 62 7 63 8 64
REMARK SMILES IDX 9 65 10 66 14 67 11 68 13 69 12 70 15 71 16 72 17 73 18 75
REMARK SMILES IDX 19 76 31 77 20 78 21 79 22 80 23 81 24 82 30 83 25 84 28 85
REMARK SMILES IDX 26 86 29 87 27 88
REMARK H PARENT 79 23 53 34 17 74
REMARK Flexibility Score: inf
ROOT
ATOM      1  C   UNL A   1      34.640  34.301  27.963  1.00  0.00     0.274 C 
ENDROOT
BRANCH   1   2
ATOM      2  C   UNL A   1      33.845  33.022  27.652  1.00  0.00     0.275 C 
BRANCH   2   3
ATOM      3  O   UNL A   1      34.110  31.869  28.457  1.00  0.00    -0.458 OA
BRANCH   3   4
ATOM      4  C   UNL A   1      34.673  30.814  27.856  1.00  0.00     0.338 C 
ATOM      5  O   UNL A   1      34.140  30.188  26.944  1.00  0.00    -0.246 OA
BRANCH   4   6
ATOM      6  C   UNL A   1      36.090  30.594  28.211  1.00  0.00     0.060 A 
ATOM      7  C   UNL A   1      36.965  31.520  28.812  1.00  0.00     0.016 A 
ATOM      8  C   UNL A   1      36.500  29.287  28.010  1.00  0.00     0.016 A 
ATOM      9  C   UNL A   1      38.263  31.148  29.166  1.00  0.00     0.010 A 
ATOM     10  C   UNL A   1      37.735  28.905  28.460  1.00  0.00     0.010 A 
ATOM     11  C   UNL A   1      38.660  29.831  28.969  1.00  0.00    -0.014 A 
BRANCH  11  12
ATOM     12  C   UNL A   1      39.992  29.329  29.329  1.00  0.00     0.031 A 
ATOM     13  C   UNL A   1      40.321  29.046  30.781  1.00  0.00     0.074 A 
ATOM     14  C   UNL A   1      40.738  28.818  28.319  1.00  0.00     0.049 A 
ATOM     15  N   UNL A   1      41.445  29.172  31.417  1.00  0.00    -0.248 NA
ATOM     16  C   UNL A   1      39.263  28.540  31.659  1.00  0.00     0.031 C 
ATOM     17  C   UNL A   1      40.472  28.807  26.866  1.00  0.00     0.029 A 
ATOM     18  N   UNL A   1      41.851  28.053  28.401  1.00  0.00    -0.354 N 
ATOM     19  C   UNL A   1      41.271  28.595  32.687  1.00  0.00     0.074 A 
ATOM     20  C   UNL A   1      39.895  28.209  32.782  1.00  0.00     0.031 C 
ATOM     21  C   UNL A   1      41.214  27.851  26.269  1.00  0.00     0.029 A 
ATOM     22  C   UNL A   1      42.168  27.363  27.240  1.00  0.00     0.049 A 
ATOM     23  H   UNL A   1      42.393  27.990  29.220  1.00  0.00     0.167 HD
ATOM     24  C   UNL A   1      42.294  28.386  33.560  1.00  0.00     0.037 A 
ATOM     25  C   UNL A   1      43.165  26.464  27.080  1.00  0.00     0.037 A 
ATOM     26  C   UNL A   1      43.379  29.287  33.302  1.00  0.00     0.049 A 
ATOM     27  C   UNL A   1      44.127  26.709  28.184  1.00  0.00     0.074 A 
ATOM     28  C   UNL A   1      43.478  30.666  33.306  1.00  0.00     0.029 A 
ATOM     29  N   UNL A   1      44.434  28.848  32.542  1.00  0.00    -0.354 N 
ATOM     30  N   UNL A   1      44.795  27.826  28.312  1.00  0.00    -0.248 NA
ATOM     31  C   UNL A   1      43.949  25.936  29.405  1.00  0.00     0.031 C 
ATOM     32  C   UNL A   1      44.172  30.964  32.096  1.00  0.00     0.029 A 
ATOM     33  C   UNL A   1      44.544  29.750  31.511  1.00  0.00     0.049 A 
ATOM     34  H   UNL A   1      44.995  28.055  32.702  1.00  0.00     0.167 HD
ATOM     35  C   UNL A   1      44.773  28.102  29.670  1.00  0.00     0.074 A 
ATOM     36  C   UNL A   1      44.282  26.871  30.299  1.00  0.00     0.031 C 
ATOM     37  C   UNL A   1      44.873  29.378  30.155  1.00  0.00     0.037 A 
BRANCH  24  38
ATOM     38  C   UNL A   1      42.428  27.188  34.462  1.00  0.00     0.057 A 
ATOM     39  C   UNL A   1      42.048  27.282  35.813  1.00  0.00     0.134 A 
ATOM     40  C   UNL A   1      43.217  26.067  34.135  1.00  0.00     0.134 A 
ATOM     41  F   UNL A   1      41.283  28.298  36.244  1.00  0.00    -0.206 F 
ATOM     42  C   UNL A   1      42.505  26.384  36.787  1.00  0.00     0.040 A 
ATOM     43  C   UNL A   1      43.651  25.144  35.095  1.00  0.00     0.040 A 
ATOM     44  F   UNL A   1      43.684  25.868  32.896  1.00  0.00    -0.206 F 
ATOM     45  C   UNL A   1      43.326  25.322  36.432  1.00  0.00     0.006 A 
ENDBRANCH  24  38
BRANCH  25  46
ATOM     46  C   UNL A   1      43.166  25.256  26.231  1.00  0.00     0.057 A 
ATOM     47  C   UNL A   1      44.121  25.070  25.227  1.00  0.00     0.134 A 
ATOM     48  C   UNL A   1      42.377  24.135  26.553  1.00  0.00     0.134 A 
ATOM     49  F   UNL A   1      44.940  26.072  24.879  1.00  0.00    -0.206 F 
ATOM     50  C   UNL A   1      44.296  23.835  24.587  1.00  0.00     0.040 A 
ATOM     51  C   UNL A   1      42.540  22.897  25.922  1.00  0.00     0.040 A 
ATOM     52  F   UNL A   1      41.476  24.186  27.546  1.00  0.00    -0.206 F 
ATOM     53  C   UNL A   1      43.512  22.740  24.942  1.00  0.00     0.006 A 
ENDBRANCH  25  46
BRANCH  37  54
ATOM     54  C   UNL A   1      45.097  30.516  29.188  1.00  0.00     0.057 A 
ATOM     55  C   UNL A   1      44.075  31.331  28.676  1.00  0.00     0.134 A 
ATOM     56  C   UNL A   1      46.400  30.944  28.935  1.00  0.00     0.134 A 
ATOM     57  F   UNL A   1      42.795  31.093  28.952  1.00  0.00    -0.206 F 
ATOM     58  C   UNL A   1      44.326  32.484  27.925  1.00  0.00     0.040 A 
ATOM     59  C   UNL A   1      46.672  32.112  28.211  1.00  0.00     0.040 A 
ATOM     60  F   UNL A   1      47.442  30.271  29.448  1.00  0.00    -0.206 F 
ATOM     61  C   UNL A   1      45.633  32.882  27.696  1.00  0.00     0.006 A 
ENDBRANCH  37  54
ENDBRANCH  11  12
ENDBRANCH   4   6
ENDBRANCH   3   4
ENDBRANCH   2   3
ENDBRANCH   1   2
BRANCH   1  62
ATOM     62  O   UNL A   1      34.609  34.739  29.350  1.00  0.00    -0.462 OA
BRANCH  62  63
ATOM     63  C   UNL A   1      33.385  35.163  29.798  1.00  0.00     0.309 C 
ATOM     64  O   UNL A   1      32.509  35.612  29.064  1.00  0.00    -0.252 OA
BRANCH  63  65
ATOM     65  C   UNL A   1      33.252  35.277  31.316  1.00  0.00     0.111 C 
ATOM     66  C   UNL A   1      32.757  36.716  31.550  1.00  0.00     0.016 C 
ATOM     67  C   UNL A   1      34.452  34.868  32.197  1.00  0.00     0.093 C 
ATOM     68  C   UNL A   1      32.603  37.054  33.019  1.00  0.00     0.001 C 
ATOM     69  C   UNL A   1      34.411  35.485  33.624  1.00  0.00     0.014 C 
ATOM     70  C   UNL A   1      33.948  36.924  33.697  1.00  0.00     0.001 C 
BRANCH  67  71
ATOM     71  C   UNL A   1      34.614  33.358  32.450  1.00  0.00     0.228 C 
ATOM     72  O   UNL A   1      34.206  32.516  31.649  1.00  0.00    -0.274 OA
ATOM     73  N   UNL A   1      35.334  32.896  33.515  1.00  0.00    -0.323 N 
ATOM     74  H   UNL A   1      34.942  32.753  34.407  1.00  0.00     0.170 HD
BRANCH  73  75
ATOM     75  C   UNL A   1      36.671  32.647  33.228  1.00  0.00     0.079 A 
ATOM     76  C   UNL A   1      37.316  31.425  33.014  1.00  0.00     0.161 A 
ATOM     77  C   UNL A   1      37.656  33.604  33.155  1.00  0.00     0.135 A 
ATOM     78  N   UNL A   1      38.634  31.582  32.865  1.00  0.00    -0.179 NA
ATOM     79  N   UNL A   1      38.826  32.906  33.076  1.00  0.00    -0.266 N 
BRANCH  79  80
ATOM     80  C   UNL A   1      40.172  33.461  33.170  1.00  0.00     0.179 C 
BRANCH  80  81
ATOM     81  C   UNL A   1      40.771  33.869  31.835  1.00  0.00    -0.025 A 
ATOM     82  C   UNL A   1      39.972  34.150  30.715  1.00  0.00     0.007 A 
ATOM     83  C   UNL A   1      42.154  34.101  31.731  1.00  0.00     0.027 A 
ATOM     84  C   UNL A   1      40.528  34.647  29.534  1.00  0.00     0.022 A 
ATOM     85  C   UNL A   1      42.715  34.611  30.551  1.00  0.00     0.060 A 
ATOM     86  C   UNL A   1      41.898  34.892  29.452  1.00  0.00     0.059 A 
ATOM     87  Cl  UNL A   1      44.419  34.901  30.534  1.00  0.00    -0.083 Cl
ATOM     88  Cl  UNL A   1      42.509  35.565  27.984  1.00  0.00    -0.083 Cl
ENDBRANCH  80  81
ENDBRANCH  79  80
ENDBRANCH  73  75
ENDBRANCH  67  71
ENDBRANCH  63  65
ENDBRANCH  62  63
ENDBRANCH   1  62
TORSDOF 15
ENDMDL
