MODEL 1
REMARK VINA RESULT:     -13.1      0.000      0.000
REMARK SMILES O=C(OCCOC(=O)[C@@H](c1ccccc1)N1C(=O)/C(=C\c2ccc(-c3ccc(F)cc3)o2)SC1=S)c1ccc(-c2c3nc(c(-c4c(F)cccc4F)c4ccc([nH]4)c(-c4c(F)cccc4F)c4nc(c(-c5c(F)cccc5F)c5ccc2[nH]5)C=C4)C=C3)cc1
REMARK SMILES IDX 5 1 4 2 3 3 2 4 1 5 36 6 37 7 89 8 38 9 88 10 39 11 40 12
REMARK SMILES IDX 41 13 82 14 42 15 87 16 81 17 83 18 43 19 86 20 80 21 79 22
REMARK SMILES IDX 44 24 70 25 53 26 69 27 54 28 57 29 68 30 84 31 55 32 56 33
REMARK SMILES IDX 67 35 85 36 58 37 45 38 46 39 51 40 47 41 48 42 50 43 52 44
REMARK SMILES IDX 49 45 71 46 72 47 77 48 73 49 74 50 76 51 78 52 75 53 59 54
REMARK SMILES IDX 60 55 65 56 61 57 62 58 64 59 66 60 63 61 6 62 7 63 8 64
REMARK SMILES IDX 9 65 10 66 11 67 15 68 12 69 14 70 13 71 16 72 17 73 34 74
REMARK SMILES IDX 18 75 19 76 33 77 35 78 20 79 21 80 22 81 32 82 23 83 24 84
REMARK SMILES IDX 25 85 26 86 31 87 27 88 30 89 28 90 29 91
REMARK H PARENT 83 23 57 34
REMARK Flexibility Score: inf
ROOT
ATOM      1  C   UNL A   1      32.276  29.406  27.438  1.00  0.00     0.274 C 
ENDROOT
BRANCH   1   2
ATOM      2  C   UNL A   1      32.915  30.689  26.861  1.00  0.00     0.275 C 
BRANCH   2   3
ATOM      3  O   UNL A   1      33.122  31.673  27.866  1.00  0.00    -0.458 OA
BRANCH   3   4
ATOM      4  C   UNL A   1      34.252  32.386  28.012  1.00  0.00     0.338 C 
ATOM      5  O   UNL A   1      34.221  33.603  27.852  1.00  0.00    -0.246 OA
BRANCH   4   6
ATOM      6  C   UNL A   1      35.581  31.754  28.306  1.00  0.00     0.060 A 
ATOM      7  C   UNL A   1      36.370  30.360  27.473  1.00  0.00     0.016 A 
ATOM      8  C   UNL A   1      36.354  32.597  29.619  1.00  0.00     0.016 A 
ATOM      9  C   UNL A   1      37.962  29.738  27.837  1.00  0.00     0.010 A 
ATOM     10  C   UNL A   1      37.950  32.025  30.151  1.00  0.00     0.010 A 
ATOM     11  C   UNL A   1      38.871  30.484  29.188  1.00  0.00    -0.014 A 
BRANCH  11  12
ATOM     12  C   UNL A   1      40.261  29.582  29.128  1.00  0.00     0.031 A 
ATOM     13  C   UNL A   1      41.543  30.333  29.218  1.00  0.00     0.074 A 
ATOM     14  C   UNL A   1      40.502  28.240  29.327  1.00  0.00     0.049 A 
ATOM     15  N   UNL A   1      42.616  30.248  28.490  1.00  0.00    -0.248 NA
ATOM     16  C   UNL A   1      41.552  31.397  30.225  1.00  0.00     0.031 C 
ATOM     17  C   UNL A   1      39.586  27.184  29.791  1.00  0.00     0.029 A 
ATOM     18  N   UNL A   1      41.610  27.478  28.908  1.00  0.00    -0.354 N 
ATOM     19  C   UNL A   1      43.329  31.393  28.816  1.00  0.00     0.074 A 
ATOM     20  C   UNL A   1      42.507  32.161  29.721  1.00  0.00     0.031 C 
ATOM     21  C   UNL A   1      40.053  25.967  29.422  1.00  0.00     0.029 A 
ATOM     22  C   UNL A   1      41.294  26.130  28.675  1.00  0.00     0.049 A 
ATOM     23  H   UNL A   1      42.513  27.853  28.789  1.00  0.00     0.167 HD
ATOM     24  C   UNL A   1      44.574  31.731  28.417  1.00  0.00     0.037 A 
ATOM     25  C   UNL A   1      41.870  25.213  27.844  1.00  0.00     0.037 A 
ATOM     26  C   UNL A   1      45.428  30.779  27.764  1.00  0.00     0.049 A 
ATOM     27  C   UNL A   1      43.177  25.605  27.204  1.00  0.00     0.074 A 
ATOM     28  C   UNL A   1      46.757  30.898  27.417  1.00  0.00     0.029 A 
ATOM     29  N   UNL A   1      45.038  29.482  27.447  1.00  0.00    -0.354 N 
ATOM     30  N   UNL A   1      43.801  26.759  27.246  1.00  0.00    -0.248 NA
ATOM     31  C   UNL A   1      43.896  24.558  26.463  1.00  0.00     0.031 C 
ATOM     32  C   UNL A   1      47.162  29.681  26.860  1.00  0.00     0.029 A 
ATOM     33  C   UNL A   1      46.105  28.783  26.924  1.00  0.00     0.049 A 
ATOM     34  H   UNL A   1      44.132  29.117  27.576  1.00  0.00     0.167 HD
ATOM     35  C   UNL A   1      45.034  26.546  26.645  1.00  0.00     0.074 A 
ATOM     36  C   UNL A   1      45.037  25.172  26.177  1.00  0.00     0.031 C 
ATOM     37  C   UNL A   1      46.084  27.395  26.533  1.00  0.00     0.037 A 
BRANCH  24  38
ATOM     38  C   UNL A   1      45.036  33.139  28.673  1.00  0.00     0.057 A 
ATOM     39  C   UNL A   1      44.804  34.205  27.791  1.00  0.00     0.134 A 
ATOM     40  C   UNL A   1      45.821  33.414  29.802  1.00  0.00     0.134 A 
ATOM     41  F   UNL A   1      44.042  34.036  26.698  1.00  0.00    -0.206 F 
ATOM     42  C   UNL A   1      45.427  35.443  27.953  1.00  0.00     0.040 A 
ATOM     43  C   UNL A   1      46.390  34.671  30.014  1.00  0.00     0.040 A 
ATOM     44  F   UNL A   1      46.073  32.459  30.710  1.00  0.00    -0.206 F 
ATOM     45  C   UNL A   1      46.223  35.680  29.069  1.00  0.00     0.006 A 
ENDBRANCH  24  38
BRANCH  25  46
ATOM     46  C   UNL A   1      41.263  23.875  27.476  1.00  0.00     0.057 A 
ATOM     47  C   UNL A   1      40.160  23.737  26.635  1.00  0.00     0.134 A 
ATOM     48  C   UNL A   1      41.660  22.677  28.095  1.00  0.00     0.134 A 
ATOM     49  F   UNL A   1      39.527  24.829  26.189  1.00  0.00    -0.206 F 
ATOM     50  C   UNL A   1      39.611  22.478  26.314  1.00  0.00     0.040 A 
ATOM     51  C   UNL A   1      41.217  21.404  27.706  1.00  0.00     0.040 A 
ATOM     52  F   UNL A   1      42.368  22.722  29.220  1.00  0.00    -0.206 F 
ATOM     53  C   UNL A   1      40.186  21.301  26.790  1.00  0.00     0.006 A 
ENDBRANCH  25  46
BRANCH  37  54
ATOM     54  C   UNL A   1      47.381  26.824  26.055  1.00  0.00     0.057 A 
ATOM     55  C   UNL A   1      47.817  26.942  24.734  1.00  0.00     0.134 A 
ATOM     56  C   UNL A   1      48.255  26.247  26.987  1.00  0.00     0.134 A 
ATOM     57  F   UNL A   1      47.016  27.473  23.797  1.00  0.00    -0.206 F 
ATOM     58  C   UNL A   1      49.086  26.506  24.354  1.00  0.00     0.040 A 
ATOM     59  C   UNL A   1      49.537  25.841  26.629  1.00  0.00     0.040 A 
ATOM     60  F   UNL A   1      47.891  26.117  28.273  1.00  0.00    -0.206 F 
ATOM     61  C   UNL A   1      49.955  25.970  25.307  1.00  0.00     0.006 A 
ENDBRANCH  37  54
ENDBRANCH  11  12
ENDBRANCH   4   6
ENDBRANCH   3   4
ENDBRANCH   2   3
ENDBRANCH   1   2
BRANCH   1  62
ATOM     62  O   UNL A   1      32.627  28.171  26.738  1.00  0.00    -0.460 OA
BRANCH  62  63
ATOM     63  C   UNL A   1      31.750  27.130  26.606  1.00  0.00     0.334 C 
ATOM     64  O   UNL A   1      31.370  26.463  27.561  1.00  0.00    -0.249 OA
BRANCH  63  65
ATOM     65  C   UNL A   1      31.272  26.894  25.117  1.00  0.00     0.232 C 
BRANCH  65  66
ATOM     66  C   UNL A   1      29.922  27.746  24.366  1.00  0.00    -0.014 A 
ATOM     67  C   UNL A   1      28.094  27.382  23.551  1.00  0.00     0.006 A 
ATOM     68  C   UNL A   1      30.438  29.498  24.267  1.00  0.00     0.006 A 
ATOM     69  C   UNL A   1      27.133  28.709  22.841  1.00  0.00     0.000 A 
ATOM     70  C   UNL A   1      29.341  30.716  23.577  1.00  0.00     0.000 A 
ATOM     71  C   UNL A   1      27.771  30.323  22.892  1.00  0.00     0.000 A 
ENDBRANCH  65  66
BRANCH  65  72
ATOM     72  N   UNL A   1      32.424  26.503  24.156  1.00  0.00    -0.274 N 
ATOM     73  C   UNL A   1      33.077  25.306  24.355  1.00  0.00     0.267 C 
ATOM     74  C   UNL A   1      33.243  27.306  23.378  1.00  0.00     0.149 C 
ATOM     75  O   UNL A   1      33.273  24.774  25.439  1.00  0.00    -0.268 OA
ATOM     76  C   UNL A   1      33.837  24.874  23.157  1.00  0.00     0.084 C 
ATOM     77  S   UNL A   1      34.305  26.303  22.340  1.00  0.00    -0.054 SA
ATOM     78  S   UNL A   1      33.496  28.953  23.347  1.00  0.00    -0.052 S 
ATOM     79  C   UNL A   1      34.074  23.621  22.730  1.00  0.00     0.068 C 
BRANCH  79  80
ATOM     80  C   UNL A   1      33.235  22.512  23.083  1.00  0.00     0.128 A 
ATOM     81  C   UNL A   1      31.970  22.297  22.593  1.00  0.00     0.051 A 
ATOM     82  O   UNL A   1      33.567  21.341  23.736  1.00  0.00    -0.457 OA
ATOM     83  C   UNL A   1      31.593  20.961  22.712  1.00  0.00     0.051 A 
ATOM     84  C   UNL A   1      32.583  20.412  23.465  1.00  0.00     0.134 A 
BRANCH  84  85
ATOM     85  C   UNL A   1      32.748  19.069  23.958  1.00  0.00     0.017 A 
ATOM     86  C   UNL A   1      33.160  18.083  23.067  1.00  0.00     0.015 A 
ATOM     87  C   UNL A   1      32.606  18.768  25.324  1.00  0.00     0.015 A 
ATOM     88  C   UNL A   1      33.407  16.797  23.529  1.00  0.00     0.040 A 
ATOM     89  C   UNL A   1      32.823  17.471  25.783  1.00  0.00     0.040 A 
ATOM     90  C   UNL A   1      33.222  16.498  24.876  1.00  0.00     0.123 A 
ATOM     91  F   UNL A   1      33.447  15.250  25.305  1.00  0.00    -0.207 F 
ENDBRANCH  84  85
ENDBRANCH  79  80
ENDBRANCH  65  72
ENDBRANCH  63  65
ENDBRANCH  62  63
ENDBRANCH   1  62
TORSDOF 15
ENDMDL
MODEL 2
REMARK VINA RESULT:     -13.0      4.511     10.057
REMARK SMILES O=C(OCCOC(=O)[C@@H](c1ccccc1)N1C(=O)/C(=C\c2ccc(-c3ccc(F)cc3)o2)SC1=S)c1ccc(-c2c3nc(c(-c4c(F)cccc4F)c4ccc([nH]4)c(-c4c(F)cccc4F)c4nc(c(-c5c(F)cccc5F)c5ccc2[nH]5)C=C4)C=C3)cc1
REMARK SMILES IDX 5 1 4 2 3 3 2 4 1 5 36 6 37 7 89 8 38 9 88 10 39 11 40 12
REMARK SMILES IDX 41 13 82 14 42 15 87 16 81 17 83 18 43 19 86 20 80 21 79 22
REMARK SMILES IDX 44 24 70 25 53 26 69 27 54 28 57 29 68 30 84 31 55 32 56 33
REMARK SMILES IDX 67 35 85 36 58 37 45 38 46 39 51 40 47 41 48 42 50 43 52 44
REMARK SMILES IDX 49 45 71 46 72 47 77 48 73 49 74 50 76 51 78 52 75 53 59 54
REMARK SMILES IDX 60 55 65 56 61 57 62 58 64 59 66 60 63 61 6 62 7 63 8 64
REMARK SMILES IDX 9 65 10 66 11 67 15 68 12 69 14 70 13 71 16 72 17 73 34 74
REMARK SMILES IDX 18 75 19 76 33 77 35 78 20 79 21 80 22 81 32 82 23 83 24 84
REMARK SMILES IDX 25 85 26 86 31 87 27 88 30 89 28 90 29 91
REMARK H PARENT 83 23 57 34
REMARK Flexibility Score: inf
ROOT
ATOM      1  C   UNL A   1      36.604  21.798  25.794  1.00  0.00     0.274 C 
ENDROOT
BRANCH   1   2
ATOM      2  C   UNL A   1      37.672  20.940  25.077  1.00  0.00     0.275 C 
BRANCH   2   3
ATOM      3  O   UNL A   1      38.966  21.522  25.171  1.00  0.00    -0.458 OA
BRANCH   3   4
ATOM      4  C   UNL A   1      39.668  21.638  26.311  1.00  0.00     0.338 C 
ATOM      5  O   UNL A   1      40.058  20.624  26.884  1.00  0.00    -0.246 OA
BRANCH   4   6
ATOM      6  C   UNL A   1      39.951  22.960  26.963  1.00  0.00     0.060 A 
ATOM      7  C   UNL A   1      38.776  24.213  27.518  1.00  0.00     0.016 A 
ATOM      8  C   UNL A   1      41.670  23.156  27.169  1.00  0.00     0.016 A 
ATOM      9  C   UNL A   1      39.197  25.697  28.338  1.00  0.00     0.010 A 
ATOM     10  C   UNL A   1      42.252  24.656  27.922  1.00  0.00     0.010 A 
ATOM     11  C   UNL A   1      40.933  26.055  28.596  1.00  0.00    -0.014 A 
BRANCH  11  12
ATOM     12  C   UNL A   1      40.810  27.509  29.385  1.00  0.00     0.031 A 
ATOM     13  C   UNL A   1      41.719  27.712  30.545  1.00  0.00     0.074 A 
ATOM     14  C   UNL A   1      40.262  28.718  29.015  1.00  0.00     0.049 A 
ATOM     15  N   UNL A   1      41.465  28.151  31.742  1.00  0.00    -0.248 NA
ATOM     16  C   UNL A   1      43.094  27.256  30.325  1.00  0.00     0.031 C 
ATOM     17  C   UNL A   1      39.710  29.136  27.715  1.00  0.00     0.029 A 
ATOM     18  N   UNL A   1      39.860  29.785  29.841  1.00  0.00    -0.354 N 
ATOM     19  C   UNL A   1      42.598  27.811  32.467  1.00  0.00     0.074 A 
ATOM     20  C   UNL A   1      43.460  27.064  31.582  1.00  0.00     0.031 C 
ATOM     21  C   UNL A   1      38.878  30.193  27.881  1.00  0.00     0.029 A 
ATOM     22  C   UNL A   1      38.806  30.536  29.296  1.00  0.00     0.049 A 
ATOM     23  H   UNL A   1      40.274  29.984  30.712  1.00  0.00     0.167 HD
ATOM     24  C   UNL A   1      42.889  28.141  33.744  1.00  0.00     0.037 A 
ATOM     25  C   UNL A   1      37.835  31.277  29.904  1.00  0.00     0.037 A 
ATOM     26  C   UNL A   1      42.120  29.127  34.449  1.00  0.00     0.049 A 
ATOM     27  C   UNL A   1      37.996  31.522  31.383  1.00  0.00     0.074 A 
ATOM     28  C   UNL A   1      42.351  29.687  35.689  1.00  0.00     0.029 A 
ATOM     29  N   UNL A   1      41.009  29.768  33.913  1.00  0.00    -0.354 N 
ATOM     30  N   UNL A   1      38.892  31.031  32.206  1.00  0.00    -0.248 NA
ATOM     31  C   UNL A   1      37.063  32.473  32.006  1.00  0.00     0.031 C 
ATOM     32  C   UNL A   1      41.358  30.645  35.915  1.00  0.00     0.029 A 
ATOM     33  C   UNL A   1      40.551  30.731  34.788  1.00  0.00     0.049 A 
ATOM     34  H   UNL A   1      40.607  29.565  33.037  1.00  0.00     0.167 HD
ATOM     35  C   UNL A   1      38.710  31.699  33.409  1.00  0.00     0.074 A 
ATOM     36  C   UNL A   1      37.565  32.573  33.230  1.00  0.00     0.031 C 
ATOM     37  C   UNL A   1      39.450  31.629  34.542  1.00  0.00     0.037 A 
BRANCH  24  38
ATOM     38  C   UNL A   1      44.041  27.437  34.406  1.00  0.00     0.057 A 
ATOM     39  C   UNL A   1      43.919  26.215  35.084  1.00  0.00     0.134 A 
ATOM     40  C   UNL A   1      45.300  28.054  34.441  1.00  0.00     0.134 A 
ATOM     41  F   UNL A   1      42.756  25.544  35.081  1.00  0.00    -0.206 F 
ATOM     42  C   UNL A   1      44.954  25.700  35.866  1.00  0.00     0.040 A 
ATOM     43  C   UNL A   1      46.366  27.511  35.159  1.00  0.00     0.040 A 
ATOM     44  F   UNL A   1      45.513  29.213  33.799  1.00  0.00    -0.206 F 
ATOM     45  C   UNL A   1      46.185  26.348  35.903  1.00  0.00     0.006 A 
ENDBRANCH  24  38
BRANCH  25  46
ATOM     46  C   UNL A   1      36.592  31.808  29.219  1.00  0.00     0.057 A 
ATOM     47  C   UNL A   1      35.530  30.999  28.821  1.00  0.00     0.134 A 
ATOM     48  C   UNL A   1      36.492  33.139  28.777  1.00  0.00     0.134 A 
ATOM     49  F   UNL A   1      35.624  29.670  28.952  1.00  0.00    -0.206 F 
ATOM     50  C   UNL A   1      34.387  31.520  28.179  1.00  0.00     0.040 A 
ATOM     51  C   UNL A   1      35.324  33.708  28.250  1.00  0.00     0.040 A 
ATOM     52  F   UNL A   1      37.589  33.885  28.686  1.00  0.00    -0.206 F 
ATOM     53  C   UNL A   1      34.248  32.889  27.959  1.00  0.00     0.006 A 
ENDBRANCH  25  46
BRANCH  37  54
ATOM     54  C   UNL A   1      39.173  32.642  35.606  1.00  0.00     0.057 A 
ATOM     55  C   UNL A   1      38.406  32.359  36.738  1.00  0.00     0.134 A 
ATOM     56  C   UNL A   1      39.801  33.894  35.533  1.00  0.00     0.134 A 
ATOM     57  F   UNL A   1      37.772  31.183  36.854  1.00  0.00    -0.206 F 
ATOM     58  C   UNL A   1      38.273  33.290  37.768  1.00  0.00     0.040 A 
ATOM     59  C   UNL A   1      39.706  34.818  36.570  1.00  0.00     0.040 A 
ATOM     60  F   UNL A   1      40.558  34.216  34.472  1.00  0.00    -0.206 F 
ATOM     61  C   UNL A   1      38.939  34.516  37.691  1.00  0.00     0.006 A 
ENDBRANCH  37  54
ENDBRANCH  11  12
ENDBRANCH   4   6
ENDBRANCH   3   4
ENDBRANCH   2   3
ENDBRANCH   1   2
BRANCH   1  62
ATOM     62  O   UNL A   1      36.369  23.114  25.203  1.00  0.00    -0.460 OA
BRANCH  62  63
ATOM     63  C   UNL A   1      35.633  23.283  24.062  1.00  0.00     0.334 C 
ATOM     64  O   UNL A   1      36.103  23.769  23.041  1.00  0.00    -0.249 OA
BRANCH  63  65
ATOM     65  C   UNL A   1      34.141  22.775  24.194  1.00  0.00     0.232 C 
BRANCH  65  66
ATOM     66  C   UNL A   1      33.606  21.153  23.753  1.00  0.00    -0.014 A 
ATOM     67  C   UNL A   1      33.863  19.212  24.302  1.00  0.00     0.006 A 
ATOM     68  C   UNL A   1      32.533  21.369  22.287  1.00  0.00     0.006 A 
ATOM     69  C   UNL A   1      33.064  17.896  23.396  1.00  0.00     0.000 A 
ATOM     70  C   UNL A   1      31.764  19.958  21.526  1.00  0.00     0.000 A 
ATOM     71  C   UNL A   1      32.034  18.307  22.060  1.00  0.00     0.000 A 
ENDBRANCH  65  66
BRANCH  65  72
ATOM     72  N   UNL A   1      33.372  23.426  25.373  1.00  0.00    -0.274 N 
ATOM     73  C   UNL A   1      33.262  24.800  25.416  1.00  0.00     0.267 C 
ATOM     74  C   UNL A   1      33.127  22.944  26.649  1.00  0.00     0.149 C 
ATOM     75  O   UNL A   1      34.098  25.593  25.006  1.00  0.00    -0.268 OA
ATOM     76  C   UNL A   1      32.181  25.249  26.325  1.00  0.00     0.084 C 
ATOM     77  S   UNL A   1      32.050  24.059  27.547  1.00  0.00    -0.054 SA
ATOM     78  S   UNL A   1      33.744  21.647  27.495  1.00  0.00    -0.052 S 
ATOM     79  C   UNL A   1      31.392  26.333  26.207  1.00  0.00     0.068 C 
BRANCH  79  80
ATOM     80  C   UNL A   1      31.137  26.970  24.949  1.00  0.00     0.128 A 
ATOM     81  C   UNL A   1      31.019  26.317  23.747  1.00  0.00     0.051 A 
ATOM     82  O   UNL A   1      30.710  28.260  24.695  1.00  0.00    -0.457 OA
ATOM     83  C   UNL A   1      30.318  27.077  22.813  1.00  0.00     0.051 A 
ATOM     84  C   UNL A   1      30.186  28.288  23.418  1.00  0.00     0.134 A 
BRANCH  84  85
ATOM     85  C   UNL A   1      29.582  29.508  22.948  1.00  0.00     0.017 A 
ATOM     86  C   UNL A   1      29.487  30.581  23.828  1.00  0.00     0.015 A 
ATOM     87  C   UNL A   1      29.194  29.662  21.605  1.00  0.00     0.015 A 
ATOM     88  C   UNL A   1      28.984  31.796  23.381  1.00  0.00     0.040 A 
ATOM     89  C   UNL A   1      28.660  30.871  21.164  1.00  0.00     0.040 A 
ATOM     90  C   UNL A   1      28.562  31.927  22.061  1.00  0.00     0.123 A 
ATOM     91  F   UNL A   1      28.064  33.099  21.648  1.00  0.00    -0.207 F 
ENDBRANCH  84  85
ENDBRANCH  79  80
ENDBRANCH  65  72
ENDBRANCH  63  65
ENDBRANCH  62  63
ENDBRANCH   1  62
TORSDOF 15
ENDMDL
MODEL 3
REMARK VINA RESULT:     -12.6      8.054     14.296
REMARK SMILES O=C(OCCOC(=O)[C@@H](c1ccccc1)N1C(=O)/C(=C\c2ccc(-c3ccc(F)cc3)o2)SC1=S)c1ccc(-c2c3nc(c(-c4c(F)cccc4F)c4ccc([nH]4)c(-c4c(F)cccc4F)c4nc(c(-c5c(F)cccc5F)c5ccc2[nH]5)C=C4)C=C3)cc1
REMARK SMILES IDX 5 1 4 2 3 3 2 4 1 5 36 6 37 7 89 8 38 9 88 10 39 11 40 12
REMARK SMILES IDX 41 13 82 14 42 15 87 16 81 17 83 18 43 19 86 20 80 21 79 22
REMARK SMILES IDX 44 24 70 25 53 26 69 27 54 28 57 29 68 30 84 31 55 32 56 33
REMARK SMILES IDX 67 35 85 36 58 37 45 38 46 39 51 40 47 41 48 42 50 43 52 44
REMARK SMILES IDX 49 45 71 46 72 47 77 48 73 49 74 50 76 51 78 52 75 53 59 54
REMARK SMILES IDX 60 55 65 56 61 57 62 58 64 59 66 60 63 61 6 62 7 63 8 64
REMARK SMILES IDX 9 65 10 66 11 67 15 68 12 69 14 70 13 71 16 72 17 73 34 74
REMARK SMILES IDX 18 75 19 76 33 77 35 78 20 79 21 80 22 81 32 82 23 83 24 84
REMARK SMILES IDX 25 85 26 86 31 87 27 88 30 89 28 90 29 91
REMARK H PARENT 83 23 57 34
REMARK Flexibility Score: inf
ROOT
ATOM      1  C   UNL A   1      45.984  22.025  37.202  1.00  0.00     0.274 C 
ENDROOT
BRANCH   1   2
ATOM      2  C   UNL A   1      45.832  23.563  37.224  1.00  0.00     0.275 C 
BRANCH   2   3
ATOM      3  O   UNL A   1      45.216  24.016  38.423  1.00  0.00    -0.458 OA
BRANCH   3   4
ATOM      4  C   UNL A   1      44.707  25.247  38.599  1.00  0.00     0.338 C 
ATOM      5  O   UNL A   1      44.501  25.656  39.738  1.00  0.00    -0.246 OA
BRANCH   4   6
ATOM      6  C   UNL A   1      44.313  26.137  37.456  1.00  0.00     0.060 A 
ATOM      7  C   UNL A   1      42.781  26.127  36.500  1.00  0.00     0.016 A 
ATOM      8  C   UNL A   1      45.582  27.290  37.147  1.00  0.00     0.016 A 
ATOM      9  C   UNL A   1      42.379  27.256  35.229  1.00  0.00     0.010 A 
ATOM     10  C   UNL A   1      45.343  28.456  35.827  1.00  0.00     0.010 A 
ATOM     11  C   UNL A   1      43.600  28.485  34.775  1.00  0.00    -0.014 A 
BRANCH  11  12
ATOM     12  C   UNL A   1      42.771  29.282  33.579  1.00  0.00     0.031 A 
ATOM     13  C   UNL A   1      42.281  30.647  33.909  1.00  0.00     0.074 A 
ATOM     14  C   UNL A   1      42.696  29.085  32.217  1.00  0.00     0.049 A 
ATOM     15  N   UNL A   1      41.111  31.184  33.728  1.00  0.00    -0.248 NA
ATOM     16  C   UNL A   1      43.244  31.478  34.635  1.00  0.00     0.031 C 
ATOM     17  C   UNL A   1      43.453  28.152  31.365  1.00  0.00     0.029 A 
ATOM     18  N   UNL A   1      41.712  29.541  31.320  1.00  0.00    -0.354 N 
ATOM     19  C   UNL A   1      41.145  32.326  34.515  1.00  0.00     0.074 A 
ATOM     20  C   UNL A   1      42.406  32.320  35.217  1.00  0.00     0.031 C 
ATOM     21  C   UNL A   1      42.788  27.938  30.204  1.00  0.00     0.029 A 
ATOM     22  C   UNL A   1      41.541  28.694  30.213  1.00  0.00     0.049 A 
ATOM     23  H   UNL A   1      41.195  30.369  31.455  1.00  0.00     0.167 HD
ATOM     24  C   UNL A   1      40.213  33.300  34.597  1.00  0.00     0.037 A 
ATOM     25  C   UNL A   1      40.452  28.476  29.420  1.00  0.00     0.037 A 
ATOM     26  C   UNL A   1      39.135  33.376  33.651  1.00  0.00     0.049 A 
ATOM     27  C   UNL A   1      39.286  29.415  29.597  1.00  0.00     0.074 A 
ATOM     28  C   UNL A   1      38.185  34.363  33.492  1.00  0.00     0.029 A 
ATOM     29  N   UNL A   1      38.934  32.449  32.633  1.00  0.00    -0.354 N 
ATOM     30  N   UNL A   1      39.120  30.362  30.489  1.00  0.00    -0.248 NA
ATOM     31  C   UNL A   1      38.191  29.307  28.621  1.00  0.00     0.031 C 
ATOM     32  C   UNL A   1      37.388  34.016  32.397  1.00  0.00     0.029 A 
ATOM     33  C   UNL A   1      37.886  32.849  31.831  1.00  0.00     0.049 A 
ATOM     34  H   UNL A   1      39.461  31.628  32.505  1.00  0.00     0.167 HD
ATOM     35  C   UNL A   1      37.968  31.040  30.114  1.00  0.00     0.074 A 
ATOM     36  C   UNL A   1      37.434  30.344  28.958  1.00  0.00     0.031 C 
ATOM     37  C   UNL A   1      37.429  32.162  30.648  1.00  0.00     0.037 A 
BRANCH  24  38
ATOM     38  C   UNL A   1      40.336  34.299  35.713  1.00  0.00     0.057 A 
ATOM     39  C   UNL A   1      39.726  34.141  36.967  1.00  0.00     0.134 A 
ATOM     40  C   UNL A   1      41.016  35.505  35.490  1.00  0.00     0.134 A 
ATOM     41  F   UNL A   1      39.075  33.007  37.274  1.00  0.00    -0.206 F 
ATOM     42  C   UNL A   1      39.682  35.179  37.900  1.00  0.00     0.040 A 
ATOM     43  C   UNL A   1      41.041  36.522  36.445  1.00  0.00     0.040 A 
ATOM     44  F   UNL A   1      41.648  35.730  34.328  1.00  0.00    -0.206 F 
ATOM     45  C   UNL A   1      40.343  36.375  37.640  1.00  0.00     0.006 A 
ENDBRANCH  24  38
BRANCH  25  46
ATOM     46  C   UNL A   1      40.311  27.333  28.435  1.00  0.00     0.057 A 
ATOM     47  C   UNL A   1      39.589  26.172  28.705  1.00  0.00     0.134 A 
ATOM     48  C   UNL A   1      41.045  27.283  27.237  1.00  0.00     0.134 A 
ATOM     49  F   UNL A   1      39.060  25.988  29.920  1.00  0.00    -0.206 F 
ATOM     50  C   UNL A   1      39.480  25.120  27.771  1.00  0.00     0.040 A 
ATOM     51  C   UNL A   1      40.861  26.312  26.241  1.00  0.00     0.040 A 
ATOM     52  F   UNL A   1      42.091  28.086  27.073  1.00  0.00    -0.206 F 
ATOM     53  C   UNL A   1      40.054  25.220  26.505  1.00  0.00     0.006 A 
ENDBRANCH  25  46
BRANCH  37  54
ATOM     54  C   UNL A   1      36.317  32.817  29.893  1.00  0.00     0.057 A 
ATOM     55  C   UNL A   1      36.526  33.543  28.719  1.00  0.00     0.134 A 
ATOM     56  C   UNL A   1      34.994  32.601  30.306  1.00  0.00     0.134 A 
ATOM     57  F   UNL A   1      37.771  33.792  28.285  1.00  0.00    -0.206 F 
ATOM     58  C   UNL A   1      35.453  34.033  27.976  1.00  0.00     0.040 A 
ATOM     59  C   UNL A   1      33.914  33.053  29.554  1.00  0.00     0.040 A 
ATOM     60  F   UNL A   1      34.735  31.901  31.422  1.00  0.00    -0.206 F 
ATOM     61  C   UNL A   1      34.143  33.773  28.385  1.00  0.00     0.006 A 
ENDBRANCH  37  54
ENDBRANCH  11  12
ENDBRANCH   4   6
ENDBRANCH   3   4
ENDBRANCH   2   3
ENDBRANCH   1   2
BRANCH   1  62
ATOM     62  O   UNL A   1      47.363  21.539  37.185  1.00  0.00    -0.460 OA
BRANCH  62  63
ATOM     63  C   UNL A   1      48.012  21.224  36.024  1.00  0.00     0.334 C 
ATOM     64  O   UNL A   1      47.553  20.437  35.204  1.00  0.00    -0.249 OA
BRANCH  63  65
ATOM     65  C   UNL A   1      49.388  21.984  35.845  1.00  0.00     0.232 C 
BRANCH  65  66
ATOM     66  C   UNL A   1      50.791  21.306  35.018  1.00  0.00    -0.014 A 
ATOM     67  C   UNL A   1      51.732  21.368  33.216  1.00  0.00     0.006 A 
ATOM     68  C   UNL A   1      51.548  20.139  36.205  1.00  0.00     0.006 A 
ATOM     69  C   UNL A   1      53.173  20.359  32.905  1.00  0.00     0.000 A 
ATOM     70  C   UNL A   1      53.019  19.242  35.764  1.00  0.00     0.000 A 
ATOM     71  C   UNL A   1      53.777  19.350  34.183  1.00  0.00     0.000 A 
ENDBRANCH  65  66
BRANCH  65  72
ATOM     72  N   UNL A   1      49.230  23.521  35.726  1.00  0.00    -0.274 N 
ATOM     73  C   UNL A   1      48.797  24.054  34.530  1.00  0.00     0.267 C 
ATOM     74  C   UNL A   1      49.848  24.537  36.439  1.00  0.00     0.149 C 
ATOM     75  O   UNL A   1      49.034  23.596  33.420  1.00  0.00    -0.268 OA
ATOM     76  C   UNL A   1      48.298  25.442  34.679  1.00  0.00     0.084 C 
ATOM     77  S   UNL A   1      49.168  26.130  35.982  1.00  0.00    -0.054 SA
ATOM     78  S   UNL A   1      51.142  24.541  37.489  1.00  0.00    -0.052 S 
ATOM     79  C   UNL A   1      47.313  26.050  33.994  1.00  0.00     0.068 C 
BRANCH  79  80
ATOM     80  C   UNL A   1      46.263  25.324  33.341  1.00  0.00     0.128 A 
ATOM     81  C   UNL A   1      45.037  25.048  33.894  1.00  0.00     0.051 A 
ATOM     82  O   UNL A   1      46.134  24.987  32.007  1.00  0.00    -0.457 OA
ATOM     83  C   UNL A   1      44.081  24.776  32.918  1.00  0.00     0.051 A 
ATOM     84  C   UNL A   1      44.805  24.700  31.770  1.00  0.00     0.134 A 
BRANCH  84  85
ATOM     85  C   UNL A   1      44.393  24.411  30.421  1.00  0.00     0.017 A 
ATOM     86  C   UNL A   1      43.582  23.303  30.200  1.00  0.00     0.015 A 
ATOM     87  C   UNL A   1      44.704  25.278  29.359  1.00  0.00     0.015 A 
ATOM     88  C   UNL A   1      43.101  23.044  28.923  1.00  0.00     0.040 A 
ATOM     89  C   UNL A   1      44.248  25.002  28.072  1.00  0.00     0.040 A 
ATOM     90  C   UNL A   1      43.449  23.884  27.869  1.00  0.00     0.123 A 
ATOM     91  F   UNL A   1      42.992  23.614  26.640  1.00  0.00    -0.207 F 
ENDBRANCH  84  85
ENDBRANCH  79  80
ENDBRANCH  65  72
ENDBRANCH  63  65
ENDBRANCH  62  63
ENDBRANCH   1  62
TORSDOF 15
ENDMDL
