MODEL 1
REMARK VINA RESULT:     -11.8      0.000      0.000
REMARK SMILES COc1ccc2[nH]c(C(=O)c3cc(C)ccn3)c(CC(=O)OCCOC(=O)c3ccc(-c4c5nc(c(-c6c(F)cccc6F)c6ccc([nH]6)c(-c6c(F)cccc6F)c6nc(c(-c7c(F)cccc7F)c7ccc4[nH]7)C=C6)C=C5)cc3)c2c1
REMARK SMILES IDX 23 1 22 2 20 3 21 4 19 5 18 6 3 7 4 8 83 9 5 10 82 11 6 12
REMARK SMILES IDX 7 13 8 14 2 16 1 17 9 18 10 19 11 20 12 21 17 22 13 23 16 24
REMARK SMILES IDX 14 25 15 26 24 27 25 28 26 29 27 30 28 31 29 32 81 33 30 34
REMARK SMILES IDX 80 35 31 36 32 37 33 38 74 39 34 40 79 41 73 42 75 43 35 44
REMARK SMILES IDX 78 45 72 46 71 47 36 49 62 50 45 51 61 52 46 53 49 54 60 55
REMARK SMILES IDX 76 56 47 57 48 58 59 60 77 61 50 62 37 63 38 64 43 65 39 66
REMARK SMILES IDX 40 67 42 68 44 69 41 70 63 71 64 72 69 73 65 74 66 75 68 76
REMARK SMILES IDX 70 77 67 78 51 79 52 80 57 81 53 82 54 83 56 84 58 85 55 86
REMARK H PARENT 7 15 75 48 49 59
REMARK Flexibility Score: inf
ROOT
ATOM      1  C   UNL A   1      32.902  29.848  26.338  1.00  0.00     0.274 C 
ENDROOT
BRANCH   1   2
ATOM      2  O   UNL A   1      32.009  28.841  26.857  1.00  0.00    -0.462 OA
BRANCH   2   3
ATOM      3  C   UNL A   1      32.380  27.552  26.628  1.00  0.00     0.310 C 
ATOM      4  O   UNL A   1      31.694  26.576  26.929  1.00  0.00    -0.252 OA
BRANCH   3   5
ATOM      5  C   UNL A   1      33.714  27.381  25.931  1.00  0.00     0.161 C 
BRANCH   5   6
ATOM      6  C   UNL A   1      33.735  26.516  24.707  1.00  0.00     0.000 A 
ATOM      7  C   UNL A   1      34.876  22.930  25.368  1.00  0.00     0.119 A 
ATOM      8  C   UNL A   1      34.681  22.472  24.067  1.00  0.00     0.048 A 
ATOM      9  C   UNL A   1      34.635  24.269  25.686  1.00  0.00     0.057 A 
ATOM     10  C   UNL A   1      34.265  23.343  23.048  1.00  0.00     0.030 A 
ATOM     11  C   UNL A   1      34.177  25.154  24.691  1.00  0.00     0.008 A 
ATOM     12  C   UNL A   1      34.010  24.674  23.397  1.00  0.00     0.046 A 
ATOM     13  N   UNL A   1      33.551  25.724  22.639  1.00  0.00    -0.352 N 
ATOM     14  C   UNL A   1      33.185  26.778  23.452  1.00  0.00     0.093 A 
ATOM     15  H   UNL A   1      33.490  25.725  21.656  1.00  0.00     0.167 HD
BRANCH   7  16
ATOM     16  O   UNL A   1      35.223  22.145  26.436  1.00  0.00    -0.497 OA
ATOM     17  C   UNL A   1      34.135  21.656  27.208  1.00  0.00     0.278 C 
ENDBRANCH   7  16
BRANCH  14  18
ATOM     18  C   UNL A   1      32.312  27.870  23.043  1.00  0.00     0.227 C 
ATOM     19  O   UNL A   1      32.734  28.950  22.638  1.00  0.00    -0.285 OA
BRANCH  18  20
ATOM     20  C   UNL A   1      30.850  27.753  23.262  1.00  0.00     0.113 A 
ATOM     21  C   UNL A   1      30.021  28.818  22.929  1.00  0.00     0.036 A 
ATOM     22  N   UNL A   1      30.405  26.572  23.744  1.00  0.00    -0.253 NA
ATOM     23  C   UNL A   1      28.643  28.657  23.094  1.00  0.00    -0.047 A 
ATOM     24  C   UNL A   1      29.070  26.416  23.830  1.00  0.00     0.112 A 
ATOM     25  C   UNL A   1      27.685  29.769  22.794  1.00  0.00     0.044 C 
ATOM     26  C   UNL A   1      28.161  27.417  23.526  1.00  0.00     0.023 A 
ENDBRANCH  18  20
ENDBRANCH  14  18
ENDBRANCH   5   6
ENDBRANCH   3   5
ENDBRANCH   2   3
ENDBRANCH   1   2
BRANCH   1  27
ATOM     27  C   UNL A   1      33.599  30.604  27.466  1.00  0.00     0.275 C 
BRANCH  27  28
ATOM     28  O   UNL A   1      34.737  29.859  27.932  1.00  0.00    -0.458 OA
BRANCH  28  29
ATOM     29  C   UNL A   1      35.556  30.546  28.758  1.00  0.00     0.338 C 
ATOM     30  O   UNL A   1      35.283  31.568  29.374  1.00  0.00    -0.246 OA
BRANCH  29  31
ATOM     31  C   UNL A   1      36.897  29.943  28.779  1.00  0.00     0.060 A 
ATOM     32  C   UNL A   1      37.473  29.490  29.966  1.00  0.00     0.016 A 
ATOM     33  C   UNL A   1      37.633  29.937  27.594  1.00  0.00     0.016 A 
ATOM     34  C   UNL A   1      38.814  29.106  29.985  1.00  0.00     0.010 A 
ATOM     35  C   UNL A   1      38.945  29.463  27.597  1.00  0.00     0.010 A 
ATOM     36  C   UNL A   1      39.557  29.064  28.797  1.00  0.00    -0.014 A 
BRANCH  36  37
ATOM     37  C   UNL A   1      40.964  28.589  28.778  1.00  0.00     0.031 A 
ATOM     38  C   UNL A   1      42.097  29.557  28.977  1.00  0.00     0.074 A 
ATOM     39  C   UNL A   1      41.229  27.295  28.520  1.00  0.00     0.049 A 
ATOM     40  N   UNL A   1      43.373  29.397  28.734  1.00  0.00    -0.248 NA
ATOM     41  C   UNL A   1      41.746  30.884  29.508  1.00  0.00     0.031 C 
ATOM     42  C   UNL A   1      40.229  26.241  28.351  1.00  0.00     0.029 A 
ATOM     43  N   UNL A   1      42.428  26.651  28.329  1.00  0.00    -0.354 N 
ATOM     44  C   UNL A   1      43.973  30.613  29.034  1.00  0.00     0.074 A 
ATOM     45  C   UNL A   1      42.921  31.502  29.484  1.00  0.00     0.031 C 
ATOM     46  C   UNL A   1      40.851  25.083  28.086  1.00  0.00     0.029 A 
ATOM     47  C   UNL A   1      42.284  25.330  27.984  1.00  0.00     0.049 A 
ATOM     48  H   UNL A   1      43.301  27.092  28.429  1.00  0.00     0.167 HD
ATOM     49  C   UNL A   1      45.280  30.954  28.935  1.00  0.00     0.037 A 
ATOM     50  C   UNL A   1      43.195  24.427  27.576  1.00  0.00     0.037 A 
ATOM     51  C   UNL A   1      46.328  30.053  28.529  1.00  0.00     0.049 A 
ATOM     52  C   UNL A   1      44.630  24.837  27.434  1.00  0.00     0.074 A 
ATOM     53  C   UNL A   1      47.685  30.302  28.412  1.00  0.00     0.029 A 
ATOM     54  N   UNL A   1      46.136  28.723  28.185  1.00  0.00    -0.354 N 
ATOM     55  N   UNL A   1      45.179  26.005  27.663  1.00  0.00    -0.248 NA
ATOM     56  C   UNL A   1      45.567  23.812  26.956  1.00  0.00     0.031 C 
ATOM     57  C   UNL A   1      48.311  29.130  27.973  1.00  0.00     0.029 A 
ATOM     58  C   UNL A   1      47.347  28.142  27.849  1.00  0.00     0.049 A 
ATOM     59  H   UNL A   1      45.267  28.261  28.181  1.00  0.00     0.167 HD
ATOM     60  C   UNL A   1      46.527  25.853  27.375  1.00  0.00     0.074 A 
ATOM     61  C   UNL A   1      46.715  24.476  26.960  1.00  0.00     0.031 C 
ATOM     62  C   UNL A   1      47.519  26.770  27.447  1.00  0.00     0.037 A 
BRANCH  49  63
ATOM     63  C   UNL A   1      45.657  32.372  29.246  1.00  0.00     0.057 A 
ATOM     64  C   UNL A   1      45.645  33.375  28.270  1.00  0.00     0.134 A 
ATOM     65  C   UNL A   1      45.981  32.747  30.556  1.00  0.00     0.134 A 
ATOM     66  F   UNL A   1      45.354  33.079  26.995  1.00  0.00    -0.206 F 
ATOM     67  C   UNL A   1      45.949  34.701  28.586  1.00  0.00     0.040 A 
ATOM     68  C   UNL A   1      46.269  34.072  30.888  1.00  0.00     0.040 A 
ATOM     69  F   UNL A   1      46.004  31.834  31.540  1.00  0.00    -0.206 F 
ATOM     70  C   UNL A   1      46.256  35.053  29.899  1.00  0.00     0.006 A 
ENDBRANCH  49  63
BRANCH  50  71
ATOM     71  C   UNL A   1      42.756  23.054  27.229  1.00  0.00     0.057 A 
ATOM     72  C   UNL A   1      42.485  22.111  28.224  1.00  0.00     0.134 A 
ATOM     73  C   UNL A   1      42.568  22.665  25.897  1.00  0.00     0.134 A 
ATOM     74  F   UNL A   1      42.668  22.421  29.515  1.00  0.00    -0.206 F 
ATOM     75  C   UNL A   1      42.045  20.825  27.908  1.00  0.00     0.040 A 
ATOM     76  C   UNL A   1      42.106  21.391  25.567  1.00  0.00     0.040 A 
ATOM     77  F   UNL A   1      42.808  23.529  24.899  1.00  0.00    -0.206 F 
ATOM     78  C   UNL A   1      41.846  20.466  26.576  1.00  0.00     0.006 A 
ENDBRANCH  50  71
BRANCH  62  79
ATOM     79  C   UNL A   1      48.902  26.306  27.107  1.00  0.00     0.057 A 
ATOM     80  C   UNL A   1      49.413  26.410  25.809  1.00  0.00     0.134 A 
ATOM     81  C   UNL A   1      49.738  25.780  28.098  1.00  0.00     0.134 A 
ATOM     82  F   UNL A   1      48.653  26.893  24.815  1.00  0.00    -0.206 F 
ATOM     83  C   UNL A   1      50.709  25.991  25.503  1.00  0.00     0.040 A 
ATOM     84  C   UNL A   1      51.042  25.374  27.808  1.00  0.00     0.040 A 
ATOM     85  F   UNL A   1      49.306  25.659  29.362  1.00  0.00    -0.206 F 
ATOM     86  C   UNL A   1      51.529  25.477  26.507  1.00  0.00     0.006 A 
ENDBRANCH  62  79
ENDBRANCH  36  37
ENDBRANCH  29  31
ENDBRANCH  28  29
ENDBRANCH  27  28
ENDBRANCH   1  27
TORSDOF 15
ENDMDL
MODEL 2
REMARK VINA RESULT:     -11.7      3.902      7.329
REMARK SMILES COc1ccc2[nH]c(C(=O)c3cc(C)ccn3)c(CC(=O)OCCOC(=O)c3ccc(-c4c5nc(c(-c6c(F)cccc6F)c6ccc([nH]6)c(-c6c(F)cccc6F)c6nc(c(-c7c(F)cccc7F)c7ccc4[nH]7)C=C6)C=C5)cc3)c2c1
REMARK SMILES IDX 23 1 22 2 20 3 21 4 19 5 18 6 3 7 4 8 83 9 5 10 82 11 6 12
REMARK SMILES IDX 7 13 8 14 2 16 1 17 9 18 10 19 11 20 12 21 17 22 13 23 16 24
REMARK SMILES IDX 14 25 15 26 24 27 25 28 26 29 27 30 28 31 29 32 81 33 30 34
REMARK SMILES IDX 80 35 31 36 32 37 33 38 74 39 34 40 79 41 73 42 75 43 35 44
REMARK SMILES IDX 78 45 72 46 71 47 36 49 62 50 45 51 61 52 46 53 49 54 60 55
REMARK SMILES IDX 76 56 47 57 48 58 59 60 77 61 50 62 37 63 38 64 43 65 39 66
REMARK SMILES IDX 40 67 42 68 44 69 41 70 63 71 64 72 69 73 65 74 66 75 68 76
REMARK SMILES IDX 70 77 67 78 51 79 52 80 57 81 53 82 54 83 56 84 58 85 55 86
REMARK H PARENT 7 15 75 48 49 59
REMARK Flexibility Score: inf
ROOT
ATOM      1  C   UNL A   1      31.868  27.965  26.246  1.00  0.00     0.274 C 
ENDROOT
BRANCH   1   2
ATOM      2  O   UNL A   1      33.043  27.324  25.705  1.00  0.00    -0.462 OA
BRANCH   2   3
ATOM      3  C   UNL A   1      33.085  25.971  25.835  1.00  0.00     0.310 C 
ATOM      4  O   UNL A   1      32.373  25.332  26.609  1.00  0.00    -0.252 OA
BRANCH   3   5
ATOM      5  C   UNL A   1      34.068  25.266  24.923  1.00  0.00     0.161 C 
BRANCH   5   6
ATOM      6  C   UNL A   1      33.494  24.453  23.803  1.00  0.00     0.000 A 
ATOM      7  C   UNL A   1      32.996  20.765  24.668  1.00  0.00     0.119 A 
ATOM      8  C   UNL A   1      32.401  20.410  23.459  1.00  0.00     0.048 A 
ATOM      9  C   UNL A   1      33.439  22.073  24.876  1.00  0.00     0.057 A 
ATOM     10  C   UNL A   1      32.257  21.344  22.422  1.00  0.00     0.030 A 
ATOM     11  C   UNL A   1      33.267  23.040  23.867  1.00  0.00     0.008 A 
ATOM     12  C   UNL A   1      32.688  22.653  22.664  1.00  0.00     0.046 A 
ATOM     13  N   UNL A   1      32.630  23.775  21.871  1.00  0.00    -0.352 N 
ATOM     14  C   UNL A   1      32.918  24.902  22.613  1.00  0.00     0.093 A 
ATOM     15  H   UNL A   1      32.412  23.774  20.910  1.00  0.00     0.167 HD
BRANCH   7  16
ATOM     16  O   UNL A   1      33.128  19.940  25.753  1.00  0.00    -0.497 OA
ATOM     17  C   UNL A   1      32.647  18.615  25.570  1.00  0.00     0.278 C 
ENDBRANCH   7  16
BRANCH  14  18
ATOM     18  C   UNL A   1      32.574  26.260  22.217  1.00  0.00     0.227 C 
ATOM     19  O   UNL A   1      33.356  27.008  21.637  1.00  0.00    -0.285 OA
BRANCH  18  20
ATOM     20  C   UNL A   1      31.282  26.841  22.658  1.00  0.00     0.113 A 
ATOM     21  C   UNL A   1      30.948  28.135  22.275  1.00  0.00     0.036 A 
ATOM     22  N   UNL A   1      30.477  26.038  23.388  1.00  0.00    -0.253 NA
ATOM     23  C   UNL A   1      29.700  28.634  22.659  1.00  0.00    -0.047 A 
ATOM     24  C   UNL A   1      29.254  26.515  23.688  1.00  0.00     0.112 A 
ATOM     25  C   UNL A   1      29.279  30.030  22.319  1.00  0.00     0.044 C 
ATOM     26  C   UNL A   1      28.827  27.791  23.355  1.00  0.00     0.023 A 
ENDBRANCH  18  20
ENDBRANCH  14  18
ENDBRANCH   5   6
ENDBRANCH   3   5
ENDBRANCH   2   3
ENDBRANCH   1   2
BRANCH   1  27
ATOM     27  C   UNL A   1      31.694  29.371  25.677  1.00  0.00     0.275 C 
BRANCH  27  28
ATOM     28  O   UNL A   1      32.943  30.082  25.728  1.00  0.00    -0.458 OA
BRANCH  28  29
ATOM     29  C   UNL A   1      33.085  30.886  26.805  1.00  0.00     0.338 C 
ATOM     30  O   UNL A   1      32.276  31.709  27.216  1.00  0.00    -0.246 OA
BRANCH  29  31
ATOM     31  C   UNL A   1      34.412  30.708  27.414  1.00  0.00     0.060 A 
ATOM     32  C   UNL A   1      34.862  29.451  27.820  1.00  0.00     0.016 A 
ATOM     33  C   UNL A   1      35.170  31.847  27.682  1.00  0.00     0.016 A 
ATOM     34  C   UNL A   1      36.035  29.342  28.568  1.00  0.00     0.010 A 
ATOM     35  C   UNL A   1      36.390  31.724  28.347  1.00  0.00     0.010 A 
ATOM     36  C   UNL A   1      36.825  30.474  28.818  1.00  0.00    -0.014 A 
BRANCH  36  37
ATOM     37  C   UNL A   1      38.115  30.374  29.548  1.00  0.00     0.031 A 
ATOM     38  C   UNL A   1      39.259  29.593  28.965  1.00  0.00     0.074 A 
ATOM     39  C   UNL A   1      38.239  30.933  30.766  1.00  0.00     0.049 A 
ATOM     40  N   UNL A   1      40.350  29.166  29.549  1.00  0.00    -0.248 NA
ATOM     41  C   UNL A   1      39.157  29.233  27.542  1.00  0.00     0.031 C 
ATOM     42  C   UNL A   1      37.227  31.754  31.431  1.00  0.00     0.029 A 
ATOM     43  N   UNL A   1      39.268  30.873  31.674  1.00  0.00    -0.354 N 
ATOM     44  C   UNL A   1      41.043  28.448  28.583  1.00  0.00     0.074 A 
ATOM     45  C   UNL A   1      40.251  28.500  27.371  1.00  0.00     0.031 C 
ATOM     46  C   UNL A   1      37.683  32.124  32.636  1.00  0.00     0.029 A 
ATOM     47  C   UNL A   1      38.981  31.499  32.861  1.00  0.00     0.049 A 
ATOM     48  H   UNL A   1      40.125  30.425  31.492  1.00  0.00     0.167 HD
ATOM     49  C   UNL A   1      42.226  27.801  28.703  1.00  0.00     0.037 A 
ATOM     50  C   UNL A   1      39.657  31.525  34.025  1.00  0.00     0.037 A 
ATOM     51  C   UNL A   1      43.031  27.788  29.898  1.00  0.00     0.049 A 
ATOM     52  C   UNL A   1      40.944  30.767  34.148  1.00  0.00     0.074 A 
ATOM     53  C   UNL A   1      44.252  27.172  30.112  1.00  0.00     0.029 A 
ATOM     54  N   UNL A   1      42.698  28.435  31.079  1.00  0.00    -0.354 N 
ATOM     55  N   UNL A   1      41.562  30.042  33.247  1.00  0.00    -0.248 NA
ATOM     56  C   UNL A   1      41.617  30.812  35.453  1.00  0.00     0.031 C 
ATOM     57  C   UNL A   1      44.647  27.424  31.430  1.00  0.00     0.029 A 
ATOM     58  C   UNL A   1      43.687  28.225  32.027  1.00  0.00     0.049 A 
ATOM     59  H   UNL A   1      41.881  28.964  31.222  1.00  0.00     0.167 HD
ATOM     60  C   UNL A   1      42.703  29.558  33.870  1.00  0.00     0.074 A 
ATOM     61  C   UNL A   1      42.697  30.078  35.223  1.00  0.00     0.031 C 
ATOM     62  C   UNL A   1      43.669  28.756  33.365  1.00  0.00     0.037 A 
BRANCH  49  63
ATOM     63  C   UNL A   1      42.720  27.024  27.519  1.00  0.00     0.057 A 
ATOM     64  C   UNL A   1      42.380  25.682  27.316  1.00  0.00     0.134 A 
ATOM     65  C   UNL A   1      43.500  27.649  26.537  1.00  0.00     0.134 A 
ATOM     66  F   UNL A   1      41.645  25.023  28.224  1.00  0.00    -0.206 F 
ATOM     67  C   UNL A   1      42.805  24.986  26.183  1.00  0.00     0.040 A 
ATOM     68  C   UNL A   1      43.916  26.970  25.392  1.00  0.00     0.040 A 
ATOM     69  F   UNL A   1      43.856  28.937  26.668  1.00  0.00    -0.206 F 
ATOM     70  C   UNL A   1      43.570  25.632  25.213  1.00  0.00     0.006 A 
ENDBRANCH  49  63
BRANCH  50  71
ATOM     71  C   UNL A   1      39.092  32.264  35.180  1.00  0.00     0.057 A 
ATOM     72  C   UNL A   1      39.269  33.645  35.307  1.00  0.00     0.134 A 
ATOM     73  C   UNL A   1      38.340  31.611  36.164  1.00  0.00     0.134 A 
ATOM     74  F   UNL A   1      39.999  34.317  34.407  1.00  0.00    -0.206 F 
ATOM     75  C   UNL A   1      38.719  34.353  36.376  1.00  0.00     0.040 A 
ATOM     76  C   UNL A   1      37.764  32.310  37.224  1.00  0.00     0.040 A 
ATOM     77  F   UNL A   1      38.133  30.288  36.092  1.00  0.00    -0.206 F 
ATOM     78  C   UNL A   1      37.956  33.686  37.333  1.00  0.00     0.006 A 
ENDBRANCH  50  71
BRANCH  62  79
ATOM     79  C   UNL A   1      44.818  28.423  34.267  1.00  0.00     0.057 A 
ATOM     80  C   UNL A   1      44.817  27.272  35.063  1.00  0.00     0.134 A 
ATOM     81  C   UNL A   1      45.948  29.248  34.314  1.00  0.00     0.134 A 
ATOM     82  F   UNL A   1      43.756  26.451  35.070  1.00  0.00    -0.206 F 
ATOM     83  C   UNL A   1      45.899  26.959  35.887  1.00  0.00     0.040 A 
ATOM     84  C   UNL A   1      47.042  28.937  35.121  1.00  0.00     0.040 A 
ATOM     85  F   UNL A   1      46.008  30.363  33.571  1.00  0.00    -0.206 F 
ATOM     86  C   UNL A   1      47.018  27.790  35.914  1.00  0.00     0.006 A 
ENDBRANCH  62  79
ENDBRANCH  36  37
ENDBRANCH  29  31
ENDBRANCH  28  29
ENDBRANCH  27  28
ENDBRANCH   1  27
TORSDOF 15
ENDMDL
MODEL 3
REMARK VINA RESULT:     -11.6      1.256      3.822
REMARK SMILES COc1ccc2[nH]c(C(=O)c3cc(C)ccn3)c(CC(=O)OCCOC(=O)c3ccc(-c4c5nc(c(-c6c(F)cccc6F)c6ccc([nH]6)c(-c6c(F)cccc6F)c6nc(c(-c7c(F)cccc7F)c7ccc4[nH]7)C=C6)C=C5)cc3)c2c1
REMARK SMILES IDX 23 1 22 2 20 3 21 4 19 5 18 6 3 7 4 8 83 9 5 10 82 11 6 12
REMARK SMILES IDX 7 13 8 14 2 16 1 17 9 18 10 19 11 20 12 21 17 22 13 23 16 24
REMARK SMILES IDX 14 25 15 26 24 27 25 28 26 29 27 30 28 31 29 32 81 33 30 34
REMARK SMILES IDX 80 35 31 36 32 37 33 38 74 39 34 40 79 41 73 42 75 43 35 44
REMARK SMILES IDX 78 45 72 46 71 47 36 49 62 50 45 51 61 52 46 53 49 54 60 55
REMARK SMILES IDX 76 56 47 57 48 58 59 60 77 61 50 62 37 63 38 64 43 65 39 66
REMARK SMILES IDX 40 67 42 68 44 69 41 70 63 71 64 72 69 73 65 74 66 75 68 76
REMARK SMILES IDX 70 77 67 78 51 79 52 80 57 81 53 82 54 83 56 84 58 85 55 86
REMARK H PARENT 7 15 75 48 49 59
REMARK Flexibility Score: inf
ROOT
ATOM      1  C   UNL A   1      32.888  30.375  27.284  1.00  0.00     0.274 C 
ENDROOT
BRANCH   1   2
ATOM      2  O   UNL A   1      32.545  30.410  25.882  1.00  0.00    -0.462 OA
BRANCH   2   3
ATOM      3  C   UNL A   1      32.992  29.361  25.142  1.00  0.00     0.310 C 
ATOM      4  O   UNL A   1      33.789  28.519  25.554  1.00  0.00    -0.252 OA
BRANCH   3   5
ATOM      5  C   UNL A   1      32.412  29.264  23.746  1.00  0.00     0.161 C 
BRANCH   5   6
ATOM      6  C   UNL A   1      31.111  28.534  23.599  1.00  0.00     0.000 A 
ATOM      7  C   UNL A   1      28.092  30.831  23.145  1.00  0.00     0.119 A 
ATOM      8  C   UNL A   1      27.158  29.812  22.971  1.00  0.00     0.048 A 
ATOM      9  C   UNL A   1      29.430  30.521  23.405  1.00  0.00     0.057 A 
ATOM     10  C   UNL A   1      27.531  28.463  23.075  1.00  0.00     0.030 A 
ATOM     11  C   UNL A   1      29.838  29.175  23.471  1.00  0.00     0.008 A 
ATOM     12  C   UNL A   1      28.880  28.180  23.313  1.00  0.00     0.046 A 
ATOM     13  N   UNL A   1      29.537  26.976  23.411  1.00  0.00    -0.352 N 
ATOM     14  C   UNL A   1      30.903  27.172  23.376  1.00  0.00     0.093 A 
ATOM     15  H   UNL A   1      29.097  26.099  23.494  1.00  0.00     0.167 HD
BRANCH   7  16
ATOM     16  O   UNL A   1      27.834  32.169  23.006  1.00  0.00    -0.497 OA
ATOM     17  C   UNL A   1      28.978  33.011  23.013  1.00  0.00     0.278 C 
ENDBRANCH   7  16
BRANCH  14  18
ATOM     18  C   UNL A   1      31.876  26.135  23.065  1.00  0.00     0.227 C 
ATOM     19  O   UNL A   1      32.142  25.787  21.917  1.00  0.00    -0.285 OA
BRANCH  18  20
ATOM     20  C   UNL A   1      32.472  25.341  24.167  1.00  0.00     0.113 A 
ATOM     21  C   UNL A   1      33.847  25.141  24.201  1.00  0.00     0.036 A 
ATOM     22  N   UNL A   1      31.620  24.889  25.113  1.00  0.00    -0.253 NA
ATOM     23  C   UNL A   1      34.385  24.438  25.283  1.00  0.00    -0.047 A 
ATOM     24  C   UNL A   1      32.167  24.273  26.179  1.00  0.00     0.112 A 
ATOM     25  C   UNL A   1      35.851  24.148  25.375  1.00  0.00     0.044 C 
ATOM     26  C   UNL A   1      33.525  24.023  26.305  1.00  0.00     0.023 A 
ENDBRANCH  18  20
ENDBRANCH  14  18
ENDBRANCH   5   6
ENDBRANCH   3   5
ENDBRANCH   2   3
ENDBRANCH   1   2
BRANCH   1  27
ATOM     27  C   UNL A   1      33.969  31.401  27.615  1.00  0.00     0.275 C 
BRANCH  27  28
ATOM     28  O   UNL A   1      35.248  30.753  27.722  1.00  0.00    -0.458 OA
BRANCH  28  29
ATOM     29  C   UNL A   1      35.797  30.800  28.957  1.00  0.00     0.338 C 
ATOM     30  O   UNL A   1      35.314  31.325  29.952  1.00  0.00    -0.246 OA
BRANCH  29  31
ATOM     31  C   UNL A   1      37.133  30.187  28.954  1.00  0.00     0.060 A 
ATOM     32  C   UNL A   1      37.790  29.871  30.144  1.00  0.00     0.016 A 
ATOM     33  C   UNL A   1      37.782  30.029  27.730  1.00  0.00     0.016 A 
ATOM     34  C   UNL A   1      39.128  29.474  30.114  1.00  0.00     0.010 A 
ATOM     35  C   UNL A   1      39.089  29.542  27.697  1.00  0.00     0.010 A 
ATOM     36  C   UNL A   1      39.784  29.282  28.890  1.00  0.00    -0.014 A 
BRANCH  36  37
ATOM     37  C   UNL A   1      41.184  28.789  28.829  1.00  0.00     0.031 A 
ATOM     38  C   UNL A   1      42.333  29.744  28.991  1.00  0.00     0.074 A 
ATOM     39  C   UNL A   1      41.425  27.492  28.565  1.00  0.00     0.049 A 
ATOM     40  N   UNL A   1      43.599  29.568  28.709  1.00  0.00    -0.248 NA
ATOM     41  C   UNL A   1      42.015  31.076  29.530  1.00  0.00     0.031 C 
ATOM     42  C   UNL A   1      40.408  26.449  28.429  1.00  0.00     0.029 A 
ATOM     43  N   UNL A   1      42.609  26.833  28.339  1.00  0.00    -0.354 N 
ATOM     44  C   UNL A   1      44.223  30.777  28.988  1.00  0.00     0.074 A 
ATOM     45  C   UNL A   1      43.196  31.680  29.468  1.00  0.00     0.031 C 
ATOM     46  C   UNL A   1      41.007  25.283  28.147  1.00  0.00     0.029 A 
ATOM     47  C   UNL A   1      42.439  25.513  28.001  1.00  0.00     0.049 A 
ATOM     48  H   UNL A   1      43.490  27.263  28.412  1.00  0.00     0.167 HD
ATOM     49  C   UNL A   1      45.530  31.102  28.849  1.00  0.00     0.037 A 
ATOM     50  C   UNL A   1      43.326  24.599  27.567  1.00  0.00     0.037 A 
ATOM     51  C   UNL A   1      46.555  30.188  28.412  1.00  0.00     0.049 A 
ATOM     52  C   UNL A   1      44.760  24.991  27.380  1.00  0.00     0.074 A 
ATOM     53  C   UNL A   1      47.910  30.420  28.253  1.00  0.00     0.029 A 
ATOM     54  N   UNL A   1      46.336  28.860  28.077  1.00  0.00    -0.354 N 
ATOM     55  N   UNL A   1      45.330  26.153  27.590  1.00  0.00    -0.248 NA
ATOM     56  C   UNL A   1      45.671  23.954  26.876  1.00  0.00     0.031 C 
ATOM     57  C   UNL A   1      48.508  29.240  27.798  1.00  0.00     0.029 A 
ATOM     58  C   UNL A   1      47.529  28.264  27.705  1.00  0.00     0.049 A 
ATOM     59  H   UNL A   1      45.462  28.408  28.101  1.00  0.00     0.167 HD
ATOM     60  C   UNL A   1      46.667  25.983  27.261  1.00  0.00     0.074 A 
ATOM     61  C   UNL A   1      46.826  24.604  26.843  1.00  0.00     0.031 C 
ATOM     62  C   UNL A   1      47.672  26.889  27.301  1.00  0.00     0.037 A 
BRANCH  49  63
ATOM     63  C   UNL A   1      45.934  32.516  29.145  1.00  0.00     0.057 A 
ATOM     64  C   UNL A   1      45.920  33.513  28.164  1.00  0.00     0.134 A 
ATOM     65  C   UNL A   1      46.285  32.893  30.448  1.00  0.00     0.134 A 
ATOM     66  F   UNL A   1      45.604  33.215  26.895  1.00  0.00    -0.206 F 
ATOM     67  C   UNL A   1      46.250  34.836  28.467  1.00  0.00     0.040 A 
ATOM     68  C   UNL A   1      46.599  34.215  30.767  1.00  0.00     0.040 A 
ATOM     69  F   UNL A   1      46.311  31.985  31.436  1.00  0.00    -0.206 F 
ATOM     70  C   UNL A   1      46.584  35.191  29.772  1.00  0.00     0.006 A 
ENDBRANCH  49  63
BRANCH  50  71
ATOM     71  C   UNL A   1      42.860  23.231  27.236  1.00  0.00     0.057 A 
ATOM     72  C   UNL A   1      42.640  22.282  28.239  1.00  0.00     0.134 A 
ATOM     73  C   UNL A   1      42.595  22.852  25.914  1.00  0.00     0.134 A 
ATOM     74  F   UNL A   1      42.898  22.582  29.520  1.00  0.00    -0.206 F 
ATOM     75  C   UNL A   1      42.175  21.001  27.940  1.00  0.00     0.040 A 
ATOM     76  C   UNL A   1      42.108  21.583  25.603  1.00  0.00     0.040 A 
ATOM     77  F   UNL A   1      42.783  23.721  24.910  1.00  0.00    -0.206 F 
ATOM     78  C   UNL A   1      41.899  20.652  26.619  1.00  0.00     0.006 A 
ENDBRANCH  50  71
BRANCH  62  79
ATOM     79  C   UNL A   1      49.038  26.408  26.919  1.00  0.00     0.057 A 
ATOM     80  C   UNL A   1      49.871  25.758  27.837  1.00  0.00     0.134 A 
ATOM     81  C   UNL A   1      49.509  26.570  25.611  1.00  0.00     0.134 A 
ATOM     82  F   UNL A   1      49.479  25.586  29.108  1.00  0.00    -0.206 F 
ATOM     83  C   UNL A   1      51.136  25.296  27.469  1.00  0.00     0.040 A 
ATOM     84  C   UNL A   1      50.765  26.098  25.227  1.00  0.00     0.040 A 
ATOM     85  F   UNL A   1      48.755  27.182  24.686  1.00  0.00    -0.206 F 
ATOM     86  C   UNL A   1      51.583  25.461  26.159  1.00  0.00     0.006 A 
ENDBRANCH  62  79
ENDBRANCH  36  37
ENDBRANCH  29  31
ENDBRANCH  28  29
ENDBRANCH  27  28
ENDBRANCH   1  27
TORSDOF 15
ENDMDL
