MODEL 1
REMARK VINA RESULT:     -12.1      0.000      0.000
REMARK SMILES O=C(OCCOC(=O)c1ccccc1Nc1cccc(C(F)(F)F)c1)c1ccc(-c2c3nc(c(-c4c(F)cccc4F)c4ccc([nH]4)c(-c4c(F)cccc4F)c4nc(c(-c5c(F)cccc5F)c5ccc2[nH]5)C=C4)C=C3)cc1
REMARK SMILES IDX 5 1 4 2 3 3 2 4 1 5 26 6 27 7 79 8 28 9 78 10 29 11 30 12
REMARK SMILES IDX 31 13 72 14 32 15 77 16 71 17 73 18 33 19 76 20 70 21 69 22
REMARK SMILES IDX 34 24 60 25 43 26 59 27 44 28 47 29 58 30 74 31 45 32 46 33
REMARK SMILES IDX 57 35 75 36 48 37 35 38 36 39 41 40 37 41 38 42 40 43 42 44
REMARK SMILES IDX 39 45 61 46 62 47 67 48 63 49 64 50 66 51 68 52 65 53 49 54
REMARK SMILES IDX 50 55 55 56 51 57 52 58 54 59 56 60 53 61 6 62 7 63 8 64
REMARK SMILES IDX 9 65 10 66 14 67 11 68 13 69 12 70 15 71 16 73 17 74 25 75
REMARK SMILES IDX 18 76 20 77 19 78 21 79 22 80 23 81 24 82
REMARK H PARENT 73 23 47 34 15 72
REMARK Flexibility Score: inf
ROOT
ATOM      1  C   UNL A   1      32.785  30.984  27.053  1.00  0.00     0.275 C 
ENDROOT
BRANCH   1   2
ATOM      2  C   UNL A   1      31.741  32.104  26.967  1.00  0.00     0.275 C 
BRANCH   2   3
ATOM      3  O   UNL A   1      32.240  33.447  27.109  1.00  0.00    -0.458 OA
BRANCH   3   4
ATOM      4  C   UNL A   1      32.899  34.053  28.126  1.00  0.00     0.338 C 
ATOM      5  O   UNL A   1      32.497  35.149  28.516  1.00  0.00    -0.246 OA
BRANCH   4   6
ATOM      6  C   UNL A   1      34.155  33.520  28.743  1.00  0.00     0.060 A 
ATOM      7  C   UNL A   1      35.430  33.623  28.192  1.00  0.00     0.016 A 
ATOM      8  C   UNL A   1      34.026  32.828  29.964  1.00  0.00     0.016 A 
ATOM      9  C   UNL A   1      36.547  33.092  28.843  1.00  0.00     0.010 A 
ATOM     10  C   UNL A   1      35.146  32.314  30.634  1.00  0.00     0.010 A 
ATOM     11  C   UNL A   1      36.422  32.430  30.064  1.00  0.00    -0.014 A 
BRANCH  11  12
ATOM     12  C   UNL A   1      37.594  31.697  30.609  1.00  0.00     0.031 A 
ATOM     13  C   UNL A   1      38.153  32.152  31.930  1.00  0.00     0.074 A 
ATOM     14  C   UNL A   1      38.047  30.551  30.054  1.00  0.00     0.049 A 
ATOM     15  N   UNL A   1      39.137  31.643  32.623  1.00  0.00    -0.248 NA
ATOM     16  C   UNL A   1      37.459  33.265  32.606  1.00  0.00     0.031 C 
ATOM     17  C   UNL A   1      37.431  29.850  28.930  1.00  0.00     0.029 A 
ATOM     18  N   UNL A   1      39.142  29.770  30.349  1.00  0.00    -0.354 N 
ATOM     19  C   UNL A   1      39.098  32.287  33.851  1.00  0.00     0.074 A 
ATOM     20  C   UNL A   1      38.090  33.317  33.769  1.00  0.00     0.031 C 
ATOM     21  C   UNL A   1      38.211  28.817  28.563  1.00  0.00     0.029 A 
ATOM     22  C   UNL A   1      39.402  28.808  29.389  1.00  0.00     0.049 A 
ATOM     23  H   UNL A   1      39.686  29.884  31.162  1.00  0.00     0.167 HD
ATOM     24  C   UNL A   1      39.788  31.978  34.973  1.00  0.00     0.037 A 
ATOM     25  C   UNL A   1      40.523  28.089  29.168  1.00  0.00     0.037 A 
ATOM     26  C   UNL A   1      40.814  30.972  35.017  1.00  0.00     0.049 A 
ATOM     27  C   UNL A   1      41.556  28.102  30.245  1.00  0.00     0.074 A 
ATOM     28  C   UNL A   1      41.585  30.562  36.089  1.00  0.00     0.029 A 
ATOM     29  N   UNL A   1      41.232  30.233  33.917  1.00  0.00    -0.354 N 
ATOM     30  N   UNL A   1      41.547  28.750  31.383  1.00  0.00    -0.248 NA
ATOM     31  C   UNL A   1      42.696  27.201  30.058  1.00  0.00     0.031 C 
ATOM     32  C   UNL A   1      42.511  29.622  35.624  1.00  0.00     0.029 A 
ATOM     33  C   UNL A   1      42.281  29.404  34.275  1.00  0.00     0.049 A 
ATOM     34  H   UNL A   1      40.839  30.290  33.016  1.00  0.00     0.167 HD
ATOM     35  C   UNL A   1      42.627  28.262  32.094  1.00  0.00     0.074 A 
ATOM     36  C   UNL A   1      43.306  27.319  31.225  1.00  0.00     0.031 C 
ATOM     37  C   UNL A   1      42.969  28.508  33.381  1.00  0.00     0.037 A 
BRANCH  24  38
ATOM     38  C   UNL A   1      39.430  32.720  36.226  1.00  0.00     0.057 A 
ATOM     39  C   UNL A   1      40.044  33.938  36.557  1.00  0.00     0.134 A 
ATOM     40  C   UNL A   1      38.456  32.231  37.101  1.00  0.00     0.134 A 
ATOM     41  F   UNL A   1      41.000  34.454  35.770  1.00  0.00    -0.206 F 
ATOM     42  C   UNL A   1      39.712  34.632  37.721  1.00  0.00     0.040 A 
ATOM     43  C   UNL A   1      38.100  32.926  38.259  1.00  0.00     0.040 A 
ATOM     44  F   UNL A   1      37.834  31.070  36.848  1.00  0.00    -0.206 F 
ATOM     45  C   UNL A   1      38.732  34.129  38.573  1.00  0.00     0.006 A 
ENDBRANCH  24  38
BRANCH  25  46
ATOM     46  C   UNL A   1      40.801  27.353  27.900  1.00  0.00     0.057 A 
ATOM     47  C   UNL A   1      40.424  26.028  27.685  1.00  0.00     0.134 A 
ATOM     48  C   UNL A   1      41.575  27.958  26.892  1.00  0.00     0.134 A 
ATOM     49  F   UNL A   1      39.782  25.345  28.642  1.00  0.00    -0.206 F 
ATOM     50  C   UNL A   1      40.746  25.358  26.496  1.00  0.00     0.040 A 
ATOM     51  C   UNL A   1      41.870  27.317  25.686  1.00  0.00     0.040 A 
ATOM     52  F   UNL A   1      42.104  29.174  27.080  1.00  0.00    -0.206 F 
ATOM     53  C   UNL A   1      41.447  26.011  25.481  1.00  0.00     0.006 A 
ENDBRANCH  25  46
BRANCH  37  54
ATOM     54  C   UNL A   1      44.073  27.657  33.920  1.00  0.00     0.057 A 
ATOM     55  C   UNL A   1      43.835  26.411  34.509  1.00  0.00     0.134 A 
ATOM     56  C   UNL A   1      45.384  28.150  33.932  1.00  0.00     0.134 A 
ATOM     57  F   UNL A   1      42.592  25.909  34.561  1.00  0.00    -0.206 F 
ATOM     58  C   UNL A   1      44.858  25.707  35.143  1.00  0.00     0.040 A 
ATOM     59  C   UNL A   1      46.420  27.438  34.530  1.00  0.00     0.040 A 
ATOM     60  F   UNL A   1      45.671  29.343  33.389  1.00  0.00    -0.206 F 
ATOM     61  C   UNL A   1      46.154  26.222  35.153  1.00  0.00     0.006 A 
ENDBRANCH  37  54
ENDBRANCH  11  12
ENDBRANCH   4   6
ENDBRANCH   3   4
ENDBRANCH   2   3
ENDBRANCH   1   2
BRANCH   1  62
ATOM     62  O   UNL A   1      32.706  30.037  25.982  1.00  0.00    -0.458 OA
BRANCH  62  63
ATOM     63  C   UNL A   1      32.261  28.810  26.363  1.00  0.00     0.340 C 
ATOM     64  O   UNL A   1      31.482  28.571  27.261  1.00  0.00    -0.246 OA
BRANCH  63  65
ATOM     65  C   UNL A   1      32.775  27.781  25.440  1.00  0.00     0.083 A 
ATOM     66  C   UNL A   1      33.359  26.647  26.038  1.00  0.00     0.018 A 
ATOM     67  C   UNL A   1      32.728  27.917  24.046  1.00  0.00     0.053 A 
ATOM     68  C   UNL A   1      33.876  25.617  25.256  1.00  0.00     0.001 A 
ATOM     69  C   UNL A   1      33.406  26.927  23.302  1.00  0.00     0.027 A 
ATOM     70  C   UNL A   1      33.919  25.767  23.882  1.00  0.00     0.002 A 
BRANCH  67  71
ATOM     71  N   UNL A   1      31.973  28.930  23.398  1.00  0.00    -0.355 N 
ATOM     72  H   UNL A   1      32.479  29.720  23.101  1.00  0.00     0.167 HD
BRANCH  71  73
ATOM     73  C   UNL A   1      30.591  28.946  23.127  1.00  0.00     0.039 A 
ATOM     74  C   UNL A   1      29.824  27.783  23.133  1.00  0.00     0.026 A 
ATOM     75  C   UNL A   1      29.921  30.162  22.994  1.00  0.00     0.039 A 
ATOM     76  C   UNL A   1      28.425  27.863  23.113  1.00  0.00     0.003 A 
ATOM     77  C   UNL A   1      28.540  30.284  23.115  1.00  0.00     0.058 A 
ATOM     78  C   UNL A   1      27.787  29.109  23.160  1.00  0.00     0.013 A 
BRANCH  77  79
ATOM     79  C   UNL A   1      27.980  31.681  23.202  1.00  0.00     0.416 C 
ATOM     80  F   UNL A   1      26.874  31.775  23.971  1.00  0.00    -0.166 F 
ATOM     81  F   UNL A   1      28.881  32.577  23.689  1.00  0.00    -0.166 F 
ATOM     82  F   UNL A   1      27.604  32.172  21.982  1.00  0.00    -0.166 F 
ENDBRANCH  77  79
ENDBRANCH  71  73
ENDBRANCH  67  71
ENDBRANCH  63  65
ENDBRANCH  62  63
ENDBRANCH   1  62
TORSDOF 14
ENDMDL
MODEL 2
REMARK VINA RESULT:     -12.0      5.963     10.771
REMARK SMILES O=C(OCCOC(=O)c1ccccc1Nc1cccc(C(F)(F)F)c1)c1ccc(-c2c3nc(c(-c4c(F)cccc4F)c4ccc([nH]4)c(-c4c(F)cccc4F)c4nc(c(-c5c(F)cccc5F)c5ccc2[nH]5)C=C4)C=C3)cc1
REMARK SMILES IDX 5 1 4 2 3 3 2 4 1 5 26 6 27 7 79 8 28 9 78 10 29 11 30 12
REMARK SMILES IDX 31 13 72 14 32 15 77 16 71 17 73 18 33 19 76 20 70 21 69 22
REMARK SMILES IDX 34 24 60 25 43 26 59 27 44 28 47 29 58 30 74 31 45 32 46 33
REMARK SMILES IDX 57 35 75 36 48 37 35 38 36 39 41 40 37 41 38 42 40 43 42 44
REMARK SMILES IDX 39 45 61 46 62 47 67 48 63 49 64 50 66 51 68 52 65 53 49 54
REMARK SMILES IDX 50 55 55 56 51 57 52 58 54 59 56 60 53 61 6 62 7 63 8 64
REMARK SMILES IDX 9 65 10 66 14 67 11 68 13 69 12 70 15 71 16 73 17 74 25 75
REMARK SMILES IDX 18 76 20 77 19 78 21 79 22 80 23 81 24 82
REMARK H PARENT 73 23 47 34 15 72
REMARK Flexibility Score: inf
ROOT
ATOM      1  C   UNL A   1      38.262  21.350  25.348  1.00  0.00     0.275 C 
ENDROOT
BRANCH   1   2
ATOM      2  C   UNL A   1      38.658  19.889  25.099  1.00  0.00     0.275 C 
BRANCH   2   3
ATOM      3  O   UNL A   1      39.661  19.346  25.978  1.00  0.00    -0.458 OA
BRANCH   3   4
ATOM      4  C   UNL A   1      40.976  19.639  26.122  1.00  0.00     0.338 C 
ATOM      5  O   UNL A   1      41.798  18.733  25.985  1.00  0.00    -0.246 OA
BRANCH   4   6
ATOM      6  C   UNL A   1      41.493  20.980  26.541  1.00  0.00     0.060 A 
ATOM      7  C   UNL A   1      41.478  21.479  27.842  1.00  0.00     0.016 A 
ATOM      8  C   UNL A   1      42.003  21.816  25.528  1.00  0.00     0.016 A 
ATOM      9  C   UNL A   1      41.983  22.748  28.138  1.00  0.00     0.010 A 
ATOM     10  C   UNL A   1      42.534  23.081  25.822  1.00  0.00     0.010 A 
ATOM     11  C   UNL A   1      42.512  23.564  27.138  1.00  0.00    -0.014 A 
BRANCH  11  12
ATOM     12  C   UNL A   1      42.835  24.979  27.460  1.00  0.00     0.031 A 
ATOM     13  C   UNL A   1      44.269  25.417  27.331  1.00  0.00     0.074 A 
ATOM     14  C   UNL A   1      41.875  25.903  27.683  1.00  0.00     0.049 A 
ATOM     15  N   UNL A   1      44.783  26.604  27.513  1.00  0.00    -0.248 NA
ATOM     16  C   UNL A   1      45.237  24.413  26.848  1.00  0.00     0.031 C 
ATOM     17  C   UNL A   1      40.435  25.677  27.571  1.00  0.00     0.029 A 
ATOM     18  N   UNL A   1      41.957  27.223  28.064  1.00  0.00    -0.354 N 
ATOM     19  C   UNL A   1      46.089  26.517  27.053  1.00  0.00     0.074 A 
ATOM     20  C   UNL A   1      46.339  25.136  26.714  1.00  0.00     0.031 C 
ATOM     21  C   UNL A   1      39.776  26.775  27.980  1.00  0.00     0.029 A 
ATOM     22  C   UNL A   1      40.736  27.763  28.430  1.00  0.00     0.049 A 
ATOM     23  H   UNL A   1      42.799  27.733  28.076  1.00  0.00     0.167 HD
ATOM     24  C   UNL A   1      46.967  27.526  26.852  1.00  0.00     0.037 A 
ATOM     25  C   UNL A   1      40.462  28.883  29.133  1.00  0.00     0.037 A 
ATOM     26  C   UNL A   1      46.707  28.888  27.235  1.00  0.00     0.049 A 
ATOM     27  C   UNL A   1      41.586  29.845  29.333  1.00  0.00     0.074 A 
ATOM     28  C   UNL A   1      47.512  30.001  27.086  1.00  0.00     0.029 A 
ATOM     29  N   UNL A   1      45.551  29.311  27.877  1.00  0.00    -0.354 N 
ATOM     30  N   UNL A   1      42.832  29.743  28.947  1.00  0.00    -0.248 NA
ATOM     31  C   UNL A   1      41.239  31.120  29.966  1.00  0.00     0.031 C 
ATOM     32  C   UNL A   1      46.870  31.086  27.693  1.00  0.00     0.029 A 
ATOM     33  C   UNL A   1      45.641  30.661  28.172  1.00  0.00     0.049 A 
ATOM     34  H   UNL A   1      44.780  28.736  28.090  1.00  0.00     0.167 HD
ATOM     35  C   UNL A   1      43.398  30.978  29.198  1.00  0.00     0.074 A 
ATOM     36  C   UNL A   1      42.375  31.784  29.838  1.00  0.00     0.031 C 
ATOM     37  C   UNL A   1      44.627  31.429  28.848  1.00  0.00     0.037 A 
BRANCH  24  38
ATOM     38  C   UNL A   1      48.261  27.186  26.174  1.00  0.00     0.057 A 
ATOM     39  C   UNL A   1      48.400  27.265  24.779  1.00  0.00     0.134 A 
ATOM     40  C   UNL A   1      49.381  26.793  26.911  1.00  0.00     0.134 A 
ATOM     41  F   UNL A   1      47.359  27.616  24.009  1.00  0.00    -0.206 F 
ATOM     42  C   UNL A   1      49.602  26.950  24.145  1.00  0.00     0.040 A 
ATOM     43  C   UNL A   1      50.596  26.495  26.290  1.00  0.00     0.040 A 
ATOM     44  F   UNL A   1      49.315  26.691  28.247  1.00  0.00    -0.206 F 
ATOM     45  C   UNL A   1      50.708  26.570  24.902  1.00  0.00     0.006 A 
ENDBRANCH  24  38
BRANCH  25  46
ATOM     46  C   UNL A   1      39.139  29.166  29.761  1.00  0.00     0.057 A 
ATOM     47  C   UNL A   1      38.807  28.773  31.057  1.00  0.00     0.134 A 
ATOM     48  C   UNL A   1      38.113  29.761  29.003  1.00  0.00     0.134 A 
ATOM     49  F   UNL A   1      39.691  28.101  31.806  1.00  0.00    -0.206 F 
ATOM     50  C   UNL A   1      37.535  29.018  31.595  1.00  0.00     0.040 A 
ATOM     51  C   UNL A   1      36.855  30.048  29.537  1.00  0.00     0.040 A 
ATOM     52  F   UNL A   1      38.301  30.034  27.705  1.00  0.00    -0.206 F 
ATOM     53  C   UNL A   1      36.564  29.682  30.844  1.00  0.00     0.006 A 
ENDBRANCH  25  46
BRANCH  37  54
ATOM     54  C   UNL A   1      44.859  32.887  29.078  1.00  0.00     0.057 A 
ATOM     55  C   UNL A   1      44.531  33.855  28.123  1.00  0.00     0.134 A 
ATOM     56  C   UNL A   1      45.515  33.308  30.242  1.00  0.00     0.134 A 
ATOM     57  F   UNL A   1      43.939  33.501  26.972  1.00  0.00    -0.206 F 
ATOM     58  C   UNL A   1      44.898  35.188  28.293  1.00  0.00     0.040 A 
ATOM     59  C   UNL A   1      45.853  34.644  30.440  1.00  0.00     0.040 A 
ATOM     60  F   UNL A   1      45.861  32.424  31.190  1.00  0.00    -0.206 F 
ATOM     61  C   UNL A   1      45.561  35.585  29.455  1.00  0.00     0.006 A 
ENDBRANCH  37  54
ENDBRANCH  11  12
ENDBRANCH   4   6
ENDBRANCH   3   4
ENDBRANCH   2   3
ENDBRANCH   1   2
BRANCH   1  62
ATOM     62  O   UNL A   1      36.853  21.547  25.505  1.00  0.00    -0.458 OA
BRANCH  62  63
ATOM     63  C   UNL A   1      36.314  22.413  24.606  1.00  0.00     0.340 C 
ATOM     64  O   UNL A   1      36.673  22.582  23.460  1.00  0.00    -0.246 OA
BRANCH  63  65
ATOM     65  C   UNL A   1      35.124  23.062  25.187  1.00  0.00     0.083 A 
ATOM     66  C   UNL A   1      35.035  24.459  25.020  1.00  0.00     0.018 A 
ATOM     67  C   UNL A   1      34.142  22.357  25.894  1.00  0.00     0.053 A 
ATOM     68  C   UNL A   1      33.950  25.168  25.531  1.00  0.00     0.001 A 
ATOM     69  C   UNL A   1      33.151  23.138  26.528  1.00  0.00     0.027 A 
ATOM     70  C   UNL A   1      33.015  24.509  26.306  1.00  0.00     0.002 A 
BRANCH  67  71
ATOM     71  N   UNL A   1      34.076  20.939  25.911  1.00  0.00    -0.355 N 
ATOM     72  H   UNL A   1      34.562  20.495  26.642  1.00  0.00     0.167 HD
BRANCH  71  73
ATOM     73  C   UNL A   1      33.404  20.088  25.012  1.00  0.00     0.039 A 
ATOM     74  C   UNL A   1      32.577  20.584  24.005  1.00  0.00     0.026 A 
ATOM     75  C   UNL A   1      33.672  18.720  25.014  1.00  0.00     0.039 A 
ATOM     76  C   UNL A   1      32.132  19.737  22.981  1.00  0.00     0.003 A 
ATOM     77  C   UNL A   1      33.367  17.886  23.942  1.00  0.00     0.058 A 
ATOM     78  C   UNL A   1      32.571  18.408  22.921  1.00  0.00     0.013 A 
BRANCH  77  79
ATOM     79  C   UNL A   1      33.938  16.491  23.975  1.00  0.00     0.416 C 
ATOM     80  F   UNL A   1      33.045  15.548  24.347  1.00  0.00    -0.166 F 
ATOM     81  F   UNL A   1      34.446  16.105  22.773  1.00  0.00    -0.166 F 
ATOM     82  F   UNL A   1      34.971  16.368  24.862  1.00  0.00    -0.166 F 
ENDBRANCH  77  79
ENDBRANCH  71  73
ENDBRANCH  67  71
ENDBRANCH  63  65
ENDBRANCH  62  63
ENDBRANCH   1  62
TORSDOF 14
ENDMDL
MODEL 3
REMARK VINA RESULT:     -11.7      1.967      3.560
REMARK SMILES O=C(OCCOC(=O)c1ccccc1Nc1cccc(C(F)(F)F)c1)c1ccc(-c2c3nc(c(-c4c(F)cccc4F)c4ccc([nH]4)c(-c4c(F)cccc4F)c4nc(c(-c5c(F)cccc5F)c5ccc2[nH]5)C=C4)C=C3)cc1
REMARK SMILES IDX 5 1 4 2 3 3 2 4 1 5 26 6 27 7 79 8 28 9 78 10 29 11 30 12
REMARK SMILES IDX 31 13 72 14 32 15 77 16 71 17 73 18 33 19 76 20 70 21 69 22
REMARK SMILES IDX 34 24 60 25 43 26 59 27 44 28 47 29 58 30 74 31 45 32 46 33
REMARK SMILES IDX 57 35 75 36 48 37 35 38 36 39 41 40 37 41 38 42 40 43 42 44
REMARK SMILES IDX 39 45 61 46 62 47 67 48 63 49 64 50 66 51 68 52 65 53 49 54
REMARK SMILES IDX 50 55 55 56 51 57 52 58 54 59 56 60 53 61 6 62 7 63 8 64
REMARK SMILES IDX 9 65 10 66 14 67 11 68 13 69 12 70 15 71 16 73 17 74 25 75
REMARK SMILES IDX 18 76 20 77 19 78 21 79 22 80 23 81 24 82
REMARK H PARENT 73 23 47 34 15 72
REMARK Flexibility Score: inf
ROOT
ATOM      1  C   UNL A   1      32.943  35.828  28.674  1.00  0.00     0.275 C 
ENDROOT
BRANCH   1   2
ATOM      2  C   UNL A   1      32.811  36.837  29.821  1.00  0.00     0.275 C 
BRANCH   2   3
ATOM      3  O   UNL A   1      32.174  36.354  31.019  1.00  0.00    -0.458 OA
BRANCH   3   4
ATOM      4  C   UNL A   1      32.684  36.022  32.229  1.00  0.00     0.338 C 
ATOM      5  O   UNL A   1      32.240  36.586  33.229  1.00  0.00    -0.246 OA
BRANCH   4   6
ATOM      6  C   UNL A   1      33.832  35.080  32.423  1.00  0.00     0.060 A 
ATOM      7  C   UNL A   1      33.825  33.959  33.250  1.00  0.00     0.016 A 
ATOM      8  C   UNL A   1      35.026  35.375  31.736  1.00  0.00     0.016 A 
ATOM      9  C   UNL A   1      34.948  33.137  33.369  1.00  0.00     0.010 A 
ATOM     10  C   UNL A   1      36.150  34.541  31.832  1.00  0.00     0.010 A 
ATOM     11  C   UNL A   1      36.122  33.416  32.669  1.00  0.00    -0.014 A 
BRANCH  11  12
ATOM     12  C   UNL A   1      37.352  32.646  32.990  1.00  0.00     0.031 A 
ATOM     13  C   UNL A   1      38.175  33.097  34.166  1.00  0.00     0.074 A 
ATOM     14  C   UNL A   1      37.646  31.475  32.381  1.00  0.00     0.049 A 
ATOM     15  N   UNL A   1      39.257  32.560  34.663  1.00  0.00    -0.248 NA
ATOM     16  C   UNL A   1      37.667  34.245  34.940  1.00  0.00     0.031 C 
ATOM     17  C   UNL A   1      36.797  30.784  31.414  1.00  0.00     0.029 A 
ATOM     18  N   UNL A   1      38.749  30.657  32.472  1.00  0.00    -0.354 N 
ATOM     19  C   UNL A   1      39.483  33.223  35.861  1.00  0.00     0.074 A 
ATOM     20  C   UNL A   1      38.516  34.290  35.956  1.00  0.00     0.031 C 
ATOM     21  C   UNL A   1      37.453  29.716  30.924  1.00  0.00     0.029 A 
ATOM     22  C   UNL A   1      38.782  29.673  31.500  1.00  0.00     0.049 A 
ATOM     23  H   UNL A   1      39.446  30.761  33.160  1.00  0.00     0.167 HD
ATOM     24  C   UNL A   1      40.368  32.902  36.832  1.00  0.00     0.037 A 
ATOM     25  C   UNL A   1      39.811  28.907  31.079  1.00  0.00     0.037 A 
ATOM     26  C   UNL A   1      41.348  31.857  36.695  1.00  0.00     0.049 A 
ATOM     27  C   UNL A   1      41.035  28.896  31.933  1.00  0.00     0.074 A 
ATOM     28  C   UNL A   1      42.299  31.433  37.604  1.00  0.00     0.029 A 
ATOM     29  N   UNL A   1      41.515  31.088  35.551  1.00  0.00    -0.354 N 
ATOM     30  N   UNL A   1      41.273  29.559  33.036  1.00  0.00    -0.248 NA
ATOM     31  C   UNL A   1      42.084  27.948  31.545  1.00  0.00     0.031 C 
ATOM     32  C   UNL A   1      43.082  30.451  36.987  1.00  0.00     0.029 A 
ATOM     33  C   UNL A   1      42.584  30.224  35.714  1.00  0.00     0.049 A 
ATOM     34  H   UNL A   1      40.955  31.148  34.744  1.00  0.00     0.167 HD
ATOM     35  C   UNL A   1      42.453  29.039  33.532  1.00  0.00     0.074 A 
ATOM     36  C   UNL A   1      42.916  28.059  32.567  1.00  0.00     0.031 C 
ATOM     37  C   UNL A   1      43.051  29.290  34.722  1.00  0.00     0.037 A 
BRANCH  24  38
ATOM     38  C   UNL A   1      40.290  33.675  38.115  1.00  0.00     0.057 A 
ATOM     39  C   UNL A   1      41.145  34.757  38.371  1.00  0.00     0.134 A 
ATOM     40  C   UNL A   1      39.347  33.353  39.095  1.00  0.00     0.134 A 
ATOM     41  F   UNL A   1      42.087  35.108  37.482  1.00  0.00    -0.206 F 
ATOM     42  C   UNL A   1      41.074  35.479  39.564  1.00  0.00     0.040 A 
ATOM     43  C   UNL A   1      39.252  34.081  40.283  1.00  0.00     0.040 A 
ATOM     44  F   UNL A   1      38.502  32.326  38.916  1.00  0.00    -0.206 F 
ATOM     45  C   UNL A   1      40.120  35.146  40.521  1.00  0.00     0.006 A 
ENDBRANCH  24  38
BRANCH  25  46
ATOM     46  C   UNL A   1      39.809  28.144  29.798  1.00  0.00     0.057 A 
ATOM     47  C   UNL A   1      39.213  26.891  29.653  1.00  0.00     0.134 A 
ATOM     48  C   UNL A   1      40.526  28.630  28.688  1.00  0.00     0.134 A 
ATOM     49  F   UNL A   1      38.606  26.308  30.695  1.00  0.00    -0.206 F 
ATOM     50  C   UNL A   1      39.274  26.186  28.443  1.00  0.00     0.040 A 
ATOM     51  C   UNL A   1      40.562  27.958  27.464  1.00  0.00     0.040 A 
ATOM     52  F   UNL A   1      41.250  29.753  28.788  1.00  0.00    -0.206 F 
ATOM     53  C   UNL A   1      39.926  26.731  27.336  1.00  0.00     0.006 A 
ENDBRANCH  25  46
BRANCH  37  54
ATOM     54  C   UNL A   1      44.208  28.404  35.052  1.00  0.00     0.057 A 
ATOM     55  C   UNL A   1      44.046  27.176  35.702  1.00  0.00     0.134 A 
ATOM     56  C   UNL A   1      45.512  28.847  34.797  1.00  0.00     0.134 A 
ATOM     57  F   UNL A   1      42.821  26.724  36.007  1.00  0.00    -0.206 F 
ATOM     58  C   UNL A   1      45.148  26.442  36.138  1.00  0.00     0.040 A 
ATOM     59  C   UNL A   1      46.620  28.103  35.196  1.00  0.00     0.040 A 
ATOM     60  F   UNL A   1      45.729  30.020  34.184  1.00  0.00    -0.206 F 
ATOM     61  C   UNL A   1      46.439  26.906  35.884  1.00  0.00     0.006 A 
ENDBRANCH  37  54
ENDBRANCH  11  12
ENDBRANCH   4   6
ENDBRANCH   3   4
ENDBRANCH   2   3
ENDBRANCH   1   2
BRANCH   1  62
ATOM     62  O   UNL A   1      32.928  34.463  29.102  1.00  0.00    -0.458 OA
BRANCH  62  63
ATOM     63  C   UNL A   1      32.898  33.565  28.081  1.00  0.00     0.340 C 
ATOM     64  O   UNL A   1      32.040  33.468  27.229  1.00  0.00    -0.246 OA
BRANCH  63  65
ATOM     65  C   UNL A   1      34.141  32.771  28.074  1.00  0.00     0.083 A 
ATOM     66  C   UNL A   1      35.331  33.481  28.328  1.00  0.00     0.018 A 
ATOM     67  C   UNL A   1      34.164  31.397  27.800  1.00  0.00     0.053 A 
ATOM     68  C   UNL A   1      36.560  32.825  28.344  1.00  0.00     0.001 A 
ATOM     69  C   UNL A   1      35.443  30.813  27.669  1.00  0.00     0.027 A 
ATOM     70  C   UNL A   1      36.619  31.489  27.992  1.00  0.00     0.002 A 
BRANCH  67  71
ATOM     71  N   UNL A   1      32.988  30.605  27.745  1.00  0.00    -0.355 N 
ATOM     72  H   UNL A   1      32.287  30.830  28.397  1.00  0.00     0.167 HD
BRANCH  71  73
ATOM     73  C   UNL A   1      32.700  29.536  26.875  1.00  0.00     0.039 A 
ATOM     74  C   UNL A   1      32.897  28.207  27.248  1.00  0.00     0.026 A 
ATOM     75  C   UNL A   1      32.060  29.779  25.660  1.00  0.00     0.039 A 
ATOM     76  C   UNL A   1      32.367  27.172  26.465  1.00  0.00     0.003 A 
ATOM     77  C   UNL A   1      31.402  28.787  24.938  1.00  0.00     0.058 A 
ATOM     78  C   UNL A   1      31.576  27.464  25.347  1.00  0.00     0.013 A 
BRANCH  77  79
ATOM     79  C   UNL A   1      30.544  29.236  23.782  1.00  0.00     0.416 C 
ATOM     80  F   UNL A   1      29.954  30.436  23.979  1.00  0.00    -0.166 F 
ATOM     81  F   UNL A   1      31.239  29.321  22.616  1.00  0.00    -0.166 F 
ATOM     82  F   UNL A   1      29.513  28.375  23.528  1.00  0.00    -0.166 F 
ENDBRANCH  77  79
ENDBRANCH  71  73
ENDBRANCH  67  71
ENDBRANCH  63  65
ENDBRANCH  62  63
ENDBRANCH   1  62
TORSDOF 14
ENDMDL
