MODEL 1
REMARK VINA RESULT:     -13.1      0.000      0.000
REMARK SMILES Cc1c(NC(=O)c2ccccc2NC(=O)[C@@H]2CCCO2)cccc1C(=O)OCCOC(=O)c1ccc(-c2c3nc(c(-c4c(F)cccc4F)c4ccc([nH]4)c(-c4c(F)cccc4F)c4nc(c(-c5c(F)cccc5F)c5ccc2[nH]5)C=C4)C=C3)cc1
REMARK SMILES IDX 28 1 27 2 25 3 26 4 24 5 1 6 2 7 3 8 21 9 23 10 22 11 4 12
REMARK SMILES IDX 5 13 6 15 7 16 8 17 12 18 9 19 11 20 10 21 13 22 14 23 15 25
REMARK SMILES IDX 16 26 17 27 20 28 18 29 19 30 29 31 30 32 31 33 32 34 33 35
REMARK SMILES IDX 34 36 86 37 35 38 85 39 36 40 37 41 38 42 79 43 39 44 84 45
REMARK SMILES IDX 78 46 80 47 40 48 83 49 77 50 76 51 41 53 67 54 50 55 66 56
REMARK SMILES IDX 51 57 54 58 65 59 81 60 52 61 53 62 64 64 82 65 55 66 42 67
REMARK SMILES IDX 43 68 48 69 44 70 45 71 47 72 49 73 46 74 68 75 69 76 74 77
REMARK SMILES IDX 70 78 71 79 73 80 75 81 72 82 56 83 57 84 62 85 58 86 59 87
REMARK SMILES IDX 61 88 63 89 60 90
REMARK H PARENT 4 14 13 24 80 52 54 63
REMARK Flexibility Score: inf
ROOT
ATOM      1  C   UNL A   1      33.023  30.081  26.346  1.00  0.00     0.275 C 
ENDROOT
BRANCH   1   2
ATOM      2  O   UNL A   1      33.334  29.607  25.026  1.00  0.00    -0.458 OA
BRANCH   2   3
ATOM      3  C   UNL A   1      32.281  28.930  24.491  1.00  0.00     0.338 C 
ATOM      4  O   UNL A   1      31.177  29.424  24.296  1.00  0.00    -0.246 OA
BRANCH   3   5
ATOM      5  C   UNL A   1      32.522  27.502  24.166  1.00  0.00     0.065 A 
ATOM      6  C   UNL A   1      31.400  26.834  26.359  1.00  0.00     0.047 C 
ATOM      7  C   UNL A   1      31.982  26.506  25.002  1.00  0.00    -0.013 A 
ATOM      8  C   UNL A   1      32.185  25.154  24.639  1.00  0.00     0.045 A 
ATOM      9  C   UNL A   1      32.682  24.812  23.381  1.00  0.00     0.026 A 
ATOM     10  C   UNL A   1      33.201  27.132  22.996  1.00  0.00     0.016 A 
ATOM     11  C   UNL A   1      33.210  25.805  22.562  1.00  0.00     0.003 A 
BRANCH   8  12
ATOM     12  N   UNL A   1      32.034  24.198  25.653  1.00  0.00    -0.322 N 
ATOM     13  C   UNL A   1      32.900  23.250  26.149  1.00  0.00     0.257 C 
ATOM     14  H   UNL A   1      31.151  24.205  26.088  1.00  0.00     0.170 HD
ATOM     15  O   UNL A   1      32.517  22.599  27.125  1.00  0.00    -0.269 OA
BRANCH  13  16
ATOM     16  C   UNL A   1      34.258  22.963  25.604  1.00  0.00     0.063 A 
ATOM     17  C   UNL A   1      35.245  23.823  26.130  1.00  0.00     0.016 A 
ATOM     18  C   UNL A   1      34.615  21.990  24.637  1.00  0.00     0.054 A 
ATOM     19  C   UNL A   1      36.584  23.672  25.796  1.00  0.00     0.001 A 
ATOM     20  C   UNL A   1      35.984  21.778  24.431  1.00  0.00     0.027 A 
ATOM     21  C   UNL A   1      36.956  22.617  24.984  1.00  0.00     0.002 A 
BRANCH  18  22
ATOM     22  N   UNL A   1      33.609  21.309  23.907  1.00  0.00    -0.323 N 
ATOM     23  C   UNL A   1      32.964  20.102  23.983  1.00  0.00     0.253 C 
ATOM     24  H   UNL A   1      33.290  21.844  23.145  1.00  0.00     0.170 HD
ATOM     25  O   UNL A   1      32.065  19.910  23.154  1.00  0.00    -0.272 OA
BRANCH  23  26
ATOM     26  C   UNL A   1      33.348  19.016  24.992  1.00  0.00     0.207 C 
ATOM     27  C   UNL A   1      34.289  18.024  24.321  1.00  0.00     0.044 C 
ATOM     28  O   UNL A   1      32.247  18.228  25.479  1.00  0.00    -0.368 OA
ATOM     29  C   UNL A   1      34.073  16.773  25.124  1.00  0.00     0.032 C 
ATOM     30  C   UNL A   1      32.590  16.839  25.398  1.00  0.00     0.161 C 
ENDBRANCH  23  26
ENDBRANCH  18  22
ENDBRANCH  13  16
ENDBRANCH   8  12
ENDBRANCH   3   5
ENDBRANCH   2   3
ENDBRANCH   1   2
BRANCH   1  31
ATOM     31  C   UNL A   1      33.881  29.518  27.486  1.00  0.00     0.275 C 
BRANCH  31  32
ATOM     32  O   UNL A   1      35.310  29.304  27.325  1.00  0.00    -0.458 OA
BRANCH  32  33
ATOM     33  C   UNL A   1      36.355  29.986  27.835  1.00  0.00     0.338 C 
ATOM     34  O   UNL A   1      36.277  31.178  28.128  1.00  0.00    -0.246 OA
BRANCH  33  35
ATOM     35  C   UNL A   1      37.618  29.270  28.039  1.00  0.00     0.060 A 
ATOM     36  C   UNL A   1      38.625  29.402  27.070  1.00  0.00     0.016 A 
ATOM     37  C   UNL A   1      37.832  28.545  29.203  1.00  0.00     0.016 A 
ATOM     38  C   UNL A   1      39.898  28.916  27.312  1.00  0.00     0.010 A 
ATOM     39  C   UNL A   1      39.113  28.167  29.508  1.00  0.00     0.010 A 
ATOM     40  C   UNL A   1      40.123  28.309  28.541  1.00  0.00    -0.014 A 
BRANCH  40  41
ATOM     41  C   UNL A   1      41.229  27.398  28.750  1.00  0.00     0.031 A 
ATOM     42  C   UNL A   1      41.105  25.958  28.500  1.00  0.00     0.074 A 
ATOM     43  C   UNL A   1      42.344  28.109  29.036  1.00  0.00     0.049 A 
ATOM     44  N   UNL A   1      41.948  25.089  28.921  1.00  0.00    -0.248 NA
ATOM     45  C   UNL A   1      39.985  25.337  27.801  1.00  0.00     0.031 C 
ATOM     46  C   UNL A   1      43.752  27.778  29.034  1.00  0.00     0.029 A 
ATOM     47  N   UNL A   1      42.314  29.416  29.566  1.00  0.00    -0.354 N 
ATOM     48  C   UNL A   1      41.697  23.898  28.261  1.00  0.00     0.074 A 
ATOM     49  C   UNL A   1      40.384  24.063  27.700  1.00  0.00     0.031 C 
ATOM     50  C   UNL A   1      44.395  28.672  29.817  1.00  0.00     0.029 A 
ATOM     51  C   UNL A   1      43.382  29.519  30.447  1.00  0.00     0.049 A 
ATOM     52  H   UNL A   1      41.661  30.120  29.353  1.00  0.00     0.167 HD
ATOM     53  C   UNL A   1      42.732  23.016  28.144  1.00  0.00     0.037 A 
ATOM     54  C   UNL A   1      43.076  29.548  31.779  1.00  0.00     0.037 A 
ATOM     55  C   UNL A   1      43.858  23.524  28.930  1.00  0.00     0.049 A 
ATOM     56  C   UNL A   1      43.548  28.265  32.419  1.00  0.00     0.074 A 
ATOM     57  C   UNL A   1      44.939  24.313  28.574  1.00  0.00     0.029 A 
ATOM     58  N   UNL A   1      43.719  23.634  30.310  1.00  0.00    -0.354 N 
ATOM     59  N   UNL A   1      43.515  27.089  31.843  1.00  0.00    -0.248 NA
ATOM     60  C   UNL A   1      44.243  28.261  33.699  1.00  0.00     0.031 C 
ATOM     61  C   UNL A   1      45.369  24.998  29.744  1.00  0.00     0.029 A 
ATOM     62  C   UNL A   1      44.555  24.620  30.802  1.00  0.00     0.049 A 
ATOM     63  H   UNL A   1      43.111  23.087  30.858  1.00  0.00     0.167 HD
ATOM     64  C   UNL A   1      44.257  26.216  32.592  1.00  0.00     0.074 A 
ATOM     65  C   UNL A   1      44.665  26.989  33.755  1.00  0.00     0.031 C 
ATOM     66  C   UNL A   1      44.563  24.936  32.221  1.00  0.00     0.037 A 
BRANCH  53  67
ATOM     67  C   UNL A   1      42.879  21.890  27.134  1.00  0.00     0.057 A 
ATOM     68  C   UNL A   1      42.046  20.751  27.235  1.00  0.00     0.134 A 
ATOM     69  C   UNL A   1      43.830  21.804  26.101  1.00  0.00     0.134 A 
ATOM     70  F   UNL A   1      41.049  20.686  28.128  1.00  0.00    -0.206 F 
ATOM     71  C   UNL A   1      42.190  19.611  26.430  1.00  0.00     0.040 A 
ATOM     72  C   UNL A   1      43.988  20.665  25.290  1.00  0.00     0.040 A 
ATOM     73  F   UNL A   1      44.647  22.814  25.797  1.00  0.00    -0.206 F 
ATOM     74  C   UNL A   1      43.174  19.558  25.459  1.00  0.00     0.006 A 
ENDBRANCH  53  67
BRANCH  54  75
ATOM     75  C   UNL A   1      41.825  30.315  32.121  1.00  0.00     0.057 A 
ATOM     76  C   UNL A   1      41.827  31.722  31.968  1.00  0.00     0.134 A 
ATOM     77  C   UNL A   1      40.575  29.734  32.356  1.00  0.00     0.134 A 
ATOM     78  F   UNL A   1      42.984  32.375  31.763  1.00  0.00    -0.206 F 
ATOM     79  C   UNL A   1      40.655  32.487  31.934  1.00  0.00     0.040 A 
ATOM     80  C   UNL A   1      39.390  30.497  32.354  1.00  0.00     0.040 A 
ATOM     81  F   UNL A   1      40.454  28.409  32.519  1.00  0.00    -0.206 F 
ATOM     82  C   UNL A   1      39.424  31.870  32.110  1.00  0.00     0.006 A 
ENDBRANCH  54  75
BRANCH  66  83
ATOM     83  C   UNL A   1      45.001  23.867  33.187  1.00  0.00     0.057 A 
ATOM     84  C   UNL A   1      46.295  23.802  33.724  1.00  0.00     0.134 A 
ATOM     85  C   UNL A   1      44.067  22.971  33.755  1.00  0.00     0.134 A 
ATOM     86  F   UNL A   1      47.246  24.683  33.384  1.00  0.00    -0.206 F 
ATOM     87  C   UNL A   1      46.658  22.860  34.690  1.00  0.00     0.040 A 
ATOM     88  C   UNL A   1      44.400  22.082  34.776  1.00  0.00     0.040 A 
ATOM     89  F   UNL A   1      42.782  22.945  33.374  1.00  0.00    -0.206 F 
ATOM     90  C   UNL A   1      45.707  22.007  35.229  1.00  0.00     0.006 A 
ENDBRANCH  66  83
ENDBRANCH  40  41
ENDBRANCH  33  35
ENDBRANCH  32  33
ENDBRANCH  31  32
ENDBRANCH   1  31
TORSDOF 15
ENDMDL
MODEL 2
REMARK VINA RESULT:     -13.0      1.847      2.774
REMARK SMILES Cc1c(NC(=O)c2ccccc2NC(=O)[C@@H]2CCCO2)cccc1C(=O)OCCOC(=O)c1ccc(-c2c3nc(c(-c4c(F)cccc4F)c4ccc([nH]4)c(-c4c(F)cccc4F)c4nc(c(-c5c(F)cccc5F)c5ccc2[nH]5)C=C4)C=C3)cc1
REMARK SMILES IDX 28 1 27 2 25 3 26 4 24 5 1 6 2 7 3 8 21 9 23 10 22 11 4 12
REMARK SMILES IDX 5 13 6 15 7 16 8 17 12 18 9 19 11 20 10 21 13 22 14 23 15 25
REMARK SMILES IDX 16 26 17 27 20 28 18 29 19 30 29 31 30 32 31 33 32 34 33 35
REMARK SMILES IDX 34 36 86 37 35 38 85 39 36 40 37 41 38 42 79 43 39 44 84 45
REMARK SMILES IDX 78 46 80 47 40 48 83 49 77 50 76 51 41 53 67 54 50 55 66 56
REMARK SMILES IDX 51 57 54 58 65 59 81 60 52 61 53 62 64 64 82 65 55 66 42 67
REMARK SMILES IDX 43 68 48 69 44 70 45 71 47 72 49 73 46 74 68 75 69 76 74 77
REMARK SMILES IDX 70 78 71 79 73 80 75 81 72 82 56 83 57 84 62 85 58 86 59 87
REMARK SMILES IDX 61 88 63 89 60 90
REMARK H PARENT 4 14 13 24 80 52 54 63
REMARK Flexibility Score: inf
ROOT
ATOM      1  C   UNL A   1      32.159  30.288  26.103  1.00  0.00     0.275 C 
ENDROOT
BRANCH   1   2
ATOM      2  O   UNL A   1      31.315  29.181  25.749  1.00  0.00    -0.458 OA
BRANCH   2   3
ATOM      3  C   UNL A   1      31.057  29.173  24.413  1.00  0.00     0.338 C 
ATOM      4  O   UNL A   1      30.157  29.813  23.885  1.00  0.00    -0.246 OA
BRANCH   3   5
ATOM      5  C   UNL A   1      31.925  28.297  23.587  1.00  0.00     0.065 A 
ATOM      6  C   UNL A   1      30.160  26.458  23.715  1.00  0.00     0.047 C 
ATOM      7  C   UNL A   1      31.431  27.051  23.152  1.00  0.00    -0.013 A 
ATOM      8  C   UNL A   1      32.263  26.261  22.325  1.00  0.00     0.045 A 
ATOM      9  C   UNL A   1      33.423  26.788  21.755  1.00  0.00     0.026 A 
ATOM     10  C   UNL A   1      33.192  28.727  23.163  1.00  0.00     0.016 A 
ATOM     11  C   UNL A   1      33.899  28.020  22.189  1.00  0.00     0.003 A 
BRANCH   8  12
ATOM     12  N   UNL A   1      31.965  24.894  22.252  1.00  0.00    -0.322 N 
ATOM     13  C   UNL A   1      32.581  23.795  22.807  1.00  0.00     0.257 C 
ATOM     14  H   UNL A   1      31.174  24.680  21.706  1.00  0.00     0.170 HD
ATOM     15  O   UNL A   1      32.029  22.703  22.645  1.00  0.00    -0.269 OA
BRANCH  13  16
ATOM     16  C   UNL A   1      33.848  23.830  23.592  1.00  0.00     0.063 A 
ATOM     17  C   UNL A   1      34.897  23.131  22.958  1.00  0.00     0.016 A 
ATOM     18  C   UNL A   1      34.067  24.432  24.857  1.00  0.00     0.054 A 
ATOM     19  C   UNL A   1      36.175  23.104  23.499  1.00  0.00     0.001 A 
ATOM     20  C   UNL A   1      35.393  24.501  25.302  1.00  0.00     0.027 A 
ATOM     21  C   UNL A   1      36.431  23.831  24.647  1.00  0.00     0.002 A 
BRANCH  18  22
ATOM     22  N   UNL A   1      32.970  24.897  25.623  1.00  0.00    -0.323 N 
ATOM     23  C   UNL A   1      32.117  24.377  26.562  1.00  0.00     0.253 C 
ATOM     24  H   UNL A   1      32.767  25.840  25.431  1.00  0.00     0.170 HD
ATOM     25  O   UNL A   1      31.300  25.166  27.055  1.00  0.00    -0.272 OA
BRANCH  23  26
ATOM     26  C   UNL A   1      32.118  22.899  26.962  1.00  0.00     0.207 C 
ATOM     27  C   UNL A   1      33.466  22.552  27.579  1.00  0.00     0.044 C 
ATOM     28  O   UNL A   1      31.950  21.978  25.870  1.00  0.00    -0.368 OA
ATOM     29  C   UNL A   1      33.569  21.073  27.331  1.00  0.00     0.032 C 
ATOM     30  C   UNL A   1      32.943  20.949  25.963  1.00  0.00     0.161 C 
ENDBRANCH  23  26
ENDBRANCH  18  22
ENDBRANCH  13  16
ENDBRANCH   8  12
ENDBRANCH   3   5
ENDBRANCH   2   3
ENDBRANCH   1   2
BRANCH   1  31
ATOM     31  C   UNL A   1      33.147  30.044  27.251  1.00  0.00     0.275 C 
BRANCH  31  32
ATOM     32  O   UNL A   1      34.334  30.866  27.416  1.00  0.00    -0.458 OA
BRANCH  32  33
ATOM     33  C   UNL A   1      35.103  31.076  28.504  1.00  0.00     0.338 C 
ATOM     34  O   UNL A   1      34.765  31.841  29.405  1.00  0.00    -0.246 OA
BRANCH  33  35
ATOM     35  C   UNL A   1      36.381  30.365  28.597  1.00  0.00     0.060 A 
ATOM     36  C   UNL A   1      36.677  29.675  29.784  1.00  0.00     0.016 A 
ATOM     37  C   UNL A   1      37.236  30.313  27.505  1.00  0.00     0.016 A 
ATOM     38  C   UNL A   1      37.769  28.826  29.848  1.00  0.00     0.010 A 
ATOM     39  C   UNL A   1      38.246  29.388  27.512  1.00  0.00     0.010 A 
ATOM     40  C   UNL A   1      38.536  28.691  28.697  1.00  0.00    -0.014 A 
BRANCH  40  41
ATOM     41  C   UNL A   1      39.900  28.209  28.744  1.00  0.00     0.031 A 
ATOM     42  C   UNL A   1      40.245  26.824  28.405  1.00  0.00     0.074 A 
ATOM     43  C   UNL A   1      40.732  29.250  28.979  1.00  0.00     0.049 A 
ATOM     44  N   UNL A   1      41.373  26.283  28.687  1.00  0.00    -0.248 NA
ATOM     45  C   UNL A   1      39.334  25.881  27.765  1.00  0.00     0.031 C 
ATOM     46  C   UNL A   1      42.160  29.423  28.830  1.00  0.00     0.029 A 
ATOM     47  N   UNL A   1      40.318  30.446  29.601  1.00  0.00    -0.354 N 
ATOM     48  C   UNL A   1      41.471  25.104  27.970  1.00  0.00     0.074 A 
ATOM     49  C   UNL A   1      40.128  24.827  27.540  1.00  0.00     0.031 C 
ATOM     50  C   UNL A   1      42.542  30.454  29.615  1.00  0.00     0.029 A 
ATOM     51  C   UNL A   1      41.376  30.878  30.390  1.00  0.00     0.049 A 
ATOM     52  H   UNL A   1      39.446  30.890  29.496  1.00  0.00     0.167 HD
ATOM     53  C   UNL A   1      42.725  24.636  27.700  1.00  0.00     0.037 A 
ATOM     54  C   UNL A   1      41.222  30.752  31.743  1.00  0.00     0.037 A 
ATOM     55  C   UNL A   1      43.689  25.472  28.418  1.00  0.00     0.049 A 
ATOM     56  C   UNL A   1      42.166  29.688  32.247  1.00  0.00     0.074 A 
ATOM     57  C   UNL A   1      44.395  26.596  28.026  1.00  0.00     0.029 A 
ATOM     58  N   UNL A   1      43.669  25.477  29.809  1.00  0.00    -0.354 N 
ATOM     59  N   UNL A   1      42.471  28.594  31.594  1.00  0.00    -0.248 NA
ATOM     60  C   UNL A   1      42.954  29.877  33.457  1.00  0.00     0.031 C 
ATOM     61  C   UNL A   1      44.689  27.345  29.198  1.00  0.00     0.029 A 
ATOM     62  C   UNL A   1      44.170  26.672  30.294  1.00  0.00     0.049 A 
ATOM     63  H   UNL A   1      43.345  24.735  30.369  1.00  0.00     0.167 HD
ATOM     64  C   UNL A   1      43.541  28.002  32.212  1.00  0.00     0.074 A 
ATOM     65  C   UNL A   1      43.785  28.826  33.386  1.00  0.00     0.031 C 
ATOM     66  C   UNL A   1      44.221  26.921  31.726  1.00  0.00     0.037 A 
BRANCH  53  67
ATOM     67  C   UNL A   1      43.135  23.667  26.605  1.00  0.00     0.057 A 
ATOM     68  C   UNL A   1      43.009  22.275  26.823  1.00  0.00     0.134 A 
ATOM     69  C   UNL A   1      43.716  23.993  25.366  1.00  0.00     0.134 A 
ATOM     70  F   UNL A   1      42.427  21.786  27.927  1.00  0.00    -0.206 F 
ATOM     71  C   UNL A   1      43.476  21.303  25.925  1.00  0.00     0.040 A 
ATOM     72  C   UNL A   1      44.193  23.029  24.459  1.00  0.00     0.040 A 
ATOM     73  F   UNL A   1      43.841  25.253  24.945  1.00  0.00    -0.206 F 
ATOM     74  C   UNL A   1      44.084  21.678  24.740  1.00  0.00     0.006 A 
ENDBRANCH  53  67
BRANCH  54  75
ATOM     75  C   UNL A   1      39.830  31.029  32.246  1.00  0.00     0.057 A 
ATOM     76  C   UNL A   1      39.088  29.965  32.814  1.00  0.00     0.134 A 
ATOM     77  C   UNL A   1      39.286  32.306  32.419  1.00  0.00     0.134 A 
ATOM     78  F   UNL A   1      39.517  28.699  32.680  1.00  0.00    -0.206 F 
ATOM     79  C   UNL A   1      37.946  30.166  33.599  1.00  0.00     0.040 A 
ATOM     80  C   UNL A   1      38.120  32.519  33.182  1.00  0.00     0.040 A 
ATOM     81  F   UNL A   1      39.901  33.387  31.922  1.00  0.00    -0.206 F 
ATOM     82  C   UNL A   1      37.466  31.453  33.801  1.00  0.00     0.006 A 
ENDBRANCH  54  75
BRANCH  66  83
ATOM     83  C   UNL A   1      45.096  26.033  32.572  1.00  0.00     0.057 A 
ATOM     84  C   UNL A   1      46.495  26.017  32.474  1.00  0.00     0.134 A 
ATOM     85  C   UNL A   1      44.559  25.298  33.653  1.00  0.00     0.134 A 
ATOM     86  F   UNL A   1      47.150  26.780  31.588  1.00  0.00    -0.206 F 
ATOM     87  C   UNL A   1      47.296  25.258  33.330  1.00  0.00     0.040 A 
ATOM     88  C   UNL A   1      45.355  24.602  34.561  1.00  0.00     0.040 A 
ATOM     89  F   UNL A   1      43.242  25.253  33.900  1.00  0.00    -0.206 F 
ATOM     90  C   UNL A   1      46.729  24.559  34.386  1.00  0.00     0.006 A 
ENDBRANCH  66  83
ENDBRANCH  40  41
ENDBRANCH  33  35
ENDBRANCH  32  33
ENDBRANCH  31  32
ENDBRANCH   1  31
TORSDOF 15
ENDMDL
MODEL 3
REMARK VINA RESULT:     -12.9      1.612      2.344
REMARK SMILES Cc1c(NC(=O)c2ccccc2NC(=O)[C@@H]2CCCO2)cccc1C(=O)OCCOC(=O)c1ccc(-c2c3nc(c(-c4c(F)cccc4F)c4ccc([nH]4)c(-c4c(F)cccc4F)c4nc(c(-c5c(F)cccc5F)c5ccc2[nH]5)C=C4)C=C3)cc1
REMARK SMILES IDX 28 1 27 2 25 3 26 4 24 5 1 6 2 7 3 8 21 9 23 10 22 11 4 12
REMARK SMILES IDX 5 13 6 15 7 16 8 17 12 18 9 19 11 20 10 21 13 22 14 23 15 25
REMARK SMILES IDX 16 26 17 27 20 28 18 29 19 30 29 31 30 32 31 33 32 34 33 35
REMARK SMILES IDX 34 36 86 37 35 38 85 39 36 40 37 41 38 42 79 43 39 44 84 45
REMARK SMILES IDX 78 46 80 47 40 48 83 49 77 50 76 51 41 53 67 54 50 55 66 56
REMARK SMILES IDX 51 57 54 58 65 59 81 60 52 61 53 62 64 64 82 65 55 66 42 67
REMARK SMILES IDX 43 68 48 69 44 70 45 71 47 72 49 73 46 74 68 75 69 76 74 77
REMARK SMILES IDX 70 78 71 79 73 80 75 81 72 82 56 83 57 84 62 85 58 86 59 87
REMARK SMILES IDX 61 88 63 89 60 90
REMARK H PARENT 4 14 13 24 80 52 54 63
REMARK Flexibility Score: inf
ROOT
ATOM      1  C   UNL A   1      32.172  29.867  26.901  1.00  0.00     0.275 C 
ENDROOT
BRANCH   1   2
ATOM      2  O   UNL A   1      31.579  28.641  26.448  1.00  0.00    -0.458 OA
BRANCH   2   3
ATOM      3  C   UNL A   1      31.427  28.642  25.095  1.00  0.00     0.338 C 
ATOM      4  O   UNL A   1      31.426  29.656  24.408  1.00  0.00    -0.246 OA
BRANCH   3   5
ATOM      5  C   UNL A   1      31.223  27.317  24.460  1.00  0.00     0.065 A 
ATOM      6  C   UNL A   1      33.753  27.039  24.270  1.00  0.00     0.047 C 
ATOM      7  C   UNL A   1      32.341  26.504  24.189  1.00  0.00    -0.013 A 
ATOM      8  C   UNL A   1      32.110  25.225  23.630  1.00  0.00     0.045 A 
ATOM      9  C   UNL A   1      30.826  24.683  23.576  1.00  0.00     0.026 A 
ATOM     10  C   UNL A   1      29.932  26.828  24.208  1.00  0.00     0.016 A 
ATOM     11  C   UNL A   1      29.730  25.494  23.849  1.00  0.00     0.003 A 
BRANCH   8  12
ATOM     12  N   UNL A   1      33.193  24.615  22.982  1.00  0.00    -0.322 N 
ATOM     13  C   UNL A   1      34.028  23.592  23.368  1.00  0.00     0.257 C 
ATOM     14  H   UNL A   1      33.392  24.985  22.092  1.00  0.00     0.170 HD
ATOM     15  O   UNL A   1      34.849  23.196  22.536  1.00  0.00    -0.269 OA
BRANCH  13  16
ATOM     16  C   UNL A   1      34.007  22.927  24.702  1.00  0.00     0.063 A 
ATOM     17  C   UNL A   1      34.725  23.650  25.680  1.00  0.00     0.016 A 
ATOM     18  C   UNL A   1      33.401  21.692  25.045  1.00  0.00     0.054 A 
ATOM     19  C   UNL A   1      34.767  23.228  27.001  1.00  0.00     0.001 A 
ATOM     20  C   UNL A   1      33.349  21.371  26.407  1.00  0.00     0.027 A 
ATOM     21  C   UNL A   1      34.037  22.114  27.371  1.00  0.00     0.002 A 
BRANCH  18  22
ATOM     22  N   UNL A   1      32.916  20.832  24.029  1.00  0.00    -0.323 N 
ATOM     23  C   UNL A   1      32.718  19.484  23.872  1.00  0.00     0.253 C 
ATOM     24  H   UNL A   1      32.652  21.333  23.224  1.00  0.00     0.170 HD
ATOM     25  O   UNL A   1      32.192  19.129  22.810  1.00  0.00    -0.272 OA
BRANCH  23  26
ATOM     26  C   UNL A   1      33.159  18.451  24.914  1.00  0.00     0.207 C 
ATOM     27  C   UNL A   1      34.299  17.621  24.339  1.00  0.00     0.044 C 
ATOM     28  O   UNL A   1      32.147  17.501  25.289  1.00  0.00    -0.368 OA
ATOM     29  C   UNL A   1      34.195  16.339  25.116  1.00  0.00     0.032 C 
ATOM     30  C   UNL A   1      32.699  16.180  25.242  1.00  0.00     0.161 C 
ENDBRANCH  23  26
ENDBRANCH  18  22
ENDBRANCH  13  16
ENDBRANCH   8  12
ENDBRANCH   3   5
ENDBRANCH   2   3
ENDBRANCH   1   2
BRANCH   1  31
ATOM     31  C   UNL A   1      33.690  29.844  27.119  1.00  0.00     0.275 C 
BRANCH  31  32
ATOM     32  O   UNL A   1      34.402  31.010  27.612  1.00  0.00    -0.458 OA
BRANCH  32  33
ATOM     33  C   UNL A   1      35.170  31.162  28.710  1.00  0.00     0.338 C 
ATOM     34  O   UNL A   1      34.836  31.887  29.645  1.00  0.00    -0.246 OA
BRANCH  33  35
ATOM     35  C   UNL A   1      36.442  30.436  28.773  1.00  0.00     0.060 A 
ATOM     36  C   UNL A   1      36.725  29.684  29.924  1.00  0.00     0.016 A 
ATOM     37  C   UNL A   1      37.303  30.435  27.684  1.00  0.00     0.016 A 
ATOM     38  C   UNL A   1      37.810  28.823  29.949  1.00  0.00     0.010 A 
ATOM     39  C   UNL A   1      38.306  29.502  27.648  1.00  0.00     0.010 A 
ATOM     40  C   UNL A   1      38.583  28.742  28.798  1.00  0.00    -0.014 A 
BRANCH  40  41
ATOM     41  C   UNL A   1      39.943  28.247  28.826  1.00  0.00     0.031 A 
ATOM     42  C   UNL A   1      40.272  26.863  28.468  1.00  0.00     0.074 A 
ATOM     43  C   UNL A   1      40.786  29.277  29.067  1.00  0.00     0.049 A 
ATOM     44  N   UNL A   1      41.397  26.308  28.734  1.00  0.00    -0.248 NA
ATOM     45  C   UNL A   1      39.347  25.936  27.825  1.00  0.00     0.031 C 
ATOM     46  C   UNL A   1      42.215  29.439  28.908  1.00  0.00     0.029 A 
ATOM     47  N   UNL A   1      40.389  30.470  29.707  1.00  0.00    -0.354 N 
ATOM     48  C   UNL A   1      41.478  25.137  28.002  1.00  0.00     0.074 A 
ATOM     49  C   UNL A   1      40.129  24.877  27.580  1.00  0.00     0.031 C 
ATOM     50  C   UNL A   1      42.613  30.457  29.701  1.00  0.00     0.029 A 
ATOM     51  C   UNL A   1      41.457  30.882  30.491  1.00  0.00     0.049 A 
ATOM     52  H   UNL A   1      39.520  30.923  29.615  1.00  0.00     0.167 HD
ATOM     53  C   UNL A   1      42.724  24.661  27.715  1.00  0.00     0.037 A 
ATOM     54  C   UNL A   1      41.314  30.741  31.844  1.00  0.00     0.037 A 
ATOM     55  C   UNL A   1      43.703  25.479  28.435  1.00  0.00     0.049 A 
ATOM     56  C   UNL A   1      42.252  29.662  32.327  1.00  0.00     0.074 A 
ATOM     57  C   UNL A   1      44.416  26.602  28.050  1.00  0.00     0.029 A 
ATOM     58  N   UNL A   1      43.695  25.468  29.826  1.00  0.00    -0.354 N 
ATOM     59  N   UNL A   1      42.542  28.574  31.659  1.00  0.00    -0.248 NA
ATOM     60  C   UNL A   1      43.052  29.830  33.532  1.00  0.00     0.031 C 
ATOM     61  C   UNL A   1      44.727  27.334  29.228  1.00  0.00     0.029 A 
ATOM     62  C   UNL A   1      44.211  26.652  30.321  1.00  0.00     0.049 A 
ATOM     63  H   UNL A   1      43.368  24.722  30.380  1.00  0.00     0.167 HD
ATOM     64  C   UNL A   1      43.612  27.965  32.260  1.00  0.00     0.074 A 
ATOM     65  C   UNL A   1      43.873  28.772  33.442  1.00  0.00     0.031 C 
ATOM     66  C   UNL A   1      44.277  26.883  31.755  1.00  0.00     0.037 A 
BRANCH  53  67
ATOM     67  C   UNL A   1      43.116  23.701  26.605  1.00  0.00     0.057 A 
ATOM     68  C   UNL A   1      43.064  22.307  26.839  1.00  0.00     0.134 A 
ATOM     69  C   UNL A   1      43.613  24.042  25.334  1.00  0.00     0.134 A 
ATOM     70  F   UNL A   1      42.566  21.802  27.976  1.00  0.00    -0.206 F 
ATOM     71  C   UNL A   1      43.523  21.349  25.922  1.00  0.00     0.040 A 
ATOM     72  C   UNL A   1      44.081  23.092  24.408  1.00  0.00     0.040 A 
ATOM     73  F   UNL A   1      43.659  25.303  24.899  1.00  0.00    -0.206 F 
ATOM     74  C   UNL A   1      44.048  21.740  24.703  1.00  0.00     0.006 A 
ENDBRANCH  53  67
BRANCH  54  75
ATOM     75  C   UNL A   1      39.929  31.025  32.363  1.00  0.00     0.057 A 
ATOM     76  C   UNL A   1      39.178  29.960  32.916  1.00  0.00     0.134 A 
ATOM     77  C   UNL A   1      39.401  32.305  32.564  1.00  0.00     0.134 A 
ATOM     78  F   UNL A   1      39.592  28.691  32.755  1.00  0.00    -0.206 F 
ATOM     79  C   UNL A   1      38.045  30.159  33.713  1.00  0.00     0.040 A 
ATOM     80  C   UNL A   1      38.244  32.517  33.339  1.00  0.00     0.040 A 
ATOM     81  F   UNL A   1      40.026  33.388  32.082  1.00  0.00    -0.206 F 
ATOM     82  C   UNL A   1      37.581  31.447  33.943  1.00  0.00     0.006 A 
ENDBRANCH  54  75
BRANCH  66  83
ATOM     83  C   UNL A   1      45.151  25.978  32.582  1.00  0.00     0.057 A 
ATOM     84  C   UNL A   1      46.551  25.979  32.502  1.00  0.00     0.134 A 
ATOM     85  C   UNL A   1      44.608  25.201  33.632  1.00  0.00     0.134 A 
ATOM     86  F   UNL A   1      47.209  26.778  31.650  1.00  0.00    -0.206 F 
ATOM     87  C   UNL A   1      47.350  25.201  33.343  1.00  0.00     0.040 A 
ATOM     88  C   UNL A   1      45.401  24.484  34.527  1.00  0.00     0.040 A 
ATOM     89  F   UNL A   1      43.289  25.134  33.860  1.00  0.00    -0.206 F 
ATOM     90  C   UNL A   1      46.777  24.462  34.368  1.00  0.00     0.006 A 
ENDBRANCH  66  83
ENDBRANCH  40  41
ENDBRANCH  33  35
ENDBRANCH  32  33
ENDBRANCH  31  32
ENDBRANCH   1  31
TORSDOF 15
ENDMDL
