MODEL 1
REMARK VINA RESULT:     -12.5      0.000      0.000
REMARK SMILES O=C(CSc1ccc(NC(=O)c2cccc3ccccc23)cc1)OCCOC(=O)c1ccc(-c2c3nc(c(-c4c(F)cccc4F)c4ccc([nH]4)c(-c4c(F)cccc4F)c4nc(c(-c5c(F)cccc5F)c5ccc2[nH]5)C=C4)C=C3)cc1
REMARK SMILES IDX 25 1 24 2 2 3 1 4 3 5 4 6 5 7 6 8 23 9 7 10 22 11 8 12 9 13
REMARK SMILES IDX 10 14 11 16 12 17 13 18 21 19 14 20 16 21 20 22 15 23 17 24
REMARK SMILES IDX 19 25 18 26 26 27 27 28 28 29 29 30 30 31 31 32 83 33 32 34
REMARK SMILES IDX 82 35 33 36 34 37 35 38 76 39 36 40 81 41 75 42 77 43 37 44
REMARK SMILES IDX 80 45 74 46 73 47 38 49 64 50 47 51 63 52 48 53 51 54 62 55
REMARK SMILES IDX 78 56 49 57 50 58 61 60 79 61 52 62 39 63 40 64 45 65 41 66
REMARK SMILES IDX 42 67 44 68 46 69 43 70 65 71 66 72 71 73 67 74 68 75 70 76
REMARK SMILES IDX 72 77 69 78 53 79 54 80 59 81 55 82 56 83 58 84 60 85 57 86
REMARK H PARENT 9 15 77 48 51 59
REMARK Flexibility Score: inf
ROOT
ATOM      1  C   UNL A   1      44.206  20.707  25.279  1.00  0.00     0.274 C 
ENDROOT
BRANCH   1   2
ATOM      2  O   UNL A   1      42.939  20.748  25.965  1.00  0.00    -0.461 OA
BRANCH   2   3
ATOM      3  C   UNL A   1      42.051  19.727  25.965  1.00  0.00     0.316 C 
ATOM      4  O   UNL A   1      42.450  18.585  25.741  1.00  0.00    -0.251 OA
BRANCH   3   5
ATOM      5  C   UNL A   1      40.583  20.011  26.216  1.00  0.00     0.197 C 
BRANCH   5   6
ATOM      6  S   UNL A   1      40.252  21.667  26.867  1.00  0.00    -0.114 SA
BRANCH   6   7
ATOM      7  C   UNL A   1      38.742  22.151  26.050  1.00  0.00     0.008 A 
ATOM      8  C   UNL A   1      38.176  23.427  26.085  1.00  0.00     0.017 A 
ATOM      9  C   UNL A   1      38.113  21.170  25.281  1.00  0.00     0.017 A 
ATOM     10  C   UNL A   1      37.123  23.769  25.230  1.00  0.00     0.027 A 
ATOM     11  C   UNL A   1      37.047  21.503  24.445  1.00  0.00     0.027 A 
ATOM     12  C   UNL A   1      36.622  22.830  24.340  1.00  0.00     0.041 A 
BRANCH  12  13
ATOM     13  N   UNL A   1      35.766  23.120  23.273  1.00  0.00    -0.322 N 
ATOM     14  C   UNL A   1      34.441  23.466  23.193  1.00  0.00     0.256 C 
ATOM     15  H   UNL A   1      36.208  23.066  22.395  1.00  0.00     0.170 HD
ATOM     16  O   UNL A   1      33.963  23.639  22.067  1.00  0.00    -0.269 OA
BRANCH  14  17
ATOM     17  C   UNL A   1      33.532  23.650  24.347  1.00  0.00     0.048 A 
ATOM     18  C   UNL A   1      32.782  22.503  24.664  1.00  0.00     0.014 A 
ATOM     19  C   UNL A   1      33.276  24.891  25.003  1.00  0.00    -0.006 A 
ATOM     20  C   UNL A   1      31.773  22.557  25.615  1.00  0.00     0.001 A 
ATOM     21  C   UNL A   1      32.235  24.920  25.970  1.00  0.00    -0.018 A 
ATOM     22  C   UNL A   1      33.974  26.104  24.777  1.00  0.00     0.009 A 
ATOM     23  C   UNL A   1      31.495  23.761  26.253  1.00  0.00     0.009 A 
ATOM     24  C   UNL A   1      31.930  26.107  26.655  1.00  0.00     0.009 A 
ATOM     25  C   UNL A   1      33.696  27.263  25.509  1.00  0.00     0.001 A 
ATOM     26  C   UNL A   1      32.667  27.268  26.440  1.00  0.00     0.001 A 
ENDBRANCH  14  17
ENDBRANCH  12  13
ENDBRANCH   6   7
ENDBRANCH   5   6
ENDBRANCH   3   5
ENDBRANCH   2   3
ENDBRANCH   1   2
BRANCH   1  27
ATOM     27  C   UNL A   1      44.477  22.003  24.505  1.00  0.00     0.275 C 
BRANCH  27  28
ATOM     28  O   UNL A   1      43.679  23.086  25.028  1.00  0.00    -0.458 OA
BRANCH  28  29
ATOM     29  C   UNL A   1      44.282  24.301  25.088  1.00  0.00     0.338 C 
ATOM     30  O   UNL A   1      45.173  24.709  24.363  1.00  0.00    -0.246 OA
BRANCH  29  31
ATOM     31  C   UNL A   1      43.563  25.154  26.068  1.00  0.00     0.060 A 
ATOM     32  C   UNL A   1      43.948  26.496  26.187  1.00  0.00     0.016 A 
ATOM     33  C   UNL A   1      42.508  24.662  26.845  1.00  0.00     0.016 A 
ATOM     34  C   UNL A   1      43.309  27.335  27.107  1.00  0.00     0.010 A 
ATOM     35  C   UNL A   1      41.870  25.502  27.766  1.00  0.00     0.010 A 
ATOM     36  C   UNL A   1      42.286  26.836  27.925  1.00  0.00    -0.014 A 
BRANCH  36  37
ATOM     37  C   UNL A   1      41.758  27.656  29.047  1.00  0.00     0.031 A 
ATOM     38  C   UNL A   1      42.437  27.573  30.390  1.00  0.00     0.074 A 
ATOM     39  C   UNL A   1      40.699  28.472  28.891  1.00  0.00     0.049 A 
ATOM     40  N   UNL A   1      42.144  28.184  31.510  1.00  0.00    -0.248 NA
ATOM     41  C   UNL A   1      43.600  26.677  30.478  1.00  0.00     0.031 C 
ATOM     42  C   UNL A   1      39.955  28.668  27.649  1.00  0.00     0.029 A 
ATOM     43  N   UNL A   1      40.060  29.282  29.799  1.00  0.00    -0.354 N 
ATOM     44  C   UNL A   1      43.088  27.751  32.433  1.00  0.00     0.074 A 
ATOM     45  C   UNL A   1      43.936  26.796  31.753  1.00  0.00     0.031 C 
ATOM     46  C   UNL A   1      38.954  29.538  27.875  1.00  0.00     0.029 A 
ATOM     47  C   UNL A   1      38.973  29.943  29.281  1.00  0.00     0.049 A 
ATOM     48  H   UNL A   1      40.355  29.381  30.733  1.00  0.00     0.167 HD
ATOM     49  C   UNL A   1      43.247  28.123  33.726  1.00  0.00     0.037 A 
ATOM     50  C   UNL A   1      38.087  30.768  29.876  1.00  0.00     0.037 A 
ATOM     51  C   UNL A   1      42.406  29.066  34.415  1.00  0.00     0.049 A 
ATOM     52  C   UNL A   1      38.241  31.112  31.337  1.00  0.00     0.074 A 
ATOM     53  C   UNL A   1      42.511  29.519  35.719  1.00  0.00     0.029 A 
ATOM     54  N   UNL A   1      41.302  29.692  33.862  1.00  0.00    -0.354 N 
ATOM     55  N   UNL A   1      39.167  30.735  32.185  1.00  0.00    -0.248 NA
ATOM     56  C   UNL A   1      37.228  32.006  31.919  1.00  0.00     0.031 C 
ATOM     57  C   UNL A   1      41.438  30.380  35.971  1.00  0.00     0.029 A 
ATOM     58  C   UNL A   1      40.697  30.506  34.807  1.00  0.00     0.049 A 
ATOM     59  H   UNL A   1      40.991  29.577  32.935  1.00  0.00     0.167 HD
ATOM     60  C   UNL A   1      38.868  31.371  33.386  1.00  0.00     0.074 A 
ATOM     61  C   UNL A   1      37.680  32.165  33.155  1.00  0.00     0.031 C 
ATOM     62  C   UNL A   1      39.522  31.304  34.571  1.00  0.00     0.037 A 
BRANCH  49  63
ATOM     63  C   UNL A   1      44.372  27.489  34.489  1.00  0.00     0.057 A 
ATOM     64  C   UNL A   1      44.219  26.260  35.143  1.00  0.00     0.134 A 
ATOM     65  C   UNL A   1      45.632  28.099  34.541  1.00  0.00     0.134 A 
ATOM     66  F   UNL A   1      43.034  25.632  35.141  1.00  0.00    -0.206 F 
ATOM     67  C   UNL A   1      45.274  25.671  35.842  1.00  0.00     0.040 A 
ATOM     68  C   UNL A   1      46.701  27.507  35.216  1.00  0.00     0.040 A 
ATOM     69  F   UNL A   1      45.846  29.274  33.932  1.00  0.00    -0.206 F 
ATOM     70  C   UNL A   1      46.521  26.292  35.874  1.00  0.00     0.006 A 
ENDBRANCH  49  63
BRANCH  50  71
ATOM     71  C   UNL A   1      36.955  31.334  29.098  1.00  0.00     0.057 A 
ATOM     72  C   UNL A   1      36.960  32.668  28.675  1.00  0.00     0.134 A 
ATOM     73  C   UNL A   1      35.822  30.568  28.801  1.00  0.00     0.134 A 
ATOM     74  F   UNL A   1      38.005  33.461  28.955  1.00  0.00    -0.206 F 
ATOM     75  C   UNL A   1      35.870  33.227  28.004  1.00  0.00     0.040 A 
ATOM     76  C   UNL A   1      34.736  31.106  28.108  1.00  0.00     0.040 A 
ATOM     77  F   UNL A   1      35.752  29.283  29.183  1.00  0.00    -0.206 F 
ATOM     78  C   UNL A   1      34.755  32.443  27.715  1.00  0.00     0.006 A 
ENDBRANCH  50  71
BRANCH  62  79
ATOM     79  C   UNL A   1      39.000  32.141  35.705  1.00  0.00     0.057 A 
ATOM     80  C   UNL A   1      38.177  31.608  36.705  1.00  0.00     0.134 A 
ATOM     81  C   UNL A   1      39.367  33.488  35.823  1.00  0.00     0.134 A 
ATOM     82  F   UNL A   1      37.779  30.328  36.648  1.00  0.00    -0.206 F 
ATOM     83  C   UNL A   1      37.719  32.389  37.768  1.00  0.00     0.040 A 
ATOM     84  C   UNL A   1      38.938  34.272  36.896  1.00  0.00     0.040 A 
ATOM     85  F   UNL A   1      40.163  34.061  34.907  1.00  0.00    -0.206 F 
ATOM     86  C   UNL A   1      38.107  33.724  37.870  1.00  0.00     0.006 A 
ENDBRANCH  62  79
ENDBRANCH  36  37
ENDBRANCH  29  31
ENDBRANCH  28  29
ENDBRANCH  27  28
ENDBRANCH   1  27
TORSDOF 15
ENDMDL
MODEL 2
REMARK VINA RESULT:     -12.4      5.163     10.276
REMARK SMILES O=C(CSc1ccc(NC(=O)c2cccc3ccccc23)cc1)OCCOC(=O)c1ccc(-c2c3nc(c(-c4c(F)cccc4F)c4ccc([nH]4)c(-c4c(F)cccc4F)c4nc(c(-c5c(F)cccc5F)c5ccc2[nH]5)C=C4)C=C3)cc1
REMARK SMILES IDX 25 1 24 2 2 3 1 4 3 5 4 6 5 7 6 8 23 9 7 10 22 11 8 12 9 13
REMARK SMILES IDX 10 14 11 16 12 17 13 18 21 19 14 20 16 21 20 22 15 23 17 24
REMARK SMILES IDX 19 25 18 26 26 27 27 28 28 29 29 30 30 31 31 32 83 33 32 34
REMARK SMILES IDX 82 35 33 36 34 37 35 38 76 39 36 40 81 41 75 42 77 43 37 44
REMARK SMILES IDX 80 45 74 46 73 47 38 49 64 50 47 51 63 52 48 53 51 54 62 55
REMARK SMILES IDX 78 56 49 57 50 58 61 60 79 61 52 62 39 63 40 64 45 65 41 66
REMARK SMILES IDX 42 67 44 68 46 69 43 70 65 71 66 72 71 73 67 74 68 75 70 76
REMARK SMILES IDX 72 77 69 78 53 79 54 80 59 81 55 82 56 83 58 84 60 85 57 86
REMARK H PARENT 9 15 77 48 51 59
REMARK Flexibility Score: inf
ROOT
ATOM      1  C   UNL A   1      34.327  34.854  31.461  1.00  0.00     0.274 C 
ENDROOT
BRANCH   1   2
ATOM      2  O   UNL A   1      34.406  34.347  30.114  1.00  0.00    -0.461 OA
BRANCH   2   3
ATOM      3  C   UNL A   1      33.439  34.532  29.185  1.00  0.00     0.316 C 
ATOM      4  O   UNL A   1      32.654  35.470  29.314  1.00  0.00    -0.251 OA
BRANCH   3   5
ATOM      5  C   UNL A   1      33.326  33.568  28.020  1.00  0.00     0.197 C 
BRANCH   5   6
ATOM      6  S   UNL A   1      34.669  32.356  27.932  1.00  0.00    -0.114 SA
BRANCH   6   7
ATOM      7  C   UNL A   1      33.853  30.855  27.421  1.00  0.00     0.008 A 
ATOM      8  C   UNL A   1      34.430  29.583  27.413  1.00  0.00     0.017 A 
ATOM      9  C   UNL A   1      32.513  30.975  27.045  1.00  0.00     0.017 A 
ATOM     10  C   UNL A   1      33.646  28.441  27.219  1.00  0.00     0.027 A 
ATOM     11  C   UNL A   1      31.735  29.838  26.828  1.00  0.00     0.027 A 
ATOM     12  C   UNL A   1      32.278  28.565  27.022  1.00  0.00     0.041 A 
BRANCH  12  13
ATOM     13  N   UNL A   1      31.365  27.508  27.078  1.00  0.00    -0.322 N 
ATOM     14  C   UNL A   1      31.087  26.455  26.244  1.00  0.00     0.256 C 
ATOM     15  H   UNL A   1      30.804  27.521  27.887  1.00  0.00     0.170 HD
ATOM     16  O   UNL A   1      30.181  25.685  26.578  1.00  0.00    -0.269 OA
BRANCH  14  17
ATOM     17  C   UNL A   1      31.786  26.161  24.972  1.00  0.00     0.048 A 
ATOM     18  C   UNL A   1      31.090  26.599  23.831  1.00  0.00     0.014 A 
ATOM     19  C   UNL A   1      32.966  25.369  24.845  1.00  0.00    -0.006 A 
ATOM     20  C   UNL A   1      31.532  26.263  22.559  1.00  0.00     0.001 A 
ATOM     21  C   UNL A   1      33.395  25.035  23.532  1.00  0.00    -0.018 A 
ATOM     22  C   UNL A   1      33.756  24.885  25.919  1.00  0.00     0.009 A 
ATOM     23  C   UNL A   1      32.669  25.475  22.414  1.00  0.00     0.009 A 
ATOM     24  C   UNL A   1      34.548  24.259  23.333  1.00  0.00     0.009 A 
ATOM     25  C   UNL A   1      34.933  24.162  25.702  1.00  0.00     0.001 A 
ATOM     26  C   UNL A   1      35.325  23.841  24.410  1.00  0.00     0.001 A 
ENDBRANCH  14  17
ENDBRANCH  12  13
ENDBRANCH   6   7
ENDBRANCH   5   6
ENDBRANCH   3   5
ENDBRANCH   2   3
ENDBRANCH   1   2
BRANCH   1  27
ATOM     27  C   UNL A   1      34.089  33.731  32.478  1.00  0.00     0.275 C 
BRANCH  27  28
ATOM     28  O   UNL A   1      34.886  32.572  32.156  1.00  0.00    -0.458 OA
BRANCH  28  29
ATOM     29  C   UNL A   1      35.963  32.344  32.951  1.00  0.00     0.338 C 
ATOM     30  O   UNL A   1      36.035  32.534  34.152  1.00  0.00    -0.246 OA
BRANCH  29  31
ATOM     31  C   UNL A   1      37.010  31.642  32.165  1.00  0.00     0.060 A 
ATOM     32  C   UNL A   1      38.028  30.977  32.861  1.00  0.00     0.016 A 
ATOM     33  C   UNL A   1      36.987  31.608  30.766  1.00  0.00     0.016 A 
ATOM     34  C   UNL A   1      39.043  30.314  32.164  1.00  0.00     0.010 A 
ATOM     35  C   UNL A   1      38.004  30.943  30.069  1.00  0.00     0.010 A 
ATOM     36  C   UNL A   1      39.056  30.318  30.762  1.00  0.00    -0.014 A 
BRANCH  36  37
ATOM     37  C   UNL A   1      40.240  29.808  30.023  1.00  0.00     0.031 A 
ATOM     38  C   UNL A   1      41.391  30.743  29.759  1.00  0.00     0.074 A 
ATOM     39  C   UNL A   1      40.311  28.534  29.593  1.00  0.00     0.049 A 
ATOM     40  N   UNL A   1      42.516  30.523  29.126  1.00  0.00    -0.248 NA
ATOM     41  C   UNL A   1      41.250  32.112  30.277  1.00  0.00     0.031 C 
ATOM     42  C   UNL A   1      39.286  27.513  29.791  1.00  0.00     0.029 A 
ATOM     43  N   UNL A   1      41.298  27.889  28.886  1.00  0.00    -0.354 N 
ATOM     44  C   UNL A   1      43.217  31.721  29.174  1.00  0.00     0.074 A 
ATOM     45  C   UNL A   1      42.375  32.675  29.862  1.00  0.00     0.031 C 
ATOM     46  C   UNL A   1      39.693  26.369  29.211  1.00  0.00     0.029 A 
ATOM     47  C   UNL A   1      40.997  26.583  28.582  1.00  0.00     0.049 A 
ATOM     48  H   UNL A   1      42.142  28.322  28.622  1.00  0.00     0.167 HD
ATOM     49  C   UNL A   1      44.455  32.002  28.703  1.00  0.00     0.037 A 
ATOM     50  C   UNL A   1      41.687  25.671  27.868  1.00  0.00     0.037 A 
ATOM     51  C   UNL A   1      45.300  31.063  28.012  1.00  0.00     0.049 A 
ATOM     52  C   UNL A   1      43.034  26.028  27.291  1.00  0.00     0.074 A 
ATOM     53  C   UNL A   1      46.580  31.257  27.521  1.00  0.00     0.029 A 
ATOM     54  N   UNL A   1      44.947  29.760  27.702  1.00  0.00    -0.354 N 
ATOM     55  N   UNL A   1      43.707  27.149  27.386  1.00  0.00    -0.248 NA
ATOM     56  C   UNL A   1      43.720  24.985  26.511  1.00  0.00     0.031 C 
ATOM     57  C   UNL A   1      46.981  30.087  26.869  1.00  0.00     0.029 A 
ATOM     58  C   UNL A   1      45.972  29.146  27.002  1.00  0.00     0.049 A 
ATOM     59  H   UNL A   1      44.093  29.333  27.944  1.00  0.00     0.167 HD
ATOM     60  C   UNL A   1      44.905  26.934  26.713  1.00  0.00     0.074 A 
ATOM     61  C   UNL A   1      44.871  25.574  26.219  1.00  0.00     0.031 C 
ATOM     62  C   UNL A   1      45.941  27.788  26.523  1.00  0.00     0.037 A 
BRANCH  49  63
ATOM     63  C   UNL A   1      44.967  33.396  28.908  1.00  0.00     0.057 A 
ATOM     64  C   UNL A   1      44.680  34.428  28.005  1.00  0.00     0.134 A 
ATOM     65  C   UNL A   1      45.728  33.718  30.038  1.00  0.00     0.134 A 
ATOM     66  F   UNL A   1      43.966  34.181  26.896  1.00  0.00    -0.206 F 
ATOM     67  C   UNL A   1      45.151  35.726  28.208  1.00  0.00     0.040 A 
ATOM     68  C   UNL A   1      46.184  35.018  30.265  1.00  0.00     0.040 A 
ATOM     69  F   UNL A   1      46.036  32.778  30.944  1.00  0.00    -0.206 F 
ATOM     70  C   UNL A   1      45.900  36.025  29.344  1.00  0.00     0.006 A 
ENDBRANCH  49  63
BRANCH  50  71
ATOM     71  C   UNL A   1      41.121  24.315  27.643  1.00  0.00     0.057 A 
ATOM     72  C   UNL A   1      41.616  23.199  28.327  1.00  0.00     0.134 A 
ATOM     73  C   UNL A   1      40.105  24.098  26.705  1.00  0.00     0.134 A 
ATOM     74  F   UNL A   1      42.610  23.339  29.217  1.00  0.00    -0.206 F 
ATOM     75  C   UNL A   1      41.138  21.912  28.070  1.00  0.00     0.040 A 
ATOM     76  C   UNL A   1      39.600  22.821  26.456  1.00  0.00     0.040 A 
ATOM     77  F   UNL A   1      39.592  25.126  26.012  1.00  0.00    -0.206 F 
ATOM     78  C   UNL A   1      40.123  21.722  27.135  1.00  0.00     0.006 A 
ENDBRANCH  50  71
BRANCH  62  79
ATOM     79  C   UNL A   1      47.146  27.273  25.787  1.00  0.00     0.057 A 
ATOM     80  C   UNL A   1      47.329  27.491  24.416  1.00  0.00     0.134 A 
ATOM     81  C   UNL A   1      48.160  26.590  26.472  1.00  0.00     0.134 A 
ATOM     82  F   UNL A   1      46.393  28.130  23.697  1.00  0.00    -0.206 F 
ATOM     83  C   UNL A   1      48.466  27.030  23.748  1.00  0.00     0.040 A 
ATOM     84  C   UNL A   1      49.313  26.149  25.821  1.00  0.00     0.040 A 
ATOM     85  F   UNL A   1      48.055  26.357  27.789  1.00  0.00    -0.206 F 
ATOM     86  C   UNL A   1      49.466  26.363  24.453  1.00  0.00     0.006 A 
ENDBRANCH  62  79
ENDBRANCH  36  37
ENDBRANCH  29  31
ENDBRANCH  28  29
ENDBRANCH  27  28
ENDBRANCH   1  27
TORSDOF 15
ENDMDL
MODEL 3
REMARK VINA RESULT:     -12.4      1.321      2.388
REMARK SMILES O=C(CSc1ccc(NC(=O)c2cccc3ccccc23)cc1)OCCOC(=O)c1ccc(-c2c3nc(c(-c4c(F)cccc4F)c4ccc([nH]4)c(-c4c(F)cccc4F)c4nc(c(-c5c(F)cccc5F)c5ccc2[nH]5)C=C4)C=C3)cc1
REMARK SMILES IDX 25 1 24 2 2 3 1 4 3 5 4 6 5 7 6 8 23 9 7 10 22 11 8 12 9 13
REMARK SMILES IDX 10 14 11 16 12 17 13 18 21 19 14 20 16 21 20 22 15 23 17 24
REMARK SMILES IDX 19 25 18 26 26 27 27 28 28 29 29 30 30 31 31 32 83 33 32 34
REMARK SMILES IDX 82 35 33 36 34 37 35 38 76 39 36 40 81 41 75 42 77 43 37 44
REMARK SMILES IDX 80 45 74 46 73 47 38 49 64 50 47 51 63 52 48 53 51 54 62 55
REMARK SMILES IDX 78 56 49 57 50 58 61 60 79 61 52 62 39 63 40 64 45 65 41 66
REMARK SMILES IDX 42 67 44 68 46 69 43 70 65 71 66 72 71 73 67 74 68 75 70 76
REMARK SMILES IDX 72 77 69 78 53 79 54 80 59 81 55 82 56 83 58 84 60 85 57 86
REMARK H PARENT 9 15 77 48 51 59
REMARK Flexibility Score: inf
ROOT
ATOM      1  C   UNL A   1      42.620  20.870  26.105  1.00  0.00     0.274 C 
ENDROOT
BRANCH   1   2
ATOM      2  O   UNL A   1      41.287  21.253  25.715  1.00  0.00    -0.461 OA
BRANCH   2   3
ATOM      3  C   UNL A   1      40.288  21.498  26.594  1.00  0.00     0.316 C 
ATOM      4  O   UNL A   1      40.444  21.203  27.778  1.00  0.00    -0.251 OA
BRANCH   3   5
ATOM      5  C   UNL A   1      38.989  22.106  26.101  1.00  0.00     0.197 C 
BRANCH   5   6
ATOM      6  S   UNL A   1      37.981  20.983  25.101  1.00  0.00    -0.114 SA
BRANCH   6   7
ATOM      7  C   UNL A   1      36.326  21.623  25.281  1.00  0.00     0.008 A 
ATOM      8  C   UNL A   1      35.170  21.034  24.765  1.00  0.00     0.017 A 
ATOM      9  C   UNL A   1      36.191  22.786  26.042  1.00  0.00     0.017 A 
ATOM     10  C   UNL A   1      33.902  21.481  25.153  1.00  0.00     0.027 A 
ATOM     11  C   UNL A   1      34.928  23.248  26.411  1.00  0.00     0.027 A 
ATOM     12  C   UNL A   1      33.784  22.530  26.054  1.00  0.00     0.041 A 
BRANCH  12  13
ATOM     13  N   UNL A   1      32.602  22.888  26.709  1.00  0.00    -0.322 N 
ATOM     14  C   UNL A   1      31.641  23.838  26.470  1.00  0.00     0.256 C 
ATOM     15  H   UNL A   1      32.420  22.344  27.509  1.00  0.00     0.170 HD
ATOM     16  O   UNL A   1      30.704  23.916  27.272  1.00  0.00    -0.269 OA
BRANCH  14  17
ATOM     17  C   UNL A   1      31.632  24.780  25.328  1.00  0.00     0.048 A 
ATOM     18  C   UNL A   1      30.911  24.311  24.215  1.00  0.00     0.014 A 
ATOM     19  C   UNL A   1      32.399  25.980  25.246  1.00  0.00    -0.006 A 
ATOM     20  C   UNL A   1      30.937  25.002  23.012  1.00  0.00     0.001 A 
ATOM     21  C   UNL A   1      32.412  26.666  24.001  1.00  0.00    -0.018 A 
ATOM     22  C   UNL A   1      33.151  26.555  26.301  1.00  0.00     0.009 A 
ATOM     23  C   UNL A   1      31.693  26.164  22.905  1.00  0.00     0.009 A 
ATOM     24  C   UNL A   1      33.145  27.855  23.849  1.00  0.00     0.009 A 
ATOM     25  C   UNL A   1      33.828  27.769  26.150  1.00  0.00     0.001 A 
ATOM     26  C   UNL A   1      33.834  28.414  24.921  1.00  0.00     0.001 A 
ENDBRANCH  14  17
ENDBRANCH  12  13
ENDBRANCH   6   7
ENDBRANCH   5   6
ENDBRANCH   3   5
ENDBRANCH   2   3
ENDBRANCH   1   2
BRANCH   1  27
ATOM     27  C   UNL A   1      43.687  21.674  25.351  1.00  0.00     0.275 C 
BRANCH  27  28
ATOM     28  O   UNL A   1      43.132  22.903  24.837  1.00  0.00    -0.458 OA
BRANCH  28  29
ATOM     29  C   UNL A   1      43.899  24.015  24.983  1.00  0.00     0.338 C 
ATOM     30  O   UNL A   1      44.876  24.317  24.321  1.00  0.00    -0.246 OA
BRANCH  29  31
ATOM     31  C   UNL A   1      43.258  24.923  25.967  1.00  0.00     0.060 A 
ATOM     32  C   UNL A   1      43.811  26.197  26.153  1.00  0.00     0.016 A 
ATOM     33  C   UNL A   1      42.113  24.552  26.683  1.00  0.00     0.016 A 
ATOM     34  C   UNL A   1      43.250  27.083  27.078  1.00  0.00     0.010 A 
ATOM     35  C   UNL A   1      41.553  25.439  27.610  1.00  0.00     0.010 A 
ATOM     36  C   UNL A   1      42.135  26.699  27.837  1.00  0.00    -0.014 A 
BRANCH  36  37
ATOM     37  C   UNL A   1      41.673  27.545  28.968  1.00  0.00     0.031 A 
ATOM     38  C   UNL A   1      42.406  27.465  30.282  1.00  0.00     0.074 A 
ATOM     39  C   UNL A   1      40.625  28.381  28.845  1.00  0.00     0.049 A 
ATOM     40  N   UNL A   1      42.173  28.096  31.405  1.00  0.00    -0.248 NA
ATOM     41  C   UNL A   1      43.552  26.545  30.334  1.00  0.00     0.031 C 
ATOM     42  C   UNL A   1      39.834  28.577  27.634  1.00  0.00     0.029 A 
ATOM     43  N   UNL A   1      40.043  29.217  29.768  1.00  0.00    -0.354 N 
ATOM     44  C   UNL A   1      43.146  27.655  32.294  1.00  0.00     0.074 A 
ATOM     45  C   UNL A   1      43.944  26.673  31.592  1.00  0.00     0.031 C 
ATOM     46  C   UNL A   1      38.862  29.471  27.889  1.00  0.00     0.029 A 
ATOM     47  C   UNL A   1      38.948  29.894  29.287  1.00  0.00     0.049 A 
ATOM     48  H   UNL A   1      40.379  29.321  30.688  1.00  0.00     0.167 HD
ATOM     49  C   UNL A   1      43.367  28.041  33.573  1.00  0.00     0.037 A 
ATOM     50  C   UNL A   1      38.106  30.745  29.907  1.00  0.00     0.037 A 
ATOM     51  C   UNL A   1      42.576  29.011  34.284  1.00  0.00     0.049 A 
ATOM     52  C   UNL A   1      38.329  31.105  31.355  1.00  0.00     0.074 A 
ATOM     53  C   UNL A   1      42.745  29.478  35.576  1.00  0.00     0.029 A 
ATOM     54  N   UNL A   1      41.463  29.653  33.769  1.00  0.00    -0.354 N 
ATOM     55  N   UNL A   1      39.281  30.719  32.169  1.00  0.00    -0.248 NA
ATOM     56  C   UNL A   1      37.360  32.028  31.967  1.00  0.00     0.031 C 
ATOM     57  C   UNL A   1      41.703  30.365  35.861  1.00  0.00     0.029 A 
ATOM     58  C   UNL A   1      40.916  30.492  34.727  1.00  0.00     0.049 A 
ATOM     59  H   UNL A   1      41.111  29.532  32.858  1.00  0.00     0.167 HD
ATOM     60  C   UNL A   1      39.047  31.377  33.372  1.00  0.00     0.074 A 
ATOM     61  C   UNL A   1      37.867  32.193  33.180  1.00  0.00     0.031 C 
ATOM     62  C   UNL A   1      39.749  31.312  34.530  1.00  0.00     0.037 A 
BRANCH  49  63
ATOM     63  C   UNL A   1      44.510  27.393  34.297  1.00  0.00     0.057 A 
ATOM     64  C   UNL A   1      45.786  27.970  34.328  1.00  0.00     0.134 A 
ATOM     65  C   UNL A   1      44.324  26.196  34.999  1.00  0.00     0.134 A 
ATOM     66  F   UNL A   1      46.032  29.110  33.665  1.00  0.00    -0.206 F 
ATOM     67  C   UNL A   1      46.842  27.368  35.013  1.00  0.00     0.040 A 
ATOM     68  C   UNL A   1      45.366  25.596  35.708  1.00  0.00     0.040 A 
ATOM     69  F   UNL A   1      43.125  25.593  35.013  1.00  0.00    -0.206 F 
ATOM     70  C   UNL A   1      46.631  26.180  35.711  1.00  0.00     0.006 A 
ENDBRANCH  49  63
BRANCH  50  71
ATOM     71  C   UNL A   1      36.954  31.326  29.169  1.00  0.00     0.057 A 
ATOM     72  C   UNL A   1      35.820  30.561  28.874  1.00  0.00     0.134 A 
ATOM     73  C   UNL A   1      36.981  32.644  28.700  1.00  0.00     0.134 A 
ATOM     74  F   UNL A   1      35.748  29.281  29.270  1.00  0.00    -0.206 F 
ATOM     75  C   UNL A   1      34.764  31.077  28.121  1.00  0.00     0.040 A 
ATOM     76  C   UNL A   1      35.922  33.182  27.968  1.00  0.00     0.040 A 
ATOM     77  F   UNL A   1      38.042  33.429  28.946  1.00  0.00    -0.206 F 
ATOM     78  C   UNL A   1      34.812  32.394  27.669  1.00  0.00     0.006 A 
ENDBRANCH  50  71
BRANCH  62  79
ATOM     79  C   UNL A   1      39.293  32.174  35.673  1.00  0.00     0.057 A 
ATOM     80  C   UNL A   1      39.720  33.499  35.821  1.00  0.00     0.134 A 
ATOM     81  C   UNL A   1      38.376  31.685  36.612  1.00  0.00     0.134 A 
ATOM     82  F   UNL A   1      40.606  34.029  34.963  1.00  0.00    -0.206 F 
ATOM     83  C   UNL A   1      39.270  34.299  36.874  1.00  0.00     0.040 A 
ATOM     84  C   UNL A   1      37.896  32.483  37.653  1.00  0.00     0.040 A 
ATOM     85  F   UNL A   1      37.915  30.427  36.524  1.00  0.00    -0.206 F 
ATOM     86  C   UNL A   1      38.348  33.793  37.789  1.00  0.00     0.006 A 
ENDBRANCH  62  79
ENDBRANCH  36  37
ENDBRANCH  29  31
ENDBRANCH  28  29
ENDBRANCH  27  28
ENDBRANCH   1  27
TORSDOF 15
ENDMDL
