MODEL 1
REMARK VINA RESULT:     -12.1      0.000      0.000
REMARK SMILES CS(=O)(=O)c1ccc(/C=C(/C(=O)OCCOC(=O)c2ccc(-c3c4nc(c(-c5c(F)cccc5F)c5ccc([nH]5)c(-c5c(F)cccc5F)c5nc(c(-c6c(F)cccc6F)c6ccc3[nH]6)C=C5)C=C4)cc2)c2ccc(O)cc2)cc1
REMARK SMILES IDX 14 1 13 2 11 3 12 4 10 5 9 6 8 7 5 8 6 9 81 10 7 11 80 12
REMARK SMILES IDX 2 13 1 14 3 15 4 16 73 17 74 18 79 19 75 20 78 21 76 22
REMARK SMILES IDX 77 23 15 25 16 26 17 27 18 28 19 29 20 30 72 31 21 32 71 33
REMARK SMILES IDX 22 34 23 35 24 36 65 37 25 38 70 39 64 40 66 41 26 42 69 43
REMARK SMILES IDX 63 44 62 45 27 47 53 48 36 49 52 50 37 51 40 52 51 53 67 54
REMARK SMILES IDX 38 55 39 56 50 58 68 59 41 60 28 61 29 62 34 63 30 64 31 65
REMARK SMILES IDX 33 66 35 67 32 68 54 69 55 70 60 71 56 72 57 73 59 74 61 75
REMARK SMILES IDX 58 76 42 77 43 78 48 79 44 80 45 81 47 82 49 83 46 84
REMARK H PARENT 77 24 66 46 40 57
REMARK Flexibility Score: inf
ROOT
ATOM      1  C   UNL A   1      34.620  22.354  24.581  1.00  0.00     0.275 C 
ENDROOT
BRANCH   1   2
ATOM      2  O   UNL A   1      34.476  23.539  25.392  1.00  0.00    -0.458 OA
BRANCH   2   3
ATOM      3  C   UNL A   1      33.225  23.786  25.862  1.00  0.00     0.338 C 
ATOM      4  O   UNL A   1      32.656  23.132  26.724  1.00  0.00    -0.246 OA
BRANCH   3   5
ATOM      5  C   UNL A   1      32.600  24.986  25.217  1.00  0.00     0.067 C 
ATOM      6  C   UNL A   1      31.877  24.860  24.079  1.00  0.00     0.024 C 
BRANCH   6   7
ATOM      7  C   UNL A   1      31.033  25.923  23.496  1.00  0.00    -0.025 A 
ATOM      8  C   UNL A   1      29.464  28.143  22.842  1.00  0.00     0.067 A 
ATOM      9  C   UNL A   1      30.779  28.068  22.384  1.00  0.00     0.021 A 
ATOM     10  C   UNL A   1      28.896  27.079  23.547  1.00  0.00     0.021 A 
ATOM     11  C   UNL A   1      31.548  26.944  22.685  1.00  0.00     0.009 A 
ATOM     12  C   UNL A   1      29.683  25.970  23.868  1.00  0.00     0.009 A 
BRANCH   8  13
ATOM     13  S   UNL A   1      28.545  29.645  22.617  1.00  0.00     0.175 S 
ATOM     14  C   UNL A   1      29.303  30.821  23.701  1.00  0.00     0.163 C 
ATOM     15  O   UNL A   1      27.199  29.414  23.113  1.00  0.00    -0.224 OA
ATOM     16  O   UNL A   1      28.775  30.071  21.252  1.00  0.00    -0.224 OA
ENDBRANCH   8  13
ENDBRANCH   6   7
BRANCH   5  17
ATOM     17  C   UNL A   1      32.719  26.285  25.918  1.00  0.00    -0.011 A 
ATOM     18  C   UNL A   1      33.854  27.081  25.705  1.00  0.00     0.013 A 
ATOM     19  C   UNL A   1      31.690  26.772  26.736  1.00  0.00     0.013 A 
ATOM     20  C   UNL A   1      33.958  28.343  26.289  1.00  0.00     0.047 A 
ATOM     21  C   UNL A   1      31.795  28.038  27.320  1.00  0.00     0.047 A 
ATOM     22  C   UNL A   1      32.927  28.812  27.089  1.00  0.00     0.115 A 
BRANCH  22  23
ATOM     23  O   UNL A   1      33.066  30.056  27.626  1.00  0.00    -0.508 OA
ATOM     24  H   UNL A   1      33.343  30.771  27.087  1.00  0.00     0.293 HD
ENDBRANCH  22  23
ENDBRANCH   5  17
ENDBRANCH   3   5
ENDBRANCH   2   3
ENDBRANCH   1   2
BRANCH   1  25
ATOM     25  C   UNL A   1      35.672  21.421  25.173  1.00  0.00     0.275 C 
BRANCH  25  26
ATOM     26  O   UNL A   1      36.968  21.786  24.664  1.00  0.00    -0.458 OA
BRANCH  26  27
ATOM     27  C   UNL A   1      38.027  21.350  25.376  1.00  0.00     0.338 C 
ATOM     28  O   UNL A   1      38.515  20.227  25.368  1.00  0.00    -0.246 OA
BRANCH  27  29
ATOM     29  C   UNL A   1      38.596  22.450  26.173  1.00  0.00     0.060 A 
ATOM     30  C   UNL A   1      38.009  23.711  26.120  1.00  0.00     0.016 A 
ATOM     31  C   UNL A   1      39.819  22.282  26.824  1.00  0.00     0.016 A 
ATOM     32  C   UNL A   1      38.715  24.821  26.578  1.00  0.00     0.010 A 
ATOM     33  C   UNL A   1      40.478  23.391  27.373  1.00  0.00     0.010 A 
ATOM     34  C   UNL A   1      39.974  24.690  27.183  1.00  0.00    -0.014 A 
BRANCH  34  35
ATOM     35  C   UNL A   1      40.799  25.906  27.474  1.00  0.00     0.031 A 
ATOM     36  C   UNL A   1      40.262  26.988  28.388  1.00  0.00     0.074 A 
ATOM     37  C   UNL A   1      42.066  26.022  27.025  1.00  0.00     0.049 A 
ATOM     38  N   UNL A   1      40.763  28.168  28.664  1.00  0.00    -0.248 NA
ATOM     39  C   UNL A   1      38.994  26.708  29.079  1.00  0.00     0.031 C 
ATOM     40  C   UNL A   1      42.774  25.039  26.204  1.00  0.00     0.029 A 
ATOM     41  N   UNL A   1      43.004  27.007  27.235  1.00  0.00    -0.354 N 
ATOM     42  C   UNL A   1      39.840  28.791  29.499  1.00  0.00     0.074 A 
ATOM     43  C   UNL A   1      38.749  27.860  29.687  1.00  0.00     0.031 C 
ATOM     44  C   UNL A   1      44.049  25.424  26.055  1.00  0.00     0.029 A 
ATOM     45  C   UNL A   1      44.229  26.732  26.676  1.00  0.00     0.049 A 
ATOM     46  H   UNL A   1      42.815  27.831  27.740  1.00  0.00     0.167 HD
ATOM     47  C   UNL A   1      39.892  30.023  30.061  1.00  0.00     0.037 A 
ATOM     48  C   UNL A   1      45.362  27.458  26.633  1.00  0.00     0.037 A 
ATOM     49  C   UNL A   1      41.004  30.930  29.949  1.00  0.00     0.049 A 
ATOM     50  C   UNL A   1      45.390  28.830  27.243  1.00  0.00     0.074 A 
ATOM     51  C   UNL A   1      41.127  32.214  30.453  1.00  0.00     0.029 A 
ATOM     52  N   UNL A   1      42.202  30.633  29.319  1.00  0.00    -0.354 N 
ATOM     53  N   UNL A   1      44.459  29.457  27.920  1.00  0.00    -0.248 NA
ATOM     54  C   UNL A   1      46.622  29.613  27.053  1.00  0.00     0.031 C 
ATOM     55  C   UNL A   1      42.394  32.702  30.111  1.00  0.00     0.029 A 
ATOM     56  C   UNL A   1      43.070  31.709  29.424  1.00  0.00     0.049 A 
ATOM     57  H   UNL A   1      42.406  29.784  28.866  1.00  0.00     0.167 HD
ATOM     58  C   UNL A   1      44.992  30.698  28.240  1.00  0.00     0.074 A 
ATOM     59  C   UNL A   1      46.338  30.728  27.710  1.00  0.00     0.031 C 
ATOM     60  C   UNL A   1      44.410  31.728  28.901  1.00  0.00     0.037 A 
BRANCH  47  61
ATOM     61  C   UNL A   1      38.682  30.484  30.820  1.00  0.00     0.057 A 
ATOM     62  C   UNL A   1      38.524  30.249  32.191  1.00  0.00     0.134 A 
ATOM     63  C   UNL A   1      37.669  31.198  30.165  1.00  0.00     0.134 A 
ATOM     64  F   UNL A   1      39.449  29.557  32.873  1.00  0.00    -0.206 F 
ATOM     65  C   UNL A   1      37.391  30.689  32.880  1.00  0.00     0.040 A 
ATOM     66  C   UNL A   1      36.544  31.662  30.847  1.00  0.00     0.040 A 
ATOM     67  F   UNL A   1      37.762  31.461  28.853  1.00  0.00    -0.206 F 
ATOM     68  C   UNL A   1      36.400  31.403  32.208  1.00  0.00     0.006 A 
ENDBRANCH  47  61
BRANCH  48  69
ATOM     69  C   UNL A   1      46.565  26.924  25.942  1.00  0.00     0.057 A 
ATOM     70  C   UNL A   1      47.471  26.087  26.604  1.00  0.00     0.134 A 
ATOM     71  C   UNL A   1      46.852  27.262  24.614  1.00  0.00     0.134 A 
ATOM     72  F   UNL A   1      47.270  25.754  27.888  1.00  0.00    -0.206 F 
ATOM     73  C   UNL A   1      48.624  25.615  25.974  1.00  0.00     0.040 A 
ATOM     74  C   UNL A   1      47.984  26.773  23.962  1.00  0.00     0.040 A 
ATOM     75  F   UNL A   1      46.028  28.066  23.926  1.00  0.00    -0.206 F 
ATOM     76  C   UNL A   1      48.879  25.953  24.646  1.00  0.00     0.006 A 
ENDBRANCH  48  69
BRANCH  60  77
ATOM     77  C   UNL A   1      45.240  32.959  29.110  1.00  0.00     0.057 A 
ATOM     78  C   UNL A   1      45.228  34.020  28.194  1.00  0.00     0.134 A 
ATOM     79  C   UNL A   1      46.055  33.089  30.241  1.00  0.00     0.134 A 
ATOM     80  F   UNL A   1      44.480  33.950  27.084  1.00  0.00    -0.206 F 
ATOM     81  C   UNL A   1      46.021  35.153  28.382  1.00  0.00     0.040 A 
ATOM     82  C   UNL A   1      46.835  34.228  30.451  1.00  0.00     0.040 A 
ATOM     83  F   UNL A   1      46.106  32.113  31.160  1.00  0.00    -0.206 F 
ATOM     84  C   UNL A   1      46.826  35.260  29.516  1.00  0.00     0.006 A 
ENDBRANCH  60  77
ENDBRANCH  34  35
ENDBRANCH  27  29
ENDBRANCH  26  27
ENDBRANCH  25  26
ENDBRANCH   1  25
TORSDOF 15
ENDMDL
MODEL 2
REMARK VINA RESULT:     -12.1      1.261      2.170
REMARK SMILES CS(=O)(=O)c1ccc(/C=C(/C(=O)OCCOC(=O)c2ccc(-c3c4nc(c(-c5c(F)cccc5F)c5ccc([nH]5)c(-c5c(F)cccc5F)c5nc(c(-c6c(F)cccc6F)c6ccc3[nH]6)C=C5)C=C4)cc2)c2ccc(O)cc2)cc1
REMARK SMILES IDX 14 1 13 2 11 3 12 4 10 5 9 6 8 7 5 8 6 9 81 10 7 11 80 12
REMARK SMILES IDX 2 13 1 14 3 15 4 16 73 17 74 18 79 19 75 20 78 21 76 22
REMARK SMILES IDX 77 23 15 25 16 26 17 27 18 28 19 29 20 30 72 31 21 32 71 33
REMARK SMILES IDX 22 34 23 35 24 36 65 37 25 38 70 39 64 40 66 41 26 42 69 43
REMARK SMILES IDX 63 44 62 45 27 47 53 48 36 49 52 50 37 51 40 52 51 53 67 54
REMARK SMILES IDX 38 55 39 56 50 58 68 59 41 60 28 61 29 62 34 63 30 64 31 65
REMARK SMILES IDX 33 66 35 67 32 68 54 69 55 70 60 71 56 72 57 73 59 74 61 75
REMARK SMILES IDX 58 76 42 77 43 78 48 79 44 80 45 81 47 82 49 83 46 84
REMARK H PARENT 77 24 66 46 40 57
REMARK Flexibility Score: inf
ROOT
ATOM      1  C   UNL A   1      35.369  21.058  24.635  1.00  0.00     0.275 C 
ENDROOT
BRANCH   1   2
ATOM      2  O   UNL A   1      35.479  22.479  24.871  1.00  0.00    -0.458 OA
BRANCH   2   3
ATOM      3  C   UNL A   1      35.208  23.277  23.806  1.00  0.00     0.338 C 
ATOM      4  O   UNL A   1      35.810  23.258  22.742  1.00  0.00    -0.246 OA
BRANCH   3   5
ATOM      5  C   UNL A   1      34.052  24.197  24.060  1.00  0.00     0.067 C 
ATOM      6  C   UNL A   1      33.941  25.368  23.389  1.00  0.00     0.024 C 
BRANCH   6   7
ATOM      7  C   UNL A   1      32.740  26.227  23.390  1.00  0.00    -0.025 A 
ATOM      8  C   UNL A   1      30.742  28.164  23.118  1.00  0.00     0.067 A 
ATOM      9  C   UNL A   1      30.663  26.984  22.381  1.00  0.00     0.021 A 
ATOM     10  C   UNL A   1      31.760  28.350  24.057  1.00  0.00     0.021 A 
ATOM     11  C   UNL A   1      31.644  26.006  22.544  1.00  0.00     0.009 A 
ATOM     12  C   UNL A   1      32.754  27.377  24.192  1.00  0.00     0.009 A 
BRANCH   8  13
ATOM     13  S   UNL A   1      29.600  29.482  22.781  1.00  0.00     0.175 S 
ATOM     14  C   UNL A   1      27.995  28.742  22.880  1.00  0.00     0.163 C 
ATOM     15  O   UNL A   1      29.796  29.891  21.401  1.00  0.00    -0.224 OA
ATOM     16  O   UNL A   1      29.731  30.431  23.867  1.00  0.00    -0.224 OA
ENDBRANCH   8  13
ENDBRANCH   6   7
BRANCH   5  17
ATOM     17  C   UNL A   1      32.998  23.736  24.993  1.00  0.00    -0.011 A 
ATOM     18  C   UNL A   1      32.944  24.268  26.289  1.00  0.00     0.013 A 
ATOM     19  C   UNL A   1      32.007  22.832  24.586  1.00  0.00     0.013 A 
ATOM     20  C   UNL A   1      31.917  23.912  27.162  1.00  0.00     0.047 A 
ATOM     21  C   UNL A   1      30.976  22.476  25.462  1.00  0.00     0.047 A 
ATOM     22  C   UNL A   1      30.940  23.022  26.741  1.00  0.00     0.115 A 
BRANCH  22  23
ATOM     23  O   UNL A   1      29.948  22.715  27.623  1.00  0.00    -0.508 OA
ATOM     24  H   UNL A   1      29.219  22.196  27.347  1.00  0.00     0.293 HD
ENDBRANCH  22  23
ENDBRANCH   5  17
ENDBRANCH   3   5
ENDBRANCH   2   3
ENDBRANCH   1   2
BRANCH   1  25
ATOM     25  C   UNL A   1      36.671  20.351  25.002  1.00  0.00     0.275 C 
BRANCH  25  26
ATOM     26  O   UNL A   1      37.758  21.290  24.924  1.00  0.00    -0.458 OA
BRANCH  26  27
ATOM     27  C   UNL A   1      38.829  21.021  25.698  1.00  0.00     0.338 C 
ATOM     28  O   UNL A   1      39.426  19.955  25.795  1.00  0.00    -0.246 OA
BRANCH  27  29
ATOM     29  C   UNL A   1      39.257  22.231  26.419  1.00  0.00     0.060 A 
ATOM     30  C   UNL A   1      38.659  23.453  26.126  1.00  0.00     0.016 A 
ATOM     31  C   UNL A   1      40.379  22.191  27.248  1.00  0.00     0.016 A 
ATOM     32  C   UNL A   1      39.270  24.637  26.532  1.00  0.00     0.010 A 
ATOM     33  C   UNL A   1      40.931  23.384  27.736  1.00  0.00     0.010 A 
ATOM     34  C   UNL A   1      40.434  24.629  27.315  1.00  0.00    -0.014 A 
BRANCH  34  35
ATOM     35  C   UNL A   1      41.184  25.902  27.560  1.00  0.00     0.031 A 
ATOM     36  C   UNL A   1      40.591  26.977  28.447  1.00  0.00     0.074 A 
ATOM     37  C   UNL A   1      42.438  26.082  27.093  1.00  0.00     0.049 A 
ATOM     38  N   UNL A   1      41.020  28.194  28.680  1.00  0.00    -0.248 NA
ATOM     39  C   UNL A   1      39.349  26.641  29.160  1.00  0.00     0.031 C 
ATOM     40  C   UNL A   1      43.197  25.119  26.294  1.00  0.00     0.029 A 
ATOM     41  N   UNL A   1      43.314  27.129  27.262  1.00  0.00    -0.354 N 
ATOM     42  C   UNL A   1      40.069  28.785  29.507  1.00  0.00     0.074 A 
ATOM     43  C   UNL A   1      39.039  27.794  29.735  1.00  0.00     0.031 C 
ATOM     44  C   UNL A   1      44.444  25.577  26.119  1.00  0.00     0.029 A 
ATOM     45  C   UNL A   1      44.549  26.912  26.697  1.00  0.00     0.049 A 
ATOM     46  H   UNL A   1      43.080  27.954  27.744  1.00  0.00     0.167 HD
ATOM     47  C   UNL A   1      40.049  30.034  30.029  1.00  0.00     0.037 A 
ATOM     48  C   UNL A   1      45.635  27.705  26.620  1.00  0.00     0.037 A 
ATOM     49  C   UNL A   1      41.102  31.004  29.877  1.00  0.00     0.049 A 
ATOM     50  C   UNL A   1      45.583  29.095  27.187  1.00  0.00     0.074 A 
ATOM     51  C   UNL A   1      41.150  32.308  30.341  1.00  0.00     0.029 A 
ATOM     52  N   UNL A   1      42.310  30.762  29.243  1.00  0.00    -0.354 N 
ATOM     53  N   UNL A   1      44.622  29.684  27.855  1.00  0.00    -0.248 NA
ATOM     54  C   UNL A   1      46.762  29.945  26.959  1.00  0.00     0.031 C 
ATOM     55  C   UNL A   1      42.381  32.862  29.969  1.00  0.00     0.029 A 
ATOM     56  C   UNL A   1      43.111  31.892  29.305  1.00  0.00     0.049 A 
ATOM     57  H   UNL A   1      42.562  29.913  28.814  1.00  0.00     0.167 HD
ATOM     58  C   UNL A   1      45.080  30.965  28.130  1.00  0.00     0.074 A 
ATOM     59  C   UNL A   1      46.417  31.060  27.585  1.00  0.00     0.031 C 
ATOM     60  C   UNL A   1      44.442  31.977  28.767  1.00  0.00     0.037 A 
BRANCH  47  61
ATOM     61  C   UNL A   1      38.820  30.443  30.789  1.00  0.00     0.057 A 
ATOM     62  C   UNL A   1      38.704  30.274  32.173  1.00  0.00     0.134 A 
ATOM     63  C   UNL A   1      37.745  31.041  30.117  1.00  0.00     0.134 A 
ATOM     64  F   UNL A   1      39.691  29.692  32.871  1.00  0.00    -0.206 F 
ATOM     65  C   UNL A   1      37.553  30.664  32.861  1.00  0.00     0.040 A 
ATOM     66  C   UNL A   1      36.599  31.455  30.796  1.00  0.00     0.040 A 
ATOM     67  F   UNL A   1      37.795  31.238  28.791  1.00  0.00    -0.206 F 
ATOM     68  C   UNL A   1      36.499  31.262  32.173  1.00  0.00     0.006 A 
ENDBRANCH  47  61
BRANCH  48  69
ATOM     69  C   UNL A   1      46.861  27.225  25.932  1.00  0.00     0.057 A 
ATOM     70  C   UNL A   1      47.858  26.528  26.625  1.00  0.00     0.134 A 
ATOM     71  C   UNL A   1      47.080  27.477  24.572  1.00  0.00     0.134 A 
ATOM     72  F   UNL A   1      47.723  26.284  27.938  1.00  0.00    -0.206 F 
ATOM     73  C   UNL A   1      49.031  26.110  25.995  1.00  0.00     0.040 A 
ATOM     74  C   UNL A   1      48.234  27.038  23.922  1.00  0.00     0.040 A 
ATOM     75  F   UNL A   1      46.168  28.146  23.852  1.00  0.00    -0.206 F 
ATOM     76  C   UNL A   1      49.218  26.359  24.636  1.00  0.00     0.006 A 
ENDBRANCH  48  69
BRANCH  60  77
ATOM     77  C   UNL A   1      45.196  33.263  28.928  1.00  0.00     0.057 A 
ATOM     78  C   UNL A   1      46.021  33.500  30.036  1.00  0.00     0.134 A 
ATOM     79  C   UNL A   1      45.102  34.273  27.962  1.00  0.00     0.134 A 
ATOM     80  F   UNL A   1      46.141  32.578  31.002  1.00  0.00    -0.206 F 
ATOM     81  C   UNL A   1      46.702  34.708  30.192  1.00  0.00     0.040 A 
ATOM     82  C   UNL A   1      45.797  35.476  28.096  1.00  0.00     0.040 A 
ATOM     83  F   UNL A   1      44.336  34.106  26.874  1.00  0.00    -0.206 F 
ATOM     84  C   UNL A   1      46.592  35.700  29.218  1.00  0.00     0.006 A 
ENDBRANCH  60  77
ENDBRANCH  34  35
ENDBRANCH  27  29
ENDBRANCH  26  27
ENDBRANCH  25  26
ENDBRANCH   1  25
TORSDOF 15
ENDMDL
MODEL 3
REMARK VINA RESULT:     -12.1      3.905      8.920
REMARK SMILES CS(=O)(=O)c1ccc(/C=C(/C(=O)OCCOC(=O)c2ccc(-c3c4nc(c(-c5c(F)cccc5F)c5ccc([nH]5)c(-c5c(F)cccc5F)c5nc(c(-c6c(F)cccc6F)c6ccc3[nH]6)C=C5)C=C4)cc2)c2ccc(O)cc2)cc1
REMARK SMILES IDX 14 1 13 2 11 3 12 4 10 5 9 6 8 7 5 8 6 9 81 10 7 11 80 12
REMARK SMILES IDX 2 13 1 14 3 15 4 16 73 17 74 18 79 19 75 20 78 21 76 22
REMARK SMILES IDX 77 23 15 25 16 26 17 27 18 28 19 29 20 30 72 31 21 32 71 33
REMARK SMILES IDX 22 34 23 35 24 36 65 37 25 38 70 39 64 40 66 41 26 42 69 43
REMARK SMILES IDX 63 44 62 45 27 47 53 48 36 49 52 50 37 51 40 52 51 53 67 54
REMARK SMILES IDX 38 55 39 56 50 58 68 59 41 60 28 61 29 62 34 63 30 64 31 65
REMARK SMILES IDX 33 66 35 67 32 68 54 69 55 70 60 71 56 72 57 73 59 74 61 75
REMARK SMILES IDX 58 76 42 77 43 78 48 79 44 80 45 81 47 82 49 83 46 84
REMARK H PARENT 77 24 66 46 40 57
REMARK Flexibility Score: inf
ROOT
ATOM      1  C   UNL A   1      31.395  29.241  25.147  1.00  0.00     0.275 C 
ENDROOT
BRANCH   1   2
ATOM      2  O   UNL A   1      32.329  28.366  25.816  1.00  0.00    -0.458 OA
BRANCH   2   3
ATOM      3  C   UNL A   1      31.797  27.244  26.366  1.00  0.00     0.338 C 
ATOM      4  O   UNL A   1      31.028  27.225  27.317  1.00  0.00    -0.246 OA
BRANCH   3   5
ATOM      5  C   UNL A   1      32.238  25.997  25.663  1.00  0.00     0.067 C 
ATOM      6  C   UNL A   1      32.419  24.844  26.349  1.00  0.00     0.024 C 
BRANCH   6   7
ATOM      7  C   UNL A   1      32.623  23.519  25.729  1.00  0.00    -0.025 A 
ATOM      8  C   UNL A   1      33.059  20.849  25.025  1.00  0.00     0.067 A 
ATOM      9  C   UNL A   1      31.772  21.380  24.950  1.00  0.00     0.021 A 
ATOM     10  C   UNL A   1      34.145  21.660  25.360  1.00  0.00     0.021 A 
ATOM     11  C   UNL A   1      31.564  22.722  25.272  1.00  0.00     0.009 A 
ATOM     12  C   UNL A   1      33.923  22.995  25.708  1.00  0.00     0.009 A 
BRANCH   8  13
ATOM     13  S   UNL A   1      33.298  19.104  24.792  1.00  0.00     0.175 S 
ATOM     14  C   UNL A   1      32.499  18.726  23.259  1.00  0.00     0.163 C 
ATOM     15  O   UNL A   1      32.559  18.418  25.839  1.00  0.00    -0.224 OA
ATOM     16  O   UNL A   1      34.721  18.899  24.626  1.00  0.00    -0.224 OA
ENDBRANCH   8  13
ENDBRANCH   6   7
BRANCH   5  17
ATOM     17  C   UNL A   1      32.373  26.050  24.189  1.00  0.00    -0.011 A 
ATOM     18  C   UNL A   1      33.651  26.114  23.616  1.00  0.00     0.013 A 
ATOM     19  C   UNL A   1      31.255  25.964  23.349  1.00  0.00     0.013 A 
ATOM     20  C   UNL A   1      33.813  26.085  22.231  1.00  0.00     0.047 A 
ATOM     21  C   UNL A   1      31.417  25.933  21.960  1.00  0.00     0.047 A 
ATOM     22  C   UNL A   1      32.696  25.992  21.415  1.00  0.00     0.115 A 
BRANCH  22  23
ATOM     23  O   UNL A   1      32.903  25.952  20.069  1.00  0.00    -0.508 OA
ATOM     24  H   UNL A   1      33.734  26.204  19.715  1.00  0.00     0.293 HD
ENDBRANCH  22  23
ENDBRANCH   5  17
ENDBRANCH   3   5
ENDBRANCH   2   3
ENDBRANCH   1   2
BRANCH   1  25
ATOM     25  C   UNL A   1      31.448  30.643  25.749  1.00  0.00     0.275 C 
BRANCH  25  26
ATOM     26  O   UNL A   1      32.206  30.605  26.972  1.00  0.00    -0.458 OA
BRANCH  26  27
ATOM     27  C   UNL A   1      32.930  31.707  27.253  1.00  0.00     0.338 C 
ATOM     28  O   UNL A   1      32.536  32.867  27.279  1.00  0.00    -0.246 OA
BRANCH  27  29
ATOM     29  C   UNL A   1      34.313  31.337  27.595  1.00  0.00     0.060 A 
ATOM     30  C   UNL A   1      34.660  29.993  27.694  1.00  0.00     0.016 A 
ATOM     31  C   UNL A   1      35.219  32.318  28.002  1.00  0.00     0.016 A 
ATOM     32  C   UNL A   1      35.840  29.630  28.339  1.00  0.00     0.010 A 
ATOM     33  C   UNL A   1      36.450  31.946  28.560  1.00  0.00     0.010 A 
ATOM     34  C   UNL A   1      36.742  30.594  28.813  1.00  0.00    -0.014 A 
BRANCH  34  35
ATOM     35  C   UNL A   1      37.892  30.185  29.683  1.00  0.00     0.031 A 
ATOM     36  C   UNL A   1      39.032  29.373  29.105  1.00  0.00     0.074 A 
ATOM     37  C   UNL A   1      37.997  30.613  30.959  1.00  0.00     0.049 A 
ATOM     38  N   UNL A   1      40.049  28.815  29.715  1.00  0.00    -0.248 NA
ATOM     39  C   UNL A   1      39.023  29.154  27.650  1.00  0.00     0.031 C 
ATOM     40  C   UNL A   1      37.037  31.472  31.652  1.00  0.00     0.029 A 
ATOM     41  N   UNL A   1      38.991  30.416  31.889  1.00  0.00    -0.354 N 
ATOM     42  C   UNL A   1      40.756  28.127  28.733  1.00  0.00     0.074 A 
ATOM     43  C   UNL A   1      40.053  28.337  27.486  1.00  0.00     0.031 C 
ATOM     44  C   UNL A   1      37.526  31.797  32.857  1.00  0.00     0.029 A 
ATOM     45  C   UNL A   1      38.783  31.088  33.071  1.00  0.00     0.049 A 
ATOM     46  H   UNL A   1      39.778  29.849  31.724  1.00  0.00     0.167 HD
ATOM     47  C   UNL A   1      41.886  27.389  28.853  1.00  0.00     0.037 A 
ATOM     48  C   UNL A   1      39.498  31.110  34.211  1.00  0.00     0.037 A 
ATOM     49  C   UNL A   1      42.641  27.235  30.068  1.00  0.00     0.049 A 
ATOM     50  C   UNL A   1      40.736  30.266  34.329  1.00  0.00     0.074 A 
ATOM     51  C   UNL A   1      43.777  26.475  30.291  1.00  0.00     0.029 A 
ATOM     52  N   UNL A   1      42.357  27.885  31.259  1.00  0.00    -0.354 N 
ATOM     53  N   UNL A   1      41.319  29.517  33.426  1.00  0.00    -0.248 NA
ATOM     54  C   UNL A   1      41.398  30.246  35.643  1.00  0.00     0.031 C 
ATOM     55  C   UNL A   1      44.170  26.650  31.623  1.00  0.00     0.029 A 
ATOM     56  C   UNL A   1      43.298  27.545  32.219  1.00  0.00     0.049 A 
ATOM     57  H   UNL A   1      41.601  28.499  31.401  1.00  0.00     0.167 HD
ATOM     58  C   UNL A   1      42.414  28.944  34.057  1.00  0.00     0.074 A 
ATOM     59  C   UNL A   1      42.434  29.453  35.411  1.00  0.00     0.031 C 
ATOM     60  C   UNL A   1      43.316  28.061  33.561  1.00  0.00     0.037 A 
BRANCH  47  61
ATOM     61  C   UNL A   1      42.356  26.649  27.634  1.00  0.00     0.057 A 
ATOM     62  C   UNL A   1      43.253  27.210  26.718  1.00  0.00     0.134 A 
ATOM     63  C   UNL A   1      41.918  25.340  27.393  1.00  0.00     0.134 A 
ATOM     64  F   UNL A   1      43.697  28.465  26.883  1.00  0.00    -0.206 F 
ATOM     65  C   UNL A   1      43.681  26.504  25.591  1.00  0.00     0.040 A 
ATOM     66  C   UNL A   1      42.356  24.616  26.283  1.00  0.00     0.040 A 
ATOM     67  F   UNL A   1      41.063  24.742  28.236  1.00  0.00    -0.206 F 
ATOM     68  C   UNL A   1      43.236  25.200  25.375  1.00  0.00     0.006 A 
ENDBRANCH  47  61
BRANCH  48  69
ATOM     69  C   UNL A   1      39.039  31.925  35.365  1.00  0.00     0.057 A 
ATOM     70  C   UNL A   1      38.249  31.369  36.378  1.00  0.00     0.134 A 
ATOM     71  C   UNL A   1      39.353  33.285  35.467  1.00  0.00     0.134 A 
ATOM     72  F   UNL A   1      37.885  30.079  36.321  1.00  0.00    -0.206 F 
ATOM     73  C   UNL A   1      37.779  32.138  37.444  1.00  0.00     0.040 A 
ATOM     74  C   UNL A   1      38.916  34.059  36.543  1.00  0.00     0.040 A 
ATOM     75  F   UNL A   1      40.099  33.881  34.526  1.00  0.00    -0.206 F 
ATOM     76  C   UNL A   1      38.119  33.487  37.532  1.00  0.00     0.006 A 
ENDBRANCH  48  69
BRANCH  60  77
ATOM     77  C   UNL A   1      44.411  27.616  34.484  1.00  0.00     0.057 A 
ATOM     78  C   UNL A   1      45.607  28.333  34.608  1.00  0.00     0.134 A 
ATOM     79  C   UNL A   1      44.265  26.459  35.260  1.00  0.00     0.134 A 
ATOM     80  F   UNL A   1      45.814  29.441  33.880  1.00  0.00    -0.206 F 
ATOM     81  C   UNL A   1      46.633  27.901  35.450  1.00  0.00     0.040 A 
ATOM     82  C   UNL A   1      45.274  26.029  36.124  1.00  0.00     0.040 A 
ATOM     83  F   UNL A   1      43.141  25.731  35.193  1.00  0.00    -0.206 F 
ATOM     84  C   UNL A   1      46.466  26.746  36.214  1.00  0.00     0.006 A 
ENDBRANCH  60  77
ENDBRANCH  34  35
ENDBRANCH  27  29
ENDBRANCH  26  27
ENDBRANCH  25  26
ENDBRANCH   1  25
TORSDOF 15
ENDMDL
