MODEL 1
REMARK VINA RESULT:     -11.8      0.000      0.000
REMARK SMILES CCOc1cnc(C(=O)c2[nH]c3cc(Cl)ccc3c2CC(=O)OCCOC(=O)c2ccc(-c3c4nc(c(-c5c(F)cccc5F)c5ccc([nH]5)c(-c5c(F)cccc5F)c5nc(c(-c6c(F)cccc6F)c6ccc3[nH]6)C=C5)C=C4)cc2)cc1CC
REMARK SMILES IDX 23 1 21 2 22 3 20 4 19 5 10 6 11 7 12 8 18 10 13 11 17 12
REMARK SMILES IDX 14 13 16 14 15 15 8 16 9 17 7 18 4 19 5 20 84 21 6 22 83 23
REMARK SMILES IDX 3 24 2 25 1 26 85 27 86 28 24 29 25 30 26 31 27 32 28 33
REMARK SMILES IDX 29 34 30 35 82 36 31 37 81 38 32 39 33 40 34 41 75 42 35 43
REMARK SMILES IDX 80 44 74 45 76 46 36 47 79 48 73 49 72 50 37 52 63 53 46 54
REMARK SMILES IDX 62 55 47 56 50 57 61 58 77 59 48 60 49 61 60 63 78 64 51 65
REMARK SMILES IDX 38 66 39 67 44 68 40 69 41 70 43 71 45 72 42 73 64 74 65 75
REMARK SMILES IDX 70 76 66 77 67 78 69 79 71 80 68 81 52 82 53 83 58 84 54 85
REMARK SMILES IDX 55 86 57 87 59 88 56 89
REMARK H PARENT 11 9 76 51 50 62
REMARK Flexibility Score: inf
ROOT
ATOM      1  O   UNL A   1      32.175  30.750  27.104  1.00  0.00    -0.462 OA
ENDROOT
BRANCH   1   2
ATOM      2  C   UNL A   1      32.511  29.848  26.149  1.00  0.00     0.310 C 
ATOM      3  O   UNL A   1      33.669  29.620  25.798  1.00  0.00    -0.252 OA
BRANCH   2   4
ATOM      4  C   UNL A   1      31.368  29.009  25.618  1.00  0.00     0.161 C 
BRANCH   4   5
ATOM      5  C   UNL A   1      31.053  29.035  24.154  1.00  0.00     0.000 A 
ATOM      6  C   UNL A   1      31.738  28.417  23.108  1.00  0.00     0.093 A 
ATOM      7  N   UNL A   1      31.071  28.735  21.947  1.00  0.00    -0.351 N 
ATOM      8  C   UNL A   1      30.161  29.734  22.172  1.00  0.00     0.048 A 
ATOM      9  H   UNL A   1      31.226  28.305  21.076  1.00  0.00     0.167 HD
ATOM     10  C   UNL A   1      30.060  29.885  23.553  1.00  0.00     0.004 A 
ATOM     11  C   UNL A   1      29.429  30.503  21.261  1.00  0.00     0.047 A 
ATOM     12  C   UNL A   1      29.128  30.819  24.056  1.00  0.00     0.012 A 
ATOM     13  C   UNL A   1      28.546  31.447  21.788  1.00  0.00     0.043 A 
ATOM     14  C   UNL A   1      28.380  31.597  23.162  1.00  0.00     0.021 A 
ATOM     15  Cl  UNL A   1      27.654  32.453  20.711  1.00  0.00    -0.084 Cl
BRANCH   6  16
ATOM     16  C   UNL A   1      32.926  27.573  23.038  1.00  0.00     0.227 C 
ATOM     17  O   UNL A   1      34.044  28.071  22.912  1.00  0.00    -0.285 OA
BRANCH  16  18
ATOM     18  C   UNL A   1      32.811  26.128  23.478  1.00  0.00     0.113 A 
ATOM     19  C   UNL A   1      33.322  23.439  23.796  1.00  0.00     0.140 A 
ATOM     20  C   UNL A   1      32.482  23.937  22.806  1.00  0.00     0.158 A 
ATOM     21  C   UNL A   1      33.924  24.344  24.672  1.00  0.00    -0.002 A 
ATOM     22  N   UNL A   1      32.227  25.254  22.614  1.00  0.00    -0.249 NA
ATOM     23  C   UNL A   1      33.589  25.702  24.554  1.00  0.00     0.040 A 
BRANCH  19  24
ATOM     24  O   UNL A   1      33.702  22.128  23.766  1.00  0.00    -0.492 OA
BRANCH  24  25
ATOM     25  C   UNL A   1      32.690  21.237  24.251  1.00  0.00     0.226 C 
ATOM     26  C   UNL A   1      33.331  19.920  24.657  1.00  0.00     0.049 C 
ENDBRANCH  24  25
ENDBRANCH  19  24
BRANCH  21  27
ATOM     27  C   UNL A   1      35.012  23.939  25.636  1.00  0.00     0.036 C 
ATOM     28  C   UNL A   1      34.466  23.132  26.811  1.00  0.00     0.009 C 
ENDBRANCH  21  27
ENDBRANCH  16  18
ENDBRANCH   6  16
ENDBRANCH   4   5
ENDBRANCH   2   4
ENDBRANCH   1   2
BRANCH   1  29
ATOM     29  C   UNL A   1      31.400  31.889  26.665  1.00  0.00     0.274 C 
BRANCH  29  30
ATOM     30  C   UNL A   1      32.204  33.199  26.745  1.00  0.00     0.275 C 
BRANCH  30  31
ATOM     31  O   UNL A   1      32.154  33.829  28.047  1.00  0.00    -0.458 OA
BRANCH  31  32
ATOM     32  C   UNL A   1      33.267  34.531  28.336  1.00  0.00     0.338 C 
ATOM     33  O   UNL A   1      33.360  35.744  28.408  1.00  0.00    -0.246 OA
BRANCH  32  34
ATOM     34  C   UNL A   1      34.418  33.717  28.716  1.00  0.00     0.060 A 
ATOM     35  C   UNL A   1      34.158  32.598  29.508  1.00  0.00     0.016 A 
ATOM     36  C   UNL A   1      35.720  34.188  28.547  1.00  0.00     0.016 A 
ATOM     37  C   UNL A   1      35.195  31.975  30.186  1.00  0.00     0.010 A 
ATOM     38  C   UNL A   1      36.773  33.518  29.177  1.00  0.00     0.010 A 
ATOM     39  C   UNL A   1      36.513  32.418  30.013  1.00  0.00    -0.014 A 
BRANCH  39  40
ATOM     40  C   UNL A   1      37.602  31.644  30.649  1.00  0.00     0.031 A 
ATOM     41  C   UNL A   1      38.375  30.602  29.903  1.00  0.00     0.074 A 
ATOM     42  C   UNL A   1      37.921  31.945  31.922  1.00  0.00     0.049 A 
ATOM     43  N   UNL A   1      39.393  29.887  30.313  1.00  0.00    -0.248 NA
ATOM     44  C   UNL A   1      37.963  30.320  28.520  1.00  0.00     0.031 C 
ATOM     45  C   UNL A   1      37.237  32.947  32.745  1.00  0.00     0.029 A 
ATOM     46  N   UNL A   1      38.899  31.450  32.742  1.00  0.00    -0.354 N 
ATOM     47  C   UNL A   1      39.756  29.087  29.241  1.00  0.00     0.074 A 
ATOM     48  C   UNL A   1      38.822  29.369  28.172  1.00  0.00     0.031 C 
ATOM     49  C   UNL A   1      37.825  33.001  33.947  1.00  0.00     0.029 A 
ATOM     50  C   UNL A   1      38.891  32.007  33.995  1.00  0.00     0.049 A 
ATOM     51  H   UNL A   1      39.544  30.762  32.460  1.00  0.00     0.167 HD
ATOM     52  C   UNL A   1      40.789  28.217  29.153  1.00  0.00     0.037 A 
ATOM     53  C   UNL A   1      39.639  31.731  35.076  1.00  0.00     0.037 A 
ATOM     54  C   UNL A   1      41.709  27.928  30.220  1.00  0.00     0.049 A 
ATOM     55  C   UNL A   1      40.704  30.683  34.981  1.00  0.00     0.074 A 
ATOM     56  C   UNL A   1      42.810  27.089  30.207  1.00  0.00     0.029 A 
ATOM     57  N   UNL A   1      41.622  28.456  31.498  1.00  0.00    -0.354 N 
ATOM     58  N   UNL A   1      41.075  29.982  33.938  1.00  0.00    -0.248 NA
ATOM     59  C   UNL A   1      41.445  30.381  36.211  1.00  0.00     0.031 C 
ATOM     60  C   UNL A   1      43.371  27.084  31.490  1.00  0.00     0.029 A 
ATOM     61  C   UNL A   1      42.628  27.932  32.294  1.00  0.00     0.049 A 
ATOM     62  H   UNL A   1      40.947  29.107  31.796  1.00  0.00     0.167 HD
ATOM     63  C   UNL A   1      42.097  29.158  34.382  1.00  0.00     0.074 A 
ATOM     64  C   UNL A   1      42.298  29.458  35.786  1.00  0.00     0.031 C 
ATOM     65  C   UNL A   1      42.804  28.232  33.690  1.00  0.00     0.037 A 
BRANCH  52  66
ATOM     66  C   UNL A   1      41.007  27.535  27.841  1.00  0.00     0.057 A 
ATOM     67  C   UNL A   1      41.795  28.134  26.852  1.00  0.00     0.134 A 
ATOM     68  C   UNL A   1      40.493  26.262  27.582  1.00  0.00     0.134 A 
ATOM     69  F   UNL A   1      42.325  29.348  27.058  1.00  0.00    -0.206 F 
ATOM     70  C   UNL A   1      42.049  27.498  25.636  1.00  0.00     0.040 A 
ATOM     71  C   UNL A   1      40.749  25.609  26.374  1.00  0.00     0.040 A 
ATOM     72  F   UNL A   1      39.743  25.633  28.498  1.00  0.00    -0.206 F 
ATOM     73  C   UNL A   1      41.527  26.229  25.397  1.00  0.00     0.006 A 
ENDBRANCH  52  66
BRANCH  53  74
ATOM     74  C   UNL A   1      39.365  32.442  36.345  1.00  0.00     0.057 A 
ATOM     75  C   UNL A   1      40.020  33.632  36.669  1.00  0.00     0.134 A 
ATOM     76  C   UNL A   1      38.401  31.964  37.241  1.00  0.00     0.134 A 
ATOM     77  F   UNL A   1      40.961  34.129  35.852  1.00  0.00    -0.206 F 
ATOM     78  C   UNL A   1      39.726  34.326  37.844  1.00  0.00     0.040 A 
ATOM     79  C   UNL A   1      38.082  32.656  38.408  1.00  0.00     0.040 A 
ATOM     80  F   UNL A   1      37.734  30.830  36.977  1.00  0.00    -0.206 F 
ATOM     81  C   UNL A   1      38.748  33.842  38.712  1.00  0.00     0.006 A 
ENDBRANCH  53  74
BRANCH  65  82
ATOM     82  C   UNL A   1      43.849  27.478  34.448  1.00  0.00     0.057 A 
ATOM     83  C   UNL A   1      43.569  26.238  35.035  1.00  0.00     0.134 A 
ATOM     84  C   UNL A   1      45.146  27.986  34.583  1.00  0.00     0.134 A 
ATOM     85  F   UNL A   1      42.338  25.711  34.951  1.00  0.00    -0.206 F 
ATOM     86  C   UNL A   1      44.540  25.535  35.746  1.00  0.00     0.040 A 
ATOM     87  C   UNL A   1      46.132  27.283  35.278  1.00  0.00     0.040 A 
ATOM     88  F   UNL A   1      45.475  29.168  34.040  1.00  0.00    -0.206 F 
ATOM     89  C   UNL A   1      45.827  26.056  35.866  1.00  0.00     0.006 A 
ENDBRANCH  65  82
ENDBRANCH  39  40
ENDBRANCH  32  34
ENDBRANCH  31  32
ENDBRANCH  30  31
ENDBRANCH  29  30
ENDBRANCH   1  29
TORSDOF 17
ENDMDL
MODEL 2
REMARK VINA RESULT:     -11.7      5.036     10.532
REMARK SMILES CCOc1cnc(C(=O)c2[nH]c3cc(Cl)ccc3c2CC(=O)OCCOC(=O)c2ccc(-c3c4nc(c(-c5c(F)cccc5F)c5ccc([nH]5)c(-c5c(F)cccc5F)c5nc(c(-c6c(F)cccc6F)c6ccc3[nH]6)C=C5)C=C4)cc2)cc1CC
REMARK SMILES IDX 23 1 21 2 22 3 20 4 19 5 10 6 11 7 12 8 18 10 13 11 17 12
REMARK SMILES IDX 14 13 16 14 15 15 8 16 9 17 7 18 4 19 5 20 84 21 6 22 83 23
REMARK SMILES IDX 3 24 2 25 1 26 85 27 86 28 24 29 25 30 26 31 27 32 28 33
REMARK SMILES IDX 29 34 30 35 82 36 31 37 81 38 32 39 33 40 34 41 75 42 35 43
REMARK SMILES IDX 80 44 74 45 76 46 36 47 79 48 73 49 72 50 37 52 63 53 46 54
REMARK SMILES IDX 62 55 47 56 50 57 61 58 77 59 48 60 49 61 60 63 78 64 51 65
REMARK SMILES IDX 38 66 39 67 44 68 40 69 41 70 43 71 45 72 42 73 64 74 65 75
REMARK SMILES IDX 70 76 66 77 67 78 69 79 71 80 68 81 52 82 53 83 58 84 54 85
REMARK SMILES IDX 55 86 57 87 59 88 56 89
REMARK H PARENT 11 9 76 51 50 62
REMARK Flexibility Score: inf
ROOT
ATOM      1  O   UNL A   1      37.803  21.469  25.196  1.00  0.00    -0.462 OA
ENDROOT
BRANCH   1   2
ATOM      2  C   UNL A   1      36.500  21.731  25.466  1.00  0.00     0.310 C 
ATOM      3  O   UNL A   1      36.117  22.367  26.448  1.00  0.00    -0.252 OA
BRANCH   2   4
ATOM      4  C   UNL A   1      35.519  21.311  24.393  1.00  0.00     0.161 C 
BRANCH   4   5
ATOM      5  C   UNL A   1      34.272  20.576  24.780  1.00  0.00     0.000 A 
ATOM      6  C   UNL A   1      33.123  21.078  25.392  1.00  0.00     0.093 A 
ATOM      7  N   UNL A   1      32.257  20.021  25.550  1.00  0.00    -0.351 N 
ATOM      8  C   UNL A   1      32.897  18.833  25.315  1.00  0.00     0.048 A 
ATOM      9  H   UNL A   1      31.308  20.106  25.797  1.00  0.00     0.167 HD
ATOM     10  C   UNL A   1      34.131  19.145  24.749  1.00  0.00     0.004 A 
ATOM     11  C   UNL A   1      32.476  17.522  25.561  1.00  0.00     0.047 A 
ATOM     12  C   UNL A   1      34.969  18.081  24.348  1.00  0.00     0.012 A 
ATOM     13  C   UNL A   1      33.344  16.493  25.193  1.00  0.00     0.043 A 
ATOM     14  C   UNL A   1      34.566  16.759  24.580  1.00  0.00     0.021 A 
ATOM     15  Cl  UNL A   1      32.895  14.862  25.516  1.00  0.00    -0.084 Cl
BRANCH   6  16
ATOM     16  C   UNL A   1      32.720  22.403  25.849  1.00  0.00     0.227 C 
ATOM     17  O   UNL A   1      32.439  22.602  27.031  1.00  0.00    -0.285 OA
BRANCH  16  18
ATOM     18  C   UNL A   1      32.996  23.592  24.952  1.00  0.00     0.113 A 
ATOM     19  C   UNL A   1      32.749  26.017  23.666  1.00  0.00     0.140 A 
ATOM     20  C   UNL A   1      32.287  24.822  23.123  1.00  0.00     0.158 A 
ATOM     21  C   UNL A   1      33.373  25.980  24.914  1.00  0.00    -0.002 A 
ATOM     22  N   UNL A   1      32.379  23.619  23.740  1.00  0.00    -0.249 NA
ATOM     23  C   UNL A   1      33.570  24.729  25.520  1.00  0.00     0.040 A 
BRANCH  19  24
ATOM     24  O   UNL A   1      32.405  27.203  23.084  1.00  0.00    -0.492 OA
BRANCH  24  25
ATOM     25  C   UNL A   1      31.021  27.272  22.721  1.00  0.00     0.226 C 
ATOM     26  C   UNL A   1      30.280  28.139  23.723  1.00  0.00     0.049 C 
ENDBRANCH  24  25
ENDBRANCH  19  24
BRANCH  21  27
ATOM     27  C   UNL A   1      33.714  27.230  25.688  1.00  0.00     0.036 C 
ATOM     28  C   UNL A   1      32.610  27.616  26.668  1.00  0.00     0.009 C 
ENDBRANCH  21  27
ENDBRANCH  16  18
ENDBRANCH   6  16
ENDBRANCH   4   5
ENDBRANCH   2   4
ENDBRANCH   1   2
BRANCH   1  29
ATOM     29  C   UNL A   1      38.152  20.078  25.015  1.00  0.00     0.274 C 
BRANCH  29  30
ATOM     30  C   UNL A   1      39.197  19.606  26.042  1.00  0.00     0.275 C 
BRANCH  30  31
ATOM     31  O   UNL A   1      40.352  18.975  25.443  1.00  0.00    -0.458 OA
BRANCH  31  32
ATOM     32  C   UNL A   1      41.492  19.204  26.126  1.00  0.00     0.338 C 
ATOM     33  O   UNL A   1      42.392  18.405  26.320  1.00  0.00    -0.246 OA
BRANCH  32  34
ATOM     34  C   UNL A   1      41.681  20.588  26.547  1.00  0.00     0.060 A 
ATOM     35  C   UNL A   1      41.898  21.525  25.536  1.00  0.00     0.016 A 
ATOM     36  C   UNL A   1      41.922  20.907  27.883  1.00  0.00     0.016 A 
ATOM     37  C   UNL A   1      42.415  22.773  25.849  1.00  0.00     0.010 A 
ATOM     38  C   UNL A   1      42.379  22.189  28.205  1.00  0.00     0.010 A 
ATOM     39  C   UNL A   1      42.644  23.122  27.187  1.00  0.00    -0.014 A 
BRANCH  39  40
ATOM     40  C   UNL A   1      43.071  24.507  27.487  1.00  0.00     0.031 A 
ATOM     41  C   UNL A   1      42.095  25.566  27.898  1.00  0.00     0.074 A 
ATOM     42  C   UNL A   1      44.388  24.781  27.432  1.00  0.00     0.049 A 
ATOM     43  N   UNL A   1      42.333  26.805  28.248  1.00  0.00    -0.248 NA
ATOM     44  C   UNL A   1      40.673  25.196  27.926  1.00  0.00     0.031 C 
ATOM     45  C   UNL A   1      45.430  23.823  27.048  1.00  0.00     0.029 A 
ATOM     46  N   UNL A   1      45.076  25.932  27.706  1.00  0.00    -0.354 N 
ATOM     47  C   UNL A   1      41.099  27.359  28.554  1.00  0.00     0.074 A 
ATOM     48  C   UNL A   1      40.106  26.336  28.307  1.00  0.00     0.031 C 
ATOM     49  C   UNL A   1      46.624  24.423  27.123  1.00  0.00     0.029 A 
ATOM     50  C   UNL A   1      46.429  25.815  27.511  1.00  0.00     0.049 A 
ATOM     51  H   UNL A   1      44.643  26.761  28.012  1.00  0.00     0.167 HD
ATOM     52  C   UNL A   1      40.827  28.600  29.022  1.00  0.00     0.037 A 
ATOM     53  C   UNL A   1      47.405  26.733  27.607  1.00  0.00     0.037 A 
ATOM     54  C   UNL A   1      41.812  29.621  29.256  1.00  0.00     0.049 A 
ATOM     55  C   UNL A   1      47.059  28.130  28.021  1.00  0.00     0.074 A 
ATOM     56  C   UNL A   1      41.631  30.895  29.766  1.00  0.00     0.029 A 
ATOM     57  N   UNL A   1      43.163  29.489  28.975  1.00  0.00    -0.354 N 
ATOM     58  N   UNL A   1      45.894  28.618  28.369  1.00  0.00    -0.248 NA
ATOM     59  C   UNL A   1      48.157  29.103  28.044  1.00  0.00     0.031 C 
ATOM     60  C   UNL A   1      42.871  31.547  29.763  1.00  0.00     0.029 A 
ATOM     61  C   UNL A   1      43.822  30.672  29.266  1.00  0.00     0.049 A 
ATOM     62  H   UNL A   1      43.590  28.676  28.622  1.00  0.00     0.167 HD
ATOM     63  C   UNL A   1      46.116  29.954  28.659  1.00  0.00     0.074 A 
ATOM     64  C   UNL A   1      47.532  30.196  28.462  1.00  0.00     0.031 C 
ATOM     65  C   UNL A   1      45.227  30.899  29.051  1.00  0.00     0.037 A 
BRANCH  52  66
ATOM     66  C   UNL A   1      39.404  28.917  29.350  1.00  0.00     0.057 A 
ATOM     67  C   UNL A   1      38.545  29.425  28.369  1.00  0.00     0.134 A 
ATOM     68  C   UNL A   1      38.869  28.661  30.616  1.00  0.00     0.134 A 
ATOM     69  F   UNL A   1      39.006  29.671  27.135  1.00  0.00    -0.206 F 
ATOM     70  C   UNL A   1      37.202  29.688  28.639  1.00  0.00     0.040 A 
ATOM     71  C   UNL A   1      37.523  28.909  30.896  1.00  0.00     0.040 A 
ATOM     72  F   UNL A   1      39.641  28.163  31.591  1.00  0.00    -0.206 F 
ATOM     73  C   UNL A   1      36.687  29.426  29.908  1.00  0.00     0.006 A 
ENDBRANCH  52  66
BRANCH  53  74
ATOM     74  C   UNL A   1      48.793  26.350  27.261  1.00  0.00     0.057 A 
ATOM     75  C   UNL A   1      49.668  25.841  28.223  1.00  0.00     0.134 A 
ATOM     76  C   UNL A   1      49.255  26.444  25.943  1.00  0.00     0.134 A 
ATOM     77  F   UNL A   1      49.281  25.742  29.504  1.00  0.00    -0.206 F 
ATOM     78  C   UNL A   1      50.961  25.437  27.887  1.00  0.00     0.040 A 
ATOM     79  C   UNL A   1      50.537  26.025  25.588  1.00  0.00     0.040 A 
ATOM     80  F   UNL A   1      48.455  26.918  24.976  1.00  0.00    -0.206 F 
ATOM     81  C   UNL A   1      51.394  25.521  26.564  1.00  0.00     0.006 A 
ENDBRANCH  53  74
BRANCH  65  82
ATOM     82  C   UNL A   1      45.764  32.275  29.282  1.00  0.00     0.057 A 
ATOM     83  C   UNL A   1      45.758  33.237  28.265  1.00  0.00     0.134 A 
ATOM     84  C   UNL A   1      46.280  32.646  30.528  1.00  0.00     0.134 A 
ATOM     85  F   UNL A   1      45.291  32.932  27.044  1.00  0.00    -0.206 F 
ATOM     86  C   UNL A   1      46.262  34.520  28.475  1.00  0.00     0.040 A 
ATOM     87  C   UNL A   1      46.771  33.932  30.757  1.00  0.00     0.040 A 
ATOM     88  F   UNL A   1      46.309  31.768  31.542  1.00  0.00    -0.206 F 
ATOM     89  C   UNL A   1      46.767  34.871  29.726  1.00  0.00     0.006 A 
ENDBRANCH  65  82
ENDBRANCH  39  40
ENDBRANCH  32  34
ENDBRANCH  31  32
ENDBRANCH  30  31
ENDBRANCH  29  30
ENDBRANCH   1  29
TORSDOF 17
ENDMDL
MODEL 3
REMARK VINA RESULT:     -11.5      4.996      9.649
REMARK SMILES CCOc1cnc(C(=O)c2[nH]c3cc(Cl)ccc3c2CC(=O)OCCOC(=O)c2ccc(-c3c4nc(c(-c5c(F)cccc5F)c5ccc([nH]5)c(-c5c(F)cccc5F)c5nc(c(-c6c(F)cccc6F)c6ccc3[nH]6)C=C5)C=C4)cc2)cc1CC
REMARK SMILES IDX 23 1 21 2 22 3 20 4 19 5 10 6 11 7 12 8 18 10 13 11 17 12
REMARK SMILES IDX 14 13 16 14 15 15 8 16 9 17 7 18 4 19 5 20 84 21 6 22 83 23
REMARK SMILES IDX 3 24 2 25 1 26 85 27 86 28 24 29 25 30 26 31 27 32 28 33
REMARK SMILES IDX 29 34 30 35 82 36 31 37 81 38 32 39 33 40 34 41 75 42 35 43
REMARK SMILES IDX 80 44 74 45 76 46 36 47 79 48 73 49 72 50 37 52 63 53 46 54
REMARK SMILES IDX 62 55 47 56 50 57 61 58 77 59 48 60 49 61 60 63 78 64 51 65
REMARK SMILES IDX 38 66 39 67 44 68 40 69 41 70 43 71 45 72 42 73 64 74 65 75
REMARK SMILES IDX 70 76 66 77 67 78 69 79 71 80 68 81 52 82 53 83 58 84 54 85
REMARK SMILES IDX 55 86 57 87 59 88 56 89
REMARK H PARENT 11 9 76 51 50 62
REMARK Flexibility Score: inf
ROOT
ATOM      1  O   UNL A   1      38.116  21.204  25.063  1.00  0.00    -0.462 OA
ENDROOT
BRANCH   1   2
ATOM      2  C   UNL A   1      36.896  21.725  25.342  1.00  0.00     0.310 C 
ATOM      3  O   UNL A   1      36.688  22.541  26.241  1.00  0.00    -0.252 OA
BRANCH   2   4
ATOM      4  C   UNL A   1      35.793  21.351  24.375  1.00  0.00     0.161 C 
BRANCH   4   5
ATOM      5  C   UNL A   1      34.533  20.732  24.897  1.00  0.00     0.000 A 
ATOM      6  C   UNL A   1      33.545  21.313  25.691  1.00  0.00     0.093 A 
ATOM      7  N   UNL A   1      32.590  20.349  25.915  1.00  0.00    -0.351 N 
ATOM      8  C   UNL A   1      33.049  19.117  25.531  1.00  0.00     0.048 A 
ATOM      9  H   UNL A   1      31.700  20.520  26.299  1.00  0.00     0.167 HD
ATOM     10  C   UNL A   1      34.222  19.330  24.811  1.00  0.00     0.004 A 
ATOM     11  C   UNL A   1      32.513  17.846  25.765  1.00  0.00     0.047 A 
ATOM     12  C   UNL A   1      34.867  18.211  24.241  1.00  0.00     0.012 A 
ATOM     13  C   UNL A   1      33.197  16.756  25.224  1.00  0.00     0.043 A 
ATOM     14  C   UNL A   1      34.346  16.928  24.459  1.00  0.00     0.021 A 
ATOM     15  Cl  UNL A   1      32.606  15.165  25.522  1.00  0.00    -0.084 Cl
BRANCH   6  16
ATOM     16  C   UNL A   1      33.366  22.640  26.270  1.00  0.00     0.227 C 
ATOM     17  O   UNL A   1      33.470  22.817  27.483  1.00  0.00    -0.285 OA
BRANCH  16  18
ATOM     18  C   UNL A   1      33.411  23.842  25.348  1.00  0.00     0.113 A 
ATOM     19  C   UNL A   1      32.725  26.173  24.049  1.00  0.00     0.140 A 
ATOM     20  C   UNL A   1      32.439  24.911  23.539  1.00  0.00     0.158 A 
ATOM     21  C   UNL A   1      33.398  26.258  25.268  1.00  0.00    -0.002 A 
ATOM     22  N   UNL A   1      32.747  23.749  24.164  1.00  0.00    -0.249 NA
ATOM     23  C   UNL A   1      33.818  25.066  25.878  1.00  0.00     0.040 A 
BRANCH  19  24
ATOM     24  O   UNL A   1      32.172  27.279  23.469  1.00  0.00    -0.492 OA
BRANCH  24  25
ATOM     25  C   UNL A   1      30.754  27.362  23.654  1.00  0.00     0.226 C 
ATOM     26  C   UNL A   1      30.334  28.822  23.675  1.00  0.00     0.049 C 
ENDBRANCH  24  25
ENDBRANCH  19  24
BRANCH  21  27
ATOM     27  C   UNL A   1      33.566  27.560  26.013  1.00  0.00     0.036 C 
ATOM     28  C   UNL A   1      32.439  27.797  27.015  1.00  0.00     0.009 C 
ENDBRANCH  21  27
ENDBRANCH  16  18
ENDBRANCH   6  16
ENDBRANCH   4   5
ENDBRANCH   2   4
ENDBRANCH   1   2
BRANCH   1  29
ATOM     29  C   UNL A   1      38.185  19.766  24.937  1.00  0.00     0.274 C 
BRANCH  29  30
ATOM     30  C   UNL A   1      39.306  19.164  25.803  1.00  0.00     0.275 C 
BRANCH  30  31
ATOM     31  O   UNL A   1      40.630  19.366  25.256  1.00  0.00    -0.458 OA
BRANCH  31  32
ATOM     32  C   UNL A   1      41.578  19.494  26.205  1.00  0.00     0.338 C 
ATOM     33  O   UNL A   1      42.326  18.618  26.604  1.00  0.00    -0.246 OA
BRANCH  32  34
ATOM     34  C   UNL A   1      41.779  20.858  26.685  1.00  0.00     0.060 A 
ATOM     35  C   UNL A   1      41.767  21.867  25.721  1.00  0.00     0.016 A 
ATOM     36  C   UNL A   1      42.246  21.106  27.975  1.00  0.00     0.016 A 
ATOM     37  C   UNL A   1      42.276  23.120  26.025  1.00  0.00     0.010 A 
ATOM     38  C   UNL A   1      42.697  22.389  28.301  1.00  0.00     0.010 A 
ATOM     39  C   UNL A   1      42.730  23.397  27.322  1.00  0.00    -0.014 A 
BRANCH  39  40
ATOM     40  C   UNL A   1      43.142  24.783  27.639  1.00  0.00     0.031 A 
ATOM     41  C   UNL A   1      44.551  25.253  27.453  1.00  0.00     0.074 A 
ATOM     42  C   UNL A   1      42.190  25.639  28.055  1.00  0.00     0.049 A 
ATOM     43  N   UNL A   1      45.044  26.453  27.632  1.00  0.00    -0.248 NA
ATOM     44  C   UNL A   1      45.539  24.260  27.005  1.00  0.00     0.031 C 
ATOM     45  C   UNL A   1      40.781  25.290  28.267  1.00  0.00     0.029 A 
ATOM     46  N   UNL A   1      42.254  26.971  28.363  1.00  0.00    -0.354 N 
ATOM     47  C   UNL A   1      46.389  26.367  27.305  1.00  0.00     0.074 A 
ATOM     48  C   UNL A   1      46.649  24.987  26.958  1.00  0.00     0.031 C 
ATOM     49  C   UNL A   1      40.115  26.383  28.659  1.00  0.00     0.029 A 
ATOM     50  C   UNL A   1      41.054  27.492  28.771  1.00  0.00     0.049 A 
ATOM     51  H   UNL A   1      43.081  27.501  28.299  1.00  0.00     0.167 HD
ATOM     52  C   UNL A   1      47.311  27.357  27.276  1.00  0.00     0.037 A 
ATOM     53  C   UNL A   1      40.744  28.722  29.216  1.00  0.00     0.037 A 
ATOM     54  C   UNL A   1      47.056  28.726  27.634  1.00  0.00     0.049 A 
ATOM     55  C   UNL A   1      41.813  29.769  29.277  1.00  0.00     0.074 A 
ATOM     56  C   UNL A   1      47.922  29.805  27.596  1.00  0.00     0.029 A 
ATOM     57  N   UNL A   1      45.845  29.200  28.115  1.00  0.00    -0.354 N 
ATOM     58  N   UNL A   1      43.066  29.686  28.902  1.00  0.00    -0.248 NA
ATOM     59  C   UNL A   1      41.429  31.072  29.831  1.00  0.00     0.031 C 
ATOM     60  C   UNL A   1      47.244  30.928  28.087  1.00  0.00     0.029 A 
ATOM     61  C   UNL A   1      45.952  30.549  28.413  1.00  0.00     0.049 A 
ATOM     62  H   UNL A   1      45.031  28.659  28.227  1.00  0.00     0.167 HD
ATOM     63  C   UNL A   1      43.622  30.927  29.169  1.00  0.00     0.074 A 
ATOM     64  C   UNL A   1      42.564  31.750  29.722  1.00  0.00     0.031 C 
ATOM     65  C   UNL A   1      44.896  31.347  28.975  1.00  0.00     0.037 A 
BRANCH  52  66
ATOM     66  C   UNL A   1      48.686  27.006  26.805  1.00  0.00     0.057 A 
ATOM     67  C   UNL A   1      49.659  26.575  27.713  1.00  0.00     0.134 A 
ATOM     68  C   UNL A   1      49.025  27.032  25.450  1.00  0.00     0.134 A 
ATOM     69  F   UNL A   1      49.378  26.516  29.023  1.00  0.00    -0.206 F 
ATOM     70  C   UNL A   1      50.935  26.200  27.292  1.00  0.00     0.040 A 
ATOM     71  C   UNL A   1      50.295  26.648  25.014  1.00  0.00     0.040 A 
ATOM     72  F   UNL A   1      48.129  27.423  24.533  1.00  0.00    -0.206 F 
ATOM     73  C   UNL A   1      51.255  26.233  25.936  1.00  0.00     0.006 A 
ENDBRANCH  52  66
BRANCH  53  74
ATOM     74  C   UNL A   1      39.363  28.999  29.672  1.00  0.00     0.057 A 
ATOM     75  C   UNL A   1      38.399  29.514  28.802  1.00  0.00     0.134 A 
ATOM     76  C   UNL A   1      38.969  28.706  30.983  1.00  0.00     0.134 A 
ATOM     77  F   UNL A   1      38.726  29.824  27.539  1.00  0.00    -0.206 F 
ATOM     78  C   UNL A   1      37.086  29.731  29.221  1.00  0.00     0.040 A 
ATOM     79  C   UNL A   1      37.655  28.898  31.410  1.00  0.00     0.040 A 
ATOM     80  F   UNL A   1      39.851  28.201  31.859  1.00  0.00    -0.206 F 
ATOM     81  C   UNL A   1      36.710  29.414  30.526  1.00  0.00     0.006 A 
ENDBRANCH  53  74
BRANCH  65  82
ATOM     82  C   UNL A   1      45.209  32.754  29.374  1.00  0.00     0.057 A 
ATOM     83  C   UNL A   1      44.991  33.823  28.497  1.00  0.00     0.134 A 
ATOM     84  C   UNL A   1      45.719  33.044  30.644  1.00  0.00     0.134 A 
ATOM     85  F   UNL A   1      44.520  33.602  27.261  1.00  0.00    -0.206 F 
ATOM     86  C   UNL A   1      45.286  35.135  28.865  1.00  0.00     0.040 A 
ATOM     87  C   UNL A   1      46.001  34.355  31.030  1.00  0.00     0.040 A 
ATOM     88  F   UNL A   1      45.945  32.062  31.529  1.00  0.00    -0.206 F 
ATOM     89  C   UNL A   1      45.790  35.404  30.136  1.00  0.00     0.006 A 
ENDBRANCH  65  82
ENDBRANCH  39  40
ENDBRANCH  32  34
ENDBRANCH  31  32
ENDBRANCH  30  31
ENDBRANCH  29  30
ENDBRANCH   1  29
TORSDOF 17
ENDMDL
