MODEL 1
REMARK VINA RESULT:     -11.2      0.000      0.000
REMARK SMILES CCCCCCNC(=O)Oc1cccc(-c2ccc([C@@H](C)C(=O)OCCOC(=O)c3ccc(-c4c5nc(c(-c6c(F)cccc6F)c6ccc([nH]6)c(-c6c(F)cccc6F)c6nc(c(-c7c(F)cccc7F)c7ccc4[nH]7)C=C6)C=C5)cc3)cc2C)c1
REMARK SMILES IDX 20 1 21 2 19 3 16 4 17 5 85 6 18 7 84 8 86 9 15 10 11 11
REMARK SMILES IDX 12 12 87 13 13 14 14 15 10 16 8 17 7 18 9 20 6 21 5 22 4 23
REMARK SMILES IDX 3 24 2 25 1 26 22 27 23 28 24 29 25 30 26 31 27 32 28 33
REMARK SMILES IDX 29 34 30 35 31 36 83 37 32 38 82 39 33 40 34 41 35 42 76 43
REMARK SMILES IDX 36 44 81 45 75 46 77 47 37 48 80 49 74 50 73 51 38 53 64 54
REMARK SMILES IDX 47 55 63 56 48 57 51 58 62 59 78 60 49 61 50 62 61 64 79 65
REMARK SMILES IDX 52 66 39 67 40 68 45 69 41 70 42 71 44 72 46 73 43 74 65 75
REMARK SMILES IDX 66 76 71 77 67 78 68 79 70 80 72 81 69 82 53 83 54 84 59 85
REMARK SMILES IDX 55 86 56 87 58 88 60 89 57 90
REMARK H PARENT 7 19 77 52 51 63
REMARK Flexibility Score: inf
ROOT
ATOM      1  C   UNL A   1      34.966  32.504  28.548  1.00  0.00     0.126 C 
ATOM      2  C   UNL A   1      36.076  33.242  27.801  1.00  0.00     0.025 C 
ENDROOT
BRANCH   1   3
ATOM      3  C   UNL A   1      34.530  31.235  27.833  1.00  0.00    -0.034 A 
ATOM      4  C   UNL A   1      33.605  28.863  26.546  1.00  0.00    -0.015 A 
ATOM      5  C   UNL A   1      34.825  28.899  27.249  1.00  0.00     0.009 A 
ATOM      6  C   UNL A   1      32.845  30.050  26.481  1.00  0.00    -0.043 A 
ATOM      7  C   UNL A   1      35.277  30.056  27.887  1.00  0.00     0.005 A 
ATOM      8  C   UNL A   1      33.324  31.216  27.114  1.00  0.00     0.008 A 
ATOM      9  C   UNL A   1      31.540  30.160  25.735  1.00  0.00     0.045 C 
BRANCH   4  10
ATOM     10  C   UNL A   1      33.151  27.576  25.981  1.00  0.00    -0.014 A 
ATOM     11  C   UNL A   1      32.008  25.444  26.152  1.00  0.00     0.133 A 
ATOM     12  C   UNL A   1      32.425  25.083  24.873  1.00  0.00     0.047 A 
ATOM     13  C   UNL A   1      32.352  26.679  26.708  1.00  0.00     0.056 A 
ATOM     14  C   UNL A   1      33.189  25.975  24.128  1.00  0.00     0.004 A 
ATOM     15  C   UNL A   1      33.554  27.204  24.682  1.00  0.00     0.009 A 
BRANCH  11  16
ATOM     16  O   UNL A   1      31.375  24.438  26.904  1.00  0.00    -0.410 OA
BRANCH  16  17
ATOM     17  C   UNL A   1      31.231  23.167  26.374  1.00  0.00     0.412 C 
ATOM     18  N   UNL A   1      32.105  22.262  26.916  1.00  0.00    -0.321 N 
ATOM     19  H   UNL A   1      32.054  21.341  26.573  1.00  0.00     0.167 HD
ATOM     20  O   UNL A   1      30.436  22.833  25.505  1.00  0.00    -0.224 OA
BRANCH  18  21
ATOM     21  C   UNL A   1      33.097  22.519  27.943  1.00  0.00     0.119 C 
BRANCH  21  22
ATOM     22  C   UNL A   1      34.522  22.308  27.431  1.00  0.00     0.021 C 
BRANCH  22  23
ATOM     23  C   UNL A   1      34.812  22.921  26.055  1.00  0.00     0.002 C 
BRANCH  23  24
ATOM     24  C   UNL A   1      36.166  23.626  25.916  1.00  0.00    -0.000 C 
BRANCH  24  25
ATOM     25  C   UNL A   1      36.775  23.613  24.513  1.00  0.00    -0.003 C 
ATOM     26  C   UNL A   1      36.817  22.227  23.888  1.00  0.00     0.004 C 
ENDBRANCH  24  25
ENDBRANCH  23  24
ENDBRANCH  22  23
ENDBRANCH  21  22
ENDBRANCH  18  21
ENDBRANCH  16  17
ENDBRANCH  11  16
ENDBRANCH   4  10
ENDBRANCH   1   3
BRANCH   1  27
ATOM     27  C   UNL A   1      33.860  33.479  28.930  1.00  0.00     0.313 C 
ATOM     28  O   UNL A   1      33.208  34.085  28.084  1.00  0.00    -0.252 OA
BRANCH  27  29
ATOM     29  O   UNL A   1      33.642  33.565  30.268  1.00  0.00    -0.462 OA
BRANCH  29  30
ATOM     30  C   UNL A   1      34.336  34.612  30.973  1.00  0.00     0.274 C 
BRANCH  30  31
ATOM     31  C   UNL A   1      34.916  34.106  32.295  1.00  0.00     0.275 C 
BRANCH  31  32
ATOM     32  O   UNL A   1      35.134  32.683  32.258  1.00  0.00    -0.458 OA
BRANCH  32  33
ATOM     33  C   UNL A   1      36.148  32.244  33.036  1.00  0.00     0.338 C 
ATOM     34  O   UNL A   1      36.249  32.331  34.246  1.00  0.00    -0.246 OA
BRANCH  33  35
ATOM     35  C   UNL A   1      37.123  31.506  32.220  1.00  0.00     0.060 A 
ATOM     36  C   UNL A   1      38.226  30.954  32.872  1.00  0.00     0.016 A 
ATOM     37  C   UNL A   1      37.030  31.470  30.829  1.00  0.00     0.016 A 
ATOM     38  C   UNL A   1      39.268  30.398  32.138  1.00  0.00     0.010 A 
ATOM     39  C   UNL A   1      38.072  30.898  30.089  1.00  0.00     0.010 A 
ATOM     40  C   UNL A   1      39.211  30.387  30.739  1.00  0.00    -0.014 A 
BRANCH  40  41
ATOM     41  C   UNL A   1      40.392  29.919  29.975  1.00  0.00     0.031 A 
ATOM     42  C   UNL A   1      41.546  30.852  29.742  1.00  0.00     0.074 A 
ATOM     43  C   UNL A   1      40.457  28.643  29.549  1.00  0.00     0.049 A 
ATOM     44  N   UNL A   1      42.663  30.642  29.092  1.00  0.00    -0.248 NA
ATOM     45  C   UNL A   1      41.430  32.203  30.316  1.00  0.00     0.031 C 
ATOM     46  C   UNL A   1      39.420  27.632  29.746  1.00  0.00     0.029 A 
ATOM     47  N   UNL A   1      41.447  27.981  28.867  1.00  0.00    -0.354 N 
ATOM     48  C   UNL A   1      43.370  31.836  29.158  1.00  0.00     0.074 A 
ATOM     49  C   UNL A   1      42.553  32.772  29.900  1.00  0.00     0.031 C 
ATOM     50  C   UNL A   1      39.829  26.474  29.202  1.00  0.00     0.029 A 
ATOM     51  C   UNL A   1      41.140  26.672  28.589  1.00  0.00     0.049 A 
ATOM     52  H   UNL A   1      42.295  28.404  28.600  1.00  0.00     0.167 HD
ATOM     53  C   UNL A   1      44.593  32.121  28.652  1.00  0.00     0.037 A 
ATOM     54  C   UNL A   1      41.832  25.742  27.904  1.00  0.00     0.037 A 
ATOM     55  C   UNL A   1      45.421  31.182  27.943  1.00  0.00     0.049 A 
ATOM     56  C   UNL A   1      43.176  26.096  27.330  1.00  0.00     0.074 A 
ATOM     57  C   UNL A   1      46.688  31.373  27.419  1.00  0.00     0.029 A 
ATOM     58  N   UNL A   1      45.066  29.872  27.663  1.00  0.00    -0.354 N 
ATOM     59  N   UNL A   1      43.839  27.225  27.411  1.00  0.00    -0.248 NA
ATOM     60  C   UNL A   1      43.868  25.047  26.568  1.00  0.00     0.031 C 
ATOM     61  C   UNL A   1      47.086  30.188  26.792  1.00  0.00     0.029 A 
ATOM     62  C   UNL A   1      46.081  29.249  26.957  1.00  0.00     0.049 A 
ATOM     63  H   UNL A   1      44.217  29.449  27.926  1.00  0.00     0.167 HD
ATOM     64  C   UNL A   1      45.028  27.018  26.725  1.00  0.00     0.074 A 
ATOM     65  C   UNL A   1      45.007  25.649  26.253  1.00  0.00     0.031 C 
ATOM     66  C   UNL A   1      46.044  27.885  26.500  1.00  0.00     0.037 A 
BRANCH  53  67
ATOM     67  C   UNL A   1      45.107  33.518  28.827  1.00  0.00     0.057 A 
ATOM     68  C   UNL A   1      44.799  34.540  27.921  1.00  0.00     0.134 A 
ATOM     69  C   UNL A   1      45.876  33.855  29.948  1.00  0.00     0.134 A 
ATOM     70  F   UNL A   1      44.077  34.278  26.821  1.00  0.00    -0.206 F 
ATOM     71  C   UNL A   1      45.247  35.848  28.118  1.00  0.00     0.040 A 
ATOM     72  C   UNL A   1      46.313  35.163  30.167  1.00  0.00     0.040 A 
ATOM     73  F   UNL A   1      46.201  32.922  30.856  1.00  0.00    -0.206 F 
ATOM     74  C   UNL A   1      46.000  36.162  29.247  1.00  0.00     0.006 A 
ENDBRANCH  53  67
BRANCH  54  75
ATOM     75  C   UNL A   1      41.259  24.389  27.696  1.00  0.00     0.057 A 
ATOM     76  C   UNL A   1      41.740  23.279  28.399  1.00  0.00     0.134 A 
ATOM     77  C   UNL A   1      40.240  24.170  26.760  1.00  0.00     0.134 A 
ATOM     78  F   UNL A   1      42.733  23.423  29.289  1.00  0.00    -0.206 F 
ATOM     79  C   UNL A   1      41.242  21.996  28.167  1.00  0.00     0.040 A 
ATOM     80  C   UNL A   1      39.716  22.897  26.536  1.00  0.00     0.040 A 
ATOM     81  F   UNL A   1      39.738  25.193  26.053  1.00  0.00    -0.206 F 
ATOM     82  C   UNL A   1      40.224  21.803  27.235  1.00  0.00     0.006 A 
ENDBRANCH  54  75
BRANCH  66  83
ATOM     83  C   UNL A   1      47.222  27.369  25.728  1.00  0.00     0.057 A 
ATOM     84  C   UNL A   1      48.264  26.676  26.355  1.00  0.00     0.134 A 
ATOM     85  C   UNL A   1      47.299  27.542  24.341  1.00  0.00     0.134 A 
ATOM     86  F   UNL A   1      48.253  26.489  27.684  1.00  0.00    -0.206 F 
ATOM     87  C   UNL A   1      49.355  26.191  25.632  1.00  0.00     0.040 A 
ATOM     88  C   UNL A   1      48.374  27.044  23.603  1.00  0.00     0.040 A 
ATOM     89  F   UNL A   1      46.329  28.191  23.680  1.00  0.00    -0.206 F 
ATOM     90  C   UNL A   1      49.409  26.371  24.251  1.00  0.00     0.006 A 
ENDBRANCH  66  83
ENDBRANCH  40  41
ENDBRANCH  33  35
ENDBRANCH  32  33
ENDBRANCH  31  32
ENDBRANCH  30  31
ENDBRANCH  29  30
ENDBRANCH  27  29
ENDBRANCH   1  27
TORSDOF 20
ENDMDL
MODEL 2
REMARK VINA RESULT:     -11.0      4.742     10.039
REMARK SMILES CCCCCCNC(=O)Oc1cccc(-c2ccc([C@@H](C)C(=O)OCCOC(=O)c3ccc(-c4c5nc(c(-c6c(F)cccc6F)c6ccc([nH]6)c(-c6c(F)cccc6F)c6nc(c(-c7c(F)cccc7F)c7ccc4[nH]7)C=C6)C=C5)cc3)cc2C)c1
REMARK SMILES IDX 20 1 21 2 19 3 16 4 17 5 85 6 18 7 84 8 86 9 15 10 11 11
REMARK SMILES IDX 12 12 87 13 13 14 14 15 10 16 8 17 7 18 9 20 6 21 5 22 4 23
REMARK SMILES IDX 3 24 2 25 1 26 22 27 23 28 24 29 25 30 26 31 27 32 28 33
REMARK SMILES IDX 29 34 30 35 31 36 83 37 32 38 82 39 33 40 34 41 35 42 76 43
REMARK SMILES IDX 36 44 81 45 75 46 77 47 37 48 80 49 74 50 73 51 38 53 64 54
REMARK SMILES IDX 47 55 63 56 48 57 51 58 62 59 78 60 49 61 50 62 61 64 79 65
REMARK SMILES IDX 52 66 39 67 40 68 45 69 41 70 42 71 44 72 46 73 43 74 65 75
REMARK SMILES IDX 66 76 71 77 67 78 68 79 70 80 72 81 69 82 53 83 54 84 59 85
REMARK SMILES IDX 55 86 56 87 58 88 60 89 57 90
REMARK H PARENT 7 19 77 52 51 63
REMARK Flexibility Score: inf
ROOT
ATOM      1  C   UNL A   1      41.680  21.077  27.430  1.00  0.00     0.126 C 
ATOM      2  C   UNL A   1      41.845  19.558  27.445  1.00  0.00     0.025 C 
ENDROOT
BRANCH   1   3
ATOM      3  C   UNL A   1      40.335  21.510  26.868  1.00  0.00    -0.034 A 
ATOM      4  C   UNL A   1      37.847  22.283  25.708  1.00  0.00    -0.015 A 
ATOM      5  C   UNL A   1      38.621  23.179  26.470  1.00  0.00     0.009 A 
ATOM      6  C   UNL A   1      38.332  20.969  25.540  1.00  0.00    -0.043 A 
ATOM      7  C   UNL A   1      39.844  22.807  27.033  1.00  0.00     0.005 A 
ATOM      8  C   UNL A   1      39.559  20.602  26.131  1.00  0.00     0.008 A 
ATOM      9  C   UNL A   1      37.590  19.901  24.777  1.00  0.00     0.045 C 
BRANCH   4  10
ATOM     10  C   UNL A   1      36.613  22.782  25.066  1.00  0.00    -0.014 A 
ATOM     11  C   UNL A   1      34.288  23.467  25.136  1.00  0.00     0.133 A 
ATOM     12  C   UNL A   1      34.259  23.617  23.750  1.00  0.00     0.047 A 
ATOM     13  C   UNL A   1      35.449  23.064  25.799  1.00  0.00     0.056 A 
ATOM     14  C   UNL A   1      35.413  23.372  23.014  1.00  0.00     0.004 A 
ATOM     15  C   UNL A   1      36.574  22.951  23.667  1.00  0.00     0.009 A 
BRANCH  11  16
ATOM     16  O   UNL A   1      33.052  23.578  25.796  1.00  0.00    -0.410 OA
BRANCH  16  17
ATOM     17  C   UNL A   1      32.637  22.577  26.658  1.00  0.00     0.412 C 
ATOM     18  N   UNL A   1      32.033  21.533  26.008  1.00  0.00    -0.321 N 
ATOM     19  H   UNL A   1      31.709  20.792  26.570  1.00  0.00     0.167 HD
ATOM     20  O   UNL A   1      32.756  22.576  27.876  1.00  0.00    -0.224 OA
BRANCH  18  21
ATOM     21  C   UNL A   1      31.820  21.404  24.580  1.00  0.00     0.119 C 
BRANCH  21  22
ATOM     22  C   UNL A   1      32.354  20.079  24.035  1.00  0.00     0.021 C 
BRANCH  22  23
ATOM     23  C   UNL A   1      33.670  19.605  24.665  1.00  0.00     0.002 C 
BRANCH  23  24
ATOM     24  C   UNL A   1      33.633  18.216  25.311  1.00  0.00    -0.000 C 
BRANCH  24  25
ATOM     25  C   UNL A   1      34.431  17.130  24.586  1.00  0.00    -0.003 C 
ATOM     26  C   UNL A   1      34.027  16.958  23.129  1.00  0.00     0.004 C 
ENDBRANCH  24  25
ENDBRANCH  23  24
ENDBRANCH  22  23
ENDBRANCH  21  22
ENDBRANCH  18  21
ENDBRANCH  16  17
ENDBRANCH  11  16
ENDBRANCH   4  10
ENDBRANCH   1   3
BRANCH   1  27
ATOM     27  C   UNL A   1      42.912  21.727  26.811  1.00  0.00     0.313 C 
ATOM     28  O   UNL A   1      43.719  22.361  27.485  1.00  0.00    -0.252 OA
BRANCH  27  29
ATOM     29  O   UNL A   1      43.047  21.493  25.480  1.00  0.00    -0.462 OA
BRANCH  29  30
ATOM     30  C   UNL A   1      44.375  21.597  24.933  1.00  0.00     0.274 C 
BRANCH  30  31
ATOM     31  C   UNL A   1      44.506  22.808  24.008  1.00  0.00     0.275 C 
BRANCH  31  32
ATOM     32  O   UNL A   1      43.752  23.929  24.507  1.00  0.00    -0.458 OA
BRANCH  32  33
ATOM     33  C   UNL A   1      44.500  24.938  25.005  1.00  0.00     0.338 C 
ATOM     34  O   UNL A   1      45.635  25.249  24.690  1.00  0.00    -0.246 OA
BRANCH  33  35
ATOM     35  C   UNL A   1      43.703  25.737  25.946  1.00  0.00     0.060 A 
ATOM     36  C   UNL A   1      44.199  26.988  26.317  1.00  0.00     0.016 A 
ATOM     37  C   UNL A   1      42.562  25.217  26.558  1.00  0.00     0.016 A 
ATOM     38  C   UNL A   1      43.585  27.713  27.331  1.00  0.00     0.010 A 
ATOM     39  C   UNL A   1      41.935  25.953  27.570  1.00  0.00     0.010 A 
ATOM     40  C   UNL A   1      42.462  27.191  27.983  1.00  0.00    -0.014 A 
BRANCH  40  41
ATOM     41  C   UNL A   1      41.909  27.915  29.154  1.00  0.00     0.031 A 
ATOM     42  C   UNL A   1      42.623  27.849  30.475  1.00  0.00     0.074 A 
ATOM     43  C   UNL A   1      40.810  28.679  29.017  1.00  0.00     0.049 A 
ATOM     44  N   UNL A   1      42.300  28.398  31.619  1.00  0.00    -0.248 NA
ATOM     45  C   UNL A   1      43.865  27.060  30.517  1.00  0.00     0.031 C 
ATOM     46  C   UNL A   1      40.052  28.855  27.780  1.00  0.00     0.029 A 
ATOM     47  N   UNL A   1      40.147  29.458  29.931  1.00  0.00    -0.354 N 
ATOM     48  C   UNL A   1      43.282  28.004  32.518  1.00  0.00     0.074 A 
ATOM     49  C   UNL A   1      44.207  27.159  31.794  1.00  0.00     0.031 C 
ATOM     50  C   UNL A   1      39.028  29.694  28.010  1.00  0.00     0.029 A 
ATOM     51  C   UNL A   1      39.040  30.087  29.416  1.00  0.00     0.049 A 
ATOM     52  H   UNL A   1      40.435  29.557  30.867  1.00  0.00     0.167 HD
ATOM     53  C   UNL A   1      43.405  28.325  33.828  1.00  0.00     0.037 A 
ATOM     54  C   UNL A   1      38.129  30.876  30.016  1.00  0.00     0.037 A 
ATOM     55  C   UNL A   1      42.506  29.193  34.542  1.00  0.00     0.049 A 
ATOM     56  C   UNL A   1      38.276  31.194  31.478  1.00  0.00     0.074 A 
ATOM     57  C   UNL A   1      42.567  29.600  35.863  1.00  0.00     0.029 A 
ATOM     58  N   UNL A   1      41.384  29.791  33.990  1.00  0.00    -0.354 N 
ATOM     59  N   UNL A   1      39.217  30.825  32.314  1.00  0.00    -0.248 NA
ATOM     60  C   UNL A   1      37.234  32.037  32.082  1.00  0.00     0.031 C 
ATOM     61  C   UNL A   1      41.463  30.418  36.122  1.00  0.00     0.029 A 
ATOM     62  C   UNL A   1      40.734  30.549  34.951  1.00  0.00     0.049 A 
ATOM     63  H   UNL A   1      41.092  29.692  33.056  1.00  0.00     0.167 HD
ATOM     64  C   UNL A   1      38.888  31.401  33.534  1.00  0.00     0.074 A 
ATOM     65  C   UNL A   1      37.674  32.162  33.325  1.00  0.00     0.031 C 
ATOM     66  C   UNL A   1      39.530  31.304  34.723  1.00  0.00     0.037 A 
BRANCH  53  67
ATOM     67  C   UNL A   1      44.545  27.718  34.587  1.00  0.00     0.057 A 
ATOM     68  C   UNL A   1      44.434  26.476  35.223  1.00  0.00     0.134 A 
ATOM     69  C   UNL A   1      45.789  28.362  34.634  1.00  0.00     0.134 A 
ATOM     70  F   UNL A   1      43.266  25.816  35.225  1.00  0.00    -0.206 F 
ATOM     71  C   UNL A   1      45.516  25.899  35.891  1.00  0.00     0.040 A 
ATOM     72  C   UNL A   1      46.884  27.787  35.281  1.00  0.00     0.040 A 
ATOM     73  F   UNL A   1      45.961  29.552  34.040  1.00  0.00    -0.206 F 
ATOM     74  C   UNL A   1      46.747  26.553  35.914  1.00  0.00     0.006 A 
ENDBRANCH  53  67
BRANCH  54  75
ATOM     75  C   UNL A   1      36.976  31.405  29.244  1.00  0.00     0.057 A 
ATOM     76  C   UNL A   1      35.870  30.601  28.946  1.00  0.00     0.134 A 
ATOM     77  C   UNL A   1      36.973  32.717  28.755  1.00  0.00     0.134 A 
ATOM     78  F   UNL A   1      35.829  29.328  29.365  1.00  0.00    -0.206 F 
ATOM     79  C   UNL A   1      34.810  31.078  28.173  1.00  0.00     0.040 A 
ATOM     80  C   UNL A   1      35.909  33.214  28.003  1.00  0.00     0.040 A 
ATOM     81  F   UNL A   1      38.006  33.535  29.006  1.00  0.00    -0.206 F 
ATOM     82  C   UNL A   1      34.826  32.389  27.702  1.00  0.00     0.006 A 
ENDBRANCH  54  75
BRANCH  66  83
ATOM     83  C   UNL A   1      38.941  32.055  35.879  1.00  0.00     0.057 A 
ATOM     84  C   UNL A   1      38.103  31.430  36.810  1.00  0.00     0.134 A 
ATOM     85  C   UNL A   1      39.240  33.408  36.080  1.00  0.00     0.134 A 
ATOM     86  F   UNL A   1      37.770  30.138  36.665  1.00  0.00    -0.206 F 
ATOM     87  C   UNL A   1      37.563  32.131  37.889  1.00  0.00     0.040 A 
ATOM     88  C   UNL A   1      38.723  34.115  37.167  1.00  0.00     0.040 A 
ATOM     89  F   UNL A   1      40.043  34.062  35.228  1.00  0.00    -0.206 F 
ATOM     90  C   UNL A   1      37.877  33.476  38.072  1.00  0.00     0.006 A 
ENDBRANCH  66  83
ENDBRANCH  40  41
ENDBRANCH  33  35
ENDBRANCH  32  33
ENDBRANCH  31  32
ENDBRANCH  30  31
ENDBRANCH  29  30
ENDBRANCH  27  29
ENDBRANCH   1  27
TORSDOF 20
ENDMDL
MODEL 3
REMARK VINA RESULT:     -11.0      4.642     10.179
REMARK SMILES CCCCCCNC(=O)Oc1cccc(-c2ccc([C@@H](C)C(=O)OCCOC(=O)c3ccc(-c4c5nc(c(-c6c(F)cccc6F)c6ccc([nH]6)c(-c6c(F)cccc6F)c6nc(c(-c7c(F)cccc7F)c7ccc4[nH]7)C=C6)C=C5)cc3)cc2C)c1
REMARK SMILES IDX 20 1 21 2 19 3 16 4 17 5 85 6 18 7 84 8 86 9 15 10 11 11
REMARK SMILES IDX 12 12 87 13 13 14 14 15 10 16 8 17 7 18 9 20 6 21 5 22 4 23
REMARK SMILES IDX 3 24 2 25 1 26 22 27 23 28 24 29 25 30 26 31 27 32 28 33
REMARK SMILES IDX 29 34 30 35 31 36 83 37 32 38 82 39 33 40 34 41 35 42 76 43
REMARK SMILES IDX 36 44 81 45 75 46 77 47 37 48 80 49 74 50 73 51 38 53 64 54
REMARK SMILES IDX 47 55 63 56 48 57 51 58 62 59 78 60 49 61 50 62 61 64 79 65
REMARK SMILES IDX 52 66 39 67 40 68 45 69 41 70 42 71 44 72 46 73 43 74 65 75
REMARK SMILES IDX 66 76 71 77 67 78 68 79 70 80 72 81 69 82 53 83 54 84 59 85
REMARK SMILES IDX 55 86 56 87 58 88 60 89 57 90
REMARK H PARENT 7 19 77 52 51 63
REMARK Flexibility Score: inf
ROOT
ATOM      1  C   UNL A   1      41.029  20.310  26.706  1.00  0.00     0.126 C 
ATOM      2  C   UNL A   1      41.129  18.918  26.085  1.00  0.00     0.025 C 
ENDROOT
BRANCH   1   3
ATOM      3  C   UNL A   1      39.825  21.088  26.198  1.00  0.00    -0.034 A 
ATOM      4  C   UNL A   1      37.542  22.577  25.356  1.00  0.00    -0.015 A 
ATOM      5  C   UNL A   1      37.741  21.239  24.965  1.00  0.00     0.009 A 
ATOM      6  C   UNL A   1      38.520  23.178  26.176  1.00  0.00    -0.043 A 
ATOM      7  C   UNL A   1      38.853  20.504  25.382  1.00  0.00     0.005 A 
ATOM      8  C   UNL A   1      39.648  22.429  26.573  1.00  0.00     0.008 A 
ATOM      9  C   UNL A   1      38.449  24.610  26.640  1.00  0.00     0.045 C 
BRANCH   4  10
ATOM     10  C   UNL A   1      36.293  23.254  24.953  1.00  0.00    -0.014 A 
ATOM     11  C   UNL A   1      34.290  24.530  25.448  1.00  0.00     0.133 A 
ATOM     12  C   UNL A   1      33.857  24.420  24.128  1.00  0.00     0.047 A 
ATOM     13  C   UNL A   1      35.498  23.967  25.866  1.00  0.00     0.056 A 
ATOM     14  C   UNL A   1      34.649  23.746  23.205  1.00  0.00     0.004 A 
ATOM     15  C   UNL A   1      35.849  23.163  23.618  1.00  0.00     0.009 A 
BRANCH  11  16
ATOM     16  O   UNL A   1      33.373  25.085  26.357  1.00  0.00    -0.410 OA
BRANCH  16  17
ATOM     17  C   UNL A   1      32.162  24.453  26.590  1.00  0.00     0.412 C 
ATOM     18  N   UNL A   1      31.085  25.267  26.363  1.00  0.00    -0.321 N 
ATOM     19  H   UNL A   1      30.196  24.875  26.520  1.00  0.00     0.167 HD
ATOM     20  O   UNL A   1      32.012  23.300  26.972  1.00  0.00    -0.224 OA
BRANCH  18  21
ATOM     21  C   UNL A   1      31.116  26.647  25.917  1.00  0.00     0.119 C 
BRANCH  21  22
ATOM     22  C   UNL A   1      30.481  26.819  24.537  1.00  0.00     0.021 C 
BRANCH  22  23
ATOM     23  C   UNL A   1      30.418  28.266  24.031  1.00  0.00     0.002 C 
BRANCH  23  24
ATOM     24  C   UNL A   1      29.230  28.598  23.121  1.00  0.00    -0.000 C 
BRANCH  24  25
ATOM     25  C   UNL A   1      29.077  30.075  22.749  1.00  0.00    -0.003 C 
ATOM     26  C   UNL A   1      27.778  30.689  23.246  1.00  0.00     0.004 C 
ENDBRANCH  24  25
ENDBRANCH  23  24
ENDBRANCH  22  23
ENDBRANCH  21  22
ENDBRANCH  18  21
ENDBRANCH  16  17
ENDBRANCH  11  16
ENDBRANCH   4  10
ENDBRANCH   1   3
BRANCH   1  27
ATOM     27  C   UNL A   1      42.376  21.017  26.618  1.00  0.00     0.313 C 
ATOM     28  O   UNL A   1      42.809  21.706  27.538  1.00  0.00    -0.252 OA
BRANCH  27  29
ATOM     29  O   UNL A   1      43.051  20.770  25.466  1.00  0.00    -0.462 OA
BRANCH  29  30
ATOM     30  C   UNL A   1      44.327  21.420  25.309  1.00  0.00     0.274 C 
BRANCH  30  31
ATOM     31  C   UNL A   1      44.289  22.465  24.192  1.00  0.00     0.275 C 
BRANCH  31  32
ATOM     32  O   UNL A   1      43.538  23.627  24.591  1.00  0.00    -0.458 OA
BRANCH  32  33
ATOM     33  C   UNL A   1      44.285  24.654  25.052  1.00  0.00     0.338 C 
ATOM     34  O   UNL A   1      45.407  24.973  24.702  1.00  0.00    -0.246 OA
BRANCH  33  35
ATOM     35  C   UNL A   1      43.501  25.460  25.998  1.00  0.00     0.060 A 
ATOM     36  C   UNL A   1      43.896  26.782  26.205  1.00  0.00     0.016 A 
ATOM     37  C   UNL A   1      42.485  24.894  26.769  1.00  0.00     0.016 A 
ATOM     38  C   UNL A   1      43.308  27.540  27.212  1.00  0.00     0.010 A 
ATOM     39  C   UNL A   1      41.883  25.661  27.774  1.00  0.00     0.010 A 
ATOM     40  C   UNL A   1      42.314  26.978  28.021  1.00  0.00    -0.014 A 
BRANCH  40  41
ATOM     41  C   UNL A   1      41.802  27.754  29.176  1.00  0.00     0.031 A 
ATOM     42  C   UNL A   1      42.526  27.696  30.492  1.00  0.00     0.074 A 
ATOM     43  C   UNL A   1      40.733  28.558  29.028  1.00  0.00     0.049 A 
ATOM     44  N   UNL A   1      42.237  28.289  31.623  1.00  0.00    -0.248 NA
ATOM     45  C   UNL A   1      43.736  26.859  30.545  1.00  0.00     0.031 C 
ATOM     46  C   UNL A   1      39.969  28.730  27.793  1.00  0.00     0.029 A 
ATOM     47  N   UNL A   1      40.110  29.388  29.926  1.00  0.00    -0.354 N 
ATOM     48  C   UNL A   1      43.212  27.881  32.524  1.00  0.00     0.074 A 
ATOM     49  C   UNL A   1      44.095  26.980  31.815  1.00  0.00     0.031 C 
ATOM     50  C   UNL A   1      38.982  29.615  28.009  1.00  0.00     0.029 A 
ATOM     51  C   UNL A   1      39.024  30.045  29.404  1.00  0.00     0.049 A 
ATOM     52  H   UNL A   1      40.412  29.501  30.856  1.00  0.00     0.167 HD
ATOM     53  C   UNL A   1      43.360  28.233  33.823  1.00  0.00     0.037 A 
ATOM     54  C   UNL A   1      38.150  30.886  29.990  1.00  0.00     0.037 A 
ATOM     55  C   UNL A   1      42.503  29.154  34.521  1.00  0.00     0.049 A 
ATOM     56  C   UNL A   1      38.325  31.238  31.441  1.00  0.00     0.074 A 
ATOM     57  C   UNL A   1      42.594  29.595  35.830  1.00  0.00     0.029 A 
ATOM     58  N   UNL A   1      41.401  29.782  33.963  1.00  0.00    -0.354 N 
ATOM     59  N   UNL A   1      39.259  30.855  32.279  1.00  0.00    -0.248 NA
ATOM     60  C   UNL A   1      37.323  32.138  32.030  1.00  0.00     0.031 C 
ATOM     61  C   UNL A   1      41.526  30.463  36.076  1.00  0.00     0.029 A 
ATOM     62  C   UNL A   1      40.791  30.591  34.908  1.00  0.00     0.049 A 
ATOM     63  H   UNL A   1      41.096  29.669  33.034  1.00  0.00     0.167 HD
ATOM     64  C   UNL A   1      38.966  31.476  33.485  1.00  0.00     0.074 A 
ATOM     65  C   UNL A   1      37.781  32.280  33.266  1.00  0.00     0.031 C 
ATOM     66  C   UNL A   1      39.615  31.387  34.670  1.00  0.00     0.037 A 
BRANCH  53  67
ATOM     67  C   UNL A   1      44.483  27.601  34.588  1.00  0.00     0.057 A 
ATOM     68  C   UNL A   1      45.724  28.232  34.738  1.00  0.00     0.134 A 
ATOM     69  C   UNL A   1      44.300  26.369  35.230  1.00  0.00     0.134 A 
ATOM     70  F   UNL A   1      45.966  29.407  34.137  1.00  0.00    -0.206 F 
ATOM     71  C   UNL A   1      46.749  27.654  35.490  1.00  0.00     0.040 A 
ATOM     72  C   UNL A   1      45.310  25.791  36.000  1.00  0.00     0.040 A 
ATOM     73  F   UNL A   1      43.132  25.717  35.129  1.00  0.00    -0.206 F 
ATOM     74  C   UNL A   1      46.540  26.434  36.129  1.00  0.00     0.006 A 
ENDBRANCH  53  67
BRANCH  54  75
ATOM     75  C   UNL A   1      37.012  31.439  29.214  1.00  0.00     0.057 A 
ATOM     76  C   UNL A   1      37.041  32.745  28.710  1.00  0.00     0.134 A 
ATOM     77  C   UNL A   1      35.853  30.685  28.990  1.00  0.00     0.134 A 
ATOM     78  F   UNL A   1      38.114  33.523  28.916  1.00  0.00    -0.206 F 
ATOM     79  C   UNL A   1      35.951  33.287  28.028  1.00  0.00     0.040 A 
ATOM     80  C   UNL A   1      34.767  31.207  28.289  1.00  0.00     0.040 A 
ATOM     81  F   UNL A   1      35.765  29.429  29.450  1.00  0.00    -0.206 F 
ATOM     82  C   UNL A   1      34.811  32.516  27.813  1.00  0.00     0.006 A 
ENDBRANCH  54  75
BRANCH  66  83
ATOM     83  C   UNL A   1      39.069  32.192  35.810  1.00  0.00     0.057 A 
ATOM     84  C   UNL A   1      38.203  31.631  36.758  1.00  0.00     0.134 A 
ATOM     85  C   UNL A   1      39.434  33.533  35.979  1.00  0.00     0.134 A 
ATOM     86  F   UNL A   1      37.806  30.354  36.643  1.00  0.00    -0.206 F 
ATOM     87  C   UNL A   1      37.702  32.382  37.821  1.00  0.00     0.040 A 
ATOM     88  C   UNL A   1      38.957  34.289  37.051  1.00  0.00     0.040 A 
ATOM     89  F   UNL A   1      40.266  34.127  35.111  1.00  0.00    -0.206 F 
ATOM     90  C   UNL A   1      38.083  33.713  37.973  1.00  0.00     0.006 A 
ENDBRANCH  66  83
ENDBRANCH  40  41
ENDBRANCH  33  35
ENDBRANCH  32  33
ENDBRANCH  31  32
ENDBRANCH  30  31
ENDBRANCH  29  30
ENDBRANCH  27  29
ENDBRANCH   1  27
TORSDOF 20
ENDMDL
