MODEL 1
REMARK VINA RESULT:     -10.2      0.000      0.000
REMARK SMILES CC(C)C[C@H](NC(=O)[C@@H](NC(=O)[C@H](C)NC(=O)CNC(=O)OCc1ccccc1)C(C)C)C(=O)OCCOC(=O)c1ccc(-c2c3nc(c(-c4c(F)cccc4F)c4ccc([nH]4)c(-c4c(F)cccc4F)c4nc(c(-c5c(F)cccc5F)c5ccc2[nH]5)C=C4)C=C3)cc1
REMARK SMILES IDX 6 1 7 2 8 3 5 5 4 6 2 7 1 8 3 9 33 10 34 11 35 12 36 13
REMARK SMILES IDX 37 14 38 15 39 16 40 17 41 18 42 19 94 20 43 21 93 22 44 23
REMARK SMILES IDX 45 24 46 25 87 26 47 27 92 28 86 29 88 30 48 31 91 32 85 33
REMARK SMILES IDX 84 34 49 36 75 37 58 38 74 39 59 40 62 41 73 42 89 43 60 44
REMARK SMILES IDX 61 45 72 47 90 48 63 49 50 50 51 51 56 52 52 53 53 54 55 55
REMARK SMILES IDX 57 56 54 57 76 58 77 59 82 60 78 61 79 62 81 63 83 64 80 65
REMARK SMILES IDX 64 66 65 67 70 68 66 69 67 70 69 71 71 72 68 73 9 74 10 75
REMARK SMILES IDX 11 76 12 78 13 79 14 80 15 81 16 82 17 84 18 85 19 86 20 87
REMARK SMILES IDX 21 89 22 90 23 91 24 92 25 93 29 94 26 95 28 96 27 97 30 98
REMARK SMILES IDX 31 99 32 100
REMARK H PARENT 6 4 88 35 62 46 10 77 15 83 19 88
REMARK Flexibility Score: inf
ROOT
ATOM      1  N   UNL A   1      34.681  32.645  29.281  1.00  0.00    -0.341 N 
ATOM      2  C   UNL A   1      34.774  31.684  28.287  1.00  0.00     0.243 C 
ATOM      3  O   UNL A   1      34.223  32.070  27.232  1.00  0.00    -0.273 OA
ATOM      4  H   UNL A   1      33.940  33.264  29.088  1.00  0.00     0.164 HD
ENDROOT
BRANCH   1   5
ATOM      5  C   UNL A   1      35.367  33.036  30.571  1.00  0.00     0.192 C 
BRANCH   5   6
ATOM      6  C   UNL A   1      36.487  34.100  30.350  1.00  0.00     0.040 C 
BRANCH   6   7
ATOM      7  C   UNL A   1      37.894  33.494  30.124  1.00  0.00    -0.015 C 
ATOM      8  C   UNL A   1      38.748  34.405  29.248  1.00  0.00     0.007 C 
ATOM      9  C   UNL A   1      38.588  33.222  31.463  1.00  0.00     0.007 C 
ENDBRANCH   6   7
ENDBRANCH   5   6
BRANCH   5  10
ATOM     10  C   UNL A   1      34.846  33.308  32.038  1.00  0.00     0.328 C 
ATOM     11  O   UNL A   1      33.887  32.661  32.464  1.00  0.00    -0.250 OA
BRANCH  10  12
ATOM     12  O   UNL A   1      35.412  34.317  32.747  1.00  0.00    -0.461 OA
BRANCH  12  13
ATOM     13  C   UNL A   1      35.743  33.962  34.122  1.00  0.00     0.274 C 
BRANCH  13  14
ATOM     14  C   UNL A   1      37.120  34.500  34.582  1.00  0.00     0.275 C 
BRANCH  14  15
ATOM     15  O   UNL A   1      37.389  34.303  35.987  1.00  0.00    -0.458 OA
BRANCH  15  16
ATOM     16  C   UNL A   1      37.714  33.032  36.249  1.00  0.00     0.338 C 
ATOM     17  O   UNL A   1      37.191  32.401  37.146  1.00  0.00    -0.246 OA
BRANCH  16  18
ATOM     18  C   UNL A   1      38.770  32.323  35.497  1.00  0.00     0.060 A 
ATOM     19  C   UNL A   1      38.262  31.103  34.206  1.00  0.00     0.016 A 
ATOM     20  C   UNL A   1      40.591  32.420  35.903  1.00  0.00     0.016 A 
ATOM     21  C   UNL A   1      39.473  30.050  33.393  1.00  0.00     0.010 A 
ATOM     22  C   UNL A   1      41.775  31.290  35.071  1.00  0.00     0.010 A 
ATOM     23  C   UNL A   1      41.220  30.137  33.764  1.00  0.00    -0.014 A 
BRANCH  23  24
ATOM     24  C   UNL A   1      42.206  29.749  32.599  1.00  0.00     0.031 A 
ATOM     25  C   UNL A   1      43.015  28.481  32.712  1.00  0.00     0.074 A 
ATOM     26  C   UNL A   1      42.524  30.568  31.544  1.00  0.00     0.049 A 
ATOM     27  N   UNL A   1      43.940  27.999  31.914  1.00  0.00    -0.248 NA
ATOM     28  C   UNL A   1      42.751  27.653  33.893  1.00  0.00     0.031 C 
ATOM     29  C   UNL A   1      41.946  31.884  31.243  1.00  0.00     0.029 A 
ATOM     30  N   UNL A   1      43.488  30.451  30.539  1.00  0.00    -0.354 N 
ATOM     31  C   UNL A   1      44.356  26.806  32.490  1.00  0.00     0.074 A 
ATOM     32  C   UNL A   1      43.649  26.689  33.749  1.00  0.00     0.031 C 
ATOM     33  C   UNL A   1      42.599  32.471  30.226  1.00  0.00     0.029 A 
ATOM     34  C   UNL A   1      43.627  31.572  29.729  1.00  0.00     0.049 A 
ATOM     35  H   UNL A   1      44.028  29.637  30.414  1.00  0.00     0.167 HD
ATOM     36  C   UNL A   1      45.206  25.864  32.010  1.00  0.00     0.037 A 
ATOM     37  C   UNL A   1      44.460  31.872  28.702  1.00  0.00     0.037 A 
ATOM     38  C   UNL A   1      45.948  25.964  30.781  1.00  0.00     0.049 A 
ATOM     39  C   UNL A   1      45.447  30.838  28.215  1.00  0.00     0.074 A 
ATOM     40  C   UNL A   1      46.766  25.013  30.190  1.00  0.00     0.029 A 
ATOM     41  N   UNL A   1      45.999  27.088  29.974  1.00  0.00    -0.354 N 
ATOM     42  N   UNL A   1      45.673  29.634  28.677  1.00  0.00    -0.248 NA
ATOM     43  C   UNL A   1      46.273  31.186  27.042  1.00  0.00     0.031 C 
ATOM     44  C   UNL A   1      47.371  25.588  29.068  1.00  0.00     0.029 A 
ATOM     45  C   UNL A   1      46.869  26.870  28.916  1.00  0.00     0.049 A 
ATOM     46  H   UNL A   1      45.494  27.918  30.128  1.00  0.00     0.167 HD
ATOM     47  C   UNL A   1      46.617  29.068  27.828  1.00  0.00     0.074 A 
ATOM     48  C   UNL A   1      46.922  30.052  26.815  1.00  0.00     0.031 C 
ATOM     49  C   UNL A   1      47.169  27.834  27.888  1.00  0.00     0.037 A 
BRANCH  36  50
ATOM     50  C   UNL A   1      45.358  24.612  32.828  1.00  0.00     0.057 A 
ATOM     51  C   UNL A   1      44.537  23.496  32.610  1.00  0.00     0.134 A 
ATOM     52  C   UNL A   1      46.329  24.514  33.831  1.00  0.00     0.134 A 
ATOM     53  F   UNL A   1      43.585  23.525  31.664  1.00  0.00    -0.206 F 
ATOM     54  C   UNL A   1      44.637  22.349  33.397  1.00  0.00     0.040 A 
ATOM     55  C   UNL A   1      46.465  23.357  34.601  1.00  0.00     0.040 A 
ATOM     56  F   UNL A   1      47.161  25.536  34.080  1.00  0.00    -0.206 F 
ATOM     57  C   UNL A   1      45.607  22.278  34.395  1.00  0.00     0.006 A 
ENDBRANCH  36  50
BRANCH  37  58
ATOM     58  C   UNL A   1      44.396  33.193  27.991  1.00  0.00     0.057 A 
ATOM     59  C   UNL A   1      44.812  34.379  28.620  1.00  0.00     0.134 A 
ATOM     60  C   UNL A   1      43.829  33.328  26.717  1.00  0.00     0.134 A 
ATOM     61  F   UNL A   1      45.331  34.338  29.856  1.00  0.00    -0.206 F 
ATOM     62  C   UNL A   1      44.631  35.637  28.034  1.00  0.00     0.040 A 
ATOM     63  C   UNL A   1      43.667  34.579  26.105  1.00  0.00     0.040 A 
ATOM     64  F   UNL A   1      43.402  32.247  26.049  1.00  0.00    -0.206 F 
ATOM     65  C   UNL A   1      44.057  35.740  26.770  1.00  0.00     0.006 A 
ENDBRANCH  37  58
BRANCH  49  66
ATOM     66  C   UNL A   1      48.132  27.429  26.808  1.00  0.00     0.057 A 
ATOM     67  C   UNL A   1      49.516  27.602  26.937  1.00  0.00     0.134 A 
ATOM     68  C   UNL A   1      47.670  26.772  25.658  1.00  0.00     0.134 A 
ATOM     69  F   UNL A   1      50.027  28.234  28.003  1.00  0.00    -0.206 F 
ATOM     70  C   UNL A   1      50.403  27.139  25.962  1.00  0.00     0.040 A 
ATOM     71  C   UNL A   1      48.548  26.276  24.694  1.00  0.00     0.040 A 
ATOM     72  F   UNL A   1      46.358  26.567  25.472  1.00  0.00    -0.206 F 
ATOM     73  C   UNL A   1      49.921  26.460  24.844  1.00  0.00     0.006 A 
ENDBRANCH  49  66
ENDBRANCH  23  24
ENDBRANCH  16  18
ENDBRANCH  15  16
ENDBRANCH  14  15
ENDBRANCH  13  14
ENDBRANCH  12  13
ENDBRANCH  10  12
ENDBRANCH   5  10
ENDBRANCH   1   5
BRANCH   2  74
ATOM     74  C   UNL A   1      35.323  30.085  28.237  1.00  0.00     0.174 C 
BRANCH  74  75
ATOM     75  N   UNL A   1      35.087  29.065  26.742  1.00  0.00    -0.342 N 
ATOM     76  C   UNL A   1      33.645  28.490  25.538  1.00  0.00     0.242 C 
ATOM     77  H   UNL A   1      35.947  28.687  26.450  1.00  0.00     0.164 HD
ATOM     78  O   UNL A   1      33.651  28.238  24.287  1.00  0.00    -0.273 OA
BRANCH  76  79
ATOM     79  C   UNL A   1      31.867  28.491  25.808  1.00  0.00     0.168 C 
ATOM     80  C   UNL A   1      31.523  28.183  27.300  1.00  0.00     0.041 C 
BRANCH  79  81
ATOM     81  N   UNL A   1      30.820  28.020  24.877  1.00  0.00    -0.343 N 
ATOM     82  C   UNL A   1      30.592  26.763  24.408  1.00  0.00     0.240 C 
ATOM     83  H   UNL A   1      30.201  28.714  24.552  1.00  0.00     0.164 HD
ATOM     84  O   UNL A   1      29.583  26.593  23.716  1.00  0.00    -0.273 OA
BRANCH  82  85
ATOM     85  C   UNL A   1      31.462  25.572  24.816  1.00  0.00     0.219 C 
BRANCH  85  86
ATOM     86  N   UNL A   1      30.976  24.853  25.975  1.00  0.00    -0.312 N 
ATOM     87  C   UNL A   1      31.706  24.044  26.793  1.00  0.00     0.407 C 
ATOM     88  H   UNL A   1      30.022  24.961  26.194  1.00  0.00     0.167 HD
ATOM     89  O   UNL A   1      31.143  23.326  27.609  1.00  0.00    -0.225 OA
BRANCH  87  90
ATOM     90  O   UNL A   1      33.032  24.051  26.496  1.00  0.00    -0.445 OA
BRANCH  90  91
ATOM     91  C   UNL A   1      33.847  22.930  26.919  1.00  0.00     0.270 C 
BRANCH  91  92
ATOM     92  C   UNL A   1      34.833  22.533  25.860  1.00  0.00    -0.011 A 
ATOM     93  C   UNL A   1      35.308  21.220  25.789  1.00  0.00     0.007 A 
ATOM     94  C   UNL A   1      35.386  23.515  25.025  1.00  0.00     0.007 A 
ATOM     95  C   UNL A   1      36.405  20.931  24.980  1.00  0.00     0.000 A 
ATOM     96  C   UNL A   1      36.518  23.241  24.277  1.00  0.00     0.000 A 
ATOM     97  C   UNL A   1      37.033  21.950  24.261  1.00  0.00     0.000 A 
ENDBRANCH  91  92
ENDBRANCH  90  91
ENDBRANCH  87  90
ENDBRANCH  85  86
ENDBRANCH  82  85
ENDBRANCH  79  81
ENDBRANCH  76  79
ENDBRANCH  74  75
BRANCH  74  98
ATOM     98  C   UNL A   1      36.634  29.833  29.408  1.00  0.00     0.015 C 
ATOM     99  C   UNL A   1      38.017  30.325  28.894  1.00  0.00     0.010 C 
ATOM    100  C   UNL A   1      36.626  30.048  30.940  1.00  0.00     0.010 C 
ENDBRANCH  74  98
ENDBRANCH   2  74
TORSDOF 24
ENDMDL
MODEL 2
REMARK VINA RESULT:      -9.8      6.074     11.626
REMARK SMILES CC(C)C[C@H](NC(=O)[C@@H](NC(=O)[C@H](C)NC(=O)CNC(=O)OCc1ccccc1)C(C)C)C(=O)OCCOC(=O)c1ccc(-c2c3nc(c(-c4c(F)cccc4F)c4ccc([nH]4)c(-c4c(F)cccc4F)c4nc(c(-c5c(F)cccc5F)c5ccc2[nH]5)C=C4)C=C3)cc1
REMARK SMILES IDX 6 1 7 2 8 3 5 5 4 6 2 7 1 8 3 9 33 10 34 11 35 12 36 13
REMARK SMILES IDX 37 14 38 15 39 16 40 17 41 18 42 19 94 20 43 21 93 22 44 23
REMARK SMILES IDX 45 24 46 25 87 26 47 27 92 28 86 29 88 30 48 31 91 32 85 33
REMARK SMILES IDX 84 34 49 36 75 37 58 38 74 39 59 40 62 41 73 42 89 43 60 44
REMARK SMILES IDX 61 45 72 47 90 48 63 49 50 50 51 51 56 52 52 53 53 54 55 55
REMARK SMILES IDX 57 56 54 57 76 58 77 59 82 60 78 61 79 62 81 63 83 64 80 65
REMARK SMILES IDX 64 66 65 67 70 68 66 69 67 70 69 71 71 72 68 73 9 74 10 75
REMARK SMILES IDX 11 76 12 78 13 79 14 80 15 81 16 82 17 84 18 85 19 86 20 87
REMARK SMILES IDX 21 89 22 90 23 91 24 92 25 93 29 94 26 95 28 96 27 97 30 98
REMARK SMILES IDX 31 99 32 100
REMARK H PARENT 6 4 88 35 62 46 10 77 15 83 19 88
REMARK Flexibility Score: inf
ROOT
ATOM      1  N   UNL A   1      45.304  28.779  27.441  1.00  0.00    -0.341 N 
ATOM      2  C   UNL A   1      45.786  27.487  27.580  1.00  0.00     0.243 C 
ATOM      3  O   UNL A   1      46.946  27.486  28.050  1.00  0.00    -0.273 OA
ATOM      4  H   UNL A   1      46.050  29.420  27.411  1.00  0.00     0.164 HD
ENDROOT
BRANCH   1   5
ATOM      5  C   UNL A   1      43.984  29.508  27.322  1.00  0.00     0.192 C 
BRANCH   5   6
ATOM      6  C   UNL A   1      44.168  31.016  26.968  1.00  0.00     0.040 C 
BRANCH   6   7
ATOM      7  C   UNL A   1      44.462  31.918  28.192  1.00  0.00    -0.015 C 
ATOM      8  C   UNL A   1      43.398  31.740  29.271  1.00  0.00     0.007 C 
ATOM      9  C   UNL A   1      45.858  31.631  28.753  1.00  0.00     0.007 C 
ENDBRANCH   6   7
ENDBRANCH   5   6
BRANCH   5  10
ATOM     10  C   UNL A   1      42.584  29.122  26.700  1.00  0.00     0.328 C 
ATOM     11  O   UNL A   1      42.509  28.883  25.493  1.00  0.00    -0.250 OA
BRANCH  10  12
ATOM     12  O   UNL A   1      41.489  29.161  27.501  1.00  0.00    -0.461 OA
BRANCH  12  13
ATOM     13  C   UNL A   1      40.277  28.647  26.874  1.00  0.00     0.274 C 
BRANCH  13  14
ATOM     14  C   UNL A   1      38.992  29.386  27.320  1.00  0.00     0.275 C 
BRANCH  14  15
ATOM     15  O   UNL A   1      38.196  28.654  28.277  1.00  0.00    -0.458 OA
BRANCH  15  16
ATOM     16  C   UNL A   1      37.345  29.459  28.923  1.00  0.00     0.338 C 
ATOM     17  O   UNL A   1      36.143  29.402  28.753  1.00  0.00    -0.246 OA
BRANCH  16  18
ATOM     18  C   UNL A   1      37.812  30.508  29.851  1.00  0.00     0.060 A 
ATOM     19  C   UNL A   1      38.740  29.995  31.364  1.00  0.00     0.016 A 
ATOM     20  C   UNL A   1      37.352  32.314  29.710  1.00  0.00     0.016 A 
ATOM     21  C   UNL A   1      39.162  31.185  32.646  1.00  0.00     0.010 A 
ATOM     22  C   UNL A   1      37.773  33.474  31.069  1.00  0.00     0.010 A 
ATOM     23  C   UNL A   1      38.737  32.918  32.521  1.00  0.00    -0.014 A 
BRANCH  23  24
ATOM     24  C   UNL A   1      39.694  33.930  33.255  1.00  0.00     0.031 A 
ATOM     25  C   UNL A   1      40.929  34.423  32.542  1.00  0.00     0.074 A 
ATOM     26  C   UNL A   1      39.589  34.279  34.579  1.00  0.00     0.049 A 
ATOM     27  N   UNL A   1      41.897  35.198  32.975  1.00  0.00    -0.248 NA
ATOM     28  C   UNL A   1      41.098  33.967  31.159  1.00  0.00     0.031 C 
ATOM     29  C   UNL A   1      38.534  33.876  35.517  1.00  0.00     0.029 A 
ATOM     30  N   UNL A   1      40.437  35.012  35.412  1.00  0.00    -0.354 N 
ATOM     31  C   UNL A   1      42.780  35.333  31.912  1.00  0.00     0.074 A 
ATOM     32  C   UNL A   1      42.278  34.485  30.850  1.00  0.00     0.031 C 
ATOM     33  C   UNL A   1      38.828  34.272  36.766  1.00  0.00     0.029 A 
ATOM     34  C   UNL A   1      40.074  35.021  36.754  1.00  0.00     0.049 A 
ATOM     35  H   UNL A   1      41.232  35.486  35.076  1.00  0.00     0.167 HD
ATOM     36  C   UNL A   1      43.879  36.119  31.796  1.00  0.00     0.037 A 
ATOM     37  C   UNL A   1      40.642  35.558  37.862  1.00  0.00     0.037 A 
ATOM     38  C   UNL A   1      44.423  36.947  32.840  1.00  0.00     0.049 A 
ATOM     39  C   UNL A   1      41.902  36.380  37.731  1.00  0.00     0.074 A 
ATOM     40  C   UNL A   1      45.487  37.834  32.770  1.00  0.00     0.029 A 
ATOM     41  N   UNL A   1      43.977  36.966  34.151  1.00  0.00    -0.354 N 
ATOM     42  N   UNL A   1      42.604  36.643  36.658  1.00  0.00    -0.248 NA
ATOM     43  C   UNL A   1      42.433  37.010  38.955  1.00  0.00     0.031 C 
ATOM     44  C   UNL A   1      45.732  38.329  34.054  1.00  0.00     0.029 A 
ATOM     45  C   UNL A   1      44.772  37.813  34.908  1.00  0.00     0.049 A 
ATOM     46  H   UNL A   1      43.210  36.453  34.494  1.00  0.00     0.167 HD
ATOM     47  C   UNL A   1      43.617  37.505  37.064  1.00  0.00     0.074 A 
ATOM     48  C   UNL A   1      43.441  37.729  38.480  1.00  0.00     0.031 C 
ATOM     49  C   UNL A   1      44.598  38.062  36.316  1.00  0.00     0.037 A 
BRANCH  36  50
ATOM     50  C   UNL A   1      44.561  36.132  30.457  1.00  0.00     0.057 A 
ATOM     51  C   UNL A   1      45.526  35.170  30.122  1.00  0.00     0.134 A 
ATOM     52  C   UNL A   1      44.252  37.099  29.493  1.00  0.00     0.134 A 
ATOM     53  F   UNL A   1      45.869  34.216  31.001  1.00  0.00    -0.206 F 
ATOM     54  C   UNL A   1      46.200  35.204  28.902  1.00  0.00     0.040 A 
ATOM     55  C   UNL A   1      44.893  37.121  28.253  1.00  0.00     0.040 A 
ATOM     56  F   UNL A   1      43.326  38.037  29.738  1.00  0.00    -0.206 F 
ATOM     57  C   UNL A   1      45.881  36.181  27.962  1.00  0.00     0.006 A 
ENDBRANCH  36  50
BRANCH  37  58
ATOM     58  C   UNL A   1      40.024  35.406  39.223  1.00  0.00     0.057 A 
ATOM     59  C   UNL A   1      39.152  36.381  39.738  1.00  0.00     0.134 A 
ATOM     60  C   UNL A   1      40.360  34.351  40.081  1.00  0.00     0.134 A 
ATOM     61  F   UNL A   1      38.812  37.441  38.991  1.00  0.00    -0.206 F 
ATOM     62  C   UNL A   1      38.676  36.334  41.053  1.00  0.00     0.040 A 
ATOM     63  C   UNL A   1      39.868  34.276  41.392  1.00  0.00     0.040 A 
ATOM     64  F   UNL A   1      41.189  33.381  39.670  1.00  0.00    -0.206 F 
ATOM     65  C   UNL A   1      39.034  35.277  41.885  1.00  0.00     0.006 A 
ENDBRANCH  37  58
BRANCH  49  66
ATOM     66  C   UNL A   1      45.548  39.017  36.981  1.00  0.00     0.057 A 
ATOM     67  C   UNL A   1      46.760  38.597  37.544  1.00  0.00     0.134 A 
ATOM     68  C   UNL A   1      45.286  40.395  36.976  1.00  0.00     0.134 A 
ATOM     69  F   UNL A   1      47.070  37.293  37.596  1.00  0.00    -0.206 F 
ATOM     70  C   UNL A   1      47.671  39.509  38.079  1.00  0.00     0.040 A 
ATOM     71  C   UNL A   1      46.203  41.318  37.477  1.00  0.00     0.040 A 
ATOM     72  F   UNL A   1      44.147  40.869  36.448  1.00  0.00    -0.206 F 
ATOM     73  C   UNL A   1      47.401  40.876  38.032  1.00  0.00     0.006 A 
ENDBRANCH  49  66
ENDBRANCH  23  24
ENDBRANCH  16  18
ENDBRANCH  15  16
ENDBRANCH  14  15
ENDBRANCH  13  14
ENDBRANCH  12  13
ENDBRANCH  10  12
ENDBRANCH   5  10
ENDBRANCH   1   5
BRANCH   2  74
ATOM     74  C   UNL A   1      45.222  25.959  27.124  1.00  0.00     0.174 C 
BRANCH  74  75
ATOM     75  N   UNL A   1      46.272  24.832  26.146  1.00  0.00    -0.342 N 
ATOM     76  C   UNL A   1      46.128  23.597  24.625  1.00  0.00     0.242 C 
ATOM     77  H   UNL A   1      47.195  24.846  26.488  1.00  0.00     0.164 HD
ATOM     78  O   UNL A   1      46.972  23.282  23.721  1.00  0.00    -0.273 OA
BRANCH  76  79
ATOM     79  C   UNL A   1      44.663  22.842  23.906  1.00  0.00     0.168 C 
ATOM     80  C   UNL A   1      43.398  23.125  24.777  1.00  0.00     0.041 C 
BRANCH  79  81
ATOM     81  N   UNL A   1      44.580  21.551  23.191  1.00  0.00    -0.343 N 
ATOM     82  C   UNL A   1      44.766  20.291  23.672  1.00  0.00     0.240 C 
ATOM     83  H   UNL A   1      44.360  21.611  22.233  1.00  0.00     0.164 HD
ATOM     84  O   UNL A   1      44.539  19.354  22.902  1.00  0.00    -0.273 OA
BRANCH  82  85
ATOM     85  C   UNL A   1      45.114  20.024  25.139  1.00  0.00     0.219 C 
BRANCH  85  86
ATOM     86  N   UNL A   1      44.527  18.814  25.675  1.00  0.00    -0.312 N 
ATOM     87  C   UNL A   1      43.301  18.696  26.259  1.00  0.00     0.407 C 
ATOM     88  H   UNL A   1      45.068  17.994  25.612  1.00  0.00     0.167 HD
ATOM     89  O   UNL A   1      43.004  17.674  26.864  1.00  0.00    -0.225 OA
BRANCH  87  90
ATOM     90  O   UNL A   1      42.572  19.841  26.192  1.00  0.00    -0.445 OA
BRANCH  90  91
ATOM     91  C   UNL A   1      41.428  19.990  27.068  1.00  0.00     0.270 C 
BRANCH  91  92
ATOM     92  C   UNL A   1      40.856  21.377  26.998  1.00  0.00    -0.011 A 
ATOM     93  C   UNL A   1      41.362  22.394  27.813  1.00  0.00     0.007 A 
ATOM     94  C   UNL A   1      39.718  21.618  26.215  1.00  0.00     0.007 A 
ATOM     95  C   UNL A   1      40.660  23.592  27.928  1.00  0.00     0.000 A 
ATOM     96  C   UNL A   1      38.986  22.780  26.385  1.00  0.00     0.000 A 
ATOM     97  C   UNL A   1      39.452  23.764  27.248  1.00  0.00     0.000 A 
ENDBRANCH  91  92
ENDBRANCH  90  91
ENDBRANCH  87  90
ENDBRANCH  85  86
ENDBRANCH  82  85
ENDBRANCH  79  81
ENDBRANCH  76  79
ENDBRANCH  74  75
BRANCH  74  98
ATOM     98  C   UNL A   1      43.935  25.412  28.218  1.00  0.00     0.015 C 
ATOM     99  C   UNL A   1      44.365  24.220  29.120  1.00  0.00     0.010 C 
ATOM    100  C   UNL A   1      42.932  26.255  29.041  1.00  0.00     0.010 C 
ENDBRANCH  74  98
ENDBRANCH   2  74
TORSDOF 24
ENDMDL
MODEL 3
REMARK VINA RESULT:      -9.5     10.460     16.770
REMARK SMILES CC(C)C[C@H](NC(=O)[C@@H](NC(=O)[C@H](C)NC(=O)CNC(=O)OCc1ccccc1)C(C)C)C(=O)OCCOC(=O)c1ccc(-c2c3nc(c(-c4c(F)cccc4F)c4ccc([nH]4)c(-c4c(F)cccc4F)c4nc(c(-c5c(F)cccc5F)c5ccc2[nH]5)C=C4)C=C3)cc1
REMARK SMILES IDX 6 1 7 2 8 3 5 5 4 6 2 7 1 8 3 9 33 10 34 11 35 12 36 13
REMARK SMILES IDX 37 14 38 15 39 16 40 17 41 18 42 19 94 20 43 21 93 22 44 23
REMARK SMILES IDX 45 24 46 25 87 26 47 27 92 28 86 29 88 30 48 31 91 32 85 33
REMARK SMILES IDX 84 34 49 36 75 37 58 38 74 39 59 40 62 41 73 42 89 43 60 44
REMARK SMILES IDX 61 45 72 47 90 48 63 49 50 50 51 51 56 52 52 53 53 54 55 55
REMARK SMILES IDX 57 56 54 57 76 58 77 59 82 60 78 61 79 62 81 63 83 64 80 65
REMARK SMILES IDX 64 66 65 67 70 68 66 69 67 70 69 71 71 72 68 73 9 74 10 75
REMARK SMILES IDX 11 76 12 78 13 79 14 80 15 81 16 82 17 84 18 85 19 86 20 87
REMARK SMILES IDX 21 89 22 90 23 91 24 92 25 93 29 94 26 95 28 96 27 97 30 98
REMARK SMILES IDX 31 99 32 100
REMARK H PARENT 6 4 88 35 62 46 10 77 15 83 19 88
REMARK Flexibility Score: inf
ROOT
ATOM      1  N   UNL A   1      44.706  42.579  20.951  1.00  0.00    -0.341 N 
ATOM      2  C   UNL A   1      45.886  43.003  20.363  1.00  0.00     0.243 C 
ATOM      3  O   UNL A   1      46.662  42.043  20.160  1.00  0.00    -0.273 OA
ATOM      4  H   UNL A   1      44.839  41.708  21.391  1.00  0.00     0.164 HD
ENDROOT
BRANCH   1   5
ATOM      5  C   UNL A   1      43.276  43.040  21.127  1.00  0.00     0.192 C 
BRANCH   5   6
ATOM      6  C   UNL A   1      42.408  42.780  19.856  1.00  0.00     0.040 C 
BRANCH   6   7
ATOM      7  C   UNL A   1      42.287  44.005  18.916  1.00  0.00    -0.015 C 
ATOM      8  C   UNL A   1      43.179  43.843  17.689  1.00  0.00     0.007 C 
ATOM      9  C   UNL A   1      40.829  44.228  18.501  1.00  0.00     0.007 C 
ENDBRANCH   6   7
ENDBRANCH   5   6
BRANCH   5  10
ATOM     10  C   UNL A   1      42.253  42.968  22.328  1.00  0.00     0.328 C 
ATOM     11  O   UNL A   1      41.046  42.892  22.086  1.00  0.00    -0.250 OA
BRANCH  10  12
ATOM     12  O   UNL A   1      42.732  43.091  23.592  1.00  0.00    -0.461 OA
BRANCH  12  13
ATOM     13  C   UNL A   1      42.484  41.928  24.436  1.00  0.00     0.274 C 
BRANCH  13  14
ATOM     14  C   UNL A   1      43.541  41.741  25.551  1.00  0.00     0.275 C 
BRANCH  14  15
ATOM     15  O   UNL A   1      43.891  40.362  25.804  1.00  0.00    -0.458 OA
BRANCH  15  16
ATOM     16  C   UNL A   1      43.701  40.037  27.088  1.00  0.00     0.338 C 
ATOM     17  O   UNL A   1      43.703  40.869  27.974  1.00  0.00    -0.246 OA
BRANCH  16  18
ATOM     18  C   UNL A   1      43.528  38.637  27.523  1.00  0.00     0.060 A 
ATOM     19  C   UNL A   1      45.018  37.699  28.082  1.00  0.00     0.016 A 
ATOM     20  C   UNL A   1      41.934  37.676  27.355  1.00  0.00     0.016 A 
ATOM     21  C   UNL A   1      44.931  35.936  28.430  1.00  0.00     0.010 A 
ATOM     22  C   UNL A   1      41.916  35.870  27.683  1.00  0.00     0.010 A 
ATOM     23  C   UNL A   1      43.412  35.004  28.282  1.00  0.00    -0.014 A 
BRANCH  23  24
ATOM     24  C   UNL A   1      43.262  33.751  29.224  1.00  0.00     0.031 A 
ATOM     25  C   UNL A   1      42.907  33.961  30.676  1.00  0.00     0.074 A 
ATOM     26  C   UNL A   1      43.600  32.468  28.872  1.00  0.00     0.049 A 
ATOM     27  N   UNL A   1      42.803  33.088  31.651  1.00  0.00    -0.248 NA
ATOM     28  C   UNL A   1      42.646  35.346  31.080  1.00  0.00     0.031 C 
ATOM     29  C   UNL A   1      44.052  32.005  27.554  1.00  0.00     0.029 A 
ATOM     30  N   UNL A   1      43.691  31.295  29.625  1.00  0.00    -0.354 N 
ATOM     31  C   UNL A   1      42.450  33.817  32.779  1.00  0.00     0.074 A 
ATOM     32  C   UNL A   1      42.451  35.211  32.384  1.00  0.00     0.031 C 
ATOM     33  C   UNL A   1      44.443  30.721  27.607  1.00  0.00     0.029 A 
ATOM     34  C   UNL A   1      44.231  30.207  28.950  1.00  0.00     0.049 A 
ATOM     35  H   UNL A   1      43.396  31.242  30.563  1.00  0.00     0.167 HD
ATOM     36  C   UNL A   1      42.109  33.382  34.018  1.00  0.00     0.037 A 
ATOM     37  C   UNL A   1      44.526  28.938  29.327  1.00  0.00     0.037 A 
ATOM     38  C   UNL A   1      42.129  32.010  34.452  1.00  0.00     0.049 A 
ATOM     39  C   UNL A   1      44.199  28.481  30.729  1.00  0.00     0.074 A 
ATOM     40  C   UNL A   1      41.718  31.486  35.668  1.00  0.00     0.029 A 
ATOM     41  N   UNL A   1      42.619  30.950  33.708  1.00  0.00    -0.354 N 
ATOM     42  N   UNL A   1      43.680  29.166  31.717  1.00  0.00    -0.248 NA
ATOM     43  C   UNL A   1      44.464  27.069  31.063  1.00  0.00     0.031 C 
ATOM     44  C   UNL A   1      42.030  30.124  35.688  1.00  0.00     0.029 A 
ATOM     45  C   UNL A   1      42.563  29.784  34.456  1.00  0.00     0.049 A 
ATOM     46  H   UNL A   1      42.958  31.015  32.786  1.00  0.00     0.167 HD
ATOM     47  C   UNL A   1      43.508  28.263  32.761  1.00  0.00     0.074 A 
ATOM     48  C   UNL A   1      43.970  26.978  32.291  1.00  0.00     0.031 C 
ATOM     49  C   UNL A   1      43.002  28.492  33.995  1.00  0.00     0.037 A 
BRANCH  36  50
ATOM     50  C   UNL A   1      41.655  34.428  34.998  1.00  0.00     0.057 A 
ATOM     51  C   UNL A   1      40.312  34.825  35.069  1.00  0.00     0.134 A 
ATOM     52  C   UNL A   1      42.556  35.036  35.880  1.00  0.00     0.134 A 
ATOM     53  F   UNL A   1      39.397  34.282  34.251  1.00  0.00    -0.206 F 
ATOM     54  C   UNL A   1      39.891  35.829  35.940  1.00  0.00     0.040 A 
ATOM     55  C   UNL A   1      42.140  36.016  36.783  1.00  0.00     0.040 A 
ATOM     56  F   UNL A   1      43.852  34.691  35.880  1.00  0.00    -0.206 F 
ATOM     57  C   UNL A   1      40.808  36.425  36.803  1.00  0.00     0.006 A 
ENDBRANCH  36  50
BRANCH  37  58
ATOM     58  C   UNL A   1      45.123  27.946  28.371  1.00  0.00     0.057 A 
ATOM     59  C   UNL A   1      46.515  27.840  28.208  1.00  0.00     0.134 A 
ATOM     60  C   UNL A   1      44.333  27.157  27.525  1.00  0.00     0.134 A 
ATOM     61  F   UNL A   1      47.338  28.591  28.955  1.00  0.00    -0.206 F 
ATOM     62  C   UNL A   1      47.090  27.027  27.225  1.00  0.00     0.040 A 
ATOM     63  C   UNL A   1      44.897  26.316  26.555  1.00  0.00     0.040 A 
ATOM     64  F   UNL A   1      42.996  27.201  27.612  1.00  0.00    -0.206 F 
ATOM     65  C   UNL A   1      46.279  26.259  26.395  1.00  0.00     0.006 A 
ENDBRANCH  37  58
BRANCH  49  66
ATOM     66  C   UNL A   1      42.861  27.328  34.935  1.00  0.00     0.057 A 
ATOM     67  C   UNL A   1      43.866  26.977  35.846  1.00  0.00     0.134 A 
ATOM     68  C   UNL A   1      41.662  26.604  34.991  1.00  0.00     0.134 A 
ATOM     69  F   UNL A   1      45.045  27.617  35.840  1.00  0.00    -0.206 F 
ATOM     70  C   UNL A   1      43.684  25.949  36.773  1.00  0.00     0.040 A 
ATOM     71  C   UNL A   1      41.456  25.597  35.934  1.00  0.00     0.040 A 
ATOM     72  F   UNL A   1      40.654  26.890  34.152  1.00  0.00    -0.206 F 
ATOM     73  C   UNL A   1      42.470  25.265  36.829  1.00  0.00     0.006 A 
ENDBRANCH  49  66
ENDBRANCH  23  24
ENDBRANCH  16  18
ENDBRANCH  15  16
ENDBRANCH  14  15
ENDBRANCH  13  14
ENDBRANCH  12  13
ENDBRANCH  10  12
ENDBRANCH   5  10
ENDBRANCH   1   5
BRANCH   2  74
ATOM     74  C   UNL A   1      46.551  44.518  20.005  1.00  0.00     0.174 C 
BRANCH  74  75
ATOM     75  N   UNL A   1      46.701  45.084  18.277  1.00  0.00    -0.342 N 
ATOM     76  C   UNL A   1      48.048  45.844  17.065  1.00  0.00     0.242 C 
ATOM     77  H   UNL A   1      45.842  44.977  17.809  1.00  0.00     0.164 HD
ATOM     78  O   UNL A   1      48.208  45.712  15.806  1.00  0.00    -0.273 OA
BRANCH  76  79
ATOM     79  C   UNL A   1      49.606  46.651  17.456  1.00  0.00     0.168 C 
ATOM     80  C   UNL A   1      49.769  46.845  18.997  1.00  0.00     0.041 C 
BRANCH  79  81
ATOM     81  N   UNL A   1      50.289  47.706  16.678  1.00  0.00    -0.343 N 
ATOM     82  C   UNL A   1      49.806  48.905  16.252  1.00  0.00     0.240 C 
ATOM     83  H   UNL A   1      51.223  47.514  16.433  1.00  0.00     0.164 HD
ATOM     84  O   UNL A   1      50.602  49.672  15.702  1.00  0.00    -0.273 OA
BRANCH  82  85
ATOM     85  C   UNL A   1      48.373  49.356  16.548  1.00  0.00     0.219 C 
BRANCH  85  86
ATOM     86  N   UNL A   1      48.216  50.032  17.818  1.00  0.00    -0.312 N 
ATOM     87  C   UNL A   1      47.180  50.837  18.188  1.00  0.00     0.407 C 
ATOM     88  H   UNL A   1      48.930  49.896  18.483  1.00  0.00     0.167 HD
ATOM     89  O   UNL A   1      47.262  51.519  19.201  1.00  0.00    -0.225 OA
BRANCH  87  90
ATOM     90  O   UNL A   1      46.183  50.869  17.265  1.00  0.00    -0.445 OA
BRANCH  90  91
ATOM     91  C   UNL A   1      44.808  50.862  17.724  1.00  0.00     0.270 C 
BRANCH  91  92
ATOM     92  C   UNL A   1      44.201  49.492  17.627  1.00  0.00    -0.011 A 
ATOM     93  C   UNL A   1      44.879  48.461  16.970  1.00  0.00     0.007 A 
ATOM     94  C   UNL A   1      42.889  49.284  18.074  1.00  0.00     0.007 A 
ATOM     95  C   UNL A   1      44.202  47.283  16.661  1.00  0.00     0.000 A 
ATOM     96  C   UNL A   1      42.198  48.142  17.704  1.00  0.00     0.000 A 
ATOM     97  C   UNL A   1      42.851  47.146  16.990  1.00  0.00     0.000 A 
ENDBRANCH  91  92
ENDBRANCH  90  91
ENDBRANCH  87  90
ENDBRANCH  85  86
ENDBRANCH  82  85
ENDBRANCH  79  81
ENDBRANCH  76  79
ENDBRANCH  74  75
BRANCH  74  98
ATOM     98  C   UNL A   1      46.405  45.612  21.396  1.00  0.00     0.015 C 
ATOM     99  C   UNL A   1      46.333  47.112  20.989  1.00  0.00     0.010 C 
ATOM    100  C   UNL A   1      45.547  45.455  22.673  1.00  0.00     0.010 C 
ENDBRANCH  74  98
ENDBRANCH   2  74
TORSDOF 24
ENDMDL
