MODEL 1
REMARK VINA RESULT:     -10.9      0.000      0.000
REMARK SMILES COc1ccc(Cl)c2sc(N3CC(C(=O)OCCOC(=O)c4ccc(-c5c6nc(c(-c7c(F)cccc7F)c7ccc([nH]7)c(-c7c(F)cccc7F)c7nc(c(-c8c(F)cccc8F)c8ccc5[nH]8)C=C7)C=C6)cc4)C3)nc12
REMARK SMILES IDX 17 1 16 2 14 3 15 4 13 5 11 6 12 7 76 8 10 9 3 10 4 11 78 12
REMARK SMILES IDX 5 13 8 14 77 15 6 16 9 17 7 18 2 19 1 20 18 21 19 22 20 23
REMARK SMILES IDX 21 24 22 25 23 26 75 27 24 28 74 29 25 30 26 31 27 32 68 33
REMARK SMILES IDX 28 34 73 35 67 36 69 37 29 38 72 39 66 40 65 41 30 43 56 44
REMARK SMILES IDX 39 45 55 46 40 47 43 48 54 49 70 50 41 51 42 52 53 54 71 55
REMARK SMILES IDX 44 56 31 57 32 58 37 59 33 60 34 61 36 62 38 63 35 64 57 65
REMARK SMILES IDX 58 66 63 67 59 68 60 69 62 70 64 71 61 72 45 73 46 74 51 75
REMARK SMILES IDX 47 76 48 77 50 78 52 79 49 80
REMARK H PARENT 69 42 43 53
REMARK Flexibility Score: inf
ROOT
ATOM      1  C   UNL A   1      33.883  35.116  28.825  1.00  0.00     0.274 C 
ENDROOT
BRANCH   1   2
ATOM      2  O   UNL A   1      34.079  33.726  29.143  1.00  0.00    -0.462 OA
BRANCH   2   3
ATOM      3  C   UNL A   1      34.569  32.938  28.137  1.00  0.00     0.312 C 
ATOM      4  O   UNL A   1      35.548  33.257  27.460  1.00  0.00    -0.252 OA
BRANCH   3   5
ATOM      5  C   UNL A   1      33.870  31.581  28.011  1.00  0.00     0.138 C 
ATOM      6  N   UNL A   1      33.131  30.363  26.531  1.00  0.00    -0.346 N 
ATOM      7  C   UNL A   1      34.447  30.568  27.026  1.00  0.00     0.136 C 
ATOM      8  C   UNL A   1      32.537  31.426  27.264  1.00  0.00     0.136 C 
BRANCH   6   9
ATOM      9  C   UNL A   1      32.574  29.248  26.021  1.00  0.00     0.186 A 
ATOM     10  C   UNL A   1      30.408  27.577  23.695  1.00  0.00     0.146 A 
ATOM     11  C   UNL A   1      29.945  26.256  23.623  1.00  0.00     0.050 A 
ATOM     12  C   UNL A   1      31.285  27.955  24.745  1.00  0.00     0.127 A 
ATOM     13  C   UNL A   1      30.332  25.321  24.578  1.00  0.00     0.026 A 
ATOM     14  C   UNL A   1      31.710  26.985  25.656  1.00  0.00     0.079 A 
ATOM     15  N   UNL A   1      31.761  29.237  24.993  1.00  0.00    -0.216 NA
ATOM     16  C   UNL A   1      31.228  25.667  25.594  1.00  0.00     0.060 A 
ATOM     17  S   UNL A   1      32.852  27.705  26.728  1.00  0.00    -0.095 S 
ATOM     18  Cl  UNL A   1      31.703  24.463  26.732  1.00  0.00    -0.083 Cl
BRANCH  10  19
ATOM     19  O   UNL A   1      30.114  28.498  22.717  1.00  0.00    -0.494 OA
ATOM     20  C   UNL A   1      28.787  29.008  22.781  1.00  0.00     0.278 C 
ENDBRANCH  10  19
ENDBRANCH   6   9
ENDBRANCH   3   5
ENDBRANCH   2   3
ENDBRANCH   1   2
BRANCH   1  21
ATOM     21  C   UNL A   1      33.069  35.825  29.908  1.00  0.00     0.275 C 
BRANCH  21  22
ATOM     22  O   UNL A   1      32.595  34.927  30.920  1.00  0.00    -0.458 OA
BRANCH  22  23
ATOM     23  C   UNL A   1      32.863  35.330  32.178  1.00  0.00     0.338 C 
ATOM     24  O   UNL A   1      32.247  36.165  32.836  1.00  0.00    -0.246 OA
BRANCH  23  25
ATOM     25  C   UNL A   1      34.110  34.751  32.676  1.00  0.00     0.060 A 
ATOM     26  C   UNL A   1      35.175  35.628  32.924  1.00  0.00     0.016 A 
ATOM     27  C   UNL A   1      34.297  33.369  32.580  1.00  0.00     0.016 A 
ATOM     28  C   UNL A   1      36.464  35.133  32.920  1.00  0.00     0.010 A 
ATOM     29  C   UNL A   1      35.587  32.879  32.563  1.00  0.00     0.010 A 
ATOM     30  C   UNL A   1      36.658  33.775  32.660  1.00  0.00    -0.014 A 
BRANCH  30  31
ATOM     31  C   UNL A   1      38.009  33.311  32.389  1.00  0.00     0.031 A 
ATOM     32  C   UNL A   1      39.000  33.430  33.486  1.00  0.00     0.074 A 
ATOM     33  C   UNL A   1      38.273  32.623  31.259  1.00  0.00     0.049 A 
ATOM     34  N   UNL A   1      40.208  33.891  33.433  1.00  0.00    -0.248 NA
ATOM     35  C   UNL A   1      38.582  32.990  34.827  1.00  0.00     0.031 C 
ATOM     36  C   UNL A   1      37.306  32.169  30.252  1.00  0.00     0.029 A 
ATOM     37  N   UNL A   1      39.443  32.061  30.845  1.00  0.00    -0.354 N 
ATOM     38  C   UNL A   1      40.762  33.645  34.686  1.00  0.00     0.074 A 
ATOM     39  C   UNL A   1      39.695  33.181  35.532  1.00  0.00     0.031 C 
ATOM     40  C   UNL A   1      37.888  31.231  29.475  1.00  0.00     0.029 A 
ATOM     41  C   UNL A   1      39.282  31.093  29.865  1.00  0.00     0.049 A 
ATOM     42  H   UNL A   1      40.321  32.318  31.208  1.00  0.00     0.167 HD
ATOM     43  C   UNL A   1      42.104  33.643  34.900  1.00  0.00     0.037 A 
ATOM     44  C   UNL A   1      40.199  30.184  29.457  1.00  0.00     0.037 A 
ATOM     45  C   UNL A   1      42.825  34.382  33.904  1.00  0.00     0.049 A 
ATOM     46  C   UNL A   1      41.533  30.631  29.919  1.00  0.00     0.074 A 
ATOM     47  C   UNL A   1      42.796  35.688  33.450  1.00  0.00     0.029 A 
ATOM     48  N   UNL A   1      43.577  33.693  32.987  1.00  0.00    -0.354 N 
ATOM     49  N   UNL A   1      42.194  31.637  29.421  1.00  0.00    -0.248 NA
ATOM     50  C   UNL A   1      41.995  30.166  31.220  1.00  0.00     0.031 C 
ATOM     51  C   UNL A   1      43.122  35.612  32.065  1.00  0.00     0.029 A 
ATOM     52  C   UNL A   1      43.328  34.265  31.767  1.00  0.00     0.049 A 
ATOM     53  H   UNL A   1      44.180  32.936  33.170  1.00  0.00     0.167 HD
ATOM     54  C   UNL A   1      42.871  32.185  30.501  1.00  0.00     0.074 A 
ATOM     55  C   UNL A   1      42.809  31.172  31.546  1.00  0.00     0.031 C 
ATOM     56  C   UNL A   1      43.172  33.517  30.544  1.00  0.00     0.037 A 
BRANCH  43  57
ATOM     57  C   UNL A   1      42.777  32.700  35.859  1.00  0.00     0.057 A 
ATOM     58  C   UNL A   1      43.334  33.114  37.088  1.00  0.00     0.134 A 
ATOM     59  C   UNL A   1      42.627  31.313  35.702  1.00  0.00     0.134 A 
ATOM     60  F   UNL A   1      43.432  34.407  37.424  1.00  0.00    -0.206 F 
ATOM     61  C   UNL A   1      43.728  32.214  38.081  1.00  0.00     0.040 A 
ATOM     62  C   UNL A   1      42.970  30.405  36.711  1.00  0.00     0.040 A 
ATOM     63  F   UNL A   1      42.072  30.803  34.592  1.00  0.00    -0.206 F 
ATOM     64  C   UNL A   1      43.522  30.855  37.906  1.00  0.00     0.006 A 
ENDBRANCH  43  57
BRANCH  44  65
ATOM     65  C   UNL A   1      39.967  28.845  28.874  1.00  0.00     0.057 A 
ATOM     66  C   UNL A   1      39.428  27.789  29.630  1.00  0.00     0.134 A 
ATOM     67  C   UNL A   1      40.469  28.502  27.612  1.00  0.00     0.134 A 
ATOM     68  F   UNL A   1      39.014  27.978  30.892  1.00  0.00    -0.206 F 
ATOM     69  C   UNL A   1      39.367  26.476  29.154  1.00  0.00     0.040 A 
ATOM     70  C   UNL A   1      40.430  27.188  27.128  1.00  0.00     0.040 A 
ATOM     71  F   UNL A   1      41.054  29.425  26.835  1.00  0.00    -0.206 F 
ATOM     72  C   UNL A   1      39.877  26.169  27.899  1.00  0.00     0.006 A 
ENDBRANCH  44  65
BRANCH  56  73
ATOM     73  C   UNL A   1      43.011  34.305  29.278  1.00  0.00     0.057 A 
ATOM     74  C   UNL A   1      41.785  34.918  29.004  1.00  0.00     0.134 A 
ATOM     75  C   UNL A   1      43.990  34.354  28.274  1.00  0.00     0.134 A 
ATOM     76  F   UNL A   1      40.781  34.851  29.891  1.00  0.00    -0.206 F 
ATOM     77  C   UNL A   1      41.547  35.574  27.794  1.00  0.00     0.040 A 
ATOM     78  C   UNL A   1      43.777  35.035  27.073  1.00  0.00     0.040 A 
ATOM     79  F   UNL A   1      45.151  33.701  28.408  1.00  0.00    -0.206 F 
ATOM     80  C   UNL A   1      42.550  35.646  26.829  1.00  0.00     0.006 A 
ENDBRANCH  56  73
ENDBRANCH  30  31
ENDBRANCH  23  25
ENDBRANCH  22  23
ENDBRANCH  21  22
ENDBRANCH   1  21
TORSDOF 13
ENDMDL
MODEL 2
REMARK VINA RESULT:     -10.9      4.330      8.638
REMARK SMILES COc1ccc(Cl)c2sc(N3CC(C(=O)OCCOC(=O)c4ccc(-c5c6nc(c(-c7c(F)cccc7F)c7ccc([nH]7)c(-c7c(F)cccc7F)c7nc(c(-c8c(F)cccc8F)c8ccc5[nH]8)C=C7)C=C6)cc4)C3)nc12
REMARK SMILES IDX 17 1 16 2 14 3 15 4 13 5 11 6 12 7 76 8 10 9 3 10 4 11 78 12
REMARK SMILES IDX 5 13 8 14 77 15 6 16 9 17 7 18 2 19 1 20 18 21 19 22 20 23
REMARK SMILES IDX 21 24 22 25 23 26 75 27 24 28 74 29 25 30 26 31 27 32 68 33
REMARK SMILES IDX 28 34 73 35 67 36 69 37 29 38 72 39 66 40 65 41 30 43 56 44
REMARK SMILES IDX 39 45 55 46 40 47 43 48 54 49 70 50 41 51 42 52 53 54 71 55
REMARK SMILES IDX 44 56 31 57 32 58 37 59 33 60 34 61 36 62 38 63 35 64 57 65
REMARK SMILES IDX 58 66 63 67 59 68 60 69 62 70 64 71 61 72 45 73 46 74 51 75
REMARK SMILES IDX 47 76 48 77 50 78 52 79 49 80
REMARK H PARENT 69 42 43 53
REMARK Flexibility Score: inf
ROOT
ATOM      1  C   UNL A   1      33.825  32.605  28.031  1.00  0.00     0.274 C 
ENDROOT
BRANCH   1   2
ATOM      2  O   UNL A   1      33.457  31.418  27.305  1.00  0.00    -0.462 OA
BRANCH   2   3
ATOM      3  C   UNL A   1      32.135  31.298  26.971  1.00  0.00     0.312 C 
ATOM      4  O   UNL A   1      31.425  32.269  26.706  1.00  0.00    -0.252 OA
BRANCH   3   5
ATOM      5  C   UNL A   1      31.655  29.850  26.840  1.00  0.00     0.138 C 
ATOM      6  N   UNL A   1      32.307  28.080  26.027  1.00  0.00    -0.346 N 
ATOM      7  C   UNL A   1      32.618  28.737  27.247  1.00  0.00     0.136 C 
ATOM      8  C   UNL A   1      31.553  29.151  25.477  1.00  0.00     0.136 C 
BRANCH   6   9
ATOM      9  C   UNL A   1      32.261  26.762  25.754  1.00  0.00     0.186 A 
ATOM     10  C   UNL A   1      31.138  23.425  26.463  1.00  0.00     0.146 A 
ATOM     11  C   UNL A   1      31.518  22.177  25.953  1.00  0.00     0.050 A 
ATOM     12  C   UNL A   1      31.763  24.601  25.973  1.00  0.00     0.127 A 
ATOM     13  C   UNL A   1      32.509  22.085  24.980  1.00  0.00     0.026 A 
ATOM     14  C   UNL A   1      32.710  24.491  24.952  1.00  0.00     0.079 A 
ATOM     15  N   UNL A   1      31.551  25.895  26.435  1.00  0.00    -0.216 NA
ATOM     16  C   UNL A   1      33.105  23.237  24.457  1.00  0.00     0.060 A 
ATOM     17  S   UNL A   1      33.198  26.077  24.484  1.00  0.00    -0.095 S 
ATOM     18  Cl  UNL A   1      34.301  23.072  23.229  1.00  0.00    -0.083 Cl
BRANCH  10  19
ATOM     19  O   UNL A   1      30.102  23.553  27.359  1.00  0.00    -0.494 OA
ATOM     20  C   UNL A   1      29.136  22.511  27.280  1.00  0.00     0.278 C 
ENDBRANCH  10  19
ENDBRANCH   6   9
ENDBRANCH   3   5
ENDBRANCH   2   3
ENDBRANCH   1   2
BRANCH   1  21
ATOM     21  C   UNL A   1      35.082  32.376  28.871  1.00  0.00     0.275 C 
BRANCH  21  22
ATOM     22  O   UNL A   1      35.749  31.150  28.546  1.00  0.00    -0.458 OA
BRANCH  22  23
ATOM     23  C   UNL A   1      36.335  30.549  29.600  1.00  0.00     0.338 C 
ATOM     24  O   UNL A   1      36.195  30.835  30.787  1.00  0.00    -0.246 OA
BRANCH  23  25
ATOM     25  C   UNL A   1      37.316  29.552  29.177  1.00  0.00     0.060 A 
ATOM     26  C   UNL A   1      37.740  28.617  30.131  1.00  0.00     0.016 A 
ATOM     27  C   UNL A   1      38.015  29.758  27.984  1.00  0.00     0.016 A 
ATOM     28  C   UNL A   1      38.960  27.993  29.962  1.00  0.00     0.010 A 
ATOM     29  C   UNL A   1      39.240  29.144  27.824  1.00  0.00     0.010 A 
ATOM     30  C   UNL A   1      39.732  28.326  28.847  1.00  0.00    -0.014 A 
BRANCH  30  31
ATOM     31  C   UNL A   1      41.116  27.881  28.809  1.00  0.00     0.031 A 
ATOM     32  C   UNL A   1      41.394  26.581  28.153  1.00  0.00     0.074 A 
ATOM     33  C   UNL A   1      42.105  28.721  29.177  1.00  0.00     0.049 A 
ATOM     34  N   UNL A   1      42.126  25.604  28.581  1.00  0.00    -0.248 NA
ATOM     35  C   UNL A   1      40.754  26.328  26.852  1.00  0.00     0.031 C 
ATOM     36  C   UNL A   1      41.975  30.138  29.540  1.00  0.00     0.029 A 
ATOM     37  N   UNL A   1      43.453  28.524  29.166  1.00  0.00    -0.354 N 
ATOM     38  C   UNL A   1      42.182  24.687  27.535  1.00  0.00     0.074 A 
ATOM     39  C   UNL A   1      41.246  25.132  26.537  1.00  0.00     0.031 C 
ATOM     40  C   UNL A   1      43.195  30.716  29.500  1.00  0.00     0.029 A 
ATOM     41  C   UNL A   1      44.190  29.698  29.208  1.00  0.00     0.049 A 
ATOM     42  H   UNL A   1      43.865  27.631  29.131  1.00  0.00     0.167 HD
ATOM     43  C   UNL A   1      43.140  23.726  27.459  1.00  0.00     0.037 A 
ATOM     44  C   UNL A   1      45.509  29.843  28.939  1.00  0.00     0.037 A 
ATOM     45  C   UNL A   1      43.731  23.433  28.733  1.00  0.00     0.049 A 
ATOM     46  C   UNL A   1      46.143  28.506  28.990  1.00  0.00     0.074 A 
ATOM     47  C   UNL A   1      43.248  23.000  29.953  1.00  0.00     0.029 A 
ATOM     48  N   UNL A   1      45.016  23.848  28.975  1.00  0.00    -0.354 N 
ATOM     49  N   UNL A   1      46.360  27.827  30.080  1.00  0.00    -0.248 NA
ATOM     50  C   UNL A   1      46.216  27.738  27.753  1.00  0.00     0.031 C 
ATOM     51  C   UNL A   1      44.087  23.613  30.929  1.00  0.00     0.029 A 
ATOM     52  C   UNL A   1      45.025  24.379  30.238  1.00  0.00     0.049 A 
ATOM     53  H   UNL A   1      45.783  23.777  28.361  1.00  0.00     0.167 HD
ATOM     54  C   UNL A   1      46.191  26.500  29.710  1.00  0.00     0.074 A 
ATOM     55  C   UNL A   1      46.226  26.501  28.253  1.00  0.00     0.031 C 
ATOM     56  C   UNL A   1      45.754  25.567  30.607  1.00  0.00     0.037 A 
BRANCH  43  57
ATOM     57  C   UNL A   1      43.745  23.276  26.158  1.00  0.00     0.057 A 
ATOM     58  C   UNL A   1      44.578  24.097  25.368  1.00  0.00     0.134 A 
ATOM     59  C   UNL A   1      43.737  21.915  25.813  1.00  0.00     0.134 A 
ATOM     60  F   UNL A   1      44.772  25.392  25.651  1.00  0.00    -0.206 F 
ATOM     61  C   UNL A   1      45.335  23.604  24.303  1.00  0.00     0.040 A 
ATOM     62  C   UNL A   1      44.532  21.402  24.781  1.00  0.00     0.040 A 
ATOM     63  F   UNL A   1      43.014  21.032  26.517  1.00  0.00    -0.206 F 
ATOM     64  C   UNL A   1      45.335  22.247  24.023  1.00  0.00     0.006 A 
ENDBRANCH  43  57
BRANCH  44  65
ATOM     65  C   UNL A   1      46.217  31.040  28.434  1.00  0.00     0.057 A 
ATOM     66  C   UNL A   1      46.777  31.993  29.303  1.00  0.00     0.134 A 
ATOM     67  C   UNL A   1      46.177  31.393  27.079  1.00  0.00     0.134 A 
ATOM     68  F   UNL A   1      46.774  31.808  30.632  1.00  0.00    -0.206 F 
ATOM     69  C   UNL A   1      47.291  33.212  28.853  1.00  0.00     0.040 A 
ATOM     70  C   UNL A   1      46.673  32.619  26.616  1.00  0.00     0.040 A 
ATOM     71  F   UNL A   1      45.613  30.578  26.176  1.00  0.00    -0.206 F 
ATOM     72  C   UNL A   1      47.233  33.533  27.503  1.00  0.00     0.006 A 
ENDBRANCH  44  65
BRANCH  56  73
ATOM     73  C   UNL A   1      45.744  25.951  32.057  1.00  0.00     0.057 A 
ATOM     74  C   UNL A   1      44.634  26.622  32.579  1.00  0.00     0.134 A 
ATOM     75  C   UNL A   1      46.853  25.795  32.902  1.00  0.00     0.134 A 
ATOM     76  F   UNL A   1      43.565  26.867  31.807  1.00  0.00    -0.206 F 
ATOM     77  C   UNL A   1      44.616  27.095  33.893  1.00  0.00     0.040 A 
ATOM     78  C   UNL A   1      46.836  26.234  34.227  1.00  0.00     0.040 A 
ATOM     79  F   UNL A   1      47.997  25.263  32.449  1.00  0.00    -0.206 F 
ATOM     80  C   UNL A   1      45.713  26.890  34.727  1.00  0.00     0.006 A 
ENDBRANCH  56  73
ENDBRANCH  30  31
ENDBRANCH  23  25
ENDBRANCH  22  23
ENDBRANCH  21  22
ENDBRANCH   1  21
TORSDOF 13
ENDMDL
MODEL 3
REMARK VINA RESULT:     -10.8      5.120      9.851
REMARK SMILES COc1ccc(Cl)c2sc(N3CC(C(=O)OCCOC(=O)c4ccc(-c5c6nc(c(-c7c(F)cccc7F)c7ccc([nH]7)c(-c7c(F)cccc7F)c7nc(c(-c8c(F)cccc8F)c8ccc5[nH]8)C=C7)C=C6)cc4)C3)nc12
REMARK SMILES IDX 17 1 16 2 14 3 15 4 13 5 11 6 12 7 76 8 10 9 3 10 4 11 78 12
REMARK SMILES IDX 5 13 8 14 77 15 6 16 9 17 7 18 2 19 1 20 18 21 19 22 20 23
REMARK SMILES IDX 21 24 22 25 23 26 75 27 24 28 74 29 25 30 26 31 27 32 68 33
REMARK SMILES IDX 28 34 73 35 67 36 69 37 29 38 72 39 66 40 65 41 30 43 56 44
REMARK SMILES IDX 39 45 55 46 40 47 43 48 54 49 70 50 41 51 42 52 53 54 71 55
REMARK SMILES IDX 44 56 31 57 32 58 37 59 33 60 34 61 36 62 38 63 35 64 57 65
REMARK SMILES IDX 58 66 63 67 59 68 60 69 62 70 64 71 61 72 45 73 46 74 51 75
REMARK SMILES IDX 47 76 48 77 50 78 52 79 49 80
REMARK H PARENT 69 42 43 53
REMARK Flexibility Score: inf
ROOT
ATOM      1  C   UNL A   1      40.874  20.149  26.821  1.00  0.00     0.274 C 
ENDROOT
BRANCH   1   2
ATOM      2  O   UNL A   1      39.749  20.562  26.023  1.00  0.00    -0.462 OA
BRANCH   2   3
ATOM      3  C   UNL A   1      39.262  21.818  26.266  1.00  0.00     0.312 C 
ATOM      4  O   UNL A   1      39.812  22.606  27.038  1.00  0.00    -0.252 OA
BRANCH   3   5
ATOM      5  C   UNL A   1      38.051  22.193  25.409  1.00  0.00     0.138 C 
ATOM      6  N   UNL A   1      36.104  22.793  25.675  1.00  0.00    -0.346 N 
ATOM      7  C   UNL A   1      37.332  23.504  25.719  1.00  0.00     0.136 C 
ATOM      8  C   UNL A   1      36.691  21.502  25.585  1.00  0.00     0.136 C 
BRANCH   6   9
ATOM      9  C   UNL A   1      34.885  23.217  25.290  1.00  0.00     0.186 A 
ATOM     10  C   UNL A   1      32.731  25.071  23.094  1.00  0.00     0.146 A 
ATOM     11  C   UNL A   1      31.375  25.413  23.176  1.00  0.00     0.050 A 
ATOM     12  C   UNL A   1      33.323  24.303  24.131  1.00  0.00     0.127 A 
ATOM     13  C   UNL A   1      30.611  25.013  24.269  1.00  0.00     0.026 A 
ATOM     14  C   UNL A   1      32.523  23.858  25.187  1.00  0.00     0.079 A 
ATOM     15  N   UNL A   1      34.665  23.956  24.229  1.00  0.00    -0.216 NA
ATOM     16  C   UNL A   1      31.168  24.220  25.277  1.00  0.00     0.060 A 
ATOM     17  S   UNL A   1      33.479  22.857  26.214  1.00  0.00    -0.095 S 
ATOM     18  Cl  UNL A   1      30.172  23.721  26.591  1.00  0.00    -0.083 Cl
BRANCH  10  19
ATOM     19  O   UNL A   1      33.487  25.376  21.986  1.00  0.00    -0.494 OA
ATOM     20  C   UNL A   1      32.731  25.504  20.787  1.00  0.00     0.278 C 
ENDBRANCH  10  19
ENDBRANCH   6   9
ENDBRANCH   3   5
ENDBRANCH   2   3
ENDBRANCH   1   2
BRANCH   1  21
ATOM     21  C   UNL A   1      42.037  19.684  25.944  1.00  0.00     0.275 C 
BRANCH  21  22
ATOM     22  O   UNL A   1      43.260  20.372  26.236  1.00  0.00    -0.458 OA
BRANCH  22  23
ATOM     23  C   UNL A   1      43.867  20.895  25.151  1.00  0.00     0.338 C 
ATOM     24  O   UNL A   1      44.227  20.293  24.142  1.00  0.00    -0.246 OA
BRANCH  23  25
ATOM     25  C   UNL A   1      44.203  22.303  25.346  1.00  0.00     0.060 A 
ATOM     26  C   UNL A   1      45.157  22.610  26.326  1.00  0.00     0.016 A 
ATOM     27  C   UNL A   1      43.362  23.279  24.803  1.00  0.00     0.016 A 
ATOM     28  C   UNL A   1      45.163  23.874  26.882  1.00  0.00     0.010 A 
ATOM     29  C   UNL A   1      43.360  24.537  25.370  1.00  0.00     0.010 A 
ATOM     30  C   UNL A   1      44.209  24.799  26.451  1.00  0.00    -0.014 A 
BRANCH  30  31
ATOM     31  C   UNL A   1      44.041  26.023  27.217  1.00  0.00     0.031 A 
ATOM     32  C   UNL A   1      45.026  27.108  26.989  1.00  0.00     0.074 A 
ATOM     33  C   UNL A   1      42.920  26.218  27.942  1.00  0.00     0.049 A 
ATOM     34  N   UNL A   1      45.661  27.816  27.867  1.00  0.00    -0.248 NA
ATOM     35  C   UNL A   1      45.362  27.435  25.594  1.00  0.00     0.031 C 
ATOM     36  C   UNL A   1      41.734  25.353  27.989  1.00  0.00     0.029 A 
ATOM     37  N   UNL A   1      42.546  27.301  28.678  1.00  0.00    -0.354 N 
ATOM     38  C   UNL A   1      46.344  28.790  27.144  1.00  0.00     0.074 A 
ATOM     39  C   UNL A   1      46.206  28.453  25.752  1.00  0.00     0.031 C 
ATOM     40  C   UNL A   1      40.708  26.042  28.530  1.00  0.00     0.029 A 
ATOM     41  C   UNL A   1      41.187  27.348  28.952  1.00  0.00     0.049 A 
ATOM     42  H   UNL A   1      43.181  27.986  28.987  1.00  0.00     0.167 HD
ATOM     43  C   UNL A   1      46.813  29.928  27.719  1.00  0.00     0.037 A 
ATOM     44  C   UNL A   1      40.484  28.410  29.412  1.00  0.00     0.037 A 
ATOM     45  C   UNL A   1      46.987  29.801  29.138  1.00  0.00     0.049 A 
ATOM     46  C   UNL A   1      41.441  29.394  29.970  1.00  0.00     0.074 A 
ATOM     47  C   UNL A   1      47.721  28.963  29.956  1.00  0.00     0.029 A 
ATOM     48  N   UNL A   1      46.114  30.453  29.970  1.00  0.00    -0.354 N 
ATOM     49  N   UNL A   1      42.095  29.244  31.086  1.00  0.00    -0.248 NA
ATOM     50  C   UNL A   1      41.959  30.422  29.077  1.00  0.00     0.031 C 
ATOM     51  C   UNL A   1      46.939  28.812  31.137  1.00  0.00     0.029 A 
ATOM     52  C   UNL A   1      45.780  29.567  30.960  1.00  0.00     0.049 A 
ATOM     53  H   UNL A   1      45.792  31.379  29.877  1.00  0.00     0.167 HD
ATOM     54  C   UNL A   1      43.321  29.854  30.861  1.00  0.00     0.074 A 
ATOM     55  C   UNL A   1      43.133  30.662  29.663  1.00  0.00     0.031 C 
ATOM     56  C   UNL A   1      44.450  29.427  31.500  1.00  0.00     0.037 A 
BRANCH  43  57
ATOM     57  C   UNL A   1      46.817  31.257  27.015  1.00  0.00     0.057 A 
ATOM     58  C   UNL A   1      45.640  31.949  26.660  1.00  0.00     0.134 A 
ATOM     59  C   UNL A   1      48.004  32.005  26.933  1.00  0.00     0.134 A 
ATOM     60  F   UNL A   1      44.425  31.400  26.797  1.00  0.00    -0.206 F 
ATOM     61  C   UNL A   1      45.643  33.281  26.240  1.00  0.00     0.040 A 
ATOM     62  C   UNL A   1      48.012  33.355  26.564  1.00  0.00     0.040 A 
ATOM     63  F   UNL A   1      49.181  31.466  27.283  1.00  0.00    -0.206 F 
ATOM     64  C   UNL A   1      46.828  33.998  26.216  1.00  0.00     0.006 A 
ENDBRANCH  43  57
BRANCH  44  65
ATOM     65  C   UNL A   1      39.052  28.720  29.210  1.00  0.00     0.057 A 
ATOM     66  C   UNL A   1      38.570  29.246  27.998  1.00  0.00     0.134 A 
ATOM     67  C   UNL A   1      38.146  28.711  30.278  1.00  0.00     0.134 A 
ATOM     68  F   UNL A   1      39.378  29.402  26.938  1.00  0.00    -0.206 F 
ATOM     69  C   UNL A   1      37.261  29.710  27.846  1.00  0.00     0.040 A 
ATOM     70  C   UNL A   1      36.835  29.188  30.145  1.00  0.00     0.040 A 
ATOM     71  F   UNL A   1      38.523  28.282  31.490  1.00  0.00    -0.206 F 
ATOM     72  C   UNL A   1      36.388  29.690  28.926  1.00  0.00     0.006 A 
ENDBRANCH  44  65
BRANCH  56  73
ATOM     73  C   UNL A   1      44.279  28.485  32.655  1.00  0.00     0.057 A 
ATOM     74  C   UNL A   1      44.136  27.117  32.407  1.00  0.00     0.134 A 
ATOM     75  C   UNL A   1      44.116  28.916  33.981  1.00  0.00     0.134 A 
ATOM     76  F   UNL A   1      44.212  26.644  31.154  1.00  0.00    -0.206 F 
ATOM     77  C   UNL A   1      43.869  26.209  33.435  1.00  0.00     0.040 A 
ATOM     78  C   UNL A   1      43.881  28.015  35.022  1.00  0.00     0.040 A 
ATOM     79  F   UNL A   1      44.126  30.219  34.290  1.00  0.00    -0.206 F 
ATOM     80  C   UNL A   1      43.754  26.656  34.750  1.00  0.00     0.006 A 
ENDBRANCH  56  73
ENDBRANCH  30  31
ENDBRANCH  23  25
ENDBRANCH  22  23
ENDBRANCH  21  22
ENDBRANCH   1  21
TORSDOF 13
ENDMDL
