MODEL 1
REMARK VINA RESULT:     -11.3      0.000      0.000
REMARK SMILES C[C@H](NC(=O)[C@H]1CC[C@H]2CCCC[C@@H]2[NH2+]1)C(=O)OCCOC(=O)c1ccc(-c2c3nc(c(-c4c(F)cccc4F)c4ccc([nH]4)c(-c4c(F)cccc4F)c4nc(c(-c5c(F)cccc5F)c5ccc2[nH]5)C=C4)C=C3)cc1
REMARK SMILES IDX 19 1 18 2 16 3 17 4 2 5 1 6 3 7 4 8 5 10 6 11 7 12 15 13
REMARK SMILES IDX 8 14 14 15 9 18 13 19 10 20 12 21 11 22 20 23 21 24 22 25
REMARK SMILES IDX 23 26 24 27 25 28 77 29 26 30 76 31 27 32 28 33 29 34 70 35
REMARK SMILES IDX 30 36 75 37 69 38 71 39 31 40 74 41 68 42 67 43 32 45 58 46
REMARK SMILES IDX 41 47 57 48 42 49 45 50 56 51 72 52 43 53 44 54 55 56 73 57
REMARK SMILES IDX 46 58 33 59 34 60 39 61 35 62 36 63 38 64 40 65 37 66 59 67
REMARK SMILES IDX 60 68 65 69 61 70 62 71 64 72 66 73 63 74 47 75 48 76 53 77
REMARK SMILES IDX 49 78 50 79 52 80 54 81 51 82
REMARK H PARENT 3 9 15 16 15 17 71 44 45 55
REMARK Flexibility Score: inf
ROOT
ATOM      1  C   UNL A   1      31.351  31.694  26.442  1.00  0.00     0.274 C 
ENDROOT
BRANCH   1   2
ATOM      2  O   UNL A   1      32.406  30.804  26.029  1.00  0.00    -0.461 OA
BRANCH   2   3
ATOM      3  C   UNL A   1      32.367  29.555  26.570  1.00  0.00     0.328 C 
ATOM      4  O   UNL A   1      31.577  29.194  27.436  1.00  0.00    -0.250 OA
BRANCH   3   5
ATOM      5  C   UNL A   1      33.534  28.676  26.108  1.00  0.00     0.189 C 
ATOM      6  C   UNL A   1      34.625  28.796  27.177  1.00  0.00     0.043 C 
BRANCH   5   7
ATOM      7  N   UNL A   1      34.101  28.991  24.803  1.00  0.00    -0.338 N 
ATOM      8  C   UNL A   1      33.626  28.776  23.543  1.00  0.00     0.278 C 
ATOM      9  H   UNL A   1      34.978  29.438  24.838  1.00  0.00     0.164 HD
ATOM     10  O   UNL A   1      34.436  28.993  22.631  1.00  0.00    -0.268 OA
BRANCH   8  11
ATOM     11  C   UNL A   1      32.133  28.417  23.173  1.00  0.00     0.272 C 
ATOM     12  C   UNL A   1      31.553  27.029  23.506  1.00  0.00     0.076 C 
ATOM     13  N   UNL A   1      31.292  29.591  23.500  1.00  0.00    -0.333 N 
ATOM     14  C   UNL A   1      30.165  27.057  24.139  1.00  0.00     0.016 C 
ATOM     15  C   UNL A   1      29.841  29.439  23.562  1.00  0.00     0.186 C 
ATOM     16  H   UNL A   1      31.487  30.302  22.794  1.00  0.00     0.347 HD
ATOM     17  H   UNL A   1      31.552  29.812  24.462  1.00  0.00     0.347 HD
ATOM     18  C   UNL A   1      29.330  28.016  23.314  1.00  0.00     0.048 C 
ATOM     19  C   UNL A   1      29.139  30.390  22.581  1.00  0.00     0.065 C 
ATOM     20  C   UNL A   1      27.833  27.938  23.611  1.00  0.00     0.010 C 
ATOM     21  C   UNL A   1      27.611  30.301  22.711  1.00  0.00     0.006 C 
ATOM     22  C   UNL A   1      27.079  28.868  22.660  1.00  0.00     0.001 C 
ENDBRANCH   8  11
ENDBRANCH   5   7
ENDBRANCH   3   5
ENDBRANCH   2   3
ENDBRANCH   1   2
BRANCH   1  23
ATOM     23  C   UNL A   1      31.859  33.122  26.654  1.00  0.00     0.275 C 
BRANCH  23  24
ATOM     24  O   UNL A   1      32.195  33.388  28.026  1.00  0.00    -0.458 OA
BRANCH  24  25
ATOM     25  C   UNL A   1      33.260  34.213  28.193  1.00  0.00     0.338 C 
ATOM     26  O   UNL A   1      33.256  35.432  28.149  1.00  0.00    -0.246 OA
BRANCH  25  27
ATOM     27  C   UNL A   1      34.459  33.438  28.556  1.00  0.00     0.060 A 
ATOM     28  C   UNL A   1      34.275  32.135  29.030  1.00  0.00     0.016 A 
ATOM     29  C   UNL A   1      35.732  34.011  28.532  1.00  0.00     0.016 A 
ATOM     30  C   UNL A   1      35.359  31.410  29.518  1.00  0.00     0.010 A 
ATOM     31  C   UNL A   1      36.820  33.284  29.023  1.00  0.00     0.010 A 
ATOM     32  C   UNL A   1      36.634  31.992  29.543  1.00  0.00    -0.014 A 
BRANCH  32  33
ATOM     33  C   UNL A   1      37.757  31.278  30.196  1.00  0.00     0.031 A 
ATOM     34  C   UNL A   1      38.063  31.540  31.644  1.00  0.00     0.074 A 
ATOM     35  C   UNL A   1      38.487  30.389  29.502  1.00  0.00     0.049 A 
ATOM     36  N   UNL A   1      39.025  31.057  32.388  1.00  0.00    -0.248 NA
ATOM     37  C   UNL A   1      37.167  32.474  32.346  1.00  0.00     0.031 C 
ATOM     38  C   UNL A   1      38.271  30.027  28.102  1.00  0.00     0.029 A 
ATOM     39  N   UNL A   1      39.563  29.630  29.885  1.00  0.00    -0.354 N 
ATOM     40  C   UNL A   1      38.860  31.634  33.640  1.00  0.00     0.074 A 
ATOM     41  C   UNL A   1      37.720  32.522  33.549  1.00  0.00     0.031 C 
ATOM     42  C   UNL A   1      39.188  29.113  27.743  1.00  0.00     0.029 A 
ATOM     43  C   UNL A   1      40.072  28.852  28.876  1.00  0.00     0.049 A 
ATOM     44  H   UNL A   1      39.935  29.643  30.797  1.00  0.00     0.167 HD
ATOM     45  C   UNL A   1      39.587  31.435  34.765  1.00  0.00     0.037 A 
ATOM     46  C   UNL A   1      41.142  28.034  28.865  1.00  0.00     0.037 A 
ATOM     47  C   UNL A   1      40.712  30.543  34.861  1.00  0.00     0.049 A 
ATOM     48  C   UNL A   1      41.962  27.869  30.113  1.00  0.00     0.074 A 
ATOM     49  C   UNL A   1      41.497  30.259  35.965  1.00  0.00     0.029 A 
ATOM     50  N   UNL A   1      41.213  29.790  33.810  1.00  0.00    -0.354 N 
ATOM     51  N   UNL A   1      41.790  28.409  31.294  1.00  0.00    -0.248 NA
ATOM     52  C   UNL A   1      43.131  26.980  30.023  1.00  0.00     0.031 C 
ATOM     53  C   UNL A   1      42.496  29.359  35.573  1.00  0.00     0.029 A 
ATOM     54  C   UNL A   1      42.308  29.054  34.234  1.00  0.00     0.049 A 
ATOM     55  H   UNL A   1      40.844  29.779  32.897  1.00  0.00     0.167 HD
ATOM     56  C   UNL A   1      42.808  27.907  32.095  1.00  0.00     0.074 A 
ATOM     57  C   UNL A   1      43.590  27.012  31.267  1.00  0.00     0.031 C 
ATOM     58  C   UNL A   1      43.072  28.164  33.400  1.00  0.00     0.037 A 
BRANCH  45  59
ATOM     59  C   UNL A   1      39.196  32.217  35.983  1.00  0.00     0.057 A 
ATOM     60  C   UNL A   1      39.700  33.500  36.231  1.00  0.00     0.134 A 
ATOM     61  C   UNL A   1      38.281  31.691  36.905  1.00  0.00     0.134 A 
ATOM     62  F   UNL A   1      40.589  34.054  35.393  1.00  0.00    -0.206 F 
ATOM     63  C   UNL A   1      39.324  34.224  37.363  1.00  0.00     0.040 A 
ATOM     64  C   UNL A   1      37.881  32.414  38.029  1.00  0.00     0.040 A 
ATOM     65  F   UNL A   1      37.758  30.469  36.724  1.00  0.00    -0.206 F 
ATOM     66  C   UNL A   1      38.408  33.684  38.263  1.00  0.00     0.006 A 
ENDBRANCH  45  59
BRANCH  46  67
ATOM     67  C   UNL A   1      41.502  27.306  27.625  1.00  0.00     0.057 A 
ATOM     68  C   UNL A   1      42.290  27.908  26.638  1.00  0.00     0.134 A 
ATOM     69  C   UNL A   1      41.056  25.999  27.391  1.00  0.00     0.134 A 
ATOM     70  F   UNL A   1      42.727  29.166  26.798  1.00  0.00    -0.206 F 
ATOM     71  C   UNL A   1      42.612  27.242  25.455  1.00  0.00     0.040 A 
ATOM     72  C   UNL A   1      41.389  25.313  26.223  1.00  0.00     0.040 A 
ATOM     73  F   UNL A   1      40.297  25.370  28.300  1.00  0.00    -0.206 F 
ATOM     74  C   UNL A   1      42.165  25.938  25.248  1.00  0.00     0.006 A 
ENDBRANCH  46  67
BRANCH  58  75
ATOM     75  C   UNL A   1      44.230  27.441  34.018  1.00  0.00     0.057 A 
ATOM     76  C   UNL A   1      45.514  27.999  34.053  1.00  0.00     0.134 A 
ATOM     77  C   UNL A   1      44.053  26.184  34.610  1.00  0.00     0.134 A 
ATOM     78  F   UNL A   1      45.752  29.194  33.492  1.00  0.00    -0.206 F 
ATOM     79  C   UNL A   1      46.586  27.322  34.638  1.00  0.00     0.040 A 
ATOM     80  C   UNL A   1      45.113  25.507  35.216  1.00  0.00     0.040 A 
ATOM     81  F   UNL A   1      42.847  25.597  34.615  1.00  0.00    -0.206 F 
ATOM     82  C   UNL A   1      46.385  26.074  35.225  1.00  0.00     0.006 A 
ENDBRANCH  58  75
ENDBRANCH  32  33
ENDBRANCH  25  27
ENDBRANCH  24  25
ENDBRANCH  23  24
ENDBRANCH   1  23
TORSDOF 13
ENDMDL
MODEL 2
REMARK VINA RESULT:     -11.0      3.715      8.371
REMARK SMILES C[C@H](NC(=O)[C@H]1CC[C@H]2CCCC[C@@H]2[NH2+]1)C(=O)OCCOC(=O)c1ccc(-c2c3nc(c(-c4c(F)cccc4F)c4ccc([nH]4)c(-c4c(F)cccc4F)c4nc(c(-c5c(F)cccc5F)c5ccc2[nH]5)C=C4)C=C3)cc1
REMARK SMILES IDX 19 1 18 2 16 3 17 4 2 5 1 6 3 7 4 8 5 10 6 11 7 12 15 13
REMARK SMILES IDX 8 14 14 15 9 18 13 19 10 20 12 21 11 22 20 23 21 24 22 25
REMARK SMILES IDX 23 26 24 27 25 28 77 29 26 30 76 31 27 32 28 33 29 34 70 35
REMARK SMILES IDX 30 36 75 37 69 38 71 39 31 40 74 41 68 42 67 43 32 45 58 46
REMARK SMILES IDX 41 47 57 48 42 49 45 50 56 51 72 52 43 53 44 54 55 56 73 57
REMARK SMILES IDX 46 58 33 59 34 60 39 61 35 62 36 63 38 64 40 65 37 66 59 67
REMARK SMILES IDX 60 68 65 69 61 70 62 71 64 72 66 73 63 74 47 75 48 76 53 77
REMARK SMILES IDX 49 78 50 79 52 80 54 81 51 82
REMARK H PARENT 3 9 15 16 15 17 71 44 45 55
REMARK Flexibility Score: inf
ROOT
ATOM      1  C   UNL A   1      42.338  21.159  26.087  1.00  0.00     0.274 C 
ENDROOT
BRANCH   1   2
ATOM      2  O   UNL A   1      41.025  21.479  25.588  1.00  0.00    -0.461 OA
BRANCH   2   3
ATOM      3  C   UNL A   1      40.122  21.881  26.526  1.00  0.00     0.328 C 
ATOM      4  O   UNL A   1      40.233  21.684  27.732  1.00  0.00    -0.250 OA
BRANCH   3   5
ATOM      5  C   UNL A   1      38.848  22.464  25.906  1.00  0.00     0.189 C 
ATOM      6  C   UNL A   1      38.610  23.818  26.581  1.00  0.00     0.043 C 
BRANCH   5   7
ATOM      7  N   UNL A   1      37.645  21.649  26.023  1.00  0.00    -0.338 N 
ATOM      8  C   UNL A   1      36.340  21.930  25.740  1.00  0.00     0.278 C 
ATOM      9  H   UNL A   1      37.801  20.739  26.364  1.00  0.00     0.164 HD
ATOM     10  O   UNL A   1      35.523  21.082  26.128  1.00  0.00    -0.268 OA
BRANCH   8  11
ATOM     11  C   UNL A   1      35.831  23.143  24.868  1.00  0.00     0.272 C 
ATOM     12  C   UNL A   1      35.590  22.978  23.355  1.00  0.00     0.076 C 
ATOM     13  N   UNL A   1      34.780  23.845  25.640  1.00  0.00    -0.333 N 
ATOM     14  C   UNL A   1      34.277  23.570  22.853  1.00  0.00     0.016 C 
ATOM     15  C   UNL A   1      33.912  24.805  24.964  1.00  0.00     0.186 C 
ATOM     16  H   UNL A   1      35.252  24.349  26.392  1.00  0.00     0.347 HD
ATOM     17  H   UNL A   1      34.143  23.097  25.915  1.00  0.00     0.347 HD
ATOM     18  C   UNL A   1      34.164  24.955  23.460  1.00  0.00     0.048 C 
ATOM     19  C   UNL A   1      34.000  26.193  25.617  1.00  0.00     0.065 C 
ATOM     20  C   UNL A   1      33.070  25.815  22.828  1.00  0.00     0.010 C 
ATOM     21  C   UNL A   1      33.017  27.180  24.968  1.00  0.00     0.006 C 
ATOM     22  C   UNL A   1      33.110  27.215  23.441  1.00  0.00     0.001 C 
ENDBRANCH   8  11
ENDBRANCH   5   7
ENDBRANCH   3   5
ENDBRANCH   2   3
ENDBRANCH   1   2
BRANCH   1  23
ATOM     23  C   UNL A   1      43.438  21.872  25.297  1.00  0.00     0.275 C 
BRANCH  23  24
ATOM     24  O   UNL A   1      43.002  23.134  24.765  1.00  0.00    -0.458 OA
BRANCH  24  25
ATOM     25  C   UNL A   1      43.789  24.187  25.101  1.00  0.00     0.338 C 
ATOM     26  O   UNL A   1      44.882  24.462  24.636  1.00  0.00    -0.246 OA
BRANCH  25  27
ATOM     27  C   UNL A   1      43.095  25.062  26.062  1.00  0.00     0.060 A 
ATOM     28  C   UNL A   1      43.474  26.408  26.110  1.00  0.00     0.016 A 
ATOM     29  C   UNL A   1      42.166  24.553  26.972  1.00  0.00     0.016 A 
ATOM     30  C   UNL A   1      42.952  27.245  27.092  1.00  0.00     0.010 A 
ATOM     31  C   UNL A   1      41.644  25.393  27.959  1.00  0.00     0.010 A 
ATOM     32  C   UNL A   1      42.054  26.735  28.041  1.00  0.00    -0.014 A 
BRANCH  32  33
ATOM     33  C   UNL A   1      41.615  27.586  29.172  1.00  0.00     0.031 A 
ATOM     34  C   UNL A   1      42.354  27.525  30.479  1.00  0.00     0.074 A 
ATOM     35  C   UNL A   1      40.572  28.420  29.024  1.00  0.00     0.049 A 
ATOM     36  N   UNL A   1      42.104  28.150  31.601  1.00  0.00    -0.248 NA
ATOM     37  C   UNL A   1      43.528  26.639  30.529  1.00  0.00     0.031 C 
ATOM     38  C   UNL A   1      39.794  28.591  27.798  1.00  0.00     0.029 A 
ATOM     39  N   UNL A   1      39.988  29.279  29.918  1.00  0.00    -0.354 N 
ATOM     40  C   UNL A   1      43.079  27.727  32.494  1.00  0.00     0.074 A 
ATOM     41  C   UNL A   1      43.911  26.773  31.791  1.00  0.00     0.031 C 
ATOM     42  C   UNL A   1      38.831  29.501  28.018  1.00  0.00     0.029 A 
ATOM     43  C   UNL A   1      38.906  29.952  29.406  1.00  0.00     0.049 A 
ATOM     44  H   UNL A   1      40.311  29.402  30.840  1.00  0.00     0.167 HD
ATOM     45  C   UNL A   1      43.270  28.105  33.781  1.00  0.00     0.037 A 
ATOM     46  C   UNL A   1      38.063  30.819  29.997  1.00  0.00     0.037 A 
ATOM     47  C   UNL A   1      42.453  29.063  34.477  1.00  0.00     0.049 A 
ATOM     48  C   UNL A   1      38.266  31.185  31.441  1.00  0.00     0.074 A 
ATOM     49  C   UNL A   1      42.582  29.527  35.775  1.00  0.00     0.029 A 
ATOM     50  N   UNL A   1      41.352  29.705  33.932  1.00  0.00    -0.354 N 
ATOM     51  N   UNL A   1      39.199  30.789  32.271  1.00  0.00    -0.248 NA
ATOM     52  C   UNL A   1      37.294  32.119  32.029  1.00  0.00     0.031 C 
ATOM     53  C   UNL A   1      41.538  30.424  36.026  1.00  0.00     0.029 A 
ATOM     54  C   UNL A   1      40.781  30.547  34.872  1.00  0.00     0.049 A 
ATOM     55  H   UNL A   1      41.024  29.581  33.011  1.00  0.00     0.167 HD
ATOM     56  C   UNL A   1      38.944  31.443  33.470  1.00  0.00     0.074 A 
ATOM     57  C   UNL A   1      37.774  32.269  33.256  1.00  0.00     0.031 C 
ATOM     58  C   UNL A   1      39.620  31.367  34.643  1.00  0.00     0.037 A 
BRANCH  45  59
ATOM     59  C   UNL A   1      44.401  27.462  34.525  1.00  0.00     0.057 A 
ATOM     60  C   UNL A   1      45.692  28.005  34.520  1.00  0.00     0.134 A 
ATOM     61  C   UNL A   1      44.190  26.301  35.280  1.00  0.00     0.134 A 
ATOM     62  F   UNL A   1      45.963  29.108  33.807  1.00  0.00    -0.206 F 
ATOM     63  C   UNL A   1      46.738  27.405  35.222  1.00  0.00     0.040 A 
ATOM     64  C   UNL A   1      45.222  25.704  36.004  1.00  0.00     0.040 A 
ATOM     65  F   UNL A   1      42.975  25.733  35.330  1.00  0.00    -0.206 F 
ATOM     66  C   UNL A   1      46.503  26.253  35.972  1.00  0.00     0.006 A 
ENDBRANCH  45  59
BRANCH  46  67
ATOM     67  C   UNL A   1      36.943  31.405  29.221  1.00  0.00     0.057 A 
ATOM     68  C   UNL A   1      35.791  30.661  28.945  1.00  0.00     0.134 A 
ATOM     69  C   UNL A   1      37.003  32.714  28.730  1.00  0.00     0.134 A 
ATOM     70  F   UNL A   1      35.688  29.394  29.372  1.00  0.00    -0.206 F 
ATOM     71  C   UNL A   1      34.743  31.192  28.193  1.00  0.00     0.040 A 
ATOM     72  C   UNL A   1      35.953  33.266  27.995  1.00  0.00     0.040 A 
ATOM     73  F   UNL A   1      38.081  33.477  28.963  1.00  0.00    -0.206 F 
ATOM     74  C   UNL A   1      34.820  32.502  27.720  1.00  0.00     0.006 A 
ENDBRANCH  46  67
BRANCH  58  75
ATOM     75  C   UNL A   1      39.130  32.225  35.770  1.00  0.00     0.057 A 
ATOM     76  C   UNL A   1      39.539  33.556  35.917  1.00  0.00     0.134 A 
ATOM     77  C   UNL A   1      38.216  31.720  36.705  1.00  0.00     0.134 A 
ATOM     78  F   UNL A   1      40.422  34.093  35.063  1.00  0.00    -0.206 F 
ATOM     79  C   UNL A   1      39.072  34.349  36.966  1.00  0.00     0.040 A 
ATOM     80  C   UNL A   1      37.726  32.511  37.745  1.00  0.00     0.040 A 
ATOM     81  F   UNL A   1      37.781  30.455  36.617  1.00  0.00    -0.206 F 
ATOM     82  C   UNL A   1      38.159  33.828  37.881  1.00  0.00     0.006 A 
ENDBRANCH  58  75
ENDBRANCH  32  33
ENDBRANCH  25  27
ENDBRANCH  24  25
ENDBRANCH  23  24
ENDBRANCH   1  23
TORSDOF 13
ENDMDL
MODEL 3
REMARK VINA RESULT:     -10.9      4.062      5.837
REMARK SMILES C[C@H](NC(=O)[C@H]1CC[C@H]2CCCC[C@@H]2[NH2+]1)C(=O)OCCOC(=O)c1ccc(-c2c3nc(c(-c4c(F)cccc4F)c4ccc([nH]4)c(-c4c(F)cccc4F)c4nc(c(-c5c(F)cccc5F)c5ccc2[nH]5)C=C4)C=C3)cc1
REMARK SMILES IDX 19 1 18 2 16 3 17 4 2 5 1 6 3 7 4 8 5 10 6 11 7 12 15 13
REMARK SMILES IDX 8 14 14 15 9 18 13 19 10 20 12 21 11 22 20 23 21 24 22 25
REMARK SMILES IDX 23 26 24 27 25 28 77 29 26 30 76 31 27 32 28 33 29 34 70 35
REMARK SMILES IDX 30 36 75 37 69 38 71 39 31 40 74 41 68 42 67 43 32 45 58 46
REMARK SMILES IDX 41 47 57 48 42 49 45 50 56 51 72 52 43 53 44 54 55 56 73 57
REMARK SMILES IDX 46 58 33 59 34 60 39 61 35 62 36 63 38 64 40 65 37 66 59 67
REMARK SMILES IDX 60 68 65 69 61 70 62 71 64 72 66 73 63 74 47 75 48 76 53 77
REMARK SMILES IDX 49 78 50 79 52 80 54 81 51 82
REMARK H PARENT 3 9 15 16 15 17 71 44 45 55
REMARK Flexibility Score: inf
ROOT
ATOM      1  C   UNL A   1      31.898  30.115  26.380  1.00  0.00     0.274 C 
ENDROOT
BRANCH   1   2
ATOM      2  O   UNL A   1      32.369  28.771  26.163  1.00  0.00    -0.461 OA
BRANCH   2   3
ATOM      3  C   UNL A   1      31.682  27.794  26.818  1.00  0.00     0.328 C 
ATOM      4  O   UNL A   1      31.348  27.848  27.998  1.00  0.00    -0.250 OA
BRANCH   3   5
ATOM      5  C   UNL A   1      31.511  26.526  25.975  1.00  0.00     0.189 C 
ATOM      6  C   UNL A   1      30.646  26.911  24.771  1.00  0.00     0.043 C 
BRANCH   5   7
ATOM      7  N   UNL A   1      30.914  25.381  26.650  1.00  0.00    -0.338 N 
ATOM      8  C   UNL A   1      31.375  24.111  26.841  1.00  0.00     0.278 C 
ATOM      9  H   UNL A   1      30.025  25.553  27.037  1.00  0.00     0.164 HD
ATOM     10  O   UNL A   1      30.544  23.312  27.295  1.00  0.00    -0.268 OA
BRANCH   8  11
ATOM     11  C   UNL A   1      32.872  23.641  26.659  1.00  0.00     0.272 C 
ATOM     12  C   UNL A   1      33.485  22.588  27.603  1.00  0.00     0.076 C 
ATOM     13  N   UNL A   1      33.117  23.465  25.210  1.00  0.00    -0.333 N 
ATOM     14  C   UNL A   1      34.275  21.489  26.899  1.00  0.00     0.016 C 
ATOM     15  C   UNL A   1      34.304  22.739  24.766  1.00  0.00     0.186 C 
ATOM     16  H   UNL A   1      33.172  24.400  24.803  1.00  0.00     0.347 HD
ATOM     17  H   UNL A   1      32.345  22.873  24.905  1.00  0.00     0.347 HD
ATOM     18  C   UNL A   1      35.176  22.177  25.893  1.00  0.00     0.048 C 
ATOM     19  C   UNL A   1      35.181  23.609  23.853  1.00  0.00     0.065 C 
ATOM     20  C   UNL A   1      36.258  21.267  25.314  1.00  0.00     0.010 C 
ATOM     21  C   UNL A   1      36.380  22.817  23.308  1.00  0.00     0.006 C 
ATOM     22  C   UNL A   1      37.168  22.082  24.395  1.00  0.00     0.001 C 
ENDBRANCH   8  11
ENDBRANCH   5   7
ENDBRANCH   3   5
ENDBRANCH   2   3
ENDBRANCH   1   2
BRANCH   1  23
ATOM     23  C   UNL A   1      32.912  30.955  27.160  1.00  0.00     0.275 C 
BRANCH  23  24
ATOM     24  O   UNL A   1      34.011  30.171  27.655  1.00  0.00    -0.458 OA
BRANCH  24  25
ATOM     25  C   UNL A   1      34.851  30.842  28.483  1.00  0.00     0.338 C 
ATOM     26  O   UNL A   1      34.580  31.810  29.174  1.00  0.00    -0.246 OA
BRANCH  25  27
ATOM     27  C   UNL A   1      36.163  30.174  28.537  1.00  0.00     0.060 A 
ATOM     28  C   UNL A   1      36.566  29.626  29.760  1.00  0.00     0.016 A 
ATOM     29  C   UNL A   1      37.028  30.176  27.441  1.00  0.00     0.016 A 
ATOM     30  C   UNL A   1      37.851  29.109  29.903  1.00  0.00     0.010 A 
ATOM     31  C   UNL A   1      38.318  29.658  27.585  1.00  0.00     0.010 A 
ATOM     32  C   UNL A   1      38.744  29.148  28.823  1.00  0.00    -0.014 A 
BRANCH  32  33
ATOM     33  C   UNL A   1      40.154  28.734  29.019  1.00  0.00     0.031 A 
ATOM     34  C   UNL A   1      41.122  29.680  29.671  1.00  0.00     0.074 A 
ATOM     35  C   UNL A   1      40.559  27.514  28.630  1.00  0.00     0.049 A 
ATOM     36  N   UNL A   1      42.403  29.531  29.892  1.00  0.00    -0.248 NA
ATOM     37  C   UNL A   1      40.575  30.966  30.131  1.00  0.00     0.031 C 
ATOM     38  C   UNL A   1      39.709  26.498  28.012  1.00  0.00     0.029 A 
ATOM     39  N   UNL A   1      41.796  26.926  28.695  1.00  0.00    -0.354 N 
ATOM     40  C   UNL A   1      42.820  30.705  30.506  1.00  0.00     0.074 A 
ATOM     41  C   UNL A   1      41.660  31.566  30.600  1.00  0.00     0.031 C 
ATOM     42  C   UNL A   1      40.451  25.407  27.755  1.00  0.00     0.029 A 
ATOM     43  C   UNL A   1      41.832  25.662  28.160  1.00  0.00     0.049 A 
ATOM     44  H   UNL A   1      42.584  27.367  29.088  1.00  0.00     0.167 HD
ATOM     45  C   UNL A   1      44.054  31.031  30.958  1.00  0.00     0.037 A 
ATOM     46  C   UNL A   1      42.866  24.815  28.000  1.00  0.00     0.037 A 
ATOM     47  C   UNL A   1      45.204  30.171  30.878  1.00  0.00     0.049 A 
ATOM     48  C   UNL A   1      44.237  25.222  28.465  1.00  0.00     0.074 A 
ATOM     49  C   UNL A   1      46.492  30.406  31.329  1.00  0.00     0.029 A 
ATOM     50  N   UNL A   1      45.206  28.908  30.307  1.00  0.00    -0.354 N 
ATOM     51  N   UNL A   1      44.615  26.328  29.056  1.00  0.00    -0.248 NA
ATOM     52  C   UNL A   1      45.324  24.258  28.237  1.00  0.00     0.031 C 
ATOM     53  C   UNL A   1      47.281  29.298  30.999  1.00  0.00     0.029 A 
ATOM     54  C   UNL A   1      46.476  28.358  30.377  1.00  0.00     0.049 A 
ATOM     55  H   UNL A   1      44.420  28.466  29.910  1.00  0.00     0.167 HD
ATOM     56  C   UNL A   1      45.977  26.185  29.294  1.00  0.00     0.074 A 
ATOM     57  C   UNL A   1      46.356  24.881  28.792  1.00  0.00     0.031 C 
ATOM     58  C   UNL A   1      46.836  27.056  29.878  1.00  0.00     0.037 A 
BRANCH  45  59
ATOM     59  C   UNL A   1      44.226  32.391  31.565  1.00  0.00     0.057 A 
ATOM     60  C   UNL A   1      44.547  33.512  30.789  1.00  0.00     0.134 A 
ATOM     61  C   UNL A   1      44.039  32.587  32.939  1.00  0.00     0.134 A 
ATOM     62  F   UNL A   1      44.751  33.388  29.469  1.00  0.00    -0.206 F 
ATOM     63  C   UNL A   1      44.697  34.776  31.361  1.00  0.00     0.040 A 
ATOM     64  C   UNL A   1      44.165  33.850  33.520  1.00  0.00     0.040 A 
ATOM     65  F   UNL A   1      43.726  31.556  33.739  1.00  0.00    -0.206 F 
ATOM     66  C   UNL A   1      44.501  34.948  32.730  1.00  0.00     0.006 A 
ENDBRANCH  45  59
BRANCH  46  67
ATOM     67  C   UNL A   1      42.646  23.492  27.368  1.00  0.00     0.057 A 
ATOM     68  C   UNL A   1      42.273  22.381  28.131  1.00  0.00     0.134 A 
ATOM     69  C   UNL A   1      42.817  23.306  25.990  1.00  0.00     0.134 A 
ATOM     70  F   UNL A   1      42.117  22.496  29.458  1.00  0.00    -0.206 F 
ATOM     71  C   UNL A   1      42.090  21.126  27.550  1.00  0.00     0.040 A 
ATOM     72  C   UNL A   1      42.616  22.062  25.393  1.00  0.00     0.040 A 
ATOM     73  F   UNL A   1      43.174  24.334  25.207  1.00  0.00    -0.206 F 
ATOM     74  C   UNL A   1      42.256  20.965  26.175  1.00  0.00     0.006 A 
ENDBRANCH  46  67
BRANCH  58  75
ATOM     75  C   UNL A   1      48.259  26.611  30.035  1.00  0.00     0.057 A 
ATOM     76  C   UNL A   1      49.242  26.934  29.091  1.00  0.00     0.134 A 
ATOM     77  C   UNL A   1      48.656  25.874  31.158  1.00  0.00     0.134 A 
ATOM     78  F   UNL A   1      48.922  27.625  27.987  1.00  0.00    -0.206 F 
ATOM     79  C   UNL A   1      50.566  26.521  29.249  1.00  0.00     0.040 A 
ATOM     80  C   UNL A   1      49.981  25.475  31.337  1.00  0.00     0.040 A 
ATOM     81  F   UNL A   1      47.764  25.538  32.102  1.00  0.00    -0.206 F 
ATOM     82  C   UNL A   1      50.939  25.794  30.378  1.00  0.00     0.006 A 
ENDBRANCH  58  75
ENDBRANCH  32  33
ENDBRANCH  25  27
ENDBRANCH  24  25
ENDBRANCH  23  24
ENDBRANCH   1  23
TORSDOF 13
ENDMDL
