MODEL 1
REMARK VINA RESULT:     -12.1      0.000      0.000
REMARK SMILES Cc1coc2c(C)c3oc(=O)c(CC(=O)NCC(=O)N[C@H](C(=O)OCCOC(=O)c4ccc(-c5c6nc(c(-c7c(F)cccc7F)c7ccc([nH]7)c(-c7c(F)cccc7F)c7nc(c(-c8c(F)cccc8F)c8ccc5[nH]8)C=C7)C=C6)cc4)C(C)C)c(C)c3cc12
REMARK SMILES IDX 24 1 22 2 23 3 21 4 20 5 18 6 19 7 17 9 16 10 14 11 15 12
REMARK SMILES IDX 13 14 12 15 1 16 2 17 3 18 91 19 4 20 5 21 90 22 6 23 89 24
REMARK SMILES IDX 7 25 8 26 87 27 9 28 88 29 10 30 11 31 84 32 85 33 86 34
REMARK SMILES IDX 25 35 26 36 27 37 28 38 29 39 30 40 31 41 83 42 32 43 82 44
REMARK SMILES IDX 33 45 34 46 35 47 76 48 36 49 81 50 75 51 77 52 37 53 80 54
REMARK SMILES IDX 74 55 73 56 38 58 64 59 47 60 63 61 48 62 51 63 62 64 78 65
REMARK SMILES IDX 49 66 50 67 61 69 79 70 52 71 39 72 40 73 45 74 41 75 42 76
REMARK SMILES IDX 44 77 46 78 43 79 65 80 66 81 71 82 67 83 68 84 70 85 72 86
REMARK SMILES IDX 69 87 53 88 54 89 59 90 55 91 56 92 58 93 60 94 57 95
REMARK H PARENT 20 8 16 13 77 57 51 68
REMARK Flexibility Score: inf
ROOT
ATOM      1  O   UNL A   1      31.624  29.590  26.029  1.00  0.00    -0.461 OA
ENDROOT
BRANCH   1   2
ATOM      2  C   UNL A   1      31.779  28.245  26.145  1.00  0.00     0.329 C 
ATOM      3  O   UNL A   1      31.820  27.642  27.215  1.00  0.00    -0.250 OA
BRANCH   2   4
ATOM      4  C   UNL A   1      31.952  27.529  24.781  1.00  0.00     0.194 C 
BRANCH   4   5
ATOM      5  N   UNL A   1      30.596  27.092  24.428  1.00  0.00    -0.341 N 
ATOM      6  C   UNL A   1      29.756  26.174  24.968  1.00  0.00     0.240 C 
ATOM      7  O   UNL A   1      28.628  26.089  24.470  1.00  0.00    -0.273 OA
ATOM      8  H   UNL A   1      30.223  27.557  23.644  1.00  0.00     0.164 HD
BRANCH   6   9
ATOM      9  C   UNL A   1      30.106  25.390  26.240  1.00  0.00     0.216 C 
BRANCH   9  10
ATOM     10  N   UNL A   1      30.015  23.945  26.147  1.00  0.00    -0.347 N 
ATOM     11  C   UNL A   1      30.725  23.033  25.432  1.00  0.00     0.225 C 
ATOM     12  O   UNL A   1      30.543  21.844  25.715  1.00  0.00    -0.275 OA
ATOM     13  H   UNL A   1      29.306  23.551  26.707  1.00  0.00     0.164 HD
BRANCH  11  14
ATOM     14  C   UNL A   1      31.729  23.407  24.345  1.00  0.00     0.143 C 
BRANCH  14  15
ATOM     15  C   UNL A   1      33.173  23.014  24.583  1.00  0.00     0.051 A 
ATOM     16  C   UNL A   1      39.437  24.944  27.340  1.00  0.00     0.048 C 
ATOM     17  C   UNL A   1      39.083  23.665  26.681  1.00  0.00    -0.005 A 
ATOM     18  C   UNL A   1      39.883  22.543  26.597  1.00  0.00     0.199 A 
ATOM     19  C   UNL A   1      37.836  23.298  26.077  1.00  0.00     0.024 A 
ATOM     20  O   UNL A   1      39.212  21.510  26.032  1.00  0.00    -0.464 OA
ATOM     21  C   UNL A   1      37.963  21.961  25.725  1.00  0.00     0.140 A 
ATOM     22  C   UNL A   1      36.594  23.935  25.849  1.00  0.00     0.024 A 
ATOM     23  C   UNL A   1      36.948  21.183  25.169  1.00  0.00     0.036 A 
ATOM     24  C   UNL A   1      35.512  23.212  25.306  1.00  0.00     0.022 A 
ATOM     25  C   UNL A   1      37.130  19.729  24.871  1.00  0.00     0.052 C 
ATOM     26  C   UNL A   1      35.731  21.870  24.978  1.00  0.00     0.145 A 
ATOM     27  C   UNL A   1      34.148  23.781  25.127  1.00  0.00    -0.029 A 
ATOM     28  O   UNL A   1      34.698  21.112  24.396  1.00  0.00    -0.422 OA
ATOM     29  C   UNL A   1      33.932  25.203  25.584  1.00  0.00     0.046 C 
ATOM     30  C   UNL A   1      33.508  21.681  24.014  1.00  0.00     0.340 A 
ATOM     31  O   UNL A   1      32.729  21.070  23.289  1.00  0.00    -0.246 OA
ENDBRANCH  14  15
ENDBRANCH  11  14
ENDBRANCH   9  10
ENDBRANCH   6   9
ENDBRANCH   4   5
BRANCH   4  32
ATOM     32  C   UNL A   1      32.520  28.571  23.772  1.00  0.00     0.017 C 
ATOM     33  C   UNL A   1      34.034  28.455  23.591  1.00  0.00     0.010 C 
ATOM     34  C   UNL A   1      31.839  28.635  22.402  1.00  0.00     0.010 C 
ENDBRANCH   4  32
ENDBRANCH   2   4
ENDBRANCH   1   2
BRANCH   1  35
ATOM     35  C   UNL A   1      32.207  30.388  27.083  1.00  0.00     0.274 C 
BRANCH  35  36
ATOM     36  C   UNL A   1      33.676  30.743  26.835  1.00  0.00     0.275 C 
BRANCH  36  37
ATOM     37  O   UNL A   1      34.564  30.406  27.906  1.00  0.00    -0.458 OA
BRANCH  37  38
ATOM     38  C   UNL A   1      35.586  31.278  28.016  1.00  0.00     0.338 C 
ATOM     39  O   UNL A   1      35.644  32.428  27.624  1.00  0.00    -0.246 OA
BRANCH  38  40
ATOM     40  C   UNL A   1      36.771  30.642  28.558  1.00  0.00     0.060 A 
ATOM     41  C   UNL A   1      37.705  31.439  29.212  1.00  0.00     0.016 A 
ATOM     42  C   UNL A   1      37.078  29.357  28.117  1.00  0.00     0.016 A 
ATOM     43  C   UNL A   1      39.005  31.011  29.320  1.00  0.00     0.010 A 
ATOM     44  C   UNL A   1      38.365  28.890  28.302  1.00  0.00     0.010 A 
ATOM     45  C   UNL A   1      39.333  29.738  28.857  1.00  0.00    -0.014 A 
BRANCH  45  46
ATOM     46  C   UNL A   1      40.670  29.267  29.190  1.00  0.00     0.031 A 
ATOM     47  C   UNL A   1      40.904  29.041  30.653  1.00  0.00     0.074 A 
ATOM     48  C   UNL A   1      41.541  28.860  28.253  1.00  0.00     0.049 A 
ATOM     49  N   UNL A   1      41.920  29.370  31.387  1.00  0.00    -0.248 NA
ATOM     50  C   UNL A   1      39.793  28.432  31.411  1.00  0.00     0.031 C 
ATOM     51  C   UNL A   1      41.324  28.734  26.811  1.00  0.00     0.029 A 
ATOM     52  N   UNL A   1      42.759  28.291  28.441  1.00  0.00    -0.354 N 
ATOM     53  C   UNL A   1      41.638  28.881  32.664  1.00  0.00     0.074 A 
ATOM     54  C   UNL A   1      40.276  28.423  32.649  1.00  0.00     0.031 C 
ATOM     55  C   UNL A   1      42.242  27.877  26.312  1.00  0.00     0.029 A 
ATOM     56  C   UNL A   1      43.158  27.504  27.376  1.00  0.00     0.049 A 
ATOM     57  H   UNL A   1      43.303  28.424  29.251  1.00  0.00     0.167 HD
ATOM     58  C   UNL A   1      42.580  28.718  33.630  1.00  0.00     0.037 A 
ATOM     59  C   UNL A   1      44.079  26.515  27.425  1.00  0.00     0.037 A 
ATOM     60  C   UNL A   1      43.743  29.523  33.411  1.00  0.00     0.049 A 
ATOM     61  C   UNL A   1      44.905  26.715  28.644  1.00  0.00     0.074 A 
ATOM     62  C   UNL A   1      43.975  30.883  33.325  1.00  0.00     0.029 A 
ATOM     63  N   UNL A   1      44.884  28.927  32.939  1.00  0.00    -0.354 N 
ATOM     64  N   UNL A   1      45.719  27.718  28.831  1.00  0.00    -0.248 NA
ATOM     65  C   UNL A   1      44.523  25.994  29.851  1.00  0.00     0.031 C 
ATOM     66  C   UNL A   1      45.013  31.020  32.359  1.00  0.00     0.029 A 
ATOM     67  C   UNL A   1      45.344  29.733  31.931  1.00  0.00     0.049 A 
ATOM     68  H   UNL A   1      45.290  28.088  33.258  1.00  0.00     0.167 HD
ATOM     69  C   UNL A   1      45.648  27.995  30.190  1.00  0.00     0.074 A 
ATOM     70  C   UNL A   1      44.981  26.838  30.778  1.00  0.00     0.031 C 
ATOM     71  C   UNL A   1      45.885  29.246  30.683  1.00  0.00     0.037 A 
BRANCH  58  72
ATOM     72  C   UNL A   1      42.529  27.604  34.639  1.00  0.00     0.057 A 
ATOM     73  C   UNL A   1      42.915  26.304  34.281  1.00  0.00     0.134 A 
ATOM     74  C   UNL A   1      41.872  27.722  35.882  1.00  0.00     0.134 A 
ATOM     75  F   UNL A   1      43.505  26.060  33.102  1.00  0.00    -0.206 F 
ATOM     76  C   UNL A   1      42.643  25.196  35.094  1.00  0.00     0.040 A 
ATOM     77  C   UNL A   1      41.646  26.633  36.725  1.00  0.00     0.040 A 
ATOM     78  F   UNL A   1      41.337  28.879  36.296  1.00  0.00    -0.206 F 
ATOM     79  C   UNL A   1      42.011  25.359  36.322  1.00  0.00     0.006 A 
ENDBRANCH  58  72
BRANCH  59  80
ATOM     80  C   UNL A   1      44.039  25.248  26.662  1.00  0.00     0.057 A 
ATOM     81  C   UNL A   1      43.191  24.202  27.039  1.00  0.00     0.134 A 
ATOM     82  C   UNL A   1      44.685  25.102  25.418  1.00  0.00     0.134 A 
ATOM     83  F   UNL A   1      42.480  24.279  28.173  1.00  0.00    -0.206 F 
ATOM     84  C   UNL A   1      43.012  23.067  26.237  1.00  0.00     0.040 A 
ATOM     85  C   UNL A   1      44.530  23.967  24.618  1.00  0.00     0.040 A 
ATOM     86  F   UNL A   1      45.428  26.089  24.896  1.00  0.00    -0.206 F 
ATOM     87  C   UNL A   1      43.686  22.945  25.025  1.00  0.00     0.006 A 
ENDBRANCH  59  80
BRANCH  71  88
ATOM     88  C   UNL A   1      46.444  30.288  29.758  1.00  0.00     0.057 A 
ATOM     89  C   UNL A   1      47.818  30.438  29.519  1.00  0.00     0.134 A 
ATOM     90  C   UNL A   1      45.577  31.002  28.924  1.00  0.00     0.134 A 
ATOM     91  F   UNL A   1      48.719  29.710  30.185  1.00  0.00    -0.206 F 
ATOM     92  C   UNL A   1      48.307  31.285  28.521  1.00  0.00     0.040 A 
ATOM     93  C   UNL A   1      46.051  31.827  27.901  1.00  0.00     0.040 A 
ATOM     94  F   UNL A   1      44.247  30.853  29.045  1.00  0.00    -0.206 F 
ATOM     95  C   UNL A   1      47.422  31.976  27.701  1.00  0.00     0.006 A 
ENDBRANCH  71  88
ENDBRANCH  45  46
ENDBRANCH  38  40
ENDBRANCH  37  38
ENDBRANCH  36  37
ENDBRANCH  35  36
ENDBRANCH   1  35
TORSDOF 17
ENDMDL
MODEL 2
REMARK VINA RESULT:     -11.7      2.988      5.851
REMARK SMILES Cc1coc2c(C)c3oc(=O)c(CC(=O)NCC(=O)N[C@H](C(=O)OCCOC(=O)c4ccc(-c5c6nc(c(-c7c(F)cccc7F)c7ccc([nH]7)c(-c7c(F)cccc7F)c7nc(c(-c8c(F)cccc8F)c8ccc5[nH]8)C=C7)C=C6)cc4)C(C)C)c(C)c3cc12
REMARK SMILES IDX 24 1 22 2 23 3 21 4 20 5 18 6 19 7 17 9 16 10 14 11 15 12
REMARK SMILES IDX 13 14 12 15 1 16 2 17 3 18 91 19 4 20 5 21 90 22 6 23 89 24
REMARK SMILES IDX 7 25 8 26 87 27 9 28 88 29 10 30 11 31 84 32 85 33 86 34
REMARK SMILES IDX 25 35 26 36 27 37 28 38 29 39 30 40 31 41 83 42 32 43 82 44
REMARK SMILES IDX 33 45 34 46 35 47 76 48 36 49 81 50 75 51 77 52 37 53 80 54
REMARK SMILES IDX 74 55 73 56 38 58 64 59 47 60 63 61 48 62 51 63 62 64 78 65
REMARK SMILES IDX 49 66 50 67 61 69 79 70 52 71 39 72 40 73 45 74 41 75 42 76
REMARK SMILES IDX 44 77 46 78 43 79 65 80 66 81 71 82 67 83 68 84 70 85 72 86
REMARK SMILES IDX 69 87 53 88 54 89 59 90 55 91 56 92 58 93 60 94 57 95
REMARK H PARENT 20 8 16 13 77 57 51 68
REMARK Flexibility Score: inf
ROOT
ATOM      1  O   UNL A   1      31.987  28.736  25.600  1.00  0.00    -0.461 OA
ENDROOT
BRANCH   1   2
ATOM      2  C   UNL A   1      31.559  27.628  26.259  1.00  0.00     0.329 C 
ATOM      3  O   UNL A   1      31.502  27.527  27.482  1.00  0.00    -0.250 OA
BRANCH   2   4
ATOM      4  C   UNL A   1      31.185  26.459  25.312  1.00  0.00     0.194 C 
BRANCH   4   5
ATOM      5  N   UNL A   1      30.473  25.508  26.175  1.00  0.00    -0.341 N 
ATOM      6  C   UNL A   1      30.565  24.165  26.334  1.00  0.00     0.240 C 
ATOM      7  O   UNL A   1      29.859  23.658  27.212  1.00  0.00    -0.273 OA
ATOM      8  H   UNL A   1      29.795  25.930  26.752  1.00  0.00     0.164 HD
BRANCH   6   9
ATOM      9  C   UNL A   1      31.608  23.320  25.591  1.00  0.00     0.216 C 
BRANCH   9  10
ATOM     10  N   UNL A   1      32.097  22.145  26.288  1.00  0.00    -0.347 N 
ATOM     11  C   UNL A   1      33.223  21.400  26.133  1.00  0.00     0.225 C 
ATOM     12  O   UNL A   1      33.462  20.568  27.016  1.00  0.00    -0.275 OA
ATOM     13  H   UNL A   1      31.503  21.828  27.006  1.00  0.00     0.164 HD
BRANCH  11  14
ATOM     14  C   UNL A   1      34.192  21.564  24.965  1.00  0.00     0.143 C 
BRANCH  14  15
ATOM     15  C   UNL A   1      35.631  21.894  25.310  1.00  0.00     0.051 A 
ATOM     16  C   UNL A   1      40.185  26.934  27.413  1.00  0.00     0.048 C 
ATOM     17  C   UNL A   1      40.463  25.503  27.148  1.00  0.00    -0.005 A 
ATOM     18  C   UNL A   1      41.652  24.845  27.391  1.00  0.00     0.199 A 
ATOM     19  C   UNL A   1      39.556  24.501  26.671  1.00  0.00     0.024 A 
ATOM     20  O   UNL A   1      41.531  23.518  27.145  1.00  0.00    -0.464 OA
ATOM     21  C   UNL A   1      40.255  23.302  26.718  1.00  0.00     0.140 A 
ATOM     22  C   UNL A   1      38.202  24.469  26.267  1.00  0.00     0.024 A 
ATOM     23  C   UNL A   1      39.719  22.053  26.406  1.00  0.00     0.036 A 
ATOM     24  C   UNL A   1      37.581  23.243  25.951  1.00  0.00     0.022 A 
ATOM     25  C   UNL A   1      40.508  20.790  26.540  1.00  0.00     0.052 C 
ATOM     26  C   UNL A   1      38.362  22.085  26.023  1.00  0.00     0.145 A 
ATOM     27  C   UNL A   1      36.137  23.114  25.613  1.00  0.00    -0.029 A 
ATOM     28  O   UNL A   1      37.805  20.839  25.681  1.00  0.00    -0.422 OA
ATOM     29  C   UNL A   1      35.309  24.376  25.642  1.00  0.00     0.046 C 
ATOM     30  C   UNL A   1      36.543  20.732  25.149  1.00  0.00     0.340 A 
ATOM     31  O   UNL A   1      36.174  19.684  24.627  1.00  0.00    -0.246 OA
ENDBRANCH  14  15
ENDBRANCH  11  14
ENDBRANCH   9  10
ENDBRANCH   6   9
ENDBRANCH   4   5
BRANCH   4  32
ATOM     32  C   UNL A   1      30.272  27.038  24.189  1.00  0.00     0.017 C 
ATOM     33  C   UNL A   1      30.921  26.970  22.806  1.00  0.00     0.010 C 
ATOM     34  C   UNL A   1      28.846  26.487  24.119  1.00  0.00     0.010 C 
ENDBRANCH   4  32
ENDBRANCH   2   4
ENDBRANCH   1   2
BRANCH   1  35
ATOM     35  C   UNL A   1      31.663  30.003  26.215  1.00  0.00     0.274 C 
BRANCH  35  36
ATOM     36  C   UNL A   1      32.893  30.859  26.530  1.00  0.00     0.275 C 
BRANCH  36  37
ATOM     37  O   UNL A   1      33.548  30.539  27.762  1.00  0.00    -0.458 OA
BRANCH  37  38
ATOM     38  C   UNL A   1      34.712  29.887  27.569  1.00  0.00     0.338 C 
ATOM     39  O   UNL A   1      34.892  28.799  27.054  1.00  0.00    -0.246 OA
BRANCH  38  40
ATOM     40  C   UNL A   1      35.818  30.574  28.207  1.00  0.00     0.060 A 
ATOM     41  C   UNL A   1      37.109  30.279  27.780  1.00  0.00     0.016 A 
ATOM     42  C   UNL A   1      35.570  31.224  29.413  1.00  0.00     0.016 A 
ATOM     43  C   UNL A   1      38.171  30.516  28.618  1.00  0.00     0.010 A 
ATOM     44  C   UNL A   1      36.646  31.541  30.221  1.00  0.00     0.010 A 
ATOM     45  C   UNL A   1      37.935  31.141  29.841  1.00  0.00    -0.014 A 
BRANCH  45  46
ATOM     46  C   UNL A   1      39.118  31.550  30.584  1.00  0.00     0.031 A 
ATOM     47  C   UNL A   1      39.849  30.428  31.257  1.00  0.00     0.074 A 
ATOM     48  C   UNL A   1      39.632  32.787  30.490  1.00  0.00     0.049 A 
ATOM     49  N   UNL A   1      40.343  30.364  32.453  1.00  0.00    -0.248 NA
ATOM     50  C   UNL A   1      39.963  29.167  30.497  1.00  0.00     0.031 C 
ATOM     51  C   UNL A   1      39.196  33.884  29.625  1.00  0.00     0.029 A 
ATOM     52  N   UNL A   1      40.787  33.251  31.031  1.00  0.00    -0.354 N 
ATOM     53  C   UNL A   1      40.954  29.113  32.544  1.00  0.00     0.074 A 
ATOM     54  C   UNL A   1      40.588  28.378  31.364  1.00  0.00     0.031 C 
ATOM     55  C   UNL A   1      40.219  34.754  29.486  1.00  0.00     0.029 A 
ATOM     56  C   UNL A   1      41.314  34.326  30.340  1.00  0.00     0.049 A 
ATOM     57  H   UNL A   1      41.208  32.862  31.832  1.00  0.00     0.167 HD
ATOM     58  C   UNL A   1      41.867  28.791  33.498  1.00  0.00     0.037 A 
ATOM     59  C   UNL A   1      42.605  34.729  30.369  1.00  0.00     0.037 A 
ATOM     60  C   UNL A   1      41.783  29.633  34.652  1.00  0.00     0.049 A 
ATOM     61  C   UNL A   1      43.241  34.149  31.579  1.00  0.00     0.074 A 
ATOM     62  C   UNL A   1      40.800  29.893  35.589  1.00  0.00     0.029 A 
ATOM     63  N   UNL A   1      42.726  30.612  34.830  1.00  0.00    -0.354 N 
ATOM     64  N   UNL A   1      42.932  34.472  32.806  1.00  0.00    -0.248 NA
ATOM     65  C   UNL A   1      43.963  32.892  31.433  1.00  0.00     0.031 C 
ATOM     66  C   UNL A   1      40.962  31.268  35.922  1.00  0.00     0.029 A 
ATOM     67  C   UNL A   1      42.036  31.747  35.168  1.00  0.00     0.049 A 
ATOM     68  H   UNL A   1      43.702  30.519  34.732  1.00  0.00     0.167 HD
ATOM     69  C   UNL A   1      43.071  33.298  33.536  1.00  0.00     0.074 A 
ATOM     70  C   UNL A   1      43.807  32.392  32.660  1.00  0.00     0.031 C 
ATOM     71  C   UNL A   1      42.347  33.066  34.670  1.00  0.00     0.037 A 
BRANCH  58  72
ATOM     72  C   UNL A   1      43.019  27.859  33.243  1.00  0.00     0.057 A 
ATOM     73  C   UNL A   1      43.923  28.116  32.201  1.00  0.00     0.134 A 
ATOM     74  C   UNL A   1      43.121  26.581  33.832  1.00  0.00     0.134 A 
ATOM     75  F   UNL A   1      43.891  29.279  31.533  1.00  0.00    -0.206 F 
ATOM     76  C   UNL A   1      44.846  27.159  31.761  1.00  0.00     0.040 A 
ATOM     77  C   UNL A   1      44.073  25.640  33.439  1.00  0.00     0.040 A 
ATOM     78  F   UNL A   1      42.244  26.151  34.750  1.00  0.00    -0.206 F 
ATOM     79  C   UNL A   1      44.926  25.918  32.384  1.00  0.00     0.006 A 
ENDBRANCH  58  72
BRANCH  59  80
ATOM     80  C   UNL A   1      43.366  35.294  29.233  1.00  0.00     0.057 A 
ATOM     81  C   UNL A   1      43.684  34.515  28.116  1.00  0.00     0.134 A 
ATOM     82  C   UNL A   1      43.632  36.673  29.120  1.00  0.00     0.134 A 
ATOM     83  F   UNL A   1      43.408  33.203  28.101  1.00  0.00    -0.206 F 
ATOM     84  C   UNL A   1      44.253  35.070  26.961  1.00  0.00     0.040 A 
ATOM     85  C   UNL A   1      44.216  37.237  27.983  1.00  0.00     0.040 A 
ATOM     86  F   UNL A   1      43.262  37.537  30.077  1.00  0.00    -0.206 F 
ATOM     87  C   UNL A   1      44.524  36.434  26.895  1.00  0.00     0.006 A 
ENDBRANCH  59  80
BRANCH  71  88
ATOM     88  C   UNL A   1      41.547  34.195  35.254  1.00  0.00     0.057 A 
ATOM     89  C   UNL A   1      40.221  34.463  34.884  1.00  0.00     0.134 A 
ATOM     90  C   UNL A   1      42.042  34.881  36.368  1.00  0.00     0.134 A 
ATOM     91  F   UNL A   1      39.623  33.773  33.907  1.00  0.00    -0.206 F 
ATOM     92  C   UNL A   1      39.436  35.396  35.566  1.00  0.00     0.040 A 
ATOM     93  C   UNL A   1      41.258  35.793  37.080  1.00  0.00     0.040 A 
ATOM     94  F   UNL A   1      43.278  34.624  36.827  1.00  0.00    -0.206 F 
ATOM     95  C   UNL A   1      39.951  36.058  36.676  1.00  0.00     0.006 A 
ENDBRANCH  71  88
ENDBRANCH  45  46
ENDBRANCH  38  40
ENDBRANCH  37  38
ENDBRANCH  36  37
ENDBRANCH  35  36
ENDBRANCH   1  35
TORSDOF 17
ENDMDL
MODEL 3
REMARK VINA RESULT:     -11.1      2.414      4.828
REMARK SMILES Cc1coc2c(C)c3oc(=O)c(CC(=O)NCC(=O)N[C@H](C(=O)OCCOC(=O)c4ccc(-c5c6nc(c(-c7c(F)cccc7F)c7ccc([nH]7)c(-c7c(F)cccc7F)c7nc(c(-c8c(F)cccc8F)c8ccc5[nH]8)C=C7)C=C6)cc4)C(C)C)c(C)c3cc12
REMARK SMILES IDX 24 1 22 2 23 3 21 4 20 5 18 6 19 7 17 9 16 10 14 11 15 12
REMARK SMILES IDX 13 14 12 15 1 16 2 17 3 18 91 19 4 20 5 21 90 22 6 23 89 24
REMARK SMILES IDX 7 25 8 26 87 27 9 28 88 29 10 30 11 31 84 32 85 33 86 34
REMARK SMILES IDX 25 35 26 36 27 37 28 38 29 39 30 40 31 41 83 42 32 43 82 44
REMARK SMILES IDX 33 45 34 46 35 47 76 48 36 49 81 50 75 51 77 52 37 53 80 54
REMARK SMILES IDX 74 55 73 56 38 58 64 59 47 60 63 61 48 62 51 63 62 64 78 65
REMARK SMILES IDX 49 66 50 67 61 69 79 70 52 71 39 72 40 73 45 74 41 75 42 76
REMARK SMILES IDX 44 77 46 78 43 79 65 80 66 81 71 82 67 83 68 84 70 85 72 86
REMARK SMILES IDX 69 87 53 88 54 89 59 90 55 91 56 92 58 93 60 94 57 95
REMARK H PARENT 20 8 16 13 77 57 51 68
REMARK Flexibility Score: inf
ROOT
ATOM      1  O   UNL A   1      32.787  27.594  25.842  1.00  0.00    -0.461 OA
ENDROOT
BRANCH   1   2
ATOM      2  C   UNL A   1      32.425  26.299  26.033  1.00  0.00     0.329 C 
ATOM      3  O   UNL A   1      31.552  25.932  26.816  1.00  0.00    -0.250 OA
BRANCH   2   4
ATOM      4  C   UNL A   1      33.259  25.299  25.192  1.00  0.00     0.194 C 
BRANCH   4   5
ATOM      5  N   UNL A   1      33.379  24.115  26.052  1.00  0.00    -0.341 N 
ATOM      6  C   UNL A   1      34.438  23.358  26.432  1.00  0.00     0.240 C 
ATOM      7  O   UNL A   1      34.214  22.450  27.239  1.00  0.00    -0.273 OA
ATOM      8  H   UNL A   1      32.520  23.812  26.427  1.00  0.00     0.164 HD
BRANCH   6   9
ATOM      9  C   UNL A   1      35.878  23.699  26.026  1.00  0.00     0.216 C 
BRANCH   9  10
ATOM     10  N   UNL A   1      36.605  22.666  25.312  1.00  0.00    -0.347 N 
ATOM     11  C   UNL A   1      37.753  21.998  25.600  1.00  0.00     0.225 C 
ATOM     12  O   UNL A   1      38.020  21.024  24.888  1.00  0.00    -0.275 OA
ATOM     13  H   UNL A   1      36.190  22.400  24.459  1.00  0.00     0.164 HD
BRANCH  11  14
ATOM     14  C   UNL A   1      38.683  22.372  26.752  1.00  0.00     0.143 C 
BRANCH  14  15
ATOM     15  C   UNL A   1      40.087  22.808  26.383  1.00  0.00     0.051 A 
ATOM     16  C   UNL A   1      46.595  20.709  24.431  1.00  0.00     0.048 C 
ATOM     17  C   UNL A   1      46.094  22.093  24.607  1.00  0.00    -0.005 A 
ATOM     18  C   UNL A   1      46.775  23.252  24.292  1.00  0.00     0.199 A 
ATOM     19  C   UNL A   1      44.799  22.513  25.054  1.00  0.00     0.024 A 
ATOM     20  O   UNL A   1      45.986  24.340  24.467  1.00  0.00    -0.464 OA
ATOM     21  C   UNL A   1      44.780  23.895  24.919  1.00  0.00     0.140 A 
ATOM     22  C   UNL A   1      43.620  21.869  25.496  1.00  0.00     0.024 A 
ATOM     23  C   UNL A   1      43.676  24.707  25.176  1.00  0.00     0.036 A 
ATOM     24  C   UNL A   1      42.455  22.617  25.761  1.00  0.00     0.022 A 
ATOM     25  C   UNL A   1      43.701  26.185  24.949  1.00  0.00     0.052 C 
ATOM     26  C   UNL A   1      42.529  24.005  25.601  1.00  0.00     0.145 A 
ATOM     27  C   UNL A   1      41.150  22.006  26.134  1.00  0.00    -0.029 A 
ATOM     28  O   UNL A   1      41.407  24.805  25.889  1.00  0.00    -0.422 OA
ATOM     29  C   UNL A   1      41.092  20.499  26.200  1.00  0.00     0.046 C 
ATOM     30  C   UNL A   1      40.269  24.282  26.452  1.00  0.00     0.340 A 
ATOM     31  O   UNL A   1      39.411  25.021  26.925  1.00  0.00    -0.246 OA
ENDBRANCH  14  15
ENDBRANCH  11  14
ENDBRANCH   9  10
ENDBRANCH   6   9
ENDBRANCH   4   5
BRANCH   4  32
ATOM     32  C   UNL A   1      32.463  25.004  23.886  1.00  0.00     0.017 C 
ATOM     33  C   UNL A   1      32.752  26.015  22.775  1.00  0.00     0.010 C 
ATOM     34  C   UNL A   1      32.567  23.581  23.331  1.00  0.00     0.010 C 
ENDBRANCH   4  32
ENDBRANCH   2   4
ENDBRANCH   1   2
BRANCH   1  35
ATOM     35  C   UNL A   1      31.814  28.588  26.233  1.00  0.00     0.274 C 
BRANCH  35  36
ATOM     36  C   UNL A   1      32.369  29.632  27.206  1.00  0.00     0.275 C 
BRANCH  36  37
ATOM     37  O   UNL A   1      33.764  29.502  27.495  1.00  0.00    -0.458 OA
BRANCH  37  38
ATOM     38  C   UNL A   1      34.356  30.694  27.707  1.00  0.00     0.338 C 
ATOM     39  O   UNL A   1      34.004  31.792  27.321  1.00  0.00    -0.246 OA
BRANCH  38  40
ATOM     40  C   UNL A   1      35.638  30.541  28.368  1.00  0.00     0.060 A 
ATOM     41  C   UNL A   1      36.376  31.687  28.647  1.00  0.00     0.016 A 
ATOM     42  C   UNL A   1      36.212  29.272  28.387  1.00  0.00     0.016 A 
ATOM     43  C   UNL A   1      37.734  31.593  28.823  1.00  0.00     0.010 A 
ATOM     44  C   UNL A   1      37.565  29.167  28.649  1.00  0.00     0.010 A 
ATOM     45  C   UNL A   1      38.327  30.332  28.816  1.00  0.00    -0.014 A 
BRANCH  45  46
ATOM     46  C   UNL A   1      39.726  30.286  29.215  1.00  0.00     0.031 A 
ATOM     47  C   UNL A   1      40.005  30.854  30.574  1.00  0.00     0.074 A 
ATOM     48  C   UNL A   1      40.647  29.596  28.523  1.00  0.00     0.049 A 
ATOM     49  N   UNL A   1      40.956  31.646  30.958  1.00  0.00    -0.248 NA
ATOM     50  C   UNL A   1      39.018  30.550  31.629  1.00  0.00     0.031 C 
ATOM     51  C   UNL A   1      40.445  28.740  27.353  1.00  0.00     0.029 A 
ATOM     52  N   UNL A   1      41.945  29.377  28.854  1.00  0.00    -0.354 N 
ATOM     53  C   UNL A   1      40.770  31.822  32.330  1.00  0.00     0.074 A 
ATOM     54  C   UNL A   1      39.504  31.227  32.664  1.00  0.00     0.031 C 
ATOM     55  C   UNL A   1      41.490  27.891  27.257  1.00  0.00     0.029 A 
ATOM     56  C   UNL A   1      42.463  28.232  28.280  1.00  0.00     0.049 A 
ATOM     57  H   UNL A   1      42.464  29.972  29.443  1.00  0.00     0.167 HD
ATOM     58  C   UNL A   1      41.732  32.298  33.163  1.00  0.00     0.037 A 
ATOM     59  C   UNL A   1      43.539  27.542  28.723  1.00  0.00     0.037 A 
ATOM     60  C   UNL A   1      42.740  33.045  32.475  1.00  0.00     0.049 A 
ATOM     61  C   UNL A   1      44.328  28.437  29.608  1.00  0.00     0.074 A 
ATOM     62  C   UNL A   1      42.739  34.199  31.713  1.00  0.00     0.029 A 
ATOM     63  N   UNL A   1      43.963  32.463  32.254  1.00  0.00    -0.354 N 
ATOM     64  N   UNL A   1      44.962  29.506  29.206  1.00  0.00    -0.248 NA
ATOM     65  C   UNL A   1      44.082  28.366  31.042  1.00  0.00     0.031 C 
ATOM     66  C   UNL A   1      43.732  33.985  30.715  1.00  0.00     0.029 A 
ATOM     67  C   UNL A   1      44.272  32.718  30.943  1.00  0.00     0.049 A 
ATOM     68  H   UNL A   1      44.507  31.963  32.905  1.00  0.00     0.167 HD
ATOM     69  C   UNL A   1      44.854  30.408  30.257  1.00  0.00     0.074 A 
ATOM     70  C   UNL A   1      44.396  29.615  31.393  1.00  0.00     0.031 C 
ATOM     71  C   UNL A   1      44.879  31.758  30.051  1.00  0.00     0.037 A 
BRANCH  58  72
ATOM     72  C   UNL A   1      41.877  31.840  34.588  1.00  0.00     0.057 A 
ATOM     73  C   UNL A   1      41.889  32.772  35.636  1.00  0.00     0.134 A 
ATOM     74  C   UNL A   1      42.260  30.528  34.938  1.00  0.00     0.134 A 
ATOM     75  F   UNL A   1      41.589  34.061  35.415  1.00  0.00    -0.206 F 
ATOM     76  C   UNL A   1      42.276  32.427  36.937  1.00  0.00     0.040 A 
ATOM     77  C   UNL A   1      42.595  30.160  36.242  1.00  0.00     0.040 A 
ATOM     78  F   UNL A   1      42.417  29.565  34.020  1.00  0.00    -0.206 F 
ATOM     79  C   UNL A   1      42.626  31.116  37.244  1.00  0.00     0.006 A 
ENDBRANCH  58  72
BRANCH  59  80
ATOM     80  C   UNL A   1      43.708  26.073  28.684  1.00  0.00     0.057 A 
ATOM     81  C   UNL A   1      44.961  25.494  28.458  1.00  0.00     0.134 A 
ATOM     82  C   UNL A   1      42.680  25.189  29.068  1.00  0.00     0.134 A 
ATOM     83  F   UNL A   1      46.019  26.259  28.154  1.00  0.00    -0.206 F 
ATOM     84  C   UNL A   1      45.174  24.114  28.585  1.00  0.00     0.040 A 
ATOM     85  C   UNL A   1      42.873  23.810  29.179  1.00  0.00     0.040 A 
ATOM     86  F   UNL A   1      41.468  25.640  29.425  1.00  0.00    -0.206 F 
ATOM     87  C   UNL A   1      44.128  23.268  28.942  1.00  0.00     0.006 A 
ENDBRANCH  59  80
BRANCH  71  88
ATOM     88  C   UNL A   1      45.248  32.270  28.688  1.00  0.00     0.057 A 
ATOM     89  C   UNL A   1      44.352  32.284  27.609  1.00  0.00     0.134 A 
ATOM     90  C   UNL A   1      46.451  32.965  28.519  1.00  0.00     0.134 A 
ATOM     91  F   UNL A   1      43.132  31.748  27.717  1.00  0.00    -0.206 F 
ATOM     92  C   UNL A   1      44.652  32.929  26.407  1.00  0.00     0.040 A 
ATOM     93  C   UNL A   1      46.750  33.642  27.334  1.00  0.00     0.040 A 
ATOM     94  F   UNL A   1      47.327  33.056  29.532  1.00  0.00    -0.206 F 
ATOM     95  C   UNL A   1      45.851  33.620  26.269  1.00  0.00     0.006 A 
ENDBRANCH  71  88
ENDBRANCH  45  46
ENDBRANCH  38  40
ENDBRANCH  37  38
ENDBRANCH  36  37
ENDBRANCH  35  36
ENDBRANCH   1  35
TORSDOF 17
ENDMDL
