MODEL 1
REMARK VINA RESULT:     -10.5      0.000      0.000
REMARK SMILES C[C@@H](C(=O)OCCOC(=O)c1ccc(-c2c3nc(c(-c4c(F)cccc4F)c4ccc([nH]4)c(-c4c(F)cccc4F)c4nc(c(-c5c(F)cccc5F)c5ccc2[nH]5)C=C4)C=C3)cc1)c1ccc(=O)n(C(F)F)c1
REMARK SMILES IDX 6 1 5 2 3 3 4 4 2 5 1 6 65 7 66 8 74 9 67 10 70 11 68 12
REMARK SMILES IDX 69 13 71 14 72 15 73 16 7 17 8 18 9 19 10 20 11 21 12 22
REMARK SMILES IDX 64 23 13 24 63 25 14 26 15 27 16 28 57 29 17 30 62 31 56 32
REMARK SMILES IDX 58 33 18 34 61 35 55 36 54 37 19 39 45 40 28 41 44 42 29 43
REMARK SMILES IDX 32 44 43 45 59 46 30 47 31 48 42 50 60 51 33 52 20 53 21 54
REMARK SMILES IDX 26 55 22 56 23 57 25 58 27 59 24 60 46 61 47 62 52 63 48 64
REMARK SMILES IDX 49 65 51 66 53 67 50 68 34 69 35 70 40 71 36 72 37 73 39 74
REMARK SMILES IDX 41 75 38 76
REMARK H PARENT 58 38 32 49
REMARK Flexibility Score: inf
ROOT
ATOM      1  C   UNL A   1      44.737  21.768  25.214  1.00  0.00     0.274 C 
ENDROOT
BRANCH   1   2
ATOM      2  O   UNL A   1      43.638  21.812  26.137  1.00  0.00    -0.462 OA
BRANCH   2   3
ATOM      3  C   UNL A   1      42.704  20.828  26.011  1.00  0.00     0.313 C 
ATOM      4  O   UNL A   1      42.750  19.930  25.177  1.00  0.00    -0.252 OA
BRANCH   3   5
ATOM      5  C   UNL A   1      41.742  20.840  27.210  1.00  0.00     0.127 C 
ATOM      6  C   UNL A   1      41.444  19.421  27.693  1.00  0.00     0.025 C 
BRANCH   5   7
ATOM      7  C   UNL A   1      40.481  21.620  26.862  1.00  0.00    -0.017 A 
ATOM      8  C   UNL A   1      40.350  22.998  27.307  1.00  0.00     0.012 A 
ATOM      9  C   UNL A   1      39.478  21.101  26.134  1.00  0.00     0.099 A 
ATOM     10  C   UNL A   1      39.264  23.721  26.999  1.00  0.00     0.072 A 
ATOM     11  N   UNL A   1      38.388  21.834  25.742  1.00  0.00    -0.258 N 
ATOM     12  C   UNL A   1      38.201  23.146  26.127  1.00  0.00     0.254 A 
ATOM     13  O   UNL A   1      37.259  23.853  25.790  1.00  0.00    -0.269 OA
BRANCH  11  14
ATOM     14  C   UNL A   1      37.412  21.207  24.884  1.00  0.00     0.451 C 
ATOM     15  F   UNL A   1      37.285  21.882  23.709  1.00  0.00    -0.185 F 
ATOM     16  F   UNL A   1      37.839  19.972  24.528  1.00  0.00    -0.185 F 
ENDBRANCH  11  14
ENDBRANCH   5   7
ENDBRANCH   3   5
ENDBRANCH   2   3
ENDBRANCH   1   2
BRANCH   1  17
ATOM     17  C   UNL A   1      44.476  22.787  24.102  1.00  0.00     0.275 C 
BRANCH  17  18
ATOM     18  O   UNL A   1      43.843  23.980  24.626  1.00  0.00    -0.458 OA
BRANCH  18  19
ATOM     19  C   UNL A   1      44.678  24.950  25.093  1.00  0.00     0.338 C 
ATOM     20  O   UNL A   1      45.748  25.276  24.626  1.00  0.00    -0.246 OA
BRANCH  19  21
ATOM     21  C   UNL A   1      44.028  25.671  26.221  1.00  0.00     0.060 A 
ATOM     22  C   UNL A   1      44.411  26.995  26.465  1.00  0.00     0.016 A 
ATOM     23  C   UNL A   1      43.055  25.075  27.029  1.00  0.00     0.016 A 
ATOM     24  C   UNL A   1      43.762  27.749  27.453  1.00  0.00     0.010 A 
ATOM     25  C   UNL A   1      42.428  25.823  28.042  1.00  0.00     0.010 A 
ATOM     26  C   UNL A   1      42.751  27.178  28.243  1.00  0.00    -0.014 A 
BRANCH  26  27
ATOM     27  C   UNL A   1      42.144  27.951  29.367  1.00  0.00     0.031 A 
ATOM     28  C   UNL A   1      42.817  27.898  30.700  1.00  0.00     0.074 A 
ATOM     29  C   UNL A   1      41.042  28.718  29.231  1.00  0.00     0.049 A 
ATOM     30  N   UNL A   1      42.505  28.520  31.805  1.00  0.00    -0.248 NA
ATOM     31  C   UNL A   1      44.018  27.055  30.792  1.00  0.00     0.031 C 
ATOM     32  C   UNL A   1      40.357  28.959  27.977  1.00  0.00     0.029 A 
ATOM     33  N   UNL A   1      40.310  29.455  30.135  1.00  0.00    -0.354 N 
ATOM     34  C   UNL A   1      43.490  28.179  32.714  1.00  0.00     0.074 A 
ATOM     35  C   UNL A   1      44.393  27.265  32.043  1.00  0.00     0.031 C 
ATOM     36  C   UNL A   1      39.307  29.770  28.165  1.00  0.00     0.029 A 
ATOM     37  C   UNL A   1      39.212  30.079  29.583  1.00  0.00     0.049 A 
ATOM     38  H   UNL A   1      40.550  29.531  31.087  1.00  0.00     0.167 HD
ATOM     39  C   UNL A   1      43.629  28.590  33.993  1.00  0.00     0.037 A 
ATOM     40  C   UNL A   1      38.227  30.812  30.140  1.00  0.00     0.037 A 
ATOM     41  C   UNL A   1      42.684  29.426  34.684  1.00  0.00     0.049 A 
ATOM     42  C   UNL A   1      38.314  31.117  31.605  1.00  0.00     0.074 A 
ATOM     43  C   UNL A   1      42.702  29.835  36.004  1.00  0.00     0.029 A 
ATOM     44  N   UNL A   1      41.530  29.952  34.118  1.00  0.00    -0.354 N 
ATOM     45  N   UNL A   1      39.261  30.797  32.450  1.00  0.00    -0.248 NA
ATOM     46  C   UNL A   1      37.218  31.898  32.192  1.00  0.00     0.031 C 
ATOM     47  C   UNL A   1      41.529  30.553  36.255  1.00  0.00     0.029 A 
ATOM     48  C   UNL A   1      40.809  30.648  35.075  1.00  0.00     0.049 A 
ATOM     49  H   UNL A   1      41.264  29.847  33.175  1.00  0.00     0.167 HD
ATOM     50  C   UNL A   1      38.902  31.370  33.659  1.00  0.00     0.074 A 
ATOM     51  C   UNL A   1      37.650  32.065  33.435  1.00  0.00     0.031 C 
ATOM     52  C   UNL A   1      39.558  31.327  34.843  1.00  0.00     0.037 A 
BRANCH  39  53
ATOM     53  C   UNL A   1      44.819  28.061  34.730  1.00  0.00     0.057 A 
ATOM     54  C   UNL A   1      44.769  26.857  35.446  1.00  0.00     0.134 A 
ATOM     55  C   UNL A   1      46.010  28.793  34.770  1.00  0.00     0.134 A 
ATOM     56  F   UNL A   1      43.644  26.127  35.473  1.00  0.00    -0.206 F 
ATOM     57  C   UNL A   1      45.857  26.415  36.200  1.00  0.00     0.040 A 
ATOM     58  C   UNL A   1      47.112  28.349  35.501  1.00  0.00     0.040 A 
ATOM     59  F   UNL A   1      46.115  29.960  34.118  1.00  0.00    -0.206 F 
ATOM     60  C   UNL A   1      47.033  27.161  36.227  1.00  0.00     0.006 A 
ENDBRANCH  39  53
BRANCH  40  61
ATOM     61  C   UNL A   1      37.083  31.299  29.318  1.00  0.00     0.057 A 
ATOM     62  C   UNL A   1      35.979  30.487  29.037  1.00  0.00     0.134 A 
ATOM     63  C   UNL A   1      37.077  32.593  28.777  1.00  0.00     0.134 A 
ATOM     64  F   UNL A   1      35.929  29.229  29.501  1.00  0.00    -0.206 F 
ATOM     65  C   UNL A   1      34.922  30.932  28.236  1.00  0.00     0.040 A 
ATOM     66  C   UNL A   1      36.016  33.061  27.998  1.00  0.00     0.040 A 
ATOM     67  F   UNL A   1      38.103  33.427  29.004  1.00  0.00    -0.206 F 
ATOM     68  C   UNL A   1      34.937  32.226  27.720  1.00  0.00     0.006 A 
ENDBRANCH  40  61
BRANCH  52  69
ATOM     69  C   UNL A   1      38.941  32.079  35.984  1.00  0.00     0.057 A 
ATOM     70  C   UNL A   1      38.094  31.457  36.909  1.00  0.00     0.134 A 
ATOM     71  C   UNL A   1      39.224  33.438  36.172  1.00  0.00     0.134 A 
ATOM     72  F   UNL A   1      37.771  30.162  36.773  1.00  0.00    -0.206 F 
ATOM     73  C   UNL A   1      37.529  32.167  37.968  1.00  0.00     0.040 A 
ATOM     74  C   UNL A   1      38.688  34.150  37.244  1.00  0.00     0.040 A 
ATOM     75  F   UNL A   1      40.031  34.091  35.323  1.00  0.00    -0.206 F 
ATOM     76  C   UNL A   1      37.833  33.516  38.143  1.00  0.00     0.006 A 
ENDBRANCH  52  69
ENDBRANCH  26  27
ENDBRANCH  19  21
ENDBRANCH  18  19
ENDBRANCH  17  18
ENDBRANCH   1  17
TORSDOF 13
ENDMDL
MODEL 2
REMARK VINA RESULT:     -10.4      4.179     10.392
REMARK SMILES C[C@@H](C(=O)OCCOC(=O)c1ccc(-c2c3nc(c(-c4c(F)cccc4F)c4ccc([nH]4)c(-c4c(F)cccc4F)c4nc(c(-c5c(F)cccc5F)c5ccc2[nH]5)C=C4)C=C3)cc1)c1ccc(=O)n(C(F)F)c1
REMARK SMILES IDX 6 1 5 2 3 3 4 4 2 5 1 6 65 7 66 8 74 9 67 10 70 11 68 12
REMARK SMILES IDX 69 13 71 14 72 15 73 16 7 17 8 18 9 19 10 20 11 21 12 22
REMARK SMILES IDX 64 23 13 24 63 25 14 26 15 27 16 28 57 29 17 30 62 31 56 32
REMARK SMILES IDX 58 33 18 34 61 35 55 36 54 37 19 39 45 40 28 41 44 42 29 43
REMARK SMILES IDX 32 44 43 45 59 46 30 47 31 48 42 50 60 51 33 52 20 53 21 54
REMARK SMILES IDX 26 55 22 56 23 57 25 58 27 59 24 60 46 61 47 62 52 63 48 64
REMARK SMILES IDX 49 65 51 66 53 67 50 68 34 69 35 70 40 71 36 72 37 73 39 74
REMARK SMILES IDX 41 75 38 76
REMARK H PARENT 58 38 32 49
REMARK Flexibility Score: inf
ROOT
ATOM      1  C   UNL A   1      33.891  34.676  28.840  1.00  0.00     0.274 C 
ENDROOT
BRANCH   1   2
ATOM      2  O   UNL A   1      33.440  34.463  30.187  1.00  0.00    -0.462 OA
BRANCH   2   3
ATOM      3  C   UNL A   1      34.390  34.535  31.161  1.00  0.00     0.313 C 
ATOM      4  O   UNL A   1      34.443  35.413  32.015  1.00  0.00    -0.252 OA
BRANCH   3   5
ATOM      5  C   UNL A   1      35.213  33.238  31.209  1.00  0.00     0.127 C 
ATOM      6  C   UNL A   1      34.842  32.392  32.426  1.00  0.00     0.025 C 
BRANCH   5   7
ATOM      7  C   UNL A   1      36.701  33.560  31.148  1.00  0.00    -0.017 A 
ATOM      8  C   UNL A   1      37.340  33.736  29.855  1.00  0.00     0.012 A 
ATOM      9  C   UNL A   1      37.460  33.716  32.246  1.00  0.00     0.099 A 
ATOM     10  C   UNL A   1      38.642  34.043  29.765  1.00  0.00     0.072 A 
ATOM     11  N   UNL A   1      38.776  34.099  32.191  1.00  0.00    -0.258 N 
ATOM     12  C   UNL A   1      39.443  34.283  30.998  1.00  0.00     0.254 A 
ATOM     13  O   UNL A   1      40.609  34.645  30.890  1.00  0.00    -0.269 OA
BRANCH  11  14
ATOM     14  C   UNL A   1      39.476  34.328  33.431  1.00  0.00     0.451 C 
ATOM     15  F   UNL A   1      38.955  35.392  34.101  1.00  0.00    -0.185 F 
ATOM     16  F   UNL A   1      39.294  33.275  34.264  1.00  0.00    -0.185 F 
ENDBRANCH  11  14
ENDBRANCH   5   7
ENDBRANCH   3   5
ENDBRANCH   2   3
ENDBRANCH   1   2
BRANCH   1  17
ATOM     17  C   UNL A   1      33.522  33.447  28.006  1.00  0.00     0.275 C 
BRANCH  17  18
ATOM     18  O   UNL A   1      34.689  32.637  27.725  1.00  0.00    -0.458 OA
BRANCH  18  19
ATOM     19  C   UNL A   1      34.545  31.293  27.898  1.00  0.00     0.338 C 
ATOM     20  O   UNL A   1      33.563  30.628  27.648  1.00  0.00    -0.246 OA
BRANCH  19  21
ATOM     21  C   UNL A   1      35.840  30.701  28.334  1.00  0.00     0.060 A 
ATOM     22  C   UNL A   1      35.869  29.998  29.544  1.00  0.00     0.016 A 
ATOM     23  C   UNL A   1      37.009  30.821  27.578  1.00  0.00     0.016 A 
ATOM     24  C   UNL A   1      37.038  29.341  29.952  1.00  0.00     0.010 A 
ATOM     25  C   UNL A   1      38.190  30.188  28.006  1.00  0.00     0.010 A 
ATOM     26  C   UNL A   1      38.209  29.414  29.180  1.00  0.00    -0.014 A 
BRANCH  26  27
ATOM     27  C   UNL A   1      39.479  28.807  29.678  1.00  0.00     0.031 A 
ATOM     28  C   UNL A   1      40.136  29.427  30.868  1.00  0.00     0.074 A 
ATOM     29  C   UNL A   1      40.044  27.712  29.128  1.00  0.00     0.049 A 
ATOM     30  N   UNL A   1      41.212  29.050  31.505  1.00  0.00    -0.248 NA
ATOM     31  C   UNL A   1      39.475  30.613  31.434  1.00  0.00     0.031 C 
ATOM     32  C   UNL A   1      39.461  26.937  28.051  1.00  0.00     0.029 A 
ATOM     33  N   UNL A   1      41.215  27.038  29.399  1.00  0.00    -0.354 N 
ATOM     34  C   UNL A   1      41.338  29.924  32.570  1.00  0.00     0.074 A 
ATOM     35  C   UNL A   1      40.249  30.874  32.475  1.00  0.00     0.031 C 
ATOM     36  C   UNL A   1      40.253  25.905  27.733  1.00  0.00     0.029 A 
ATOM     37  C   UNL A   1      41.444  25.965  28.565  1.00  0.00     0.049 A 
ATOM     38  H   UNL A   1      41.830  27.299  30.123  1.00  0.00     0.167 HD
ATOM     39  C   UNL A   1      42.279  29.932  33.540  1.00  0.00     0.037 A 
ATOM     40  C   UNL A   1      42.490  25.121  28.463  1.00  0.00     0.037 A 
ATOM     41  C   UNL A   1      43.409  29.043  33.582  1.00  0.00     0.049 A 
ATOM     42  C   UNL A   1      43.609  25.257  29.451  1.00  0.00     0.074 A 
ATOM     43  C   UNL A   1      44.454  29.024  34.486  1.00  0.00     0.029 A 
ATOM     44  N   UNL A   1      43.659  28.036  32.659  1.00  0.00    -0.354 N 
ATOM     45  N   UNL A   1      43.708  26.083  30.463  1.00  0.00    -0.248 NA
ATOM     46  C   UNL A   1      44.747  24.340  29.304  1.00  0.00     0.031 C 
ATOM     47  C   UNL A   1      45.370  28.052  34.074  1.00  0.00     0.029 A 
ATOM     48  C   UNL A   1      44.865  27.417  32.950  1.00  0.00     0.049 A 
ATOM     49  H   UNL A   1      43.067  27.796  31.909  1.00  0.00     0.167 HD
ATOM     50  C   UNL A   1      44.895  25.762  31.101  1.00  0.00     0.074 A 
ATOM     51  C   UNL A   1      45.479  24.659  30.364  1.00  0.00     0.031 C 
ATOM     52  C   UNL A   1      45.441  26.327  32.202  1.00  0.00     0.037 A 
BRANCH  39  53
ATOM     53  C   UNL A   1      42.142  30.999  34.580  1.00  0.00     0.057 A 
ATOM     54  C   UNL A   1      41.370  30.811  35.734  1.00  0.00     0.134 A 
ATOM     55  C   UNL A   1      42.743  32.249  34.395  1.00  0.00     0.134 A 
ATOM     56  F   UNL A   1      40.742  29.645  35.951  1.00  0.00    -0.206 F 
ATOM     57  C   UNL A   1      41.179  31.841  36.656  1.00  0.00     0.040 A 
ATOM     58  C   UNL A   1      42.578  33.278  35.322  1.00  0.00     0.040 A 
ATOM     59  F   UNL A   1      43.481  32.495  33.303  1.00  0.00    -0.206 F 
ATOM     60  C   UNL A   1      41.786  33.078  36.452  1.00  0.00     0.006 A 
ENDBRANCH  39  53
BRANCH  40  61
ATOM     61  C   UNL A   1      42.530  24.085  27.392  1.00  0.00     0.057 A 
ATOM     62  C   UNL A   1      42.055  22.787  27.605  1.00  0.00     0.134 A 
ATOM     63  C   UNL A   1      43.066  24.368  26.127  1.00  0.00     0.134 A 
ATOM     64  F   UNL A   1      41.552  22.438  28.799  1.00  0.00    -0.206 F 
ATOM     65  C   UNL A   1      42.126  21.804  26.612  1.00  0.00     0.040 A 
ATOM     66  C   UNL A   1      43.118  23.405  25.117  1.00  0.00     0.040 A 
ATOM     67  F   UNL A   1      43.542  25.591  25.851  1.00  0.00    -0.206 F 
ATOM     68  C   UNL A   1      42.653  22.115  25.361  1.00  0.00     0.006 A 
ENDBRANCH  40  61
BRANCH  52  69
ATOM     69  C   UNL A   1      46.731  25.742  32.693  1.00  0.00     0.057 A 
ATOM     70  C   UNL A   1      47.970  26.138  32.174  1.00  0.00     0.134 A 
ATOM     71  C   UNL A   1      46.732  24.787  33.717  1.00  0.00     0.134 A 
ATOM     72  F   UNL A   1      48.035  27.036  31.179  1.00  0.00    -0.206 F 
ATOM     73  C   UNL A   1      49.164  25.587  32.640  1.00  0.00     0.040 A 
ATOM     74  C   UNL A   1      47.920  24.251  34.212  1.00  0.00     0.040 A 
ATOM     75  F   UNL A   1      45.579  24.367  34.259  1.00  0.00    -0.206 F 
ATOM     76  C   UNL A   1      49.141  24.647  33.669  1.00  0.00     0.006 A 
ENDBRANCH  52  69
ENDBRANCH  26  27
ENDBRANCH  19  21
ENDBRANCH  18  19
ENDBRANCH  17  18
ENDBRANCH   1  17
TORSDOF 13
ENDMDL
MODEL 3
REMARK VINA RESULT:     -10.3      4.046      6.089
REMARK SMILES C[C@@H](C(=O)OCCOC(=O)c1ccc(-c2c3nc(c(-c4c(F)cccc4F)c4ccc([nH]4)c(-c4c(F)cccc4F)c4nc(c(-c5c(F)cccc5F)c5ccc2[nH]5)C=C4)C=C3)cc1)c1ccc(=O)n(C(F)F)c1
REMARK SMILES IDX 6 1 5 2 3 3 4 4 2 5 1 6 65 7 66 8 74 9 67 10 70 11 68 12
REMARK SMILES IDX 69 13 71 14 72 15 73 16 7 17 8 18 9 19 10 20 11 21 12 22
REMARK SMILES IDX 64 23 13 24 63 25 14 26 15 27 16 28 57 29 17 30 62 31 56 32
REMARK SMILES IDX 58 33 18 34 61 35 55 36 54 37 19 39 45 40 28 41 44 42 29 43
REMARK SMILES IDX 32 44 43 45 59 46 30 47 31 48 42 50 60 51 33 52 20 53 21 54
REMARK SMILES IDX 26 55 22 56 23 57 25 58 27 59 24 60 46 61 47 62 52 63 48 64
REMARK SMILES IDX 49 65 51 66 53 67 50 68 34 69 35 70 40 71 36 72 37 73 39 74
REMARK SMILES IDX 41 75 38 76
REMARK H PARENT 58 38 32 49
REMARK Flexibility Score: inf
ROOT
ATOM      1  C   UNL A   1      41.935  19.678  25.970  1.00  0.00     0.274 C 
ENDROOT
BRANCH   1   2
ATOM      2  O   UNL A   1      42.420  20.951  25.515  1.00  0.00    -0.462 OA
BRANCH   2   3
ATOM      3  C   UNL A   1      43.771  21.075  25.395  1.00  0.00     0.313 C 
ATOM      4  O   UNL A   1      44.552  20.131  25.341  1.00  0.00    -0.252 OA
BRANCH   3   5
ATOM      5  C   UNL A   1      44.154  22.527  25.068  1.00  0.00     0.127 C 
ATOM      6  C   UNL A   1      44.941  22.610  23.761  1.00  0.00     0.025 C 
BRANCH   5   7
ATOM      7  C   UNL A   1      44.897  23.150  26.243  1.00  0.00    -0.017 A 
ATOM      8  C   UNL A   1      46.098  23.930  25.993  1.00  0.00     0.012 A 
ATOM      9  C   UNL A   1      44.481  23.035  27.514  1.00  0.00     0.099 A 
ATOM     10  C   UNL A   1      46.764  24.513  27.000  1.00  0.00     0.072 A 
ATOM     11  N   UNL A   1      45.097  23.676  28.559  1.00  0.00    -0.258 N 
ATOM     12  C   UNL A   1      46.239  24.432  28.393  1.00  0.00     0.254 A 
ATOM     13  O   UNL A   1      46.817  25.042  29.284  1.00  0.00    -0.269 OA
BRANCH  11  14
ATOM     14  C   UNL A   1      44.515  23.560  29.874  1.00  0.00     0.451 C 
ATOM     15  F   UNL A   1      43.894  24.714  30.240  1.00  0.00    -0.185 F 
ATOM     16  F   UNL A   1      43.531  22.629  29.862  1.00  0.00    -0.185 F 
ENDBRANCH  11  14
ENDBRANCH   5   7
ENDBRANCH   3   5
ENDBRANCH   2   3
ENDBRANCH   1   2
BRANCH   1  17
ATOM     17  C   UNL A   1      40.456  19.827  26.335  1.00  0.00     0.275 C 
BRANCH  17  18
ATOM     18  O   UNL A   1      40.226  21.036  27.098  1.00  0.00    -0.458 OA
BRANCH  18  19
ATOM     19  C   UNL A   1      39.474  21.997  26.491  1.00  0.00     0.338 C 
ATOM     20  O   UNL A   1      38.525  21.823  25.757  1.00  0.00    -0.246 OA
BRANCH  19  21
ATOM     21  C   UNL A   1      39.904  23.342  26.961  1.00  0.00     0.060 A 
ATOM     22  C   UNL A   1      39.364  24.466  26.325  1.00  0.00     0.016 A 
ATOM     23  C   UNL A   1      40.815  23.513  28.007  1.00  0.00     0.016 A 
ATOM     24  C   UNL A   1      39.663  25.754  26.790  1.00  0.00     0.010 A 
ATOM     25  C   UNL A   1      41.139  24.808  28.451  1.00  0.00     0.010 A 
ATOM     26  C   UNL A   1      40.540  25.941  27.870  1.00  0.00    -0.014 A 
BRANCH  26  27
ATOM     27  C   UNL A   1      40.942  27.317  28.287  1.00  0.00     0.031 A 
ATOM     28  C   UNL A   1      42.388  27.683  28.207  1.00  0.00     0.074 A 
ATOM     29  C   UNL A   1      40.062  28.254  28.700  1.00  0.00     0.049 A 
ATOM     30  N   UNL A   1      42.964  28.826  28.467  1.00  0.00    -0.248 NA
ATOM     31  C   UNL A   1      43.303  26.629  27.743  1.00  0.00     0.031 C 
ATOM     32  C   UNL A   1      38.623  28.083  28.715  1.00  0.00     0.029 A 
ATOM     33  N   UNL A   1      40.229  29.540  29.165  1.00  0.00    -0.354 N 
ATOM     34  C   UNL A   1      44.301  28.645  28.161  1.00  0.00     0.074 A 
ATOM     35  C   UNL A   1      44.459  27.271  27.730  1.00  0.00     0.031 C 
ATOM     36  C   UNL A   1      38.023  29.192  29.165  1.00  0.00     0.029 A 
ATOM     37  C   UNL A   1      39.049  30.159  29.520  1.00  0.00     0.049 A 
ATOM     38  H   UNL A   1      41.109  29.976  29.236  1.00  0.00     0.167 HD
ATOM     39  C   UNL A   1      45.306  29.545  28.235  1.00  0.00     0.037 A 
ATOM     40  C   UNL A   1      38.805  31.362  30.077  1.00  0.00     0.037 A 
ATOM     41  C   UNL A   1      45.164  30.881  28.748  1.00  0.00     0.049 A 
ATOM     42  C   UNL A   1      39.964  32.284  30.307  1.00  0.00     0.074 A 
ATOM     43  C   UNL A   1      46.142  31.841  28.930  1.00  0.00     0.029 A 
ATOM     44  N   UNL A   1      43.971  31.434  29.195  1.00  0.00    -0.354 N 
ATOM     45  N   UNL A   1      41.224  32.103  30.000  1.00  0.00    -0.248 NA
ATOM     46  C   UNL A   1      39.674  33.580  30.934  1.00  0.00     0.031 C 
ATOM     47  C   UNL A   1      45.555  32.950  29.547  1.00  0.00     0.029 A 
ATOM     48  C   UNL A   1      44.198  32.709  29.690  1.00  0.00     0.049 A 
ATOM     49  H   UNL A   1      43.094  30.988  29.164  1.00  0.00     0.167 HD
ATOM     50  C   UNL A   1      41.874  33.274  30.357  1.00  0.00     0.074 A 
ATOM     51  C   UNL A   1      40.865  34.163  30.898  1.00  0.00     0.031 C 
ATOM     52  C   UNL A   1      43.187  33.581  30.236  1.00  0.00     0.037 A 
BRANCH  39  53
ATOM     53  C   UNL A   1      46.658  29.058  27.816  1.00  0.00     0.057 A 
ATOM     54  C   UNL A   1      47.073  29.092  26.478  1.00  0.00     0.134 A 
ATOM     55  C   UNL A   1      47.530  28.495  28.754  1.00  0.00     0.134 A 
ATOM     56  F   UNL A   1      46.268  29.590  25.527  1.00  0.00    -0.206 F 
ATOM     57  C   UNL A   1      48.300  28.557  26.084  1.00  0.00     0.040 A 
ATOM     58  C   UNL A   1      48.769  27.978  28.375  1.00  0.00     0.040 A 
ATOM     59  F   UNL A   1      47.183  28.419  30.047  1.00  0.00    -0.206 F 
ATOM     60  C   UNL A   1      49.153  28.000  27.035  1.00  0.00     0.006 A 
ENDBRANCH  39  53
BRANCH  40  61
ATOM     61  C   UNL A   1      37.419  31.758  30.456  1.00  0.00     0.057 A 
ATOM     62  C   UNL A   1      36.603  32.498  29.593  1.00  0.00     0.134 A 
ATOM     63  C   UNL A   1      36.882  31.418  31.706  1.00  0.00     0.134 A 
ATOM     64  F   UNL A   1      37.059  32.879  28.391  1.00  0.00    -0.206 F 
ATOM     65  C   UNL A   1      35.315  32.900  29.963  1.00  0.00     0.040 A 
ATOM     66  C   UNL A   1      35.589  31.790  32.079  1.00  0.00     0.040 A 
ATOM     67  F   UNL A   1      37.608  30.712  32.586  1.00  0.00    -0.206 F 
ATOM     68  C   UNL A   1      34.802  32.540  31.207  1.00  0.00     0.006 A 
ENDBRANCH  40  61
BRANCH  52  69
ATOM     69  C   UNL A   1      43.603  34.952  30.678  1.00  0.00     0.057 A 
ATOM     70  C   UNL A   1      43.633  36.038  29.794  1.00  0.00     0.134 A 
ATOM     71  C   UNL A   1      43.951  35.191  32.013  1.00  0.00     0.134 A 
ATOM     72  F   UNL A   1      43.327  35.870  28.498  1.00  0.00    -0.206 F 
ATOM     73  C   UNL A   1      44.020  37.309  30.217  1.00  0.00     0.040 A 
ATOM     74  C   UNL A   1      44.310  36.464  32.454  1.00  0.00     0.040 A 
ATOM     75  F   UNL A   1      43.939  34.194  32.911  1.00  0.00    -0.206 F 
ATOM     76  C   UNL A   1      44.351  37.527  31.554  1.00  0.00     0.006 A 
ENDBRANCH  52  69
ENDBRANCH  26  27
ENDBRANCH  19  21
ENDBRANCH  18  19
ENDBRANCH  17  18
ENDBRANCH   1  17
TORSDOF 13
ENDMDL
