MODEL 1
REMARK VINA RESULT:     -10.6      0.000      0.000
REMARK SMILES O=C(C[NH2+][C@H]1CCCC[C@H]1[N@H+](Cc1ccccc1)C1CC1)OCCOC(=O)c1ccc(-c2c3nc(c(-c4c(F)cccc4F)c4ccc([nH]4)c(-c4c(F)cccc4F)c4nc(c(-c5c(F)cccc5F)c5ccc2[nH]5)C=C4)C=C3)cc1
REMARK SMILES IDX 22 1 2 2 1 3 3 4 4 5 5 8 6 9 10 10 7 11 9 12 8 13 11 14
REMARK SMILES IDX 12 16 13 17 14 18 18 19 15 20 17 21 16 22 19 23 20 24 21 25
REMARK SMILES IDX 23 26 24 27 25 28 26 29 27 30 28 31 29 32 81 33 30 34 80 35
REMARK SMILES IDX 31 36 32 37 33 38 74 39 34 40 79 41 73 42 75 43 35 44 78 45
REMARK SMILES IDX 72 46 71 47 36 49 62 50 45 51 61 52 46 53 49 54 60 55 76 56
REMARK SMILES IDX 47 57 48 58 59 60 77 61 50 62 37 63 38 64 43 65 39 66 40 67
REMARK SMILES IDX 42 68 44 69 41 70 63 71 64 72 69 73 65 74 66 75 68 76 70 77
REMARK SMILES IDX 67 78 51 79 52 80 57 81 53 82 54 83 56 84 58 85 55 86
REMARK H PARENT 4 6 4 7 11 15 75 48 49 59
REMARK Flexibility Score: inf
ROOT
ATOM      1  O   UNL A   1      32.894  30.267  27.392  1.00  0.00    -0.458 OA
ENDROOT
BRANCH   1   2
ATOM      2  C   UNL A   1      33.809  29.398  26.906  1.00  0.00     0.361 C 
ATOM      3  O   UNL A   1      34.785  29.084  27.586  1.00  0.00    -0.245 OA
BRANCH   2   4
ATOM      4  C   UNL A   1      33.606  28.808  25.508  1.00  0.00     0.385 C 
BRANCH   4   5
ATOM      5  N   UNL A   1      33.127  27.433  25.573  1.00  0.00    -0.330 N 
ATOM      6  H   UNL A   1      33.185  27.137  26.547  1.00  0.00     0.347 HD
ATOM      7  H   UNL A   1      33.724  26.924  24.920  1.00  0.00     0.347 HD
BRANCH   5   8
ATOM      8  C   UNL A   1      31.765  27.159  25.113  1.00  0.00     0.241 C 
ATOM      9  C   UNL A   1      31.081  28.417  24.518  1.00  0.00     0.071 C 
ATOM     10  C   UNL A   1      31.540  25.856  24.258  1.00  0.00     0.243 C 
ATOM     11  C   UNL A   1      31.307  28.628  23.030  1.00  0.00     0.007 C 
ATOM     12  C   UNL A   1      31.697  26.183  22.736  1.00  0.00     0.071 C 
ATOM     13  C   UNL A   1      30.912  27.394  22.257  1.00  0.00     0.007 C 
BRANCH  10  14
ATOM     14  N   UNL A   1      32.254  24.570  24.516  1.00  0.00    -0.321 N 
ATOM     15  H   UNL A   1      32.405  24.990  25.433  1.00  0.00     0.349 HD
BRANCH  14  16
ATOM     16  C   UNL A   1      33.222  24.255  23.427  1.00  0.00     0.299 C 
BRANCH  16  17
ATOM     17  C   UNL A   1      34.620  23.927  23.918  1.00  0.00     0.006 A 
ATOM     18  C   UNL A   1      35.467  23.041  23.234  1.00  0.00     0.009 A 
ATOM     19  C   UNL A   1      35.058  24.455  25.139  1.00  0.00     0.009 A 
ATOM     20  C   UNL A   1      36.698  22.663  23.764  1.00  0.00     0.001 A 
ATOM     21  C   UNL A   1      36.299  24.089  25.665  1.00  0.00     0.001 A 
ATOM     22  C   UNL A   1      37.111  23.184  24.985  1.00  0.00     0.000 A 
ENDBRANCH  16  17
ENDBRANCH  14  16
BRANCH  14  23
ATOM     23  C   UNL A   1      31.900  23.327  25.243  1.00  0.00     0.185 C 
ATOM     24  C   UNL A   1      31.912  23.553  26.758  1.00  0.00     0.071 C 
ATOM     25  C   UNL A   1      30.814  22.783  26.125  1.00  0.00     0.071 C 
ENDBRANCH  14  23
ENDBRANCH  10  14
ENDBRANCH   5   8
ENDBRANCH   4   5
ENDBRANCH   2   4
ENDBRANCH   1   2
BRANCH   1  26
ATOM     26  C   UNL A   1      31.901  30.916  26.574  1.00  0.00     0.274 C 
BRANCH  26  27
ATOM     27  C   UNL A   1      31.733  32.389  26.964  1.00  0.00     0.275 C 
BRANCH  27  28
ATOM     28  O   UNL A   1      33.008  33.058  27.045  1.00  0.00    -0.458 OA
BRANCH  28  29
ATOM     29  C   UNL A   1      33.198  33.897  28.106  1.00  0.00     0.338 C 
ATOM     30  O   UNL A   1      32.431  34.737  28.508  1.00  0.00    -0.246 OA
BRANCH  29  31
ATOM     31  C   UNL A   1      34.437  33.479  28.827  1.00  0.00     0.060 A 
ATOM     32  C   UNL A   1      35.657  34.091  28.500  1.00  0.00     0.016 A 
ATOM     33  C   UNL A   1      34.392  32.548  29.865  1.00  0.00     0.016 A 
ATOM     34  C   UNL A   1      36.836  33.756  29.190  1.00  0.00     0.010 A 
ATOM     35  C   UNL A   1      35.564  32.232  30.564  1.00  0.00     0.010 A 
ATOM     36  C   UNL A   1      36.806  32.807  30.219  1.00  0.00    -0.014 A 
BRANCH  36  37
ATOM     37  C   UNL A   1      38.041  32.250  30.853  1.00  0.00     0.031 A 
ATOM     38  C   UNL A   1      38.683  31.048  30.210  1.00  0.00     0.074 A 
ATOM     39  C   UNL A   1      38.553  32.700  32.016  1.00  0.00     0.049 A 
ATOM     40  N   UNL A   1      39.625  30.259  30.664  1.00  0.00    -0.248 NA
ATOM     41  C   UNL A   1      38.185  30.686  28.872  1.00  0.00     0.031 C 
ATOM     42  C   UNL A   1      38.119  33.883  32.745  1.00  0.00     0.029 A 
ATOM     43  N   UNL A   1      39.518  32.147  32.830  1.00  0.00    -0.354 N 
ATOM     44  C   UNL A   1      39.840  29.323  29.663  1.00  0.00     0.074 A 
ATOM     45  C   UNL A   1      38.867  29.581  28.623  1.00  0.00     0.031 C 
ATOM     46  C   UNL A   1      38.710  33.899  33.953  1.00  0.00     0.029 A 
ATOM     47  C   UNL A   1      39.585  32.736  34.073  1.00  0.00     0.049 A 
ATOM     48  H   UNL A   1      40.101  31.404  32.551  1.00  0.00     0.167 HD
ATOM     49  C   UNL A   1      40.794  28.366  29.580  1.00  0.00     0.037 A 
ATOM     50  C   UNL A   1      40.250  32.365  35.187  1.00  0.00     0.037 A 
ATOM     51  C   UNL A   1      41.781  28.104  30.591  1.00  0.00     0.049 A 
ATOM     52  C   UNL A   1      41.206  31.201  35.149  1.00  0.00     0.074 A 
ATOM     53  C   UNL A   1      42.839  27.213  30.552  1.00  0.00     0.029 A 
ATOM     54  N   UNL A   1      41.822  28.722  31.829  1.00  0.00    -0.354 N 
ATOM     55  N   UNL A   1      41.476  30.387  34.159  1.00  0.00    -0.248 NA
ATOM     56  C   UNL A   1      41.986  30.934  36.369  1.00  0.00     0.031 C 
ATOM     57  C   UNL A   1      43.492  27.256  31.789  1.00  0.00     0.029 A 
ATOM     58  C   UNL A   1      42.865  28.206  32.579  1.00  0.00     0.049 A 
ATOM     59  H   UNL A   1      41.201  29.425  32.132  1.00  0.00     0.167 HD
ATOM     60  C   UNL A   1      42.508  29.570  34.607  1.00  0.00     0.074 A 
ATOM     61  C   UNL A   1      42.792  29.958  35.972  1.00  0.00     0.031 C 
ATOM     62  C   UNL A   1      43.178  28.608  33.927  1.00  0.00     0.037 A 
BRANCH  49  63
ATOM     63  C   UNL A   1      40.813  27.546  28.328  1.00  0.00     0.057 A 
ATOM     64  C   UNL A   1      41.551  27.944  27.203  1.00  0.00     0.134 A 
ATOM     65  C   UNL A   1      40.073  26.362  28.233  1.00  0.00     0.134 A 
ATOM     66  F   UNL A   1      42.269  29.078  27.229  1.00  0.00    -0.206 F 
ATOM     67  C   UNL A   1      41.513  27.220  26.013  1.00  0.00     0.040 A 
ATOM     68  C   UNL A   1      40.051  25.613  27.056  1.00  0.00     0.040 A 
ATOM     69  F   UNL A   1      39.351  25.924  29.275  1.00  0.00    -0.206 F 
ATOM     70  C   UNL A   1      40.762  26.048  25.939  1.00  0.00     0.006 A 
ENDBRANCH  49  63
BRANCH  50  71
ATOM     71  C   UNL A   1      40.046  33.110  36.455  1.00  0.00     0.057 A 
ATOM     72  C   UNL A   1      40.895  34.156  36.830  1.00  0.00     0.134 A 
ATOM     73  C   UNL A   1      39.028  32.750  37.347  1.00  0.00     0.134 A 
ATOM     74  F   UNL A   1      41.907  34.521  36.031  1.00  0.00    -0.206 F 
ATOM     75  C   UNL A   1      40.753  34.808  38.057  1.00  0.00     0.040 A 
ATOM     76  C   UNL A   1      38.865  33.403  38.571  1.00  0.00     0.040 A 
ATOM     77  F   UNL A   1      38.187  31.749  37.049  1.00  0.00    -0.206 F 
ATOM     78  C   UNL A   1      39.734  34.432  38.931  1.00  0.00     0.006 A 
ENDBRANCH  50  71
BRANCH  62  79
ATOM     79  C   UNL A   1      44.348  27.948  34.596  1.00  0.00     0.057 A 
ATOM     80  C   UNL A   1      45.633  28.501  34.575  1.00  0.00     0.134 A 
ATOM     81  C   UNL A   1      44.162  26.777  35.346  1.00  0.00     0.134 A 
ATOM     82  F   UNL A   1      45.884  29.611  33.865  1.00  0.00    -0.206 F 
ATOM     83  C   UNL A   1      46.691  27.913  35.272  1.00  0.00     0.040 A 
ATOM     84  C   UNL A   1      45.205  26.194  36.066  1.00  0.00     0.040 A 
ATOM     85  F   UNL A   1      42.953  26.199  35.413  1.00  0.00    -0.206 F 
ATOM     86  C   UNL A   1      46.476  26.762  36.029  1.00  0.00     0.006 A 
ENDBRANCH  62  79
ENDBRANCH  36  37
ENDBRANCH  29  31
ENDBRANCH  28  29
ENDBRANCH  27  28
ENDBRANCH  26  27
ENDBRANCH   1  26
TORSDOF 17
ENDMDL
MODEL 2
REMARK VINA RESULT:     -10.5      3.755      7.689
REMARK SMILES O=C(C[NH2+][C@H]1CCCC[C@H]1[N@H+](Cc1ccccc1)C1CC1)OCCOC(=O)c1ccc(-c2c3nc(c(-c4c(F)cccc4F)c4ccc([nH]4)c(-c4c(F)cccc4F)c4nc(c(-c5c(F)cccc5F)c5ccc2[nH]5)C=C4)C=C3)cc1
REMARK SMILES IDX 22 1 2 2 1 3 3 4 4 5 5 8 6 9 10 10 7 11 9 12 8 13 11 14
REMARK SMILES IDX 12 16 13 17 14 18 18 19 15 20 17 21 16 22 19 23 20 24 21 25
REMARK SMILES IDX 23 26 24 27 25 28 26 29 27 30 28 31 29 32 81 33 30 34 80 35
REMARK SMILES IDX 31 36 32 37 33 38 74 39 34 40 79 41 73 42 75 43 35 44 78 45
REMARK SMILES IDX 72 46 71 47 36 49 62 50 45 51 61 52 46 53 49 54 60 55 76 56
REMARK SMILES IDX 47 57 48 58 59 60 77 61 50 62 37 63 38 64 43 65 39 66 40 67
REMARK SMILES IDX 42 68 44 69 41 70 63 71 64 72 69 73 65 74 66 75 68 76 70 77
REMARK SMILES IDX 67 78 51 79 52 80 57 81 53 82 54 83 56 84 58 85 55 86
REMARK H PARENT 4 6 4 7 11 15 75 48 49 59
REMARK Flexibility Score: inf
ROOT
ATOM      1  O   UNL A   1      32.405  27.909  26.470  1.00  0.00    -0.458 OA
ENDROOT
BRANCH   1   2
ATOM      2  C   UNL A   1      31.878  26.672  26.321  1.00  0.00     0.361 C 
ATOM      3  O   UNL A   1      30.751  26.424  26.747  1.00  0.00    -0.245 OA
BRANCH   2   4
ATOM      4  C   UNL A   1      32.700  25.594  25.609  1.00  0.00     0.385 C 
BRANCH   4   5
ATOM      5  N   UNL A   1      32.129  24.269  25.807  1.00  0.00    -0.330 N 
ATOM      6  H   UNL A   1      31.263  24.387  26.333  1.00  0.00     0.347 HD
ATOM      7  H   UNL A   1      32.864  23.742  26.279  1.00  0.00     0.347 HD
BRANCH   5   8
ATOM      8  C   UNL A   1      31.814  23.473  24.619  1.00  0.00     0.241 C 
ATOM      9  C   UNL A   1      31.143  24.319  23.506  1.00  0.00     0.071 C 
ATOM     10  C   UNL A   1      32.931  22.500  24.085  1.00  0.00     0.243 C 
ATOM     11  C   UNL A   1      32.106  24.985  22.536  1.00  0.00     0.007 C 
ATOM     12  C   UNL A   1      33.816  23.236  23.024  1.00  0.00     0.071 C 
ATOM     13  C   UNL A   1      33.039  23.962  21.937  1.00  0.00     0.007 C 
BRANCH  10  14
ATOM     14  N   UNL A   1      33.848  21.732  24.978  1.00  0.00    -0.321 N 
ATOM     15  H   UNL A   1      34.510  21.895  24.220  1.00  0.00     0.349 HD
BRANCH  14  16
ATOM     16  C   UNL A   1      33.216  20.469  25.454  1.00  0.00     0.299 C 
BRANCH  16  17
ATOM     17  C   UNL A   1      33.450  19.279  24.543  1.00  0.00     0.006 A 
ATOM     18  C   UNL A   1      32.511  18.873  23.581  1.00  0.00     0.009 A 
ATOM     19  C   UNL A   1      34.601  18.499  24.717  1.00  0.00     0.009 A 
ATOM     20  C   UNL A   1      32.692  17.710  22.838  1.00  0.00     0.001 A 
ATOM     21  C   UNL A   1      34.792  17.340  23.961  1.00  0.00     0.001 A 
ATOM     22  C   UNL A   1      33.833  16.939  23.033  1.00  0.00     0.000 A 
ENDBRANCH  16  17
ENDBRANCH  14  16
BRANCH  14  23
ATOM     23  C   UNL A   1      34.945  22.118  25.897  1.00  0.00     0.185 C 
ATOM     24  C   UNL A   1      36.313  21.927  25.234  1.00  0.00     0.071 C 
ATOM     25  C   UNL A   1      36.028  23.150  26.024  1.00  0.00     0.071 C 
ENDBRANCH  14  23
ENDBRANCH  10  14
ENDBRANCH   5   8
ENDBRANCH   4   5
ENDBRANCH   2   4
ENDBRANCH   1   2
BRANCH   1  26
ATOM     26  C   UNL A   1      31.785  28.947  27.253  1.00  0.00     0.274 C 
BRANCH  26  27
ATOM     27  C   UNL A   1      32.582  30.254  27.178  1.00  0.00     0.275 C 
BRANCH  27  28
ATOM     28  O   UNL A   1      34.001  30.008  27.277  1.00  0.00    -0.458 OA
BRANCH  28  29
ATOM     29  C   UNL A   1      34.726  30.886  28.030  1.00  0.00     0.338 C 
ATOM     30  O   UNL A   1      34.333  31.918  28.516  1.00  0.00    -0.246 OA
BRANCH  29  31
ATOM     31  C   UNL A   1      36.054  30.271  28.331  1.00  0.00     0.060 A 
ATOM     32  C   UNL A   1      36.270  29.699  29.595  1.00  0.00     0.016 A 
ATOM     33  C   UNL A   1      37.052  30.189  27.360  1.00  0.00     0.016 A 
ATOM     34  C   UNL A   1      37.492  29.070  29.897  1.00  0.00     0.010 A 
ATOM     35  C   UNL A   1      38.259  29.544  27.658  1.00  0.00     0.010 A 
ATOM     36  C   UNL A   1      38.508  29.001  28.937  1.00  0.00    -0.014 A 
BRANCH  36  37
ATOM     37  C   UNL A   1      39.896  28.539  29.248  1.00  0.00     0.031 A 
ATOM     38  C   UNL A   1      40.885  29.560  29.748  1.00  0.00     0.074 A 
ATOM     39  C   UNL A   1      40.336  27.286  29.013  1.00  0.00     0.049 A 
ATOM     40  N   UNL A   1      42.182  29.466  29.894  1.00  0.00    -0.248 NA
ATOM     41  C   UNL A   1      40.327  30.868  30.129  1.00  0.00     0.031 C 
ATOM     42  C   UNL A   1      39.522  26.151  28.601  1.00  0.00     0.029 A 
ATOM     43  N   UNL A   1      41.621  26.785  29.019  1.00  0.00    -0.354 N 
ATOM     44  C   UNL A   1      42.590  30.693  30.396  1.00  0.00     0.074 A 
ATOM     45  C   UNL A   1      41.420  31.544  30.439  1.00  0.00     0.031 C 
ATOM     46  C   UNL A   1      40.328  25.129  28.263  1.00  0.00     0.029 A 
ATOM     47  C   UNL A   1      41.718  25.531  28.459  1.00  0.00     0.049 A 
ATOM     48  H   UNL A   1      42.391  27.275  29.386  1.00  0.00     0.167 HD
ATOM     49  C   UNL A   1      43.813  31.070  30.839  1.00  0.00     0.037 A 
ATOM     50  C   UNL A   1      42.801  24.803  28.116  1.00  0.00     0.037 A 
ATOM     51  C   UNL A   1      44.982  30.237  30.824  1.00  0.00     0.049 A 
ATOM     52  C   UNL A   1      44.184  25.286  28.468  1.00  0.00     0.074 A 
ATOM     53  C   UNL A   1      46.240  30.508  31.333  1.00  0.00     0.029 A 
ATOM     54  N   UNL A   1      45.042  28.975  30.257  1.00  0.00    -0.354 N 
ATOM     55  N   UNL A   1      44.545  26.407  29.041  1.00  0.00    -0.248 NA
ATOM     56  C   UNL A   1      45.307  24.380  28.173  1.00  0.00     0.031 C 
ATOM     57  C   UNL A   1      47.076  29.428  31.029  1.00  0.00     0.029 A 
ATOM     58  C   UNL A   1      46.325  28.468  30.370  1.00  0.00     0.049 A 
ATOM     59  H   UNL A   1      44.284  28.508  29.836  1.00  0.00     0.167 HD
ATOM     60  C   UNL A   1      45.917  26.307  29.246  1.00  0.00     0.074 A 
ATOM     61  C   UNL A   1      46.333  25.033  28.703  1.00  0.00     0.031 C 
ATOM     62  C   UNL A   1      46.743  27.186  29.863  1.00  0.00     0.037 A 
BRANCH  49  63
ATOM     63  C   UNL A   1      43.924  32.456  31.396  1.00  0.00     0.057 A 
ATOM     64  C   UNL A   1      43.705  32.717  32.758  1.00  0.00     0.134 A 
ATOM     65  C   UNL A   1      44.229  33.541  30.568  1.00  0.00     0.134 A 
ATOM     66  F   UNL A   1      43.394  31.718  33.599  1.00  0.00    -0.206 F 
ATOM     67  C   UNL A   1      43.739  34.014  33.265  1.00  0.00     0.040 A 
ATOM     68  C   UNL A   1      44.294  34.841  31.070  1.00  0.00     0.040 A 
ATOM     69  F   UNL A   1      44.456  33.357  29.259  1.00  0.00    -0.206 F 
ATOM     70  C   UNL A   1      44.036  35.081  32.419  1.00  0.00     0.006 A 
ENDBRANCH  49  63
BRANCH  50  71
ATOM     71  C   UNL A   1      42.632  23.517  27.394  1.00  0.00     0.057 A 
ATOM     72  C   UNL A   1      42.381  22.324  28.080  1.00  0.00     0.134 A 
ATOM     73  C   UNL A   1      42.776  23.446  26.002  1.00  0.00     0.134 A 
ATOM     74  F   UNL A   1      42.267  22.326  29.416  1.00  0.00    -0.206 F 
ATOM     75  C   UNL A   1      42.298  21.101  27.411  1.00  0.00     0.040 A 
ATOM     76  C   UNL A   1      42.680  22.232  25.319  1.00  0.00     0.040 A 
ATOM     77  F   UNL A   1      43.027  24.554  25.290  1.00  0.00    -0.206 F 
ATOM     78  C   UNL A   1      42.447  21.053  26.026  1.00  0.00     0.006 A 
ENDBRANCH  50  71
BRANCH  62  79
ATOM     79  C   UNL A   1      48.175  26.787  30.073  1.00  0.00     0.057 A 
ATOM     80  C   UNL A   1      48.586  26.022  31.170  1.00  0.00     0.134 A 
ATOM     81  C   UNL A   1      49.145  27.110  29.112  1.00  0.00     0.134 A 
ATOM     82  F   UNL A   1      47.713  25.690  32.133  1.00  0.00    -0.206 F 
ATOM     83  C   UNL A   1      49.908  25.593  31.305  1.00  0.00     0.040 A 
ATOM     84  C   UNL A   1      50.463  26.668  29.224  1.00  0.00     0.040 A 
ATOM     85  F   UNL A   1      48.817  27.838  28.034  1.00  0.00    -0.206 F 
ATOM     86  C   UNL A   1      50.849  25.907  30.325  1.00  0.00     0.006 A 
ENDBRANCH  62  79
ENDBRANCH  36  37
ENDBRANCH  29  31
ENDBRANCH  28  29
ENDBRANCH  27  28
ENDBRANCH  26  27
ENDBRANCH   1  26
TORSDOF 17
ENDMDL
MODEL 3
REMARK VINA RESULT:     -10.5      3.015      7.474
REMARK SMILES O=C(C[NH2+][C@H]1CCCC[C@H]1[N@H+](Cc1ccccc1)C1CC1)OCCOC(=O)c1ccc(-c2c3nc(c(-c4c(F)cccc4F)c4ccc([nH]4)c(-c4c(F)cccc4F)c4nc(c(-c5c(F)cccc5F)c5ccc2[nH]5)C=C4)C=C3)cc1
REMARK SMILES IDX 22 1 2 2 1 3 3 4 4 5 5 8 6 9 10 10 7 11 9 12 8 13 11 14
REMARK SMILES IDX 12 16 13 17 14 18 18 19 15 20 17 21 16 22 19 23 20 24 21 25
REMARK SMILES IDX 23 26 24 27 25 28 26 29 27 30 28 31 29 32 81 33 30 34 80 35
REMARK SMILES IDX 31 36 32 37 33 38 74 39 34 40 79 41 73 42 75 43 35 44 78 45
REMARK SMILES IDX 72 46 71 47 36 49 62 50 45 51 61 52 46 53 49 54 60 55 76 56
REMARK SMILES IDX 47 57 48 58 59 60 77 61 50 62 37 63 38 64 43 65 39 66 40 67
REMARK SMILES IDX 42 68 44 69 41 70 63 71 64 72 69 73 65 74 66 75 68 76 70 77
REMARK SMILES IDX 67 78 51 79 52 80 57 81 53 82 54 83 56 84 58 85 55 86
REMARK H PARENT 4 6 4 7 11 15 75 48 49 59
REMARK Flexibility Score: inf
ROOT
ATOM      1  O   UNL A   1      36.802  22.860  23.917  1.00  0.00    -0.458 OA
ENDROOT
BRANCH   1   2
ATOM      2  C   UNL A   1      35.537  23.301  23.727  1.00  0.00     0.361 C 
ATOM      3  O   UNL A   1      35.092  23.426  22.587  1.00  0.00    -0.245 OA
BRANCH   2   4
ATOM      4  C   UNL A   1      34.673  23.631  24.947  1.00  0.00     0.385 C 
BRANCH   4   5
ATOM      5  N   UNL A   1      33.729  24.702  24.659  1.00  0.00    -0.330 N 
ATOM      6  H   UNL A   1      34.061  25.183  23.823  1.00  0.00     0.347 HD
ATOM      7  H   UNL A   1      33.710  25.262  25.512  1.00  0.00     0.347 HD
BRANCH   5   8
ATOM      8  C   UNL A   1      32.330  24.339  24.428  1.00  0.00     0.241 C 
ATOM      9  C   UNL A   1      32.036  22.864  24.802  1.00  0.00     0.071 C 
ATOM     10  C   UNL A   1      31.230  25.349  24.930  1.00  0.00     0.243 C 
ATOM     11  C   UNL A   1      31.628  22.637  26.248  1.00  0.00     0.007 C 
ATOM     12  C   UNL A   1      30.800  24.985  26.391  1.00  0.00     0.071 C 
ATOM     13  C   UNL A   1      30.459  23.520  26.610  1.00  0.00     0.007 C 
BRANCH  10  14
ATOM     14  N   UNL A   1      31.385  26.832  24.865  1.00  0.00    -0.321 N 
ATOM     15  H   UNL A   1      32.222  26.590  24.335  1.00  0.00     0.349 HD
BRANCH  14  16
ATOM     16  C   UNL A   1      31.240  27.456  26.211  1.00  0.00     0.299 C 
BRANCH  16  17
ATOM     17  C   UNL A   1      32.329  28.456  26.550  1.00  0.00     0.006 A 
ATOM     18  C   UNL A   1      33.688  28.106  26.577  1.00  0.00     0.009 A 
ATOM     19  C   UNL A   1      31.970  29.755  26.933  1.00  0.00     0.009 A 
ATOM     20  C   UNL A   1      34.659  29.007  27.005  1.00  0.00     0.001 A 
ATOM     21  C   UNL A   1      32.945  30.665  27.349  1.00  0.00     0.001 A 
ATOM     22  C   UNL A   1      34.285  30.287  27.398  1.00  0.00     0.000 A 
ENDBRANCH  16  17
ENDBRANCH  14  16
BRANCH  14  23
ATOM     23  C   UNL A   1      31.124  27.846  23.815  1.00  0.00     0.185 C 
ATOM     24  C   UNL A   1      29.650  27.839  23.397  1.00  0.00     0.071 C 
ATOM     25  C   UNL A   1      30.361  29.123  23.615  1.00  0.00     0.071 C 
ENDBRANCH  14  23
ENDBRANCH  10  14
ENDBRANCH   5   8
ENDBRANCH   4   5
ENDBRANCH   2   4
ENDBRANCH   1   2
BRANCH   1  26
ATOM     26  C   UNL A   1      37.125  21.505  24.282  1.00  0.00     0.274 C 
BRANCH  26  27
ATOM     27  C   UNL A   1      38.019  21.460  25.526  1.00  0.00     0.275 C 
BRANCH  27  28
ATOM     28  O   UNL A   1      38.497  22.776  25.876  1.00  0.00    -0.458 OA
BRANCH  28  29
ATOM     29  C   UNL A   1      39.768  22.859  26.367  1.00  0.00     0.338 C 
ATOM     30  O   UNL A   1      40.663  22.069  26.195  1.00  0.00    -0.246 OA
BRANCH  29  31
ATOM     31  C   UNL A   1      39.945  24.201  27.001  1.00  0.00     0.060 A 
ATOM     32  C   UNL A   1      40.656  25.194  26.308  1.00  0.00     0.016 A 
ATOM     33  C   UNL A   1      39.360  24.505  28.229  1.00  0.00     0.016 A 
ATOM     34  C   UNL A   1      40.803  26.483  26.854  1.00  0.00     0.010 A 
ATOM     35  C   UNL A   1      39.490  25.795  28.760  1.00  0.00     0.010 A 
ATOM     36  C   UNL A   1      40.237  26.792  28.096  1.00  0.00    -0.014 A 
BRANCH  36  37
ATOM     37  C   UNL A   1      40.524  28.063  28.831  1.00  0.00     0.031 A 
ATOM     38  C   UNL A   1      41.729  28.099  29.734  1.00  0.00     0.074 A 
ATOM     39  C   UNL A   1      39.714  29.141  28.806  1.00  0.00     0.049 A 
ATOM     40  N   UNL A   1      42.080  28.992  30.625  1.00  0.00    -0.248 NA
ATOM     41  C   UNL A   1      42.660  26.965  29.616  1.00  0.00     0.031 C 
ATOM     42  C   UNL A   1      38.551  29.322  27.948  1.00  0.00     0.029 A 
ATOM     43  N   UNL A   1      39.716  30.267  29.600  1.00  0.00    -0.354 N 
ATOM     44  C   UNL A   1      43.276  28.535  31.159  1.00  0.00     0.074 A 
ATOM     45  C   UNL A   1      43.540  27.242  30.564  1.00  0.00     0.031 C 
ATOM     46  C   UNL A   1      37.874  30.414  28.346  1.00  0.00     0.029 A 
ATOM     47  C   UNL A   1      38.573  31.025  29.474  1.00  0.00     0.049 A 
ATOM     48  H   UNL A   1      40.461  30.507  30.197  1.00  0.00     0.167 HD
ATOM     49  C   UNL A   1      44.116  29.151  32.024  1.00  0.00     0.037 A 
ATOM     50  C   UNL A   1      38.125  32.069  30.202  1.00  0.00     0.037 A 
ATOM     51  C   UNL A   1      43.885  30.441  32.612  1.00  0.00     0.049 A 
ATOM     52  C   UNL A   1      38.992  32.672  31.277  1.00  0.00     0.074 A 
ATOM     53  C   UNL A   1      44.722  31.179  33.429  1.00  0.00     0.029 A 
ATOM     54  N   UNL A   1      42.723  31.178  32.458  1.00  0.00    -0.354 N 
ATOM     55  N   UNL A   1      40.171  32.289  31.698  1.00  0.00    -0.248 NA
ATOM     56  C   UNL A   1      38.488  33.885  31.942  1.00  0.00     0.031 C 
ATOM     57  C   UNL A   1      44.047  32.343  33.811  1.00  0.00     0.029 A 
ATOM     58  C   UNL A   1      42.806  32.348  33.194  1.00  0.00     0.049 A 
ATOM     59  H   UNL A   1      41.952  30.911  31.905  1.00  0.00     0.167 HD
ATOM     60  C   UNL A   1      40.582  33.252  32.614  1.00  0.00     0.074 A 
ATOM     61  C   UNL A   1      39.511  34.219  32.718  1.00  0.00     0.031 C 
ATOM     62  C   UNL A   1      41.759  33.335  33.279  1.00  0.00     0.037 A 
BRANCH  49  63
ATOM     63  C   UNL A   1      45.381  28.424  32.362  1.00  0.00     0.057 A 
ATOM     64  C   UNL A   1      45.460  27.572  33.475  1.00  0.00     0.134 A 
ATOM     65  C   UNL A   1      46.534  28.590  31.589  1.00  0.00     0.134 A 
ATOM     66  F   UNL A   1      44.390  27.385  34.263  1.00  0.00    -0.206 F 
ATOM     67  C   UNL A   1      46.654  26.950  33.832  1.00  0.00     0.040 A 
ATOM     68  C   UNL A   1      47.728  27.949  31.920  1.00  0.00     0.040 A 
ATOM     69  F   UNL A   1      46.522  29.386  30.509  1.00  0.00    -0.206 F 
ATOM     70  C   UNL A   1      47.793  27.137  33.052  1.00  0.00     0.006 A 
ENDBRANCH  49  63
BRANCH  50  71
ATOM     71  C   UNL A   1      36.776  32.632  29.941  1.00  0.00     0.057 A 
ATOM     72  C   UNL A   1      36.586  33.670  29.024  1.00  0.00     0.134 A 
ATOM     73  C   UNL A   1      35.656  32.179  30.648  1.00  0.00     0.134 A 
ATOM     74  F   UNL A   1      37.628  34.167  28.342  1.00  0.00    -0.206 F 
ATOM     75  C   UNL A   1      35.332  34.254  28.832  1.00  0.00     0.040 A 
ATOM     76  C   UNL A   1      34.393  32.742  30.455  1.00  0.00     0.040 A 
ATOM     77  F   UNL A   1      35.776  31.191  31.548  1.00  0.00    -0.206 F 
ATOM     78  C   UNL A   1      34.230  33.789  29.548  1.00  0.00     0.006 A 
ENDBRANCH  50  71
BRANCH  62  79
ATOM     79  C   UNL A   1      42.015  34.550  34.122  1.00  0.00     0.057 A 
ATOM     80  C   UNL A   1      41.769  34.570  35.500  1.00  0.00     0.134 A 
ATOM     81  C   UNL A   1      42.595  35.693  33.553  1.00  0.00     0.134 A 
ATOM     82  F   UNL A   1      41.203  33.515  36.105  1.00  0.00    -0.206 F 
ATOM     83  C   UNL A   1      42.089  35.683  36.281  1.00  0.00     0.040 A 
ATOM     84  C   UNL A   1      42.940  36.802  34.327  1.00  0.00     0.040 A 
ATOM     85  F   UNL A   1      42.861  35.738  32.240  1.00  0.00    -0.206 F 
ATOM     86  C   UNL A   1      42.687  36.799  35.696  1.00  0.00     0.006 A 
ENDBRANCH  62  79
ENDBRANCH  36  37
ENDBRANCH  29  31
ENDBRANCH  28  29
ENDBRANCH  27  28
ENDBRANCH  26  27
ENDBRANCH   1  26
TORSDOF 17
ENDMDL
