MODEL 1
REMARK VINA RESULT:     -11.1      0.000      0.000
REMARK SMILES O=C(COc1ccccc1/C=N/NC(=O)C1CC1)OCCOC(=O)c1ccc(-c2c3nc(c(-c4c(F)cccc4F)c4ccc([nH]4)c(-c4c(F)cccc4F)c4nc(c(-c5c(F)cccc5F)c5ccc2[nH]5)C=C4)C=C3)cc1
REMARK SMILES IDX 19 1 2 2 1 3 3 4 4 5 5 6 6 7 10 8 7 9 9 10 8 11 11 12 12 13
REMARK SMILES IDX 13 14 14 15 15 17 16 18 17 19 18 20 20 21 21 22 22 23 23 24
REMARK SMILES IDX 24 25 25 26 26 27 78 28 27 29 77 30 28 31 29 32 30 33 71 34
REMARK SMILES IDX 31 35 76 36 70 37 72 38 32 39 75 40 69 41 68 42 33 44 59 45
REMARK SMILES IDX 42 46 58 47 43 48 46 49 57 50 73 51 44 52 45 53 56 55 74 56
REMARK SMILES IDX 47 57 34 58 35 59 40 60 36 61 37 62 39 63 41 64 38 65 60 66
REMARK SMILES IDX 61 67 66 68 62 69 63 70 65 71 67 72 64 73 48 74 49 75 54 76
REMARK SMILES IDX 50 77 51 78 53 79 55 80 52 81
REMARK H PARENT 13 16 72 43 46 54
REMARK Flexibility Score: inf
ROOT
ATOM      1  O   UNL A   1      41.097  20.595  25.861  1.00  0.00    -0.460 OA
ENDROOT
BRANCH   1   2
ATOM      2  C   UNL A   1      40.334  21.217  26.796  1.00  0.00     0.344 C 
ATOM      3  O   UNL A   1      40.521  21.070  27.999  1.00  0.00    -0.248 OA
BRANCH   2   4
ATOM      4  C   UNL A   1      39.299  22.165  26.269  1.00  0.00     0.352 C 
BRANCH   4   5
ATOM      5  O   UNL A   1      38.591  21.475  25.238  1.00  0.00    -0.481 OA
BRANCH   5   6
ATOM      6  C   UNL A   1      37.281  21.854  25.238  1.00  0.00     0.129 A 
ATOM      7  C   UNL A   1      37.060  23.196  25.579  1.00  0.00     0.047 A 
ATOM      8  C   UNL A   1      36.205  20.981  25.022  1.00  0.00     0.037 A 
ATOM      9  C   UNL A   1      35.764  23.679  25.712  1.00  0.00     0.004 A 
ATOM     10  C   UNL A   1      34.904  21.480  25.162  1.00  0.00     0.013 A 
ATOM     11  C   UNL A   1      34.687  22.821  25.505  1.00  0.00     0.001 A 
BRANCH   8  12
ATOM     12  C   UNL A   1      36.297  19.508  24.845  1.00  0.00     0.145 C 
ATOM     13  N   UNL A   1      35.300  18.676  24.924  1.00  0.00    -0.181 NA
BRANCH  13  14
ATOM     14  N   UNL A   1      35.688  17.358  24.953  1.00  0.00    -0.247 N 
ATOM     15  C   UNL A   1      34.891  16.227  24.983  1.00  0.00     0.243 C 
ATOM     16  H   UNL A   1      36.659  17.198  24.951  1.00  0.00     0.193 HD
ATOM     17  O   UNL A   1      35.410  15.141  25.246  1.00  0.00    -0.273 OA
BRANCH  15  18
ATOM     18  C   UNL A   1      33.441  16.271  24.647  1.00  0.00     0.080 C 
ATOM     19  C   UNL A   1      32.412  15.491  25.425  1.00  0.00     0.014 C 
ATOM     20  C   UNL A   1      32.501  16.953  25.650  1.00  0.00     0.014 C 
ENDBRANCH  15  18
ENDBRANCH  13  14
ENDBRANCH   8  12
ENDBRANCH   5   6
ENDBRANCH   4   5
ENDBRANCH   2   4
ENDBRANCH   1   2
BRANCH   1  21
ATOM     21  C   UNL A   1      42.412  20.119  26.196  1.00  0.00     0.274 C 
BRANCH  21  22
ATOM     22  C   UNL A   1      43.462  21.125  25.720  1.00  0.00     0.275 C 
BRANCH  22  23
ATOM     23  O   UNL A   1      43.304  22.357  26.453  1.00  0.00    -0.458 OA
BRANCH  23  24
ATOM     24  C   UNL A   1      43.222  23.498  25.720  1.00  0.00     0.338 C 
ATOM     25  O   UNL A   1      43.363  23.628  24.517  1.00  0.00    -0.246 OA
BRANCH  24  26
ATOM     26  C   UNL A   1      42.854  24.583  26.647  1.00  0.00     0.060 A 
ATOM     27  C   UNL A   1      41.873  24.373  27.623  1.00  0.00     0.016 A 
ATOM     28  C   UNL A   1      43.534  25.795  26.581  1.00  0.00     0.016 A 
ATOM     29  C   UNL A   1      41.653  25.326  28.618  1.00  0.00     0.010 A 
ATOM     30  C   UNL A   1      43.262  26.778  27.530  1.00  0.00     0.010 A 
ATOM     31  C   UNL A   1      42.340  26.540  28.568  1.00  0.00    -0.014 A 
BRANCH  31  32
ATOM     32  C   UNL A   1      42.035  27.644  29.501  1.00  0.00     0.031 A 
ATOM     33  C   UNL A   1      42.751  27.677  30.815  1.00  0.00     0.074 A 
ATOM     34  C   UNL A   1      41.049  28.520  29.231  1.00  0.00     0.049 A 
ATOM     35  N   UNL A   1      42.465  28.346  31.898  1.00  0.00    -0.248 NA
ATOM     36  C   UNL A   1      43.943  26.820  30.925  1.00  0.00     0.031 C 
ATOM     37  C   UNL A   1      40.328  28.619  27.964  1.00  0.00     0.029 A 
ATOM     38  N   UNL A   1      40.453  29.462  30.034  1.00  0.00    -0.354 N 
ATOM     39  C   UNL A   1      43.418  27.966  32.833  1.00  0.00     0.074 A 
ATOM     40  C   UNL A   1      44.293  27.011  32.188  1.00  0.00     0.031 C 
ATOM     41  C   UNL A   1      39.346  29.530  28.093  1.00  0.00     0.029 A 
ATOM     42  C   UNL A   1      39.342  30.037  29.465  1.00  0.00     0.049 A 
ATOM     43  H   UNL A   1      40.788  29.700  30.929  1.00  0.00     0.167 HD
ATOM     44  C   UNL A   1      43.535  28.369  34.119  1.00  0.00     0.037 A 
ATOM     45  C   UNL A   1      38.400  30.831  30.011  1.00  0.00     0.037 A 
ATOM     46  C   UNL A   1      42.655  29.318  34.743  1.00  0.00     0.049 A 
ATOM     47  C   UNL A   1      38.509  31.203  31.470  1.00  0.00     0.074 A 
ATOM     48  C   UNL A   1      42.713  29.828  36.028  1.00  0.00     0.029 A 
ATOM     49  N   UNL A   1      41.547  29.887  34.133  1.00  0.00    -0.354 N 
ATOM     50  N   UNL A   1      39.430  30.870  32.344  1.00  0.00    -0.248 NA
ATOM     51  C   UNL A   1      37.441  32.050  32.025  1.00  0.00     0.031 C 
ATOM     52  C   UNL A   1      41.604  30.655  36.217  1.00  0.00     0.029 A 
ATOM     53  C   UNL A   1      40.888  30.710  35.030  1.00  0.00     0.049 A 
ATOM     54  H   UNL A   1      41.272  29.729  33.202  1.00  0.00     0.167 HD
ATOM     55  C   UNL A   1      39.069  31.488  33.536  1.00  0.00     0.074 A 
ATOM     56  C   UNL A   1      37.853  32.227  33.272  1.00  0.00     0.031 C 
ATOM     57  C   UNL A   1      39.686  31.447  34.742  1.00  0.00     0.037 A 
BRANCH  44  58
ATOM     58  C   UNL A   1      44.618  27.750  34.949  1.00  0.00     0.057 A 
ATOM     59  C   UNL A   1      45.887  28.328  35.072  1.00  0.00     0.134 A 
ATOM     60  C   UNL A   1      44.366  26.580  35.678  1.00  0.00     0.134 A 
ATOM     61  F   UNL A   1      46.198  29.439  34.386  1.00  0.00    -0.206 F 
ATOM     62  C   UNL A   1      46.871  27.758  35.881  1.00  0.00     0.040 A 
ATOM     63  C   UNL A   1      45.332  26.017  36.511  1.00  0.00     0.040 A 
ATOM     64  F   UNL A   1      43.170  25.977  35.604  1.00  0.00    -0.206 F 
ATOM     65  C   UNL A   1      46.590  26.605  36.611  1.00  0.00     0.006 A 
ENDBRANCH  44  58
BRANCH  45  66
ATOM     66  C   UNL A   1      37.232  31.283  29.208  1.00  0.00     0.057 A 
ATOM     67  C   UNL A   1      37.164  32.584  28.695  1.00  0.00     0.134 A 
ATOM     68  C   UNL A   1      36.132  30.447  28.980  1.00  0.00     0.134 A 
ATOM     69  F   UNL A   1      38.172  33.444  28.902  1.00  0.00    -0.206 F 
ATOM     70  C   UNL A   1      36.037  33.045  28.011  1.00  0.00     0.040 A 
ATOM     71  C   UNL A   1      35.010  30.885  28.271  1.00  0.00     0.040 A 
ATOM     72  F   UNL A   1      36.128  29.188  29.443  1.00  0.00    -0.206 F 
ATOM     73  C   UNL A   1      34.956  32.192  27.795  1.00  0.00     0.006 A 
ENDBRANCH  45  66
BRANCH  57  74
ATOM     74  C   UNL A   1      39.083  32.247  35.861  1.00  0.00     0.057 A 
ATOM     75  C   UNL A   1      38.204  31.675  36.789  1.00  0.00     0.134 A 
ATOM     76  C   UNL A   1      39.445  33.587  36.052  1.00  0.00     0.134 A 
ATOM     77  F   UNL A   1      37.807  30.401  36.655  1.00  0.00    -0.206 F 
ATOM     78  C   UNL A   1      37.698  32.412  37.862  1.00  0.00     0.040 A 
ATOM     79  C   UNL A   1      38.969  34.325  37.138  1.00  0.00     0.040 A 
ATOM     80  F   UNL A   1      40.291  34.192  35.205  1.00  0.00    -0.206 F 
ATOM     81  C   UNL A   1      38.090  33.737  38.044  1.00  0.00     0.006 A 
ENDBRANCH  57  74
ENDBRANCH  31  32
ENDBRANCH  24  26
ENDBRANCH  23  24
ENDBRANCH  22  23
ENDBRANCH  21  22
ENDBRANCH   1  21
TORSDOF 16
ENDMDL
MODEL 2
REMARK VINA RESULT:     -10.9      4.788      7.225
REMARK SMILES O=C(COc1ccccc1/C=N/NC(=O)C1CC1)OCCOC(=O)c1ccc(-c2c3nc(c(-c4c(F)cccc4F)c4ccc([nH]4)c(-c4c(F)cccc4F)c4nc(c(-c5c(F)cccc5F)c5ccc2[nH]5)C=C4)C=C3)cc1
REMARK SMILES IDX 19 1 2 2 1 3 3 4 4 5 5 6 6 7 10 8 7 9 9 10 8 11 11 12 12 13
REMARK SMILES IDX 13 14 14 15 15 17 16 18 17 19 18 20 20 21 21 22 22 23 23 24
REMARK SMILES IDX 24 25 25 26 26 27 78 28 27 29 77 30 28 31 29 32 30 33 71 34
REMARK SMILES IDX 31 35 76 36 70 37 72 38 32 39 75 40 69 41 68 42 33 44 59 45
REMARK SMILES IDX 42 46 58 47 43 48 46 49 57 50 73 51 44 52 45 53 56 55 74 56
REMARK SMILES IDX 47 57 34 58 35 59 40 60 36 61 37 62 39 63 41 64 38 65 60 66
REMARK SMILES IDX 61 67 66 68 62 69 63 70 65 71 67 72 64 73 48 74 49 75 54 76
REMARK SMILES IDX 50 77 51 78 53 79 55 80 52 81
REMARK H PARENT 13 16 72 43 46 54
REMARK Flexibility Score: inf
ROOT
ATOM      1  O   UNL A   1      41.706  20.405  25.748  1.00  0.00    -0.460 OA
ENDROOT
BRANCH   1   2
ATOM      2  C   UNL A   1      41.425  21.441  26.581  1.00  0.00     0.344 C 
ATOM      3  O   UNL A   1      42.223  21.844  27.419  1.00  0.00    -0.248 OA
BRANCH   2   4
ATOM      4  C   UNL A   1      40.107  22.119  26.357  1.00  0.00     0.352 C 
BRANCH   4   5
ATOM      5  O   UNL A   1      39.232  21.147  25.782  1.00  0.00    -0.481 OA
BRANCH   5   6
ATOM      6  C   UNL A   1      38.032  21.721  25.479  1.00  0.00     0.129 A 
ATOM      7  C   UNL A   1      37.948  23.089  25.770  1.00  0.00     0.047 A 
ATOM      8  C   UNL A   1      36.914  21.015  25.012  1.00  0.00     0.037 A 
ATOM      9  C   UNL A   1      36.747  23.767  25.601  1.00  0.00     0.004 A 
ATOM     10  C   UNL A   1      35.709  21.709  24.849  1.00  0.00     0.013 A 
ATOM     11  C   UNL A   1      35.629  23.077  25.142  1.00  0.00     0.001 A 
BRANCH   8  12
ATOM     12  C   UNL A   1      36.817  19.541  24.850  1.00  0.00     0.145 C 
ATOM     13  N   UNL A   1      35.719  18.845  24.925  1.00  0.00    -0.181 NA
BRANCH  13  14
ATOM     14  N   UNL A   1      35.934  17.489  24.971  1.00  0.00    -0.247 N 
ATOM     15  C   UNL A   1      34.997  16.471  25.002  1.00  0.00     0.243 C 
ATOM     16  H   UNL A   1      36.875  17.204  24.983  1.00  0.00     0.193 HD
ATOM     17  O   UNL A   1      35.368  15.330  25.281  1.00  0.00    -0.273 OA
BRANCH  15  18
ATOM     18  C   UNL A   1      33.568  16.698  24.648  1.00  0.00     0.080 C 
ATOM     19  C   UNL A   1      32.448  15.921  25.291  1.00  0.00     0.014 C 
ATOM     20  C   UNL A   1      32.663  17.324  25.718  1.00  0.00     0.014 C 
ENDBRANCH  15  18
ENDBRANCH  13  14
ENDBRANCH   8  12
ENDBRANCH   5   6
ENDBRANCH   4   5
ENDBRANCH   2   4
ENDBRANCH   1   2
BRANCH   1  21
ATOM     21  C   UNL A   1      41.911  19.083  26.277  1.00  0.00     0.274 C 
BRANCH  21  22
ATOM     22  C   UNL A   1      43.297  18.576  25.873  1.00  0.00     0.275 C 
BRANCH  22  23
ATOM     23  O   UNL A   1      43.593  19.023  24.534  1.00  0.00    -0.458 OA
BRANCH  23  24
ATOM     24  C   UNL A   1      44.861  19.451  24.297  1.00  0.00     0.338 C 
ATOM     25  O   UNL A   1      45.791  18.817  23.833  1.00  0.00    -0.246 OA
BRANCH  24  26
ATOM     26  C   UNL A   1      44.907  20.882  24.645  1.00  0.00     0.060 A 
ATOM     27  C   UNL A   1      45.369  21.287  25.903  1.00  0.00     0.016 A 
ATOM     28  C   UNL A   1      44.545  21.827  23.690  1.00  0.00     0.016 A 
ATOM     29  C   UNL A   1      45.592  22.638  26.171  1.00  0.00     0.010 A 
ATOM     30  C   UNL A   1      44.697  23.180  23.984  1.00  0.00     0.010 A 
ATOM     31  C   UNL A   1      45.245  23.593  25.214  1.00  0.00    -0.014 A 
BRANCH  31  32
ATOM     32  C   UNL A   1      45.312  25.040  25.502  1.00  0.00     0.031 A 
ATOM     33  C   UNL A   1      46.651  25.709  25.454  1.00  0.00     0.074 A 
ATOM     34  C   UNL A   1      44.222  25.710  25.919  1.00  0.00     0.049 A 
ATOM     35  N   UNL A   1      47.017  26.865  25.936  1.00  0.00    -0.248 NA
ATOM     36  C   UNL A   1      47.728  24.956  24.789  1.00  0.00     0.031 C 
ATOM     37  C   UNL A   1      42.861  25.179  25.947  1.00  0.00     0.029 A 
ATOM     38  N   UNL A   1      44.104  26.972  26.449  1.00  0.00    -0.354 N 
ATOM     39  C   UNL A   1      48.375  26.967  25.665  1.00  0.00     0.074 A 
ATOM     40  C   UNL A   1      48.766  25.758  24.973  1.00  0.00     0.031 C 
ATOM     41  C   UNL A   1      42.051  26.087  26.521  1.00  0.00     0.029 A 
ATOM     42  C   UNL A   1      42.849  27.238  26.945  1.00  0.00     0.049 A 
ATOM     43  H   UNL A   1      44.844  27.620  26.473  1.00  0.00     0.167 HD
ATOM     44  C   UNL A   1      49.218  27.975  25.985  1.00  0.00     0.037 A 
ATOM     45  C   UNL A   1      42.415  28.263  27.704  1.00  0.00     0.037 A 
ATOM     46  C   UNL A   1      48.811  29.170  26.674  1.00  0.00     0.049 A 
ATOM     47  C   UNL A   1      43.393  29.337  28.115  1.00  0.00     0.074 A 
ATOM     48  C   UNL A   1      49.577  30.273  27.006  1.00  0.00     0.029 A 
ATOM     49  N   UNL A   1      47.531  29.409  27.151  1.00  0.00    -0.354 N 
ATOM     50  N   UNL A   1      44.669  29.450  27.829  1.00  0.00    -0.248 NA
ATOM     51  C   UNL A   1      42.877  30.421  28.965  1.00  0.00     0.031 C 
ATOM     52  C   UNL A   1      48.777  31.150  27.742  1.00  0.00     0.029 A 
ATOM     53  C   UNL A   1      47.497  30.624  27.814  1.00  0.00     0.049 A 
ATOM     54  H   UNL A   1      46.763  28.805  27.034  1.00  0.00     0.167 HD
ATOM     55  C   UNL A   1      45.097  30.625  28.437  1.00  0.00     0.074 A 
ATOM     56  C   UNL A   1      43.943  31.197  29.097  1.00  0.00     0.031 C 
ATOM     57  C   UNL A   1      46.333  31.181  28.452  1.00  0.00     0.037 A 
BRANCH  44  58
ATOM     58  C   UNL A   1      50.666  27.811  25.640  1.00  0.00     0.057 A 
ATOM     59  C   UNL A   1      51.621  27.432  26.591  1.00  0.00     0.134 A 
ATOM     60  C   UNL A   1      51.101  27.987  24.320  1.00  0.00     0.134 A 
ATOM     61  F   UNL A   1      51.274  27.263  27.876  1.00  0.00    -0.206 F 
ATOM     62  C   UNL A   1      52.960  27.246  26.243  1.00  0.00     0.040 A 
ATOM     63  C   UNL A   1      52.431  27.778  23.955  1.00  0.00     0.040 A 
ATOM     64  F   UNL A   1      50.236  28.350  23.361  1.00  0.00    -0.206 F 
ATOM     65  C   UNL A   1      53.365  27.409  24.919  1.00  0.00     0.006 A 
ENDBRANCH  44  58
BRANCH  45  66
ATOM     66  C   UNL A   1      41.009  28.306  28.187  1.00  0.00     0.057 A 
ATOM     67  C   UNL A   1      39.988  28.851  27.400  1.00  0.00     0.134 A 
ATOM     68  C   UNL A   1      40.660  27.856  29.466  1.00  0.00     0.134 A 
ATOM     69  F   UNL A   1      40.260  29.327  26.175  1.00  0.00    -0.206 F 
ATOM     70  C   UNL A   1      38.680  28.972  27.875  1.00  0.00     0.040 A 
ATOM     71  C   UNL A   1      39.350  27.942  29.944  1.00  0.00     0.040 A 
ATOM     72  F   UNL A   1      41.587  27.323  30.276  1.00  0.00    -0.206 F 
ATOM     73  C   UNL A   1      38.357  28.514  29.151  1.00  0.00     0.006 A 
ENDBRANCH  45  66
BRANCH  57  74
ATOM     74  C   UNL A   1      46.500  32.489  29.171  1.00  0.00     0.057 A 
ATOM     75  C   UNL A   1      46.905  32.550  30.510  1.00  0.00     0.134 A 
ATOM     76  C   UNL A   1      46.325  33.701  28.491  1.00  0.00     0.134 A 
ATOM     77  F   UNL A   1      47.078  31.426  31.221  1.00  0.00    -0.206 F 
ATOM     78  C   UNL A   1      47.119  33.772  31.151  1.00  0.00     0.040 A 
ATOM     79  C   UNL A   1      46.564  34.928  29.112  1.00  0.00     0.040 A 
ATOM     80  F   UNL A   1      45.948  33.712  27.203  1.00  0.00    -0.206 F 
ATOM     81  C   UNL A   1      46.959  34.965  30.447  1.00  0.00     0.006 A 
ENDBRANCH  57  74
ENDBRANCH  31  32
ENDBRANCH  24  26
ENDBRANCH  23  24
ENDBRANCH  22  23
ENDBRANCH  21  22
ENDBRANCH   1  21
TORSDOF 16
ENDMDL
MODEL 3
REMARK VINA RESULT:     -10.7      4.324      8.157
REMARK SMILES O=C(COc1ccccc1/C=N/NC(=O)C1CC1)OCCOC(=O)c1ccc(-c2c3nc(c(-c4c(F)cccc4F)c4ccc([nH]4)c(-c4c(F)cccc4F)c4nc(c(-c5c(F)cccc5F)c5ccc2[nH]5)C=C4)C=C3)cc1
REMARK SMILES IDX 19 1 2 2 1 3 3 4 4 5 5 6 6 7 10 8 7 9 9 10 8 11 11 12 12 13
REMARK SMILES IDX 13 14 14 15 15 17 16 18 17 19 18 20 20 21 21 22 22 23 23 24
REMARK SMILES IDX 24 25 25 26 26 27 78 28 27 29 77 30 28 31 29 32 30 33 71 34
REMARK SMILES IDX 31 35 76 36 70 37 72 38 32 39 75 40 69 41 68 42 33 44 59 45
REMARK SMILES IDX 42 46 58 47 43 48 46 49 57 50 73 51 44 52 45 53 56 55 74 56
REMARK SMILES IDX 47 57 34 58 35 59 40 60 36 61 37 62 39 63 41 64 38 65 60 66
REMARK SMILES IDX 61 67 66 68 62 69 63 70 65 71 67 72 64 73 48 74 49 75 54 76
REMARK SMILES IDX 50 77 51 78 53 79 55 80 52 81
REMARK H PARENT 13 16 72 43 46 54
REMARK Flexibility Score: inf
ROOT
ATOM      1  O   UNL A   1      37.878  21.273  24.653  1.00  0.00    -0.460 OA
ENDROOT
BRANCH   1   2
ATOM      2  C   UNL A   1      37.934  22.164  25.677  1.00  0.00     0.344 C 
ATOM      3  O   UNL A   1      38.993  22.613  26.099  1.00  0.00    -0.248 OA
BRANCH   2   4
ATOM      4  C   UNL A   1      36.612  22.634  26.205  1.00  0.00     0.352 C 
BRANCH   4   5
ATOM      5  O   UNL A   1      35.717  22.693  25.093  1.00  0.00    -0.481 OA
BRANCH   5   6
ATOM      6  C   UNL A   1      34.642  23.474  25.400  1.00  0.00     0.129 A 
ATOM      7  C   UNL A   1      34.868  24.853  25.280  1.00  0.00     0.047 A 
ATOM      8  C   UNL A   1      33.427  22.985  25.898  1.00  0.00     0.037 A 
ATOM      9  C   UNL A   1      33.883  25.756  25.660  1.00  0.00     0.004 A 
ATOM     10  C   UNL A   1      32.444  23.907  26.281  1.00  0.00     0.013 A 
ATOM     11  C   UNL A   1      32.673  25.284  26.161  1.00  0.00     0.001 A 
BRANCH   8  12
ATOM     12  C   UNL A   1      33.133  21.572  26.253  1.00  0.00     0.145 C 
ATOM     13  N   UNL A   1      33.408  20.537  25.513  1.00  0.00    -0.181 NA
BRANCH  13  14
ATOM     14  N   UNL A   1      32.828  19.375  25.962  1.00  0.00    -0.247 N 
ATOM     15  C   UNL A   1      32.912  18.105  25.417  1.00  0.00     0.243 C 
ATOM     16  H   UNL A   1      32.282  19.455  26.776  1.00  0.00     0.193 HD
ATOM     17  O   UNL A   1      32.137  17.235  25.816  1.00  0.00    -0.273 OA
BRANCH  15  18
ATOM     18  C   UNL A   1      33.950  17.742  24.412  1.00  0.00     0.080 C 
ATOM     19  C   UNL A   1      34.068  16.350  23.847  1.00  0.00     0.014 C 
ATOM     20  C   UNL A   1      33.475  17.405  22.993  1.00  0.00     0.014 C 
ENDBRANCH  15  18
ENDBRANCH  13  14
ENDBRANCH   8  12
ENDBRANCH   5   6
ENDBRANCH   4   5
ENDBRANCH   2   4
ENDBRANCH   1   2
BRANCH   1  21
ATOM     21  C   UNL A   1      37.843  19.861  24.922  1.00  0.00     0.274 C 
BRANCH  21  22
ATOM     22  C   UNL A   1      39.016  19.480  25.829  1.00  0.00     0.275 C 
BRANCH  22  23
ATOM     23  O   UNL A   1      40.252  19.694  25.120  1.00  0.00    -0.458 OA
BRANCH  23  24
ATOM     24  C   UNL A   1      41.399  19.391  25.784  1.00  0.00     0.338 C 
ATOM     25  O   UNL A   1      41.935  18.302  25.895  1.00  0.00    -0.246 OA
BRANCH  24  26
ATOM     26  C   UNL A   1      41.943  20.655  26.309  1.00  0.00     0.060 A 
ATOM     27  C   UNL A   1      42.337  21.671  25.432  1.00  0.00     0.016 A 
ATOM     28  C   UNL A   1      42.001  20.850  27.686  1.00  0.00     0.016 A 
ATOM     29  C   UNL A   1      42.674  22.934  25.921  1.00  0.00     0.010 A 
ATOM     30  C   UNL A   1      42.410  22.088  28.178  1.00  0.00     0.010 A 
ATOM     31  C   UNL A   1      42.723  23.144  27.300  1.00  0.00    -0.014 A 
BRANCH  31  32
ATOM     32  C   UNL A   1      43.224  24.409  27.876  1.00  0.00     0.031 A 
ATOM     33  C   UNL A   1      42.221  25.446  28.280  1.00  0.00     0.074 A 
ATOM     34  C   UNL A   1      44.542  24.672  27.917  1.00  0.00     0.049 A 
ATOM     35  N   UNL A   1      42.397  26.715  28.529  1.00  0.00    -0.248 NA
ATOM     36  C   UNL A   1      40.827  24.989  28.398  1.00  0.00     0.031 C 
ATOM     37  C   UNL A   1      45.606  23.720  27.606  1.00  0.00     0.029 A 
ATOM     38  N   UNL A   1      45.206  25.844  28.189  1.00  0.00    -0.354 N 
ATOM     39  C   UNL A   1      41.132  27.219  28.799  1.00  0.00     0.074 A 
ATOM     40  C   UNL A   1      40.200  26.118  28.687  1.00  0.00     0.031 C 
ATOM     41  C   UNL A   1      46.789  24.360  27.650  1.00  0.00     0.029 A 
ATOM     42  C   UNL A   1      46.557  25.774  27.940  1.00  0.00     0.049 A 
ATOM     43  H   UNL A   1      44.759  26.653  28.528  1.00  0.00     0.167 HD
ATOM     44  C   UNL A   1      40.785  28.492  29.094  1.00  0.00     0.037 A 
ATOM     45  C   UNL A   1      47.482  26.753  27.892  1.00  0.00     0.037 A 
ATOM     46  C   UNL A   1      41.727  29.574  29.200  1.00  0.00     0.049 A 
ATOM     47  C   UNL A   1      47.056  28.179  28.148  1.00  0.00     0.074 A 
ATOM     48  C   UNL A   1      41.485  30.893  29.539  1.00  0.00     0.029 A 
ATOM     49  N   UNL A   1      43.086  29.464  28.951  1.00  0.00    -0.354 N 
ATOM     50  N   UNL A   1      45.866  28.649  28.438  1.00  0.00    -0.248 NA
ATOM     51  C   UNL A   1      48.099  29.213  28.059  1.00  0.00     0.031 C 
ATOM     52  C   UNL A   1      42.687  31.596  29.431  1.00  0.00     0.029 A 
ATOM     53  C   UNL A   1      43.690  30.703  29.087  1.00  0.00     0.049 A 
ATOM     54  H   UNL A   1      43.552  28.630  28.714  1.00  0.00     0.167 HD
ATOM     55  C   UNL A   1      46.022  30.022  28.592  1.00  0.00     0.074 A 
ATOM     56  C   UNL A   1      47.424  30.309  28.378  1.00  0.00     0.031 C 
ATOM     57  C   UNL A   1      45.091  30.963  28.882  1.00  0.00     0.037 A 
BRANCH  44  58
ATOM     58  C   UNL A   1      39.330  28.796  29.275  1.00  0.00     0.057 A 
ATOM     59  C   UNL A   1      38.691  28.679  30.515  1.00  0.00     0.134 A 
ATOM     60  C   UNL A   1      38.568  29.264  28.196  1.00  0.00     0.134 A 
ATOM     61  F   UNL A   1      39.359  28.220  31.585  1.00  0.00    -0.206 F 
ATOM     62  C   UNL A   1      37.343  29.004  30.672  1.00  0.00     0.040 A 
ATOM     63  C   UNL A   1      37.227  29.617  28.347  1.00  0.00     0.040 A 
ATOM     64  F   UNL A   1      39.121  29.400  26.981  1.00  0.00    -0.206 F 
ATOM     65  C   UNL A   1      36.611  29.485  29.588  1.00  0.00     0.006 A 
ENDBRANCH  44  58
BRANCH  45  66
ATOM     66  C   UNL A   1      48.891  26.446  27.529  1.00  0.00     0.057 A 
ATOM     67  C   UNL A   1      49.318  26.469  26.196  1.00  0.00     0.134 A 
ATOM     68  C   UNL A   1      49.831  26.068  28.496  1.00  0.00     0.134 A 
ATOM     69  F   UNL A   1      48.459  26.794  25.218  1.00  0.00    -0.206 F 
ATOM     70  C   UNL A   1      50.616  26.101  25.834  1.00  0.00     0.040 A 
ATOM     71  C   UNL A   1      51.142  25.728  28.152  1.00  0.00     0.040 A 
ATOM     72  F   UNL A   1      49.492  26.024  29.792  1.00  0.00    -0.206 F 
ATOM     73  C   UNL A   1      51.534  25.733  26.816  1.00  0.00     0.006 A 
ENDBRANCH  45  66
BRANCH  57  74
ATOM     74  C   UNL A   1      45.556  32.384  29.022  1.00  0.00     0.057 A 
ATOM     75  C   UNL A   1      46.047  32.885  30.234  1.00  0.00     0.134 A 
ATOM     76  C   UNL A   1      45.580  33.237  27.911  1.00  0.00     0.134 A 
ATOM     77  F   UNL A   1      46.039  32.124  31.338  1.00  0.00    -0.206 F 
ATOM     78  C   UNL A   1      46.535  34.190  30.337  1.00  0.00     0.040 A 
ATOM     79  C   UNL A   1      46.093  34.532  27.995  1.00  0.00     0.040 A 
ATOM     80  F   UNL A   1      45.134  32.815  26.718  1.00  0.00    -0.206 F 
ATOM     81  C   UNL A   1      46.570  35.012  29.212  1.00  0.00     0.006 A 
ENDBRANCH  57  74
ENDBRANCH  31  32
ENDBRANCH  24  26
ENDBRANCH  23  24
ENDBRANCH  22  23
ENDBRANCH  21  22
ENDBRANCH   1  21
TORSDOF 16
ENDMDL
