MODEL 1
REMARK VINA RESULT:     -12.8      0.000      0.000
REMARK SMILES O=C(OCCOC(=O)c1cc(S(=O)(=O)Nc2cc(F)ccc2F)cc2c1OCCO2)c1ccc(-c2c3nc(c(-c4c(F)cccc4F)c4ccc([nH]4)c(-c4c(F)cccc4F)c4nc(c(-c5c(F)cccc5F)c5ccc2[nH]5)C=C4)C=C3)cc1
REMARK SMILES IDX 5 1 4 2 3 3 2 4 1 5 31 6 32 7 84 8 33 9 83 10 34 11 35 12
REMARK SMILES IDX 36 13 77 14 37 15 82 16 76 17 78 18 38 19 81 20 75 21 74 22
REMARK SMILES IDX 39 24 65 25 48 26 64 27 49 28 52 29 63 30 79 31 50 32 51 33
REMARK SMILES IDX 62 35 80 36 53 37 40 38 41 39 46 40 42 41 43 42 45 43 47 44
REMARK SMILES IDX 44 45 66 46 67 47 72 48 68 49 69 50 71 51 73 52 70 53 54 54
REMARK SMILES IDX 55 55 60 56 56 57 57 58 59 59 61 60 58 61 6 62 7 63 8 64
REMARK SMILES IDX 9 65 10 66 26 67 11 68 25 69 27 70 24 71 30 72 28 73 29 74
REMARK SMILES IDX 12 75 13 76 14 77 15 78 16 80 17 81 22 82 18 83 21 84 23 85
REMARK SMILES IDX 19 86 20 87
REMARK H PARENT 78 23 52 34 15 79
REMARK Flexibility Score: inf
ROOT
ATOM      1  C   UNL A   1      31.817  31.433  26.786  1.00  0.00     0.275 C 
ENDROOT
BRANCH   1   2
ATOM      2  C   UNL A   1      32.812  32.541  27.165  1.00  0.00     0.275 C 
BRANCH   2   3
ATOM      3  O   UNL A   1      32.313  33.802  27.657  1.00  0.00    -0.458 OA
BRANCH   3   4
ATOM      4  C   UNL A   1      33.095  34.549  28.458  1.00  0.00     0.338 C 
ATOM      5  O   UNL A   1      32.803  35.679  28.820  1.00  0.00    -0.246 OA
BRANCH   4   6
ATOM      6  C   UNL A   1      34.304  33.833  28.955  1.00  0.00     0.060 A 
ATOM      7  C   UNL A   1      35.615  34.227  28.665  1.00  0.00     0.016 A 
ATOM      8  C   UNL A   1      34.097  32.763  29.825  1.00  0.00     0.016 A 
ATOM      9  C   UNL A   1      36.700  33.573  29.254  1.00  0.00     0.010 A 
ATOM     10  C   UNL A   1      35.170  32.126  30.433  1.00  0.00     0.010 A 
ATOM     11  C   UNL A   1      36.478  32.519  30.142  1.00  0.00    -0.014 A 
BRANCH  11  12
ATOM     12  C   UNL A   1      37.585  31.740  30.726  1.00  0.00     0.031 A 
ATOM     13  C   UNL A   1      38.088  32.116  32.081  1.00  0.00     0.074 A 
ATOM     14  C   UNL A   1      38.201  30.796  29.997  1.00  0.00     0.049 A 
ATOM     15  N   UNL A   1      39.075  31.603  32.762  1.00  0.00    -0.248 NA
ATOM     16  C   UNL A   1      37.401  33.234  32.748  1.00  0.00     0.031 C 
ATOM     17  C   UNL A   1      37.817  30.418  28.644  1.00  0.00     0.029 A 
ATOM     18  N   UNL A   1      39.303  30.027  30.260  1.00  0.00    -0.354 N 
ATOM     19  C   UNL A   1      39.111  32.318  33.948  1.00  0.00     0.074 A 
ATOM     20  C   UNL A   1      38.111  33.358  33.855  1.00  0.00     0.031 C 
ATOM     21  C   UNL A   1      38.701  29.528  28.167  1.00  0.00     0.029 A 
ATOM     22  C   UNL A   1      39.713  29.280  29.183  1.00  0.00     0.049 A 
ATOM     23  H   UNL A   1      39.757  30.012  31.133  1.00  0.00     0.167 HD
ATOM     24  C   UNL A   1      39.885  32.094  35.034  1.00  0.00     0.037 A 
ATOM     25  C   UNL A   1      40.794  28.494  29.030  1.00  0.00     0.037 A 
ATOM     26  C   UNL A   1      40.900  31.080  35.080  1.00  0.00     0.049 A 
ATOM     27  C   UNL A   1      41.679  28.280  30.220  1.00  0.00     0.074 A 
ATOM     28  C   UNL A   1      41.713  30.708  36.133  1.00  0.00     0.029 A 
ATOM     29  N   UNL A   1      41.258  30.288  33.994  1.00  0.00    -0.354 N 
ATOM     30  N   UNL A   1      41.619  28.858  31.397  1.00  0.00    -0.248 NA
ATOM     31  C   UNL A   1      42.743  27.278  30.091  1.00  0.00     0.031 C 
ATOM     32  C   UNL A   1      42.586  29.713  35.674  1.00  0.00     0.029 A 
ATOM     33  C   UNL A   1      42.291  29.438  34.345  1.00  0.00     0.049 A 
ATOM     34  H   UNL A   1      40.838  30.328  33.105  1.00  0.00     0.167 HD
ATOM     35  C   UNL A   1      42.598  28.254  32.169  1.00  0.00     0.074 A 
ATOM     36  C   UNL A   1      43.253  27.279  31.316  1.00  0.00     0.031 C 
ATOM     37  C   UNL A   1      42.909  28.469  33.471  1.00  0.00     0.037 A 
BRANCH  24  38
ATOM     38  C   UNL A   1      39.626  32.973  36.221  1.00  0.00     0.057 A 
ATOM     39  C   UNL A   1      40.352  34.158  36.424  1.00  0.00     0.134 A 
ATOM     40  C   UNL A   1      38.719  32.594  37.216  1.00  0.00     0.134 A 
ATOM     41  F   UNL A   1      41.255  34.564  35.519  1.00  0.00    -0.206 F 
ATOM     42  C   UNL A   1      40.227  34.901  37.598  1.00  0.00     0.040 A 
ATOM     43  C   UNL A   1      38.565  33.347  38.383  1.00  0.00     0.040 A 
ATOM     44  F   UNL A   1      37.994  31.473  37.088  1.00  0.00    -0.206 F 
ATOM     45  C   UNL A   1      39.332  34.493  38.584  1.00  0.00     0.006 A 
ENDBRANCH  24  38
BRANCH  25  46
ATOM     46  C   UNL A   1      41.032  27.826  27.728  1.00  0.00     0.057 A 
ATOM     47  C   UNL A   1      41.855  28.404  26.755  1.00  0.00     0.134 A 
ATOM     48  C   UNL A   1      40.518  26.552  27.460  1.00  0.00     0.134 A 
ATOM     49  F   UNL A   1      42.379  29.623  26.953  1.00  0.00    -0.206 F 
ATOM     50  C   UNL A   1      42.157  27.741  25.563  1.00  0.00     0.040 A 
ATOM     51  C   UNL A   1      40.823  25.871  26.279  1.00  0.00     0.040 A 
ATOM     52  F   UNL A   1      39.736  25.935  28.358  1.00  0.00    -0.206 F 
ATOM     53  C   UNL A   1      41.647  26.467  25.325  1.00  0.00     0.006 A 
ENDBRANCH  25  46
BRANCH  37  54
ATOM     54  C   UNL A   1      43.961  27.589  34.067  1.00  0.00     0.057 A 
ATOM     55  C   UNL A   1      45.304  27.976  34.127  1.00  0.00     0.134 A 
ATOM     56  C   UNL A   1      43.605  26.364  34.645  1.00  0.00     0.134 A 
ATOM     57  F   UNL A   1      45.705  29.131  33.575  1.00  0.00    -0.206 F 
ATOM     58  C   UNL A   1      46.262  27.166  34.737  1.00  0.00     0.040 A 
ATOM     59  C   UNL A   1      44.550  25.557  35.276  1.00  0.00     0.040 A 
ATOM     60  F   UNL A   1      42.332  25.943  34.620  1.00  0.00    -0.206 F 
ATOM     61  C   UNL A   1      45.884  25.958  35.322  1.00  0.00     0.006 A 
ENDBRANCH  37  54
ENDBRANCH  11  12
ENDBRANCH   4   6
ENDBRANCH   3   4
ENDBRANCH   2   3
ENDBRANCH   1   2
BRANCH   1  62
ATOM     62  O   UNL A   1      32.377  30.463  25.887  1.00  0.00    -0.458 OA
BRANCH  62  63
ATOM     63  C   UNL A   1      31.813  29.224  25.942  1.00  0.00     0.342 C 
ATOM     64  O   UNL A   1      31.416  28.636  26.934  1.00  0.00    -0.246 OA
BRANCH  63  65
ATOM     65  C   UNL A   1      31.607  28.715  24.574  1.00  0.00     0.107 A 
ATOM     66  C   UNL A   1      32.399  27.634  24.138  1.00  0.00     0.042 A 
ATOM     67  C   UNL A   1      30.642  29.285  23.741  1.00  0.00     0.175 A 
ATOM     68  C   UNL A   1      32.169  27.070  22.882  1.00  0.00     0.092 A 
ATOM     69  C   UNL A   1      30.481  28.770  22.452  1.00  0.00     0.163 A 
ATOM     70  O   UNL A   1      29.910  30.344  24.214  1.00  0.00    -0.485 OA
ATOM     71  C   UNL A   1      31.214  27.653  22.033  1.00  0.00     0.072 A 
ATOM     72  O   UNL A   1      29.597  29.295  21.544  1.00  0.00    -0.486 OA
ATOM     73  C   UNL A   1      28.756  30.609  23.412  1.00  0.00     0.271 C 
ATOM     74  C   UNL A   1      29.116  30.585  21.938  1.00  0.00     0.271 C 
BRANCH  68  75
ATOM     75  S   UNL A   1      32.976  25.583  22.298  1.00  0.00     0.262 S 
ATOM     76  O   UNL A   1      33.309  25.803  20.909  1.00  0.00    -0.201 OA
ATOM     77  O   UNL A   1      34.007  25.283  23.270  1.00  0.00    -0.201 OA
BRANCH  75  78
ATOM     78  N   UNL A   1      31.915  24.303  22.402  1.00  0.00    -0.277 N 
ATOM     79  H   UNL A   1      31.203  24.255  21.726  1.00  0.00     0.180 HD
BRANCH  78  80
ATOM     80  C   UNL A   1      31.946  23.272  23.383  1.00  0.00     0.087 A 
ATOM     81  C   UNL A   1      32.630  22.072  23.205  1.00  0.00     0.069 A 
ATOM     82  C   UNL A   1      31.290  23.505  24.599  1.00  0.00     0.147 A 
ATOM     83  C   UNL A   1      32.566  21.096  24.200  1.00  0.00     0.125 A 
ATOM     84  C   UNL A   1      31.229  22.530  25.591  1.00  0.00     0.044 A 
ATOM     85  F   UNL A   1      30.672  24.679  24.800  1.00  0.00    -0.205 F 
ATOM     86  F   UNL A   1      33.175  19.918  24.002  1.00  0.00    -0.207 F 
ATOM     87  C   UNL A   1      31.862  21.308  25.383  1.00  0.00     0.042 A 
ENDBRANCH  78  80
ENDBRANCH  75  78
ENDBRANCH  68  75
ENDBRANCH  63  65
ENDBRANCH  62  63
ENDBRANCH   1  62
TORSDOF 14
ENDMDL
MODEL 2
REMARK VINA RESULT:     -12.8      4.902      9.354
REMARK SMILES O=C(OCCOC(=O)c1cc(S(=O)(=O)Nc2cc(F)ccc2F)cc2c1OCCO2)c1ccc(-c2c3nc(c(-c4c(F)cccc4F)c4ccc([nH]4)c(-c4c(F)cccc4F)c4nc(c(-c5c(F)cccc5F)c5ccc2[nH]5)C=C4)C=C3)cc1
REMARK SMILES IDX 5 1 4 2 3 3 2 4 1 5 31 6 32 7 84 8 33 9 83 10 34 11 35 12
REMARK SMILES IDX 36 13 77 14 37 15 82 16 76 17 78 18 38 19 81 20 75 21 74 22
REMARK SMILES IDX 39 24 65 25 48 26 64 27 49 28 52 29 63 30 79 31 50 32 51 33
REMARK SMILES IDX 62 35 80 36 53 37 40 38 41 39 46 40 42 41 43 42 45 43 47 44
REMARK SMILES IDX 44 45 66 46 67 47 72 48 68 49 69 50 71 51 73 52 70 53 54 54
REMARK SMILES IDX 55 55 60 56 56 57 57 58 59 59 61 60 58 61 6 62 7 63 8 64
REMARK SMILES IDX 9 65 10 66 26 67 11 68 25 69 27 70 24 71 30 72 28 73 29 74
REMARK SMILES IDX 12 75 13 76 14 77 15 78 16 80 17 81 22 82 18 83 21 84 23 85
REMARK SMILES IDX 19 86 20 87
REMARK H PARENT 78 23 52 34 15 79
REMARK Flexibility Score: inf
ROOT
ATOM      1  C   UNL A   1      37.908  20.427  24.937  1.00  0.00     0.275 C 
ENDROOT
BRANCH   1   2
ATOM      2  C   UNL A   1      39.195  20.400  25.776  1.00  0.00     0.275 C 
BRANCH   2   3
ATOM      3  O   UNL A   1      39.987  19.196  25.818  1.00  0.00    -0.458 OA
BRANCH   3   4
ATOM      4  C   UNL A   1      41.309  19.289  26.055  1.00  0.00     0.338 C 
ATOM      5  O   UNL A   1      42.103  18.397  25.795  1.00  0.00    -0.246 OA
BRANCH   4   6
ATOM      6  C   UNL A   1      41.736  20.621  26.567  1.00  0.00     0.060 A 
ATOM      7  C   UNL A   1      41.802  20.947  27.927  1.00  0.00     0.016 A 
ATOM      8  C   UNL A   1      42.170  21.555  25.627  1.00  0.00     0.016 A 
ATOM      9  C   UNL A   1      42.315  22.180  28.337  1.00  0.00     0.010 A 
ATOM     10  C   UNL A   1      42.704  22.771  26.029  1.00  0.00     0.010 A 
ATOM     11  C   UNL A   1      42.769  23.096  27.386  1.00  0.00    -0.014 A 
BRANCH  11  12
ATOM     12  C   UNL A   1      43.241  24.442  27.758  1.00  0.00     0.031 A 
ATOM     13  C   UNL A   1      42.228  25.501  28.048  1.00  0.00     0.074 A 
ATOM     14  C   UNL A   1      44.550  24.732  27.712  1.00  0.00     0.049 A 
ATOM     15  N   UNL A   1      42.415  26.757  28.347  1.00  0.00    -0.248 NA
ATOM     16  C   UNL A   1      40.815  25.094  27.971  1.00  0.00     0.031 C 
ATOM     17  C   UNL A   1      45.595  23.777  27.369  1.00  0.00     0.029 A 
ATOM     18  N   UNL A   1      45.221  25.911  27.895  1.00  0.00    -0.354 N 
ATOM     19  C   UNL A   1      41.146  27.285  28.518  1.00  0.00     0.074 A 
ATOM     20  C   UNL A   1      40.198  26.240  28.200  1.00  0.00     0.031 C 
ATOM     21  C   UNL A   1      46.774  24.415  27.310  1.00  0.00     0.029 A 
ATOM     22  C   UNL A   1      46.561  25.823  27.607  1.00  0.00     0.049 A 
ATOM     23  H   UNL A   1      44.787  26.740  28.201  1.00  0.00     0.167 HD
ATOM     24  C   UNL A   1      40.808  28.522  28.946  1.00  0.00     0.037 A 
ATOM     25  C   UNL A   1      47.509  26.778  27.574  1.00  0.00     0.037 A 
ATOM     26  C   UNL A   1      41.772  29.552  29.212  1.00  0.00     0.049 A 
ATOM     27  C   UNL A   1      47.126  28.161  28.004  1.00  0.00     0.074 A 
ATOM     28  C   UNL A   1      41.571  30.827  29.705  1.00  0.00     0.029 A 
ATOM     29  N   UNL A   1      43.136  29.421  28.974  1.00  0.00    -0.354 N 
ATOM     30  N   UNL A   1      45.935  28.621  28.308  1.00  0.00    -0.248 NA
ATOM     31  C   UNL A   1      48.208  29.142  28.140  1.00  0.00     0.031 C 
ATOM     32  C   UNL A   1      42.811  31.479  29.733  1.00  0.00     0.029 A 
ATOM     33  C   UNL A   1      43.790  30.597  29.294  1.00  0.00     0.049 A 
ATOM     34  H   UNL A   1      43.572  28.610  28.627  1.00  0.00     0.167 HD
ATOM     35  C   UNL A   1      46.126  29.929  28.724  1.00  0.00     0.074 A 
ATOM     36  C   UNL A   1      47.549  30.194  28.611  1.00  0.00     0.031 C 
ATOM     37  C   UNL A   1      45.212  30.819  29.182  1.00  0.00     0.037 A 
BRANCH  24  38
ATOM     38  C   UNL A   1      39.343  28.776  29.139  1.00  0.00     0.057 A 
ATOM     39  C   UNL A   1      38.551  29.302  28.104  1.00  0.00     0.134 A 
ATOM     40  C   UNL A   1      38.734  28.587  30.383  1.00  0.00     0.134 A 
ATOM     41  F   UNL A   1      39.081  29.529  26.892  1.00  0.00    -0.206 F 
ATOM     42  C   UNL A   1      37.227  29.683  28.317  1.00  0.00     0.040 A 
ATOM     43  C   UNL A   1      37.400  28.939  30.600  1.00  0.00     0.040 A 
ATOM     44  F   UNL A   1      39.431  28.091  31.416  1.00  0.00    -0.206 F 
ATOM     45  C   UNL A   1      36.648  29.505  29.572  1.00  0.00     0.006 A 
ENDBRANCH  24  38
BRANCH  25  46
ATOM     46  C   UNL A   1      48.893  26.419  27.180  1.00  0.00     0.057 A 
ATOM     47  C   UNL A   1      49.817  25.949  28.119  1.00  0.00     0.134 A 
ATOM     48  C   UNL A   1      49.297  26.449  25.840  1.00  0.00     0.134 A 
ATOM     49  F   UNL A   1      49.489  25.896  29.419  1.00  0.00    -0.206 F 
ATOM     50  C   UNL A   1      51.094  25.524  27.743  1.00  0.00     0.040 A 
ATOM     51  C   UNL A   1      50.565  26.014  25.447  1.00  0.00     0.040 A 
ATOM     52  F   UNL A   1      48.453  26.872  24.887  1.00  0.00    -0.206 F 
ATOM     53  C   UNL A   1      51.468  25.548  26.401  1.00  0.00     0.006 A 
ENDBRANCH  25  46
BRANCH  37  54
ATOM     54  C   UNL A   1      45.734  32.139  29.654  1.00  0.00     0.057 A 
ATOM     55  C   UNL A   1      46.172  32.336  30.967  1.00  0.00     0.134 A 
ATOM     56  C   UNL A   1      45.857  33.206  28.755  1.00  0.00     0.134 A 
ATOM     57  F   UNL A   1      46.062  31.354  31.876  1.00  0.00    -0.206 F 
ATOM     58  C   UNL A   1      46.708  33.557  31.375  1.00  0.00     0.040 A 
ATOM     59  C   UNL A   1      46.412  34.423  29.145  1.00  0.00     0.040 A 
ATOM     60  F   UNL A   1      45.457  33.074  27.481  1.00  0.00    -0.206 F 
ATOM     61  C   UNL A   1      46.838  34.601  30.459  1.00  0.00     0.006 A 
ENDBRANCH  37  54
ENDBRANCH  11  12
ENDBRANCH   4   6
ENDBRANCH   3   4
ENDBRANCH   2   3
ENDBRANCH   1   2
BRANCH   1  62
ATOM     62  O   UNL A   1      36.912  21.315  25.469  1.00  0.00    -0.458 OA
BRANCH  62  63
ATOM     63  C   UNL A   1      36.107  21.908  24.544  1.00  0.00     0.342 C 
ATOM     64  O   UNL A   1      36.439  22.395  23.477  1.00  0.00    -0.246 OA
BRANCH  63  65
ATOM     65  C   UNL A   1      34.697  21.760  24.951  1.00  0.00     0.107 A 
ATOM     66  C   UNL A   1      33.993  22.913  25.351  1.00  0.00     0.042 A 
ATOM     67  C   UNL A   1      34.078  20.509  24.926  1.00  0.00     0.175 A 
ATOM     68  C   UNL A   1      32.634  22.823  25.656  1.00  0.00     0.092 A 
ATOM     69  C   UNL A   1      32.740  20.415  25.319  1.00  0.00     0.163 A 
ATOM     70  O   UNL A   1      34.816  19.419  24.541  1.00  0.00    -0.485 OA
ATOM     71  C   UNL A   1      32.012  21.564  25.653  1.00  0.00     0.072 A 
ATOM     72  O   UNL A   1      32.061  19.225  25.378  1.00  0.00    -0.486 OA
ATOM     73  C   UNL A   1      33.997  18.286  24.241  1.00  0.00     0.271 C 
ATOM     74  C   UNL A   1      32.939  18.095  25.312  1.00  0.00     0.271 C 
BRANCH  68  75
ATOM     75  S   UNL A   1      31.595  24.242  25.990  1.00  0.00     0.262 S 
ATOM     76  O   UNL A   1      30.786  24.457  24.811  1.00  0.00    -0.201 OA
ATOM     77  O   UNL A   1      30.981  23.991  27.277  1.00  0.00    -0.201 OA
BRANCH  75  78
ATOM     78  N   UNL A   1      32.555  25.581  26.237  1.00  0.00    -0.277 N 
ATOM     79  H   UNL A   1      33.169  25.557  27.005  1.00  0.00     0.180 HD
BRANCH  78  80
ATOM     80  C   UNL A   1      32.566  26.758  25.437  1.00  0.00     0.087 A 
ATOM     81  C   UNL A   1      31.671  27.810  25.617  1.00  0.00     0.069 A 
ATOM     82  C   UNL A   1      33.556  26.871  24.451  1.00  0.00     0.147 A 
ATOM     83  C   UNL A   1      31.722  28.904  24.753  1.00  0.00     0.125 A 
ATOM     84  C   UNL A   1      33.605  27.965  23.592  1.00  0.00     0.044 A 
ATOM     85  F   UNL A   1      34.455  25.885  24.304  1.00  0.00    -0.205 F 
ATOM     86  F   UNL A   1      30.822  29.889  24.890  1.00  0.00    -0.207 F 
ATOM     87  C   UNL A   1      32.670  28.986  23.736  1.00  0.00     0.042 A 
ENDBRANCH  78  80
ENDBRANCH  75  78
ENDBRANCH  68  75
ENDBRANCH  63  65
ENDBRANCH  62  63
ENDBRANCH   1  62
TORSDOF 14
ENDMDL
MODEL 3
REMARK VINA RESULT:     -12.8      4.941      9.373
REMARK SMILES O=C(OCCOC(=O)c1cc(S(=O)(=O)Nc2cc(F)ccc2F)cc2c1OCCO2)c1ccc(-c2c3nc(c(-c4c(F)cccc4F)c4ccc([nH]4)c(-c4c(F)cccc4F)c4nc(c(-c5c(F)cccc5F)c5ccc2[nH]5)C=C4)C=C3)cc1
REMARK SMILES IDX 5 1 4 2 3 3 2 4 1 5 31 6 32 7 84 8 33 9 83 10 34 11 35 12
REMARK SMILES IDX 36 13 77 14 37 15 82 16 76 17 78 18 38 19 81 20 75 21 74 22
REMARK SMILES IDX 39 24 65 25 48 26 64 27 49 28 52 29 63 30 79 31 50 32 51 33
REMARK SMILES IDX 62 35 80 36 53 37 40 38 41 39 46 40 42 41 43 42 45 43 47 44
REMARK SMILES IDX 44 45 66 46 67 47 72 48 68 49 69 50 71 51 73 52 70 53 54 54
REMARK SMILES IDX 55 55 60 56 56 57 57 58 59 59 61 60 58 61 6 62 7 63 8 64
REMARK SMILES IDX 9 65 10 66 26 67 11 68 25 69 27 70 24 71 30 72 28 73 29 74
REMARK SMILES IDX 12 75 13 76 14 77 15 78 16 80 17 81 22 82 18 83 21 84 23 85
REMARK SMILES IDX 19 86 20 87
REMARK H PARENT 78 23 52 34 15 79
REMARK Flexibility Score: inf
ROOT
ATOM      1  C   UNL A   1      38.027  20.212  24.935  1.00  0.00     0.275 C 
ENDROOT
BRANCH   1   2
ATOM      2  C   UNL A   1      39.360  20.327  25.692  1.00  0.00     0.275 C 
BRANCH   2   3
ATOM      3  O   UNL A   1      40.187  19.156  25.850  1.00  0.00    -0.458 OA
BRANCH   3   4
ATOM      4  C   UNL A   1      41.518  19.308  25.984  1.00  0.00     0.338 C 
ATOM      5  O   UNL A   1      42.330  18.466  25.632  1.00  0.00    -0.246 OA
BRANCH   4   6
ATOM      6  C   UNL A   1      41.922  20.645  26.504  1.00  0.00     0.060 A 
ATOM      7  C   UNL A   1      41.911  20.988  27.860  1.00  0.00     0.016 A 
ATOM      8  C   UNL A   1      42.415  21.565  25.578  1.00  0.00     0.016 A 
ATOM      9  C   UNL A   1      42.406  22.224  28.285  1.00  0.00     0.010 A 
ATOM     10  C   UNL A   1      42.931  22.784  25.996  1.00  0.00     0.010 A 
ATOM     11  C   UNL A   1      42.919  23.125  27.350  1.00  0.00    -0.014 A 
BRANCH  11  12
ATOM     12  C   UNL A   1      43.375  24.474  27.732  1.00  0.00     0.031 A 
ATOM     13  C   UNL A   1      42.351  25.523  28.016  1.00  0.00     0.074 A 
ATOM     14  C   UNL A   1      44.683  24.775  27.701  1.00  0.00     0.049 A 
ATOM     15  N   UNL A   1      42.524  26.779  28.322  1.00  0.00    -0.248 NA
ATOM     16  C   UNL A   1      40.942  25.105  27.923  1.00  0.00     0.031 C 
ATOM     17  C   UNL A   1      45.739  23.830  27.365  1.00  0.00     0.029 A 
ATOM     18  N   UNL A   1      45.342  25.959  27.895  1.00  0.00    -0.354 N 
ATOM     19  C   UNL A   1      41.249  27.296  28.482  1.00  0.00     0.074 A 
ATOM     20  C   UNL A   1      40.313  26.245  28.151  1.00  0.00     0.031 C 
ATOM     21  C   UNL A   1      46.913  24.478  27.321  1.00  0.00     0.029 A 
ATOM     22  C   UNL A   1      46.686  25.884  27.621  1.00  0.00     0.049 A 
ATOM     23  H   UNL A   1      44.898  26.783  28.200  1.00  0.00     0.167 HD
ATOM     24  C   UNL A   1      40.896  28.529  28.912  1.00  0.00     0.037 A 
ATOM     25  C   UNL A   1      47.626  26.846  27.602  1.00  0.00     0.037 A 
ATOM     26  C   UNL A   1      41.849  29.565  29.192  1.00  0.00     0.049 A 
ATOM     27  C   UNL A   1      47.227  28.225  28.033  1.00  0.00     0.074 A 
ATOM     28  C   UNL A   1      41.632  30.837  29.687  1.00  0.00     0.029 A 
ATOM     29  N   UNL A   1      43.216  29.447  28.967  1.00  0.00    -0.354 N 
ATOM     30  N   UNL A   1      46.029  28.674  28.326  1.00  0.00    -0.248 NA
ATOM     31  C   UNL A   1      48.299  29.214  28.184  1.00  0.00     0.031 C 
ATOM     32  C   UNL A   1      42.866  31.499  29.731  1.00  0.00     0.029 A 
ATOM     33  C   UNL A   1      43.857  30.627  29.299  1.00  0.00     0.049 A 
ATOM     34  H   UNL A   1      43.662  28.641  28.621  1.00  0.00     0.167 HD
ATOM     35  C   UNL A   1      46.204  29.981  28.749  1.00  0.00     0.074 A 
ATOM     36  C   UNL A   1      47.626  30.259  28.653  1.00  0.00     0.031 C 
ATOM     37  C   UNL A   1      45.278  30.861  29.201  1.00  0.00     0.037 A 
BRANCH  24  38
ATOM     38  C   UNL A   1      39.427  28.770  29.090  1.00  0.00     0.057 A 
ATOM     39  C   UNL A   1      38.646  29.310  28.055  1.00  0.00     0.134 A 
ATOM     40  C   UNL A   1      38.804  28.553  30.323  1.00  0.00     0.134 A 
ATOM     41  F   UNL A   1      39.189  29.564  26.855  1.00  0.00    -0.206 F 
ATOM     42  C   UNL A   1      37.316  29.679  28.259  1.00  0.00     0.040 A 
ATOM     43  C   UNL A   1      37.465  28.892  30.529  1.00  0.00     0.040 A 
ATOM     44  F   UNL A   1      39.491  28.041  31.354  1.00  0.00    -0.206 F 
ATOM     45  C   UNL A   1      36.722  29.473  29.502  1.00  0.00     0.006 A 
ENDBRANCH  24  38
BRANCH  25  46
ATOM     46  C   UNL A   1      49.017  26.500  27.220  1.00  0.00     0.057 A 
ATOM     47  C   UNL A   1      49.908  25.948  28.147  1.00  0.00     0.134 A 
ATOM     48  C   UNL A   1      49.460  26.628  25.898  1.00  0.00     0.134 A 
ATOM     49  F   UNL A   1      49.541  25.800  29.429  1.00  0.00    -0.206 F 
ATOM     50  C   UNL A   1      51.190  25.537  27.774  1.00  0.00     0.040 A 
ATOM     51  C   UNL A   1      50.734  26.207  25.509  1.00  0.00     0.040 A 
ATOM     52  F   UNL A   1      48.649  27.134  24.958  1.00  0.00    -0.206 F 
ATOM     53  C   UNL A   1      51.604  25.658  26.449  1.00  0.00     0.006 A 
ENDBRANCH  25  46
BRANCH  37  54
ATOM     54  C   UNL A   1      45.784  32.184  29.684  1.00  0.00     0.057 A 
ATOM     55  C   UNL A   1      45.875  33.295  28.841  1.00  0.00     0.134 A 
ATOM     56  C   UNL A   1      46.123  32.354  31.033  1.00  0.00     0.134 A 
ATOM     57  F   UNL A   1      45.579  33.186  27.537  1.00  0.00    -0.206 F 
ATOM     58  C   UNL A   1      46.296  34.535  29.322  1.00  0.00     0.040 A 
ATOM     59  C   UNL A   1      46.524  33.593  31.529  1.00  0.00     0.040 A 
ATOM     60  F   UNL A   1      46.053  31.324  31.889  1.00  0.00    -0.206 F 
ATOM     61  C   UNL A   1      46.612  34.688  30.672  1.00  0.00     0.006 A 
ENDBRANCH  37  54
ENDBRANCH  11  12
ENDBRANCH   4   6
ENDBRANCH   3   4
ENDBRANCH   2   3
ENDBRANCH   1   2
BRANCH   1  62
ATOM     62  O   UNL A   1      36.996  21.045  25.489  1.00  0.00    -0.458 OA
BRANCH  62  63
ATOM     63  C   UNL A   1      36.244  21.723  24.577  1.00  0.00     0.342 C 
ATOM     64  O   UNL A   1      36.622  22.222  23.531  1.00  0.00    -0.246 OA
BRANCH  63  65
ATOM     65  C   UNL A   1      34.823  21.657  24.965  1.00  0.00     0.107 A 
ATOM     66  C   UNL A   1      34.185  22.848  25.366  1.00  0.00     0.042 A 
ATOM     67  C   UNL A   1      34.129  20.446  24.920  1.00  0.00     0.175 A 
ATOM     68  C   UNL A   1      32.819  22.838  25.654  1.00  0.00     0.092 A 
ATOM     69  C   UNL A   1      32.783  20.431  25.296  1.00  0.00     0.163 A 
ATOM     70  O   UNL A   1      34.805  19.317  24.534  1.00  0.00    -0.485 OA
ATOM     71  C   UNL A   1      32.122  21.619  25.631  1.00  0.00     0.072 A 
ATOM     72  O   UNL A   1      32.033  19.284  25.335  1.00  0.00    -0.486 OA
ATOM     73  C   UNL A   1      33.923  18.238  24.213  1.00  0.00     0.271 C 
ATOM     74  C   UNL A   1      32.841  18.103  25.269  1.00  0.00     0.271 C 
BRANCH  68  75
ATOM     75  S   UNL A   1      31.864  24.314  25.988  1.00  0.00     0.262 S 
ATOM     76  O   UNL A   1      31.082  24.586  24.802  1.00  0.00    -0.201 OA
ATOM     77  O   UNL A   1      31.222  24.092  27.266  1.00  0.00    -0.201 OA
BRANCH  75  78
ATOM     78  N   UNL A   1      32.900  25.592  26.255  1.00  0.00    -0.277 N 
ATOM     79  H   UNL A   1      33.585  25.475  26.951  1.00  0.00     0.180 HD
BRANCH  78  80
ATOM     80  C   UNL A   1      32.883  26.837  25.566  1.00  0.00     0.087 A 
ATOM     81  C   UNL A   1      33.723  27.126  24.494  1.00  0.00     0.069 A 
ATOM     82  C   UNL A   1      31.941  27.795  25.967  1.00  0.00     0.147 A 
ATOM     83  C   UNL A   1      33.672  28.391  23.908  1.00  0.00     0.125 A 
ATOM     84  C   UNL A   1      31.892  29.056  25.381  1.00  0.00     0.044 A 
ATOM     85  F   UNL A   1      31.093  27.506  26.966  1.00  0.00    -0.205 F 
ATOM     86  F   UNL A   1      34.522  28.688  22.915  1.00  0.00    -0.207 F 
ATOM     87  C   UNL A   1      32.775  29.361  24.349  1.00  0.00     0.042 A 
ENDBRANCH  78  80
ENDBRANCH  75  78
ENDBRANCH  68  75
ENDBRANCH  63  65
ENDBRANCH  62  63
ENDBRANCH   1  62
TORSDOF 14
ENDMDL
