MODEL 1
REMARK VINA RESULT:     -12.0      0.000      0.000
REMARK SMILES Cc1ccnc(C(=O)c2[nH]c3ccc(OC(F)(F)F)cc3c2CC(=O)OCCOC(=O)c2ccc(-c3c4nc(c(-c5c(F)cccc5F)c5ccc([nH]5)c(-c5c(F)cccc5F)c5nc(c(-c6c(F)cccc6F)c6ccc3[nH]6)C=C5)C=C4)cc2)c1
REMARK SMILES IDX 27 1 26 2 24 3 25 4 23 5 22 6 9 7 10 8 11 9 21 11 12 12
REMARK SMILES IDX 20 13 13 14 14 15 7 16 8 17 6 18 1 19 2 20 3 21 86 22 4 23
REMARK SMILES IDX 5 24 15 25 16 26 17 27 18 28 19 29 28 30 29 31 30 32 31 33
REMARK SMILES IDX 32 34 33 35 85 36 34 37 84 38 35 39 36 40 37 41 78 42 38 43
REMARK SMILES IDX 83 44 77 45 79 46 39 47 82 48 76 49 75 50 40 52 66 53 49 54
REMARK SMILES IDX 65 55 50 56 53 57 64 58 80 59 51 60 52 61 63 63 81 64 54 65
REMARK SMILES IDX 41 66 42 67 47 68 43 69 44 70 46 71 48 72 45 73 67 74 68 75
REMARK SMILES IDX 73 76 69 77 70 78 72 79 74 80 71 81 55 82 56 83 61 84 57 85
REMARK SMILES IDX 58 86 60 87 62 88 59 89
REMARK H PARENT 10 10 79 51 53 62
REMARK Flexibility Score: inf
ROOT
ATOM      1  C   UNL A   1      38.380  21.740  25.700  1.00  0.00     0.274 C 
ENDROOT
BRANCH   1   2
ATOM      2  O   UNL A   1      36.939  21.791  25.793  1.00  0.00    -0.462 OA
BRANCH   2   3
ATOM      3  C   UNL A   1      36.387  23.028  25.815  1.00  0.00     0.310 C 
ATOM      4  O   UNL A   1      37.037  24.068  25.714  1.00  0.00    -0.252 OA
BRANCH   3   5
ATOM      5  C   UNL A   1      34.875  23.071  25.833  1.00  0.00     0.161 C 
BRANCH   5   6
ATOM      6  C   UNL A   1      34.095  22.713  24.607  1.00  0.00     0.000 A 
ATOM      7  C   UNL A   1      33.515  23.564  23.666  1.00  0.00     0.093 A 
ATOM      8  N   UNL A   1      32.865  22.771  22.750  1.00  0.00    -0.352 N 
ATOM      9  C   UNL A   1      32.834  21.469  23.165  1.00  0.00     0.046 A 
ATOM     10  H   UNL A   1      32.475  23.098  21.907  1.00  0.00     0.167 HD
ATOM     11  C   UNL A   1      33.661  21.377  24.279  1.00  0.00     0.008 A 
ATOM     12  C   UNL A   1      32.145  20.380  22.632  1.00  0.00     0.030 A 
ATOM     13  C   UNL A   1      33.851  20.103  24.856  1.00  0.00     0.057 A 
ATOM     14  C   UNL A   1      32.325  19.136  23.243  1.00  0.00     0.049 A 
ATOM     15  C   UNL A   1      33.182  18.983  24.332  1.00  0.00     0.130 A 
BRANCH   7  16
ATOM     16  C   UNL A   1      33.504  25.006  23.468  1.00  0.00     0.227 C 
ATOM     17  O   UNL A   1      33.858  25.481  22.390  1.00  0.00    -0.285 OA
BRANCH  16  18
ATOM     18  C   UNL A   1      32.770  25.890  24.453  1.00  0.00     0.113 A 
ATOM     19  C   UNL A   1      33.498  28.446  27.168  1.00  0.00     0.044 C 
ATOM     20  C   UNL A   1      32.791  27.474  26.270  1.00  0.00    -0.047 A 
ATOM     21  C   UNL A   1      31.484  27.090  26.566  1.00  0.00     0.023 A 
ATOM     22  C   UNL A   1      33.440  26.876  25.181  1.00  0.00     0.036 A 
ATOM     23  C   UNL A   1      30.883  26.125  25.778  1.00  0.00     0.112 A 
ATOM     24  N   UNL A   1      31.492  25.518  24.742  1.00  0.00    -0.253 NA
ENDBRANCH  16  18
ENDBRANCH   7  16
BRANCH  15  25
ATOM     25  O   UNL A   1      33.453  17.811  24.981  1.00  0.00    -0.406 OA
BRANCH  25  26
ATOM     26  C   UNL A   1      34.480  16.989  24.452  1.00  0.00     0.573 C 
ATOM     27  F   UNL A   1      34.692  15.910  25.237  1.00  0.00    -0.132 F 
ATOM     28  F   UNL A   1      34.189  16.582  23.197  1.00  0.00    -0.132 F 
ATOM     29  F   UNL A   1      35.627  17.702  24.404  1.00  0.00    -0.132 F 
ENDBRANCH  25  26
ENDBRANCH  15  25
ENDBRANCH   5   6
ENDBRANCH   3   5
ENDBRANCH   2   3
ENDBRANCH   1   2
BRANCH   1  30
ATOM     30  C   UNL A   1      38.893  20.334  25.349  1.00  0.00     0.275 C 
BRANCH  30  31
ATOM     31  O   UNL A   1      39.646  19.722  26.420  1.00  0.00    -0.458 OA
BRANCH  31  32
ATOM     32  C   UNL A   1      40.971  19.690  26.184  1.00  0.00     0.338 C 
ATOM     33  O   UNL A   1      41.579  18.842  25.553  1.00  0.00    -0.246 OA
BRANCH  32  34
ATOM     34  C   UNL A   1      41.677  20.884  26.647  1.00  0.00     0.060 A 
ATOM     35  C   UNL A   1      41.587  21.182  28.007  1.00  0.00     0.016 A 
ATOM     36  C   UNL A   1      42.161  21.831  25.741  1.00  0.00     0.016 A 
ATOM     37  C   UNL A   1      41.895  22.454  28.458  1.00  0.00     0.010 A 
ATOM     38  C   UNL A   1      42.547  23.090  26.212  1.00  0.00     0.010 A 
ATOM     39  C   UNL A   1      42.387  23.420  27.568  1.00  0.00    -0.014 A 
BRANCH  39  40
ATOM     40  C   UNL A   1      42.760  24.746  28.116  1.00  0.00     0.031 A 
ATOM     41  C   UNL A   1      44.194  25.136  28.319  1.00  0.00     0.074 A 
ATOM     42  C   UNL A   1      41.776  25.640  28.331  1.00  0.00     0.049 A 
ATOM     43  N   UNL A   1      44.689  26.293  28.681  1.00  0.00    -0.248 NA
ATOM     44  C   UNL A   1      45.209  24.101  28.074  1.00  0.00     0.031 C 
ATOM     45  C   UNL A   1      40.348  25.382  28.134  1.00  0.00     0.029 A 
ATOM     46  N   UNL A   1      41.828  26.950  28.730  1.00  0.00    -0.354 N 
ATOM     47  C   UNL A   1      46.068  26.135  28.684  1.00  0.00     0.074 A 
ATOM     48  C   UNL A   1      46.335  24.759  28.320  1.00  0.00     0.031 C 
ATOM     49  C   UNL A   1      39.661  26.506  28.377  1.00  0.00     0.029 A 
ATOM     50  C   UNL A   1      40.593  27.546  28.796  1.00  0.00     0.049 A 
ATOM     51  H   UNL A   1      42.667  27.416  28.947  1.00  0.00     0.167 HD
ATOM     52  C   UNL A   1      47.021  27.057  28.960  1.00  0.00     0.037 A 
ATOM     53  C   UNL A   1      40.248  28.789  29.172  1.00  0.00     0.037 A 
ATOM     54  C   UNL A   1      46.752  28.411  29.366  1.00  0.00     0.049 A 
ATOM     55  C   UNL A   1      41.320  29.752  29.579  1.00  0.00     0.074 A 
ATOM     56  C   UNL A   1      47.652  29.412  29.693  1.00  0.00     0.029 A 
ATOM     57  N   UNL A   1      45.484  28.951  29.519  1.00  0.00    -0.354 N 
ATOM     58  N   UNL A   1      42.621  29.592  29.566  1.00  0.00    -0.248 NA
ATOM     59  C   UNL A   1      40.875  31.065  30.066  1.00  0.00     0.031 C 
ATOM     60  C   UNL A   1      46.927  30.546  30.081  1.00  0.00     0.029 A 
ATOM     61  C   UNL A   1      45.576  30.260  29.964  1.00  0.00     0.049 A 
ATOM     62  H   UNL A   1      44.641  28.474  29.339  1.00  0.00     0.167 HD
ATOM     63  C   UNL A   1      43.152  30.782  30.041  1.00  0.00     0.074 A 
ATOM     64  C   UNL A   1      42.033  31.663  30.309  1.00  0.00     0.031 C 
ATOM     65  C   UNL A   1      44.450  31.113  30.243  1.00  0.00     0.037 A 
BRANCH  52  66
ATOM     66  C   UNL A   1      48.453  26.624  28.849  1.00  0.00     0.057 A 
ATOM     67  C   UNL A   1      49.102  25.974  29.905  1.00  0.00     0.134 A 
ATOM     68  C   UNL A   1      49.168  26.807  27.660  1.00  0.00     0.134 A 
ATOM     69  F   UNL A   1      48.477  25.785  31.077  1.00  0.00    -0.206 F 
ATOM     70  C   UNL A   1      50.418  25.520  29.781  1.00  0.00     0.040 A 
ATOM     71  C   UNL A   1      50.479  26.349  27.521  1.00  0.00     0.040 A 
ATOM     72  F   UNL A   1      48.601  27.426  26.613  1.00  0.00    -0.206 F 
ATOM     73  C   UNL A   1      51.107  25.701  28.583  1.00  0.00     0.006 A 
ENDBRANCH  52  66
BRANCH  53  74
ATOM     74  C   UNL A   1      38.817  29.171  29.209  1.00  0.00     0.057 A 
ATOM     75  C   UNL A   1      38.155  29.621  28.063  1.00  0.00     0.134 A 
ATOM     76  C   UNL A   1      38.077  29.079  30.394  1.00  0.00     0.134 A 
ATOM     77  F   UNL A   1      38.819  29.746  26.904  1.00  0.00    -0.206 F 
ATOM     78  C   UNL A   1      36.805  29.971  28.094  1.00  0.00     0.040 A 
ATOM     79  C   UNL A   1      36.722  29.405  30.434  1.00  0.00     0.040 A 
ATOM     80  F   UNL A   1      38.659  28.651  31.524  1.00  0.00    -0.206 F 
ATOM     81  C   UNL A   1      36.083  29.857  29.282  1.00  0.00     0.006 A 
ENDBRANCH  53  74
BRANCH  65  82
ATOM     82  C   UNL A   1      44.711  32.485  30.783  1.00  0.00     0.057 A 
ATOM     83  C   UNL A   1      44.847  33.590  29.933  1.00  0.00     0.134 A 
ATOM     84  C   UNL A   1      44.838  32.702  32.160  1.00  0.00     0.134 A 
ATOM     85  F   UNL A   1      44.752  33.439  28.603  1.00  0.00    -0.206 F 
ATOM     86  C   UNL A   1      45.126  34.861  30.433  1.00  0.00     0.040 A 
ATOM     87  C   UNL A   1      45.099  33.972  32.673  1.00  0.00     0.040 A 
ATOM     88  F   UNL A   1      44.717  31.684  33.024  1.00  0.00    -0.206 F 
ATOM     89  C   UNL A   1      45.252  35.055  31.808  1.00  0.00     0.006 A 
ENDBRANCH  65  82
ENDBRANCH  39  40
ENDBRANCH  32  34
ENDBRANCH  31  32
ENDBRANCH  30  31
ENDBRANCH   1  30
TORSDOF 16
ENDMDL
MODEL 2
REMARK VINA RESULT:     -12.0      3.151      7.563
REMARK SMILES Cc1ccnc(C(=O)c2[nH]c3ccc(OC(F)(F)F)cc3c2CC(=O)OCCOC(=O)c2ccc(-c3c4nc(c(-c5c(F)cccc5F)c5ccc([nH]5)c(-c5c(F)cccc5F)c5nc(c(-c6c(F)cccc6F)c6ccc3[nH]6)C=C5)C=C4)cc2)c1
REMARK SMILES IDX 27 1 26 2 24 3 25 4 23 5 22 6 9 7 10 8 11 9 21 11 12 12
REMARK SMILES IDX 20 13 13 14 14 15 7 16 8 17 6 18 1 19 2 20 3 21 86 22 4 23
REMARK SMILES IDX 5 24 15 25 16 26 17 27 18 28 19 29 28 30 29 31 30 32 31 33
REMARK SMILES IDX 32 34 33 35 85 36 34 37 84 38 35 39 36 40 37 41 78 42 38 43
REMARK SMILES IDX 83 44 77 45 79 46 39 47 82 48 76 49 75 50 40 52 66 53 49 54
REMARK SMILES IDX 65 55 50 56 53 57 64 58 80 59 51 60 52 61 63 63 81 64 54 65
REMARK SMILES IDX 41 66 42 67 47 68 43 69 44 70 46 71 48 72 45 73 67 74 68 75
REMARK SMILES IDX 73 76 69 77 70 78 72 79 74 80 71 81 55 82 56 83 61 84 57 85
REMARK SMILES IDX 58 86 60 87 62 88 59 89
REMARK H PARENT 10 10 79 51 53 62
REMARK Flexibility Score: inf
ROOT
ATOM      1  C   UNL A   1      35.461  21.864  25.476  1.00  0.00     0.274 C 
ENDROOT
BRANCH   1   2
ATOM      2  O   UNL A   1      35.281  22.691  24.305  1.00  0.00    -0.462 OA
BRANCH   2   3
ATOM      3  C   UNL A   1      34.711  23.902  24.513  1.00  0.00     0.310 C 
ATOM      4  O   UNL A   1      34.342  24.649  23.607  1.00  0.00    -0.252 OA
BRANCH   3   5
ATOM      5  C   UNL A   1      34.412  24.247  25.956  1.00  0.00     0.161 C 
BRANCH   5   6
ATOM      6  C   UNL A   1      33.193  25.041  26.305  1.00  0.00     0.000 A 
ATOM      7  C   UNL A   1      31.875  24.599  26.432  1.00  0.00     0.093 A 
ATOM      8  N   UNL A   1      31.106  25.702  26.717  1.00  0.00    -0.352 N 
ATOM      9  C   UNL A   1      31.832  26.852  26.585  1.00  0.00     0.046 A 
ATOM     10  H   UNL A   1      30.158  25.667  26.982  1.00  0.00     0.167 HD
ATOM     11  C   UNL A   1      33.159  26.478  26.408  1.00  0.00     0.008 A 
ATOM     12  C   UNL A   1      31.409  28.182  26.617  1.00  0.00     0.030 A 
ATOM     13  C   UNL A   1      34.126  27.503  26.316  1.00  0.00     0.057 A 
ATOM     14  C   UNL A   1      32.384  29.176  26.490  1.00  0.00     0.049 A 
ATOM     15  C   UNL A   1      33.734  28.851  26.361  1.00  0.00     0.130 A 
BRANCH   7  16
ATOM     16  C   UNL A   1      31.226  23.298  26.364  1.00  0.00     0.227 C 
ATOM     17  O   UNL A   1      30.331  23.015  27.159  1.00  0.00    -0.285 OA
BRANCH  16  18
ATOM     18  C   UNL A   1      31.423  22.428  25.142  1.00  0.00     0.113 A 
ATOM     19  C   UNL A   1      33.031  19.132  24.149  1.00  0.00     0.044 C 
ATOM     20  C   UNL A   1      32.358  20.472  24.089  1.00  0.00    -0.047 A 
ATOM     21  C   UNL A   1      32.222  21.118  22.860  1.00  0.00     0.023 A 
ATOM     22  C   UNL A   1      31.934  21.132  25.249  1.00  0.00     0.036 A 
ATOM     23  C   UNL A   1      31.680  22.390  22.839  1.00  0.00     0.112 A 
ATOM     24  N   UNL A   1      31.287  23.056  23.942  1.00  0.00    -0.253 NA
ENDBRANCH  16  18
ENDBRANCH   7  16
BRANCH  15  25
ATOM     25  O   UNL A   1      34.767  29.742  26.262  1.00  0.00    -0.406 OA
BRANCH  25  26
ATOM     26  C   UNL A   1      35.520  30.006  27.433  1.00  0.00     0.573 C 
ATOM     27  F   UNL A   1      35.023  29.332  28.493  1.00  0.00    -0.132 F 
ATOM     28  F   UNL A   1      36.821  29.688  27.266  1.00  0.00    -0.132 F 
ATOM     29  F   UNL A   1      35.446  31.328  27.709  1.00  0.00    -0.132 F 
ENDBRANCH  25  26
ENDBRANCH  15  25
ENDBRANCH   5   6
ENDBRANCH   3   5
ENDBRANCH   2   3
ENDBRANCH   1   2
BRANCH   1  30
ATOM     30  C   UNL A   1      36.522  20.772  25.262  1.00  0.00     0.275 C 
BRANCH  30  31
ATOM     31  O   UNL A   1      37.802  21.300  24.847  1.00  0.00    -0.458 OA
BRANCH  31  32
ATOM     32  C   UNL A   1      38.784  21.065  25.738  1.00  0.00     0.338 C 
ATOM     33  O   UNL A   1      39.324  19.995  25.963  1.00  0.00    -0.246 OA
BRANCH  32  34
ATOM     34  C   UNL A   1      39.299  22.277  26.375  1.00  0.00     0.060 A 
ATOM     35  C   UNL A   1      38.814  23.494  25.896  1.00  0.00     0.016 A 
ATOM     36  C   UNL A   1      40.424  22.234  27.201  1.00  0.00     0.016 A 
ATOM     37  C   UNL A   1      39.500  24.666  26.168  1.00  0.00     0.010 A 
ATOM     38  C   UNL A   1      41.068  23.429  27.539  1.00  0.00     0.010 A 
ATOM     39  C   UNL A   1      40.629  24.649  26.998  1.00  0.00    -0.014 A 
BRANCH  39  40
ATOM     40  C   UNL A   1      41.288  25.941  27.305  1.00  0.00     0.031 A 
ATOM     41  C   UNL A   1      40.602  26.997  28.121  1.00  0.00     0.074 A 
ATOM     42  C   UNL A   1      42.568  26.105  26.921  1.00  0.00     0.049 A 
ATOM     43  N   UNL A   1      41.081  28.129  28.571  1.00  0.00    -0.248 NA
ATOM     44  C   UNL A   1      39.201  26.749  28.493  1.00  0.00     0.031 C 
ATOM     45  C   UNL A   1      43.346  25.129  26.153  1.00  0.00     0.029 A 
ATOM     46  N   UNL A   1      43.446  27.131  27.148  1.00  0.00    -0.354 N 
ATOM     47  C   UNL A   1      40.053  28.717  29.297  1.00  0.00     0.074 A 
ATOM     48  C   UNL A   1      38.911  27.833  29.201  1.00  0.00     0.031 C 
ATOM     49  C   UNL A   1      44.596  25.587  26.004  1.00  0.00     0.029 A 
ATOM     50  C   UNL A   1      44.692  26.906  26.618  1.00  0.00     0.049 A 
ATOM     51  H   UNL A   1      43.208  27.948  27.642  1.00  0.00     0.167 HD
ATOM     52  C   UNL A   1      40.068  29.885  29.983  1.00  0.00     0.037 A 
ATOM     53  C   UNL A   1      45.787  27.685  26.610  1.00  0.00     0.037 A 
ATOM     54  C   UNL A   1      41.190  30.784  30.038  1.00  0.00     0.049 A 
ATOM     55  C   UNL A   1      45.736  29.021  27.284  1.00  0.00     0.074 A 
ATOM     56  C   UNL A   1      41.292  32.004  30.687  1.00  0.00     0.029 A 
ATOM     57  N   UNL A   1      42.405  30.568  29.404  1.00  0.00    -0.354 N 
ATOM     58  N   UNL A   1      44.761  29.559  27.975  1.00  0.00    -0.248 NA
ATOM     59  C   UNL A   1      46.932  29.865  27.164  1.00  0.00     0.031 C 
ATOM     60  C   UNL A   1      42.555  32.544  30.413  1.00  0.00     0.029 A 
ATOM     61  C   UNL A   1      43.251  31.645  29.620  1.00  0.00     0.049 A 
ATOM     62  H   UNL A   1      42.633  29.769  28.877  1.00  0.00     0.167 HD
ATOM     63  C   UNL A   1      45.224  30.804  28.376  1.00  0.00     0.074 A 
ATOM     64  C   UNL A   1      46.577  30.929  27.871  1.00  0.00     0.031 C 
ATOM     65  C   UNL A   1      44.585  31.759  29.093  1.00  0.00     0.037 A 
BRANCH  52  66
ATOM     66  C   UNL A   1      38.819  30.268  30.720  1.00  0.00     0.057 A 
ATOM     67  C   UNL A   1      37.876  31.134  30.155  1.00  0.00     0.134 A 
ATOM     68  C   UNL A   1      38.531  29.724  31.976  1.00  0.00     0.134 A 
ATOM     69  F   UNL A   1      38.102  31.704  28.961  1.00  0.00    -0.206 F 
ATOM     70  C   UNL A   1      36.686  31.446  30.816  1.00  0.00     0.040 A 
ATOM     71  C   UNL A   1      37.341  30.020  32.643  1.00  0.00     0.040 A 
ATOM     72  F   UNL A   1      39.398  28.889  32.571  1.00  0.00    -0.206 F 
ATOM     73  C   UNL A   1      36.413  30.882  32.061  1.00  0.00     0.006 A 
ENDBRANCH  52  66
BRANCH  53  74
ATOM     74  C   UNL A   1      47.008  27.224  25.909  1.00  0.00     0.057 A 
ATOM     75  C   UNL A   1      47.228  27.520  24.561  1.00  0.00     0.134 A 
ATOM     76  C   UNL A   1      47.990  26.488  26.582  1.00  0.00     0.134 A 
ATOM     77  F   UNL A   1      46.312  28.207  23.862  1.00  0.00    -0.206 F 
ATOM     78  C   UNL A   1      48.382  27.095  23.902  1.00  0.00     0.040 A 
ATOM     79  C   UNL A   1      49.158  26.075  25.943  1.00  0.00     0.040 A 
ATOM     80  F   UNL A   1      47.835  26.177  27.877  1.00  0.00    -0.206 F 
ATOM     81  C   UNL A   1      49.355  26.376  24.597  1.00  0.00     0.006 A 
ENDBRANCH  53  74
BRANCH  65  82
ATOM     82  C   UNL A   1      45.352  33.017  29.359  1.00  0.00     0.057 A 
ATOM     83  C   UNL A   1      46.179  33.143  30.483  1.00  0.00     0.134 A 
ATOM     84  C   UNL A   1      45.257  34.112  28.492  1.00  0.00     0.134 A 
ATOM     85  F   UNL A   1      46.295  32.132  31.357  1.00  0.00    -0.206 F 
ATOM     86  C   UNL A   1      46.865  34.327  30.751  1.00  0.00     0.040 A 
ATOM     87  C   UNL A   1      45.954  35.295  28.740  1.00  0.00     0.040 A 
ATOM     88  F   UNL A   1      44.484  34.051  27.400  1.00  0.00    -0.206 F 
ATOM     89  C   UNL A   1      46.754  35.408  29.877  1.00  0.00     0.006 A 
ENDBRANCH  65  82
ENDBRANCH  39  40
ENDBRANCH  32  34
ENDBRANCH  31  32
ENDBRANCH  30  31
ENDBRANCH   1  30
TORSDOF 16
ENDMDL
MODEL 3
REMARK VINA RESULT:     -11.9      4.627      9.335
REMARK SMILES Cc1ccnc(C(=O)c2[nH]c3ccc(OC(F)(F)F)cc3c2CC(=O)OCCOC(=O)c2ccc(-c3c4nc(c(-c5c(F)cccc5F)c5ccc([nH]5)c(-c5c(F)cccc5F)c5nc(c(-c6c(F)cccc6F)c6ccc3[nH]6)C=C5)C=C4)cc2)c1
REMARK SMILES IDX 27 1 26 2 24 3 25 4 23 5 22 6 9 7 10 8 11 9 21 11 12 12
REMARK SMILES IDX 20 13 13 14 14 15 7 16 8 17 6 18 1 19 2 20 3 21 86 22 4 23
REMARK SMILES IDX 5 24 15 25 16 26 17 27 18 28 19 29 28 30 29 31 30 32 31 33
REMARK SMILES IDX 32 34 33 35 85 36 34 37 84 38 35 39 36 40 37 41 78 42 38 43
REMARK SMILES IDX 83 44 77 45 79 46 39 47 82 48 76 49 75 50 40 52 66 53 49 54
REMARK SMILES IDX 65 55 50 56 53 57 64 58 80 59 51 60 52 61 63 63 81 64 54 65
REMARK SMILES IDX 41 66 42 67 47 68 43 69 44 70 46 71 48 72 45 73 67 74 68 75
REMARK SMILES IDX 73 76 69 77 70 78 72 79 74 80 71 81 55 82 56 83 61 84 57 85
REMARK SMILES IDX 58 86 60 87 62 88 59 89
REMARK H PARENT 10 10 79 51 53 62
REMARK Flexibility Score: inf
ROOT
ATOM      1  C   UNL A   1      32.555  28.517  25.584  1.00  0.00     0.274 C 
ENDROOT
BRANCH   1   2
ATOM      2  O   UNL A   1      33.615  28.025  24.733  1.00  0.00    -0.462 OA
BRANCH   2   3
ATOM      3  C   UNL A   1      33.390  28.097  23.399  1.00  0.00     0.310 C 
ATOM      4  O   UNL A   1      33.888  28.952  22.666  1.00  0.00    -0.252 OA
BRANCH   3   5
ATOM      5  C   UNL A   1      32.582  26.963  22.809  1.00  0.00     0.161 C 
BRANCH   5   6
ATOM      6  C   UNL A   1      31.188  26.701  23.286  1.00  0.00     0.000 A 
ATOM      7  C   UNL A   1      30.637  25.505  23.748  1.00  0.00     0.093 A 
ATOM      8  N   UNL A   1      29.313  25.751  24.024  1.00  0.00    -0.352 N 
ATOM      9  C   UNL A   1      28.942  26.988  23.577  1.00  0.00     0.046 A 
ATOM     10  H   UNL A   1      28.713  25.120  24.483  1.00  0.00     0.167 HD
ATOM     11  C   UNL A   1      30.102  27.644  23.183  1.00  0.00     0.008 A 
ATOM     12  C   UNL A   1      27.674  27.565  23.503  1.00  0.00     0.030 A 
ATOM     13  C   UNL A   1      29.987  28.981  22.743  1.00  0.00     0.057 A 
ATOM     14  C   UNL A   1      27.584  28.878  23.031  1.00  0.00     0.049 A 
ATOM     15  C   UNL A   1      28.725  29.595  22.671  1.00  0.00     0.130 A 
BRANCH   7  16
ATOM     16  C   UNL A   1      31.166  24.174  24.008  1.00  0.00     0.227 C 
ATOM     17  O   UNL A   1      31.027  23.283  23.172  1.00  0.00    -0.285 OA
BRANCH  16  18
ATOM     18  C   UNL A   1      32.147  23.969  25.142  1.00  0.00     0.113 A 
ATOM     19  C   UNL A   1      35.893  23.775  25.746  1.00  0.00     0.044 C 
ATOM     20  C   UNL A   1      34.406  23.704  25.939  1.00  0.00    -0.047 A 
ATOM     21  C   UNL A   1      33.889  23.090  27.079  1.00  0.00     0.023 A 
ATOM     22  C   UNL A   1      33.517  24.169  24.960  1.00  0.00     0.036 A 
ATOM     23  C   UNL A   1      32.518  22.955  27.194  1.00  0.00     0.112 A 
ATOM     24  N   UNL A   1      31.644  23.371  26.257  1.00  0.00    -0.253 NA
ENDBRANCH  16  18
ENDBRANCH   7  16
BRANCH  15  25
ATOM     25  O   UNL A   1      28.753  30.889  22.230  1.00  0.00    -0.406 OA
BRANCH  25  26
ATOM     26  C   UNL A   1      28.555  31.914  23.189  1.00  0.00     0.573 C 
ATOM     27  F   UNL A   1      27.268  31.955  23.597  1.00  0.00    -0.132 F 
ATOM     28  F   UNL A   1      29.362  31.752  24.259  1.00  0.00    -0.132 F 
ATOM     29  F   UNL A   1      28.850  33.105  22.620  1.00  0.00    -0.132 F 
ENDBRANCH  25  26
ENDBRANCH  15  25
ENDBRANCH   5   6
ENDBRANCH   3   5
ENDBRANCH   2   3
ENDBRANCH   1   2
BRANCH   1  30
ATOM     30  C   UNL A   1      32.543  30.052  25.672  1.00  0.00     0.275 C 
BRANCH  30  31
ATOM     31  O   UNL A   1      32.442  30.540  27.029  1.00  0.00    -0.458 OA
BRANCH  31  32
ATOM     32  C   UNL A   1      33.211  31.621  27.260  1.00  0.00     0.338 C 
ATOM     33  O   UNL A   1      32.850  32.786  27.259  1.00  0.00    -0.246 OA
BRANCH  32  34
ATOM     34  C   UNL A   1      34.575  31.293  27.671  1.00  0.00     0.060 A 
ATOM     35  C   UNL A   1      34.802  29.991  28.120  1.00  0.00     0.016 A 
ATOM     36  C   UNL A   1      35.523  32.295  27.888  1.00  0.00     0.016 A 
ATOM     37  C   UNL A   1      35.934  29.703  28.862  1.00  0.00     0.010 A 
ATOM     38  C   UNL A   1      36.704  31.982  28.569  1.00  0.00     0.010 A 
ATOM     39  C   UNL A   1      36.903  30.692  29.088  1.00  0.00    -0.014 A 
BRANCH  39  40
ATOM     40  C   UNL A   1      38.125  30.311  29.836  1.00  0.00     0.031 A 
ATOM     41  C   UNL A   1      38.363  30.783  31.240  1.00  0.00     0.074 A 
ATOM     42  C   UNL A   1      38.973  29.440  29.259  1.00  0.00     0.049 A 
ATOM     43  N   UNL A   1      39.321  30.450  32.068  1.00  0.00    -0.248 NA
ATOM     44  C   UNL A   1      37.398  31.742  31.796  1.00  0.00     0.031 C 
ATOM     45  C   UNL A   1      38.823  28.888  27.910  1.00  0.00     0.029 A 
ATOM     46  N   UNL A   1      40.108  28.843  29.740  1.00  0.00    -0.354 N 
ATOM     47  C   UNL A   1      39.064  31.136  33.247  1.00  0.00     0.074 A 
ATOM     48  C   UNL A   1      37.876  31.932  33.020  1.00  0.00     0.031 C 
ATOM     49  C   UNL A   1      39.806  28.007  27.685  1.00  0.00     0.029 A 
ATOM     50  C   UNL A   1      40.683  27.971  28.850  1.00  0.00     0.049 A 
ATOM     51  H   UNL A   1      40.475  29.022  30.636  1.00  0.00     0.167 HD
ATOM     52  C   UNL A   1      39.753  31.099  34.412  1.00  0.00     0.037 A 
ATOM     53  C   UNL A   1      41.804  27.237  28.953  1.00  0.00     0.037 A 
ATOM     54  C   UNL A   1      40.960  30.342  34.621  1.00  0.00     0.049 A 
ATOM     55  C   UNL A   1      42.606  27.303  30.215  1.00  0.00     0.074 A 
ATOM     56  C   UNL A   1      41.745  30.261  35.759  1.00  0.00     0.029 A 
ATOM     57  N   UNL A   1      41.567  29.547  33.661  1.00  0.00    -0.354 N 
ATOM     58  N   UNL A   1      42.344  27.948  31.326  1.00  0.00    -0.248 NA
ATOM     59  C   UNL A   1      43.867  26.551  30.234  1.00  0.00     0.031 C 
ATOM     60  C   UNL A   1      42.849  29.447  35.475  1.00  0.00     0.029 A 
ATOM     61  C   UNL A   1      42.733  28.995  34.170  1.00  0.00     0.049 A 
ATOM     62  H   UNL A   1      41.223  29.396  32.751  1.00  0.00     0.167 HD
ATOM     63  C   UNL A   1      43.405  27.680  32.178  1.00  0.00     0.074 A 
ATOM     64  C   UNL A   1      44.301  26.792  31.463  1.00  0.00     0.031 C 
ATOM     65  C   UNL A   1      43.620  28.131  33.437  1.00  0.00     0.037 A 
BRANCH  52  66
ATOM     66  C   UNL A   1      39.227  31.917  35.553  1.00  0.00     0.057 A 
ATOM     67  C   UNL A   1      39.570  33.267  35.702  1.00  0.00     0.134 A 
ATOM     68  C   UNL A   1      38.328  31.370  36.475  1.00  0.00     0.134 A 
ATOM     69  F   UNL A   1      40.443  33.845  34.862  1.00  0.00    -0.206 F 
ATOM     70  C   UNL A   1      39.035  34.044  36.731  1.00  0.00     0.040 A 
ATOM     71  C   UNL A   1      37.778  32.140  37.501  1.00  0.00     0.040 A 
ATOM     72  F   UNL A   1      37.962  30.082  36.386  1.00  0.00    -0.206 F 
ATOM     73  C   UNL A   1      38.130  33.482  37.630  1.00  0.00     0.006 A 
ENDBRANCH  52  66
BRANCH  53  74
ATOM     74  C   UNL A   1      42.241  26.406  27.807  1.00  0.00     0.057 A 
ATOM     75  C   UNL A   1      41.878  25.060  27.705  1.00  0.00     0.134 A 
ATOM     76  C   UNL A   1      43.022  26.949  26.779  1.00  0.00     0.134 A 
ATOM     77  F   UNL A   1      41.146  24.483  28.669  1.00  0.00    -0.206 F 
ATOM     78  C   UNL A   1      42.281  24.279  26.622  1.00  0.00     0.040 A 
ATOM     79  C   UNL A   1      43.413  26.186  25.680  1.00  0.00     0.040 A 
ATOM     80  F   UNL A   1      43.398  28.235  26.822  1.00  0.00    -0.206 F 
ATOM     81  C   UNL A   1      43.046  24.845  25.601  1.00  0.00     0.006 A 
ENDBRANCH  53  74
BRANCH  65  82
ATOM     82  C   UNL A   1      44.879  27.670  34.103  1.00  0.00     0.057 A 
ATOM     83  C   UNL A   1      44.916  26.484  34.849  1.00  0.00     0.134 A 
ATOM     84  C   UNL A   1      46.058  28.418  34.009  1.00  0.00     0.134 A 
ATOM     85  F   UNL A   1      43.812  25.735  34.989  1.00  0.00    -0.206 F 
ATOM     86  C   UNL A   1      46.078  26.072  35.501  1.00  0.00     0.040 A 
ATOM     87  C   UNL A   1      47.231  28.006  34.641  1.00  0.00     0.040 A 
ATOM     88  F   UNL A   1      46.085  29.560  33.308  1.00  0.00    -0.206 F 
ATOM     89  C   UNL A   1      47.240  26.834  35.396  1.00  0.00     0.006 A 
ENDBRANCH  65  82
ENDBRANCH  39  40
ENDBRANCH  32  34
ENDBRANCH  31  32
ENDBRANCH  30  31
ENDBRANCH   1  30
TORSDOF 16
ENDMDL
