MODEL 1
REMARK VINA RESULT:     -12.5      0.000      0.000
REMARK SMILES CN1C(=O)/C(=C\c2ccc(-c3ccccc3C(=O)OCCOC(=O)c3ccc(-c4c5nc(c(-c6c(F)cccc6F)c6ccc([nH]6)c(-c6c(F)cccc6F)c6nc(c(-c7c(F)cccc7F)c7ccc4[nH]7)C=C6)C=C5)cc3)o2)C(=O)[NH+]=C1S
REMARK SMILES IDX 20 1 19 2 17 3 18 4 16 5 11 6 12 7 13 8 15 9 14 10 10 11
REMARK SMILES IDX 7 12 8 13 79 14 9 15 6 16 1 17 2 18 3 19 83 20 4 21 5 22
REMARK SMILES IDX 82 23 80 24 81 26 84 27 21 29 22 30 23 31 24 32 25 33 26 34
REMARK SMILES IDX 78 35 27 36 77 37 28 38 29 39 30 40 71 41 31 42 76 43 70 44
REMARK SMILES IDX 72 45 32 46 75 47 69 48 68 49 33 51 59 52 42 53 58 54 43 55
REMARK SMILES IDX 46 56 57 57 73 58 44 59 45 60 56 62 74 63 47 64 34 65 35 66
REMARK SMILES IDX 40 67 36 68 37 69 39 70 41 71 38 72 60 73 61 74 66 75 62 76
REMARK SMILES IDX 63 77 65 78 67 79 64 80 48 81 49 82 54 83 50 84 51 85 53 86
REMARK SMILES IDX 55 87 52 88
REMARK H PARENT 82 25 84 28 72 50 46 61
REMARK Flexibility Score: inf
ROOT
ATOM      1  C   UNL A   1      32.715  28.658  25.079  1.00  0.00     0.275 C 
ENDROOT
BRANCH   1   2
ATOM      2  O   UNL A   1      32.803  28.804  23.648  1.00  0.00    -0.458 OA
BRANCH   2   3
ATOM      3  C   UNL A   1      32.174  27.892  22.867  1.00  0.00     0.338 C 
ATOM      4  O   UNL A   1      32.705  27.041  22.173  1.00  0.00    -0.246 OA
BRANCH   3   5
ATOM      5  C   UNL A   1      30.699  28.031  22.992  1.00  0.00     0.071 A 
ATOM      6  C   UNL A   1      29.888  26.958  23.398  1.00  0.00     0.032 A 
ATOM      7  C   UNL A   1      28.501  27.156  23.503  1.00  0.00     0.013 A 
ATOM      8  C   UNL A   1      27.930  28.398  23.213  1.00  0.00     0.001 A 
ATOM      9  C   UNL A   1      30.120  29.285  22.737  1.00  0.00     0.016 A 
ATOM     10  C   UNL A   1      28.740  29.462  22.827  1.00  0.00     0.001 A 
BRANCH   6  11
ATOM     11  C   UNL A   1      30.465  25.674  23.751  1.00  0.00     0.135 A 
ATOM     12  C   UNL A   1      31.421  24.290  25.171  1.00  0.00     0.128 A 
ATOM     13  C   UNL A   1      31.029  23.547  24.064  1.00  0.00     0.051 A 
ATOM     14  O   UNL A   1      31.013  25.585  24.991  1.00  0.00    -0.457 OA
ATOM     15  C   UNL A   1      30.510  24.450  23.119  1.00  0.00     0.051 A 
BRANCH  12  16
ATOM     16  C   UNL A   1      32.214  23.867  26.262  1.00  0.00     0.071 C 
ATOM     17  C   UNL A   1      35.871  23.100  23.232  1.00  0.00     0.301 C 
ATOM     18  N   UNL A   1      35.348  23.067  24.595  1.00  0.00    -0.189 N 
ATOM     19  C   UNL A   1      34.220  23.830  24.795  1.00  0.00     0.349 C 
ATOM     20  C   UNL A   1      35.953  22.479  25.675  1.00  0.00     0.318 C 
ATOM     21  O   UNL A   1      33.859  24.673  23.977  1.00  0.00    -0.240 OA
ATOM     22  C   UNL A   1      33.519  23.588  26.076  1.00  0.00     0.157 C 
ATOM     23  N   UNL A   1      35.484  22.436  26.869  1.00  0.00    -0.200 N 
ATOM     24  C   UNL A   1      34.254  22.945  27.181  1.00  0.00     0.347 C 
ATOM     25  H   UNL A   1      36.025  22.024  27.580  1.00  0.00     0.316 HD
ATOM     26  O   UNL A   1      33.766  22.837  28.295  1.00  0.00    -0.241 OA
BRANCH  20  27
ATOM     27  S   UNL A   1      37.517  21.739  25.455  1.00  0.00    -0.055 SA
ATOM     28  H   UNL A   1      38.447  22.418  26.179  1.00  0.00     0.116 HD
ENDBRANCH  20  27
ENDBRANCH  12  16
ENDBRANCH   6  11
ENDBRANCH   3   5
ENDBRANCH   2   3
ENDBRANCH   1   2
BRANCH   1  29
ATOM     29  C   UNL A   1      32.101  29.909  25.697  1.00  0.00     0.275 C 
BRANCH  29  30
ATOM     30  O   UNL A   1      32.602  30.073  27.031  1.00  0.00    -0.458 OA
BRANCH  30  31
ATOM     31  C   UNL A   1      33.185  31.270  27.255  1.00  0.00     0.338 C 
ATOM     32  O   UNL A   1      32.690  32.380  27.199  1.00  0.00    -0.246 OA
BRANCH  31  33
ATOM     33  C   UNL A   1      34.556  31.041  27.702  1.00  0.00     0.060 A 
ATOM     34  C   UNL A   1      34.949  29.735  27.989  1.00  0.00     0.016 A 
ATOM     35  C   UNL A   1      35.389  32.116  27.974  1.00  0.00     0.016 A 
ATOM     36  C   UNL A   1      36.138  29.495  28.658  1.00  0.00     0.010 A 
ATOM     37  C   UNL A   1      36.629  31.867  28.555  1.00  0.00     0.010 A 
ATOM     38  C   UNL A   1      36.994  30.560  28.940  1.00  0.00    -0.014 A 
BRANCH  38  39
ATOM     39  C   UNL A   1      38.259  30.351  29.681  1.00  0.00     0.031 A 
ATOM     40  C   UNL A   1      39.307  29.458  29.086  1.00  0.00     0.074 A 
ATOM     41  C   UNL A   1      38.435  30.895  30.898  1.00  0.00     0.049 A 
ATOM     42  N   UNL A   1      40.317  28.863  29.663  1.00  0.00    -0.248 NA
ATOM     43  C   UNL A   1      39.174  29.168  27.649  1.00  0.00     0.031 C 
ATOM     44  C   UNL A   1      37.522  31.834  31.552  1.00  0.00     0.029 A 
ATOM     45  N   UNL A   1      39.432  30.702  31.820  1.00  0.00    -0.354 N 
ATOM     46  C   UNL A   1      40.895  28.071  28.680  1.00  0.00     0.074 A 
ATOM     47  C   UNL A   1      40.119  28.257  27.473  1.00  0.00     0.031 C 
ATOM     48  C   UNL A   1      37.992  32.125  32.773  1.00  0.00     0.029 A 
ATOM     49  C   UNL A   1      39.180  31.318  33.021  1.00  0.00     0.049 A 
ATOM     50  H   UNL A   1      40.244  30.176  31.639  1.00  0.00     0.167 HD
ATOM     51  C   UNL A   1      41.970  27.255  28.789  1.00  0.00     0.037 A 
ATOM     52  C   UNL A   1      39.790  31.188  34.213  1.00  0.00     0.037 A 
ATOM     53  C   UNL A   1      42.740  27.119  29.999  1.00  0.00     0.049 A 
ATOM     54  C   UNL A   1      40.948  30.243  34.334  1.00  0.00     0.074 A 
ATOM     55  C   UNL A   1      43.865  26.348  30.224  1.00  0.00     0.029 A 
ATOM     56  N   UNL A   1      42.458  27.776  31.190  1.00  0.00    -0.354 N 
ATOM     57  N   UNL A   1      41.475  29.464  33.419  1.00  0.00    -0.248 NA
ATOM     58  C   UNL A   1      41.593  30.148  35.650  1.00  0.00     0.031 C 
ATOM     59  C   UNL A   1      44.230  26.494  31.566  1.00  0.00     0.029 A 
ATOM     60  C   UNL A   1      43.374  27.410  32.160  1.00  0.00     0.049 A 
ATOM     61  H   UNL A   1      41.714  28.407  31.324  1.00  0.00     0.167 HD
ATOM     62  C   UNL A   1      42.532  28.811  34.036  1.00  0.00     0.074 A 
ATOM     63  C   UNL A   1      42.568  29.283  35.406  1.00  0.00     0.031 C 
ATOM     64  C   UNL A   1      43.399  27.909  33.513  1.00  0.00     0.037 A 
BRANCH  51  65
ATOM     65  C   UNL A   1      42.326  26.415  27.595  1.00  0.00     0.057 A 
ATOM     66  C   UNL A   1      41.842  25.113  27.416  1.00  0.00     0.134 A 
ATOM     67  C   UNL A   1      43.188  26.919  26.611  1.00  0.00     0.134 A 
ATOM     68  F   UNL A   1      41.023  24.561  28.324  1.00  0.00    -0.206 F 
ATOM     69  C   UNL A   1      42.238  24.327  26.331  1.00  0.00     0.040 A 
ATOM     70  C   UNL A   1      43.563  26.156  25.503  1.00  0.00     0.040 A 
ATOM     71  F   UNL A   1      43.685  28.161  26.711  1.00  0.00    -0.206 F 
ATOM     72  C   UNL A   1      43.099  24.851  25.368  1.00  0.00     0.006 A 
ENDBRANCH  51  65
BRANCH  52  73
ATOM     73  C   UNL A   1      39.274  31.949  35.377  1.00  0.00     0.057 A 
ATOM     74  C   UNL A   1      39.649  33.279  35.593  1.00  0.00     0.134 A 
ATOM     75  C   UNL A   1      38.342  31.390  36.263  1.00  0.00     0.134 A 
ATOM     76  F   UNL A   1      40.546  33.865  34.787  1.00  0.00    -0.206 F 
ATOM     77  C   UNL A   1      39.116  34.026  36.644  1.00  0.00     0.040 A 
ATOM     78  C   UNL A   1      37.781  32.133  37.301  1.00  0.00     0.040 A 
ATOM     79  F   UNL A   1      37.931  30.122  36.102  1.00  0.00    -0.206 F 
ATOM     80  C   UNL A   1      38.170  33.456  37.495  1.00  0.00     0.006 A 
ENDBRANCH  52  73
BRANCH  64  81
ATOM     81  C   UNL A   1      44.506  27.422  34.400  1.00  0.00     0.057 A 
ATOM     82  C   UNL A   1      44.395  26.250  35.157  1.00  0.00     0.134 A 
ATOM     83  C   UNL A   1      45.732  28.100  34.428  1.00  0.00     0.134 A 
ATOM     84  F   UNL A   1      43.242  25.565  35.185  1.00  0.00    -0.206 F 
ATOM     85  C   UNL A   1      45.464  25.772  35.915  1.00  0.00     0.040 A 
ATOM     86  C   UNL A   1      46.817  27.618  35.159  1.00  0.00     0.040 A 
ATOM     87  F   UNL A   1      45.904  29.226  33.719  1.00  0.00    -0.206 F 
ATOM     88  C   UNL A   1      46.683  26.450  35.908  1.00  0.00     0.006 A 
ENDBRANCH  64  81
ENDBRANCH  38  39
ENDBRANCH  31  33
ENDBRANCH  30  31
ENDBRANCH  29  30
ENDBRANCH   1  29
TORSDOF 14
ENDMDL
MODEL 2
REMARK VINA RESULT:     -12.4      4.020      7.295
REMARK SMILES CN1C(=O)/C(=C\c2ccc(-c3ccccc3C(=O)OCCOC(=O)c3ccc(-c4c5nc(c(-c6c(F)cccc6F)c6ccc([nH]6)c(-c6c(F)cccc6F)c6nc(c(-c7c(F)cccc7F)c7ccc4[nH]7)C=C6)C=C5)cc3)o2)C(=O)[NH+]=C1S
REMARK SMILES IDX 20 1 19 2 17 3 18 4 16 5 11 6 12 7 13 8 15 9 14 10 10 11
REMARK SMILES IDX 7 12 8 13 79 14 9 15 6 16 1 17 2 18 3 19 83 20 4 21 5 22
REMARK SMILES IDX 82 23 80 24 81 26 84 27 21 29 22 30 23 31 24 32 25 33 26 34
REMARK SMILES IDX 78 35 27 36 77 37 28 38 29 39 30 40 71 41 31 42 76 43 70 44
REMARK SMILES IDX 72 45 32 46 75 47 69 48 68 49 33 51 59 52 42 53 58 54 43 55
REMARK SMILES IDX 46 56 57 57 73 58 44 59 45 60 56 62 74 63 47 64 34 65 35 66
REMARK SMILES IDX 40 67 36 68 37 69 39 70 41 71 38 72 60 73 61 74 66 75 62 76
REMARK SMILES IDX 63 77 65 78 67 79 64 80 48 81 49 82 54 83 50 84 51 85 53 86
REMARK SMILES IDX 55 87 52 88
REMARK H PARENT 82 25 84 28 72 50 46 61
REMARK Flexibility Score: inf
ROOT
ATOM      1  C   UNL A   1      34.075  28.695  26.067  1.00  0.00     0.275 C 
ENDROOT
BRANCH   1   2
ATOM      2  O   UNL A   1      33.160  27.584  25.990  1.00  0.00    -0.458 OA
BRANCH   2   3
ATOM      3  C   UNL A   1      33.037  26.929  24.810  1.00  0.00     0.338 C 
ATOM      4  O   UNL A   1      33.792  26.079  24.369  1.00  0.00    -0.246 OA
BRANCH   3   5
ATOM      5  C   UNL A   1      31.800  27.360  24.105  1.00  0.00     0.071 A 
ATOM      6  C   UNL A   1      30.598  26.642  24.219  1.00  0.00     0.032 A 
ATOM      7  C   UNL A   1      29.462  27.104  23.533  1.00  0.00     0.013 A 
ATOM      8  C   UNL A   1      29.519  28.260  22.750  1.00  0.00     0.001 A 
ATOM      9  C   UNL A   1      31.838  28.540  23.346  1.00  0.00     0.016 A 
ATOM     10  C   UNL A   1      30.709  28.978  22.654  1.00  0.00     0.001 A 
BRANCH   6  11
ATOM     11  C   UNL A   1      30.504  25.466  25.064  1.00  0.00     0.135 A 
ATOM     12  C   UNL A   1      31.027  23.391  25.582  1.00  0.00     0.128 A 
ATOM     13  C   UNL A   1      30.374  23.942  26.678  1.00  0.00     0.051 A 
ATOM     14  O   UNL A   1      31.154  24.357  24.621  1.00  0.00    -0.457 OA
ATOM     15  C   UNL A   1      29.955  25.232  26.306  1.00  0.00     0.051 A 
BRANCH  12  16
ATOM     16  C   UNL A   1      31.403  22.042  25.386  1.00  0.00     0.071 C 
ATOM     17  C   UNL A   1      36.017  23.321  25.866  1.00  0.00     0.301 C 
ATOM     18  N   UNL A   1      35.026  22.273  25.632  1.00  0.00    -0.189 N 
ATOM     19  C   UNL A   1      33.744  22.601  26.008  1.00  0.00     0.349 C 
ATOM     20  C   UNL A   1      35.292  20.993  25.222  1.00  0.00     0.318 C 
ATOM     21  O   UNL A   1      33.511  23.570  26.727  1.00  0.00    -0.240 OA
ATOM     22  C   UNL A   1      32.693  21.678  25.524  1.00  0.00     0.157 C 
ATOM     23  N   UNL A   1      34.420  20.078  25.000  1.00  0.00    -0.200 N 
ATOM     24  C   UNL A   1      33.077  20.318  25.100  1.00  0.00     0.347 C 
ATOM     25  H   UNL A   1      34.726  19.176  24.750  1.00  0.00     0.316 HD
ATOM     26  O   UNL A   1      32.239  19.478  24.813  1.00  0.00    -0.241 OA
BRANCH  20  27
ATOM     27  S   UNL A   1      36.955  20.515  25.001  1.00  0.00    -0.055 SA
ATOM     28  H   UNL A   1      37.621  21.488  24.325  1.00  0.00     0.116 HD
ENDBRANCH  20  27
ENDBRANCH  12  16
ENDBRANCH   6  11
ENDBRANCH   3   5
ENDBRANCH   2   3
ENDBRANCH   1   2
BRANCH   1  29
ATOM     29  C   UNL A   1      34.088  29.267  27.480  1.00  0.00     0.275 C 
BRANCH  29  30
ATOM     30  O   UNL A   1      34.869  30.471  27.496  1.00  0.00    -0.458 OA
BRANCH  30  31
ATOM     31  C   UNL A   1      35.539  30.674  28.651  1.00  0.00     0.338 C 
ATOM     32  O   UNL A   1      35.183  31.289  29.639  1.00  0.00    -0.246 OA
BRANCH  31  33
ATOM     33  C   UNL A   1      36.790  29.923  28.598  1.00  0.00     0.060 A 
ATOM     34  C   UNL A   1      37.254  29.328  29.769  1.00  0.00     0.016 A 
ATOM     35  C   UNL A   1      37.561  29.936  27.446  1.00  0.00     0.016 A 
ATOM     36  C   UNL A   1      38.546  28.834  29.837  1.00  0.00     0.010 A 
ATOM     37  C   UNL A   1      38.823  29.349  27.484  1.00  0.00     0.010 A 
ATOM     38  C   UNL A   1      39.342  28.834  28.690  1.00  0.00    -0.014 A 
BRANCH  38  39
ATOM     39  C   UNL A   1      40.739  28.344  28.726  1.00  0.00     0.031 A 
ATOM     40  C   UNL A   1      41.846  29.332  28.948  1.00  0.00     0.074 A 
ATOM     41  C   UNL A   1      41.015  27.049  28.494  1.00  0.00     0.049 A 
ATOM     42  N   UNL A   1      43.123  29.219  28.695  1.00  0.00    -0.248 NA
ATOM     43  C   UNL A   1      41.451  30.639  29.497  1.00  0.00     0.031 C 
ATOM     44  C   UNL A   1      40.024  25.983  28.335  1.00  0.00     0.029 A 
ATOM     45  N   UNL A   1      42.218  26.417  28.314  1.00  0.00    -0.354 N 
ATOM     46  C   UNL A   1      43.671  30.463  28.982  1.00  0.00     0.074 A 
ATOM     47  C   UNL A   1      42.587  31.315  29.422  1.00  0.00     0.031 C 
ATOM     48  C   UNL A   1      40.659  24.832  28.067  1.00  0.00     0.029 A 
ATOM     49  C   UNL A   1      42.085  25.103  27.938  1.00  0.00     0.049 A 
ATOM     50  H   UNL A   1      43.088  26.861  28.441  1.00  0.00     0.167 HD
ATOM     51  C   UNL A   1      44.964  30.851  28.873  1.00  0.00     0.037 A 
ATOM     52  C   UNL A   1      42.997  24.234  27.466  1.00  0.00     0.037 A 
ATOM     53  C   UNL A   1      46.023  29.967  28.462  1.00  0.00     0.049 A 
ATOM     54  C   UNL A   1      44.415  24.691  27.302  1.00  0.00     0.074 A 
ATOM     55  C   UNL A   1      47.374  30.235  28.342  1.00  0.00     0.029 A 
ATOM     56  N   UNL A   1      45.844  28.636  28.105  1.00  0.00    -0.354 N 
ATOM     57  N   UNL A   1      44.932  25.874  27.535  1.00  0.00    -0.248 NA
ATOM     58  C   UNL A   1      45.377  23.702  26.801  1.00  0.00     0.031 C 
ATOM     59  C   UNL A   1      48.004  29.084  27.858  1.00  0.00     0.029 A 
ATOM     60  C   UNL A   1      47.057  28.076  27.743  1.00  0.00     0.049 A 
ATOM     61  H   UNL A   1      44.981  28.162  28.109  1.00  0.00     0.167 HD
ATOM     62  C   UNL A   1      46.283  25.765  27.242  1.00  0.00     0.074 A 
ATOM     63  C   UNL A   1      46.505  24.400  26.809  1.00  0.00     0.031 C 
ATOM     64  C   UNL A   1      47.254  26.708  27.332  1.00  0.00     0.037 A 
BRANCH  51  65
ATOM     65  C   UNL A   1      45.278  32.296  29.142  1.00  0.00     0.057 A 
ATOM     66  C   UNL A   1      45.672  32.762  30.402  1.00  0.00     0.134 A 
ATOM     67  C   UNL A   1      45.166  33.244  28.116  1.00  0.00     0.134 A 
ATOM     68  F   UNL A   1      45.788  31.912  31.435  1.00  0.00    -0.206 F 
ATOM     69  C   UNL A   1      45.896  34.119  30.645  1.00  0.00     0.040 A 
ATOM     70  C   UNL A   1      45.422  34.599  28.336  1.00  0.00     0.040 A 
ATOM     71  F   UNL A   1      44.800  32.872  26.879  1.00  0.00    -0.206 F 
ATOM     72  C   UNL A   1      45.774  35.041  29.608  1.00  0.00     0.006 A 
ENDBRANCH  51  65
BRANCH  52  73
ATOM     73  C   UNL A   1      42.564  22.867  27.086  1.00  0.00     0.057 A 
ATOM     74  C   UNL A   1      42.489  22.482  25.744  1.00  0.00     0.134 A 
ATOM     75  C   UNL A   1      42.282  21.892  28.053  1.00  0.00     0.134 A 
ATOM     76  F   UNL A   1      42.735  23.372  24.772  1.00  0.00    -0.206 F 
ATOM     77  C   UNL A   1      42.151  21.178  25.376  1.00  0.00     0.040 A 
ATOM     78  C   UNL A   1      41.970  20.579  27.702  1.00  0.00     0.040 A 
ATOM     79  F   UNL A   1      42.350  22.195  29.360  1.00  0.00    -0.206 F 
ATOM     80  C   UNL A   1      41.902  20.220  26.357  1.00  0.00     0.006 A 
ENDBRANCH  52  73
BRANCH  64  81
ATOM     81  C   UNL A   1      48.658  26.283  27.024  1.00  0.00     0.057 A 
ATOM     82  C   UNL A   1      49.475  25.660  27.975  1.00  0.00     0.134 A 
ATOM     83  C   UNL A   1      49.168  26.431  25.727  1.00  0.00     0.134 A 
ATOM     84  F   UNL A   1      49.052  25.504  29.238  1.00  0.00    -0.206 F 
ATOM     85  C   UNL A   1      50.752  25.203  27.647  1.00  0.00     0.040 A 
ATOM     86  C   UNL A   1      50.430  25.953  25.379  1.00  0.00     0.040 A 
ATOM     87  F   UNL A   1      48.431  27.014  24.769  1.00  0.00    -0.206 F 
ATOM     88  C   UNL A   1      51.228  25.338  26.343  1.00  0.00     0.006 A 
ENDBRANCH  64  81
ENDBRANCH  38  39
ENDBRANCH  31  33
ENDBRANCH  30  31
ENDBRANCH  29  30
ENDBRANCH   1  29
TORSDOF 14
ENDMDL
MODEL 3
REMARK VINA RESULT:     -12.4      4.217      7.510
REMARK SMILES CN1C(=O)/C(=C\c2ccc(-c3ccccc3C(=O)OCCOC(=O)c3ccc(-c4c5nc(c(-c6c(F)cccc6F)c6ccc([nH]6)c(-c6c(F)cccc6F)c6nc(c(-c7c(F)cccc7F)c7ccc4[nH]7)C=C6)C=C5)cc3)o2)C(=O)[NH+]=C1S
REMARK SMILES IDX 20 1 19 2 17 3 18 4 16 5 11 6 12 7 13 8 15 9 14 10 10 11
REMARK SMILES IDX 7 12 8 13 79 14 9 15 6 16 1 17 2 18 3 19 83 20 4 21 5 22
REMARK SMILES IDX 82 23 80 24 81 26 84 27 21 29 22 30 23 31 24 32 25 33 26 34
REMARK SMILES IDX 78 35 27 36 77 37 28 38 29 39 30 40 71 41 31 42 76 43 70 44
REMARK SMILES IDX 72 45 32 46 75 47 69 48 68 49 33 51 59 52 42 53 58 54 43 55
REMARK SMILES IDX 46 56 57 57 73 58 44 59 45 60 56 62 74 63 47 64 34 65 35 66
REMARK SMILES IDX 40 67 36 68 37 69 39 70 41 71 38 72 60 73 61 74 66 75 62 76
REMARK SMILES IDX 63 77 65 78 67 79 64 80 48 81 49 82 54 83 50 84 51 85 53 86
REMARK SMILES IDX 55 87 52 88
REMARK H PARENT 82 25 84 28 72 50 46 61
REMARK Flexibility Score: inf
ROOT
ATOM      1  C   UNL A   1      34.039  28.878  26.117  1.00  0.00     0.275 C 
ENDROOT
BRANCH   1   2
ATOM      2  O   UNL A   1      33.416  27.732  26.730  1.00  0.00    -0.458 OA
BRANCH   2   3
ATOM      3  C   UNL A   1      32.063  27.691  26.795  1.00  0.00     0.338 C 
ATOM      4  O   UNL A   1      31.379  27.840  27.794  1.00  0.00    -0.246 OA
BRANCH   3   5
ATOM      5  C   UNL A   1      31.485  27.474  25.442  1.00  0.00     0.071 A 
ATOM      6  C   UNL A   1      31.479  26.206  24.836  1.00  0.00     0.032 A 
ATOM      7  C   UNL A   1      30.912  26.066  23.559  1.00  0.00     0.013 A 
ATOM      8  C   UNL A   1      30.357  27.164  22.896  1.00  0.00     0.001 A 
ATOM      9  C   UNL A   1      30.893  28.564  24.784  1.00  0.00     0.016 A 
ATOM     10  C   UNL A   1      30.350  28.415  23.508  1.00  0.00     0.001 A 
BRANCH   6  11
ATOM     11  C   UNL A   1      32.007  25.043  25.526  1.00  0.00     0.135 A 
ATOM     12  C   UNL A   1      33.639  23.663  26.053  1.00  0.00     0.128 A 
ATOM     13  C   UNL A   1      32.575  23.395  26.906  1.00  0.00     0.051 A 
ATOM     14  O   UNL A   1      33.298  24.720  25.252  1.00  0.00    -0.457 OA
ATOM     15  C   UNL A   1      31.502  24.210  26.500  1.00  0.00     0.051 A 
BRANCH  12  16
ATOM     16  C   UNL A   1      34.837  22.929  25.907  1.00  0.00     0.071 C 
ATOM     17  C   UNL A   1      32.291  19.228  24.183  1.00  0.00     0.301 C 
ATOM     18  N   UNL A   1      33.587  19.790  24.555  1.00  0.00    -0.189 N 
ATOM     19  C   UNL A   1      33.607  21.162  24.665  1.00  0.00     0.349 C 
ATOM     20  C   UNL A   1      34.765  19.098  24.655  1.00  0.00     0.318 C 
ATOM     21  O   UNL A   1      32.699  21.858  24.218  1.00  0.00    -0.240 OA
ATOM     22  C   UNL A   1      34.817  21.721  25.310  1.00  0.00     0.157 C 
ATOM     23  N   UNL A   1      35.900  19.589  24.999  1.00  0.00    -0.200 N 
ATOM     24  C   UNL A   1      36.038  20.897  25.371  1.00  0.00     0.347 C 
ATOM     25  H   UNL A   1      36.693  19.007  24.995  1.00  0.00     0.316 HD
ATOM     26  O   UNL A   1      37.097  21.352  25.777  1.00  0.00    -0.241 OA
BRANCH  20  27
ATOM     27  S   UNL A   1      34.772  17.399  24.256  1.00  0.00    -0.055 SA
ATOM     28  H   UNL A   1      35.722  16.763  24.992  1.00  0.00     0.116 HD
ENDBRANCH  20  27
ENDBRANCH  12  16
ENDBRANCH   6  11
ENDBRANCH   3   5
ENDBRANCH   2   3
ENDBRANCH   1   2
BRANCH   1  29
ATOM     29  C   UNL A   1      33.948  30.083  27.047  1.00  0.00     0.275 C 
BRANCH  29  30
ATOM     30  O   UNL A   1      34.636  29.789  28.271  1.00  0.00    -0.458 OA
BRANCH  30  31
ATOM     31  C   UNL A   1      35.654  30.633  28.545  1.00  0.00     0.338 C 
ATOM     32  O   UNL A   1      35.604  31.803  28.876  1.00  0.00    -0.246 OA
BRANCH  31  33
ATOM     33  C   UNL A   1      36.905  29.883  28.486  1.00  0.00     0.060 A 
ATOM     34  C   UNL A   1      37.366  29.273  29.651  1.00  0.00     0.016 A 
ATOM     35  C   UNL A   1      37.680  29.910  27.336  1.00  0.00     0.016 A 
ATOM     36  C   UNL A   1      38.658  28.779  29.716  1.00  0.00     0.010 A 
ATOM     37  C   UNL A   1      38.942  29.324  27.370  1.00  0.00     0.010 A 
ATOM     38  C   UNL A   1      39.457  28.793  28.571  1.00  0.00    -0.014 A 
BRANCH  38  39
ATOM     39  C   UNL A   1      40.854  28.303  28.606  1.00  0.00     0.031 A 
ATOM     40  C   UNL A   1      41.964  29.295  28.794  1.00  0.00     0.074 A 
ATOM     41  C   UNL A   1      41.127  27.003  28.401  1.00  0.00     0.049 A 
ATOM     42  N   UNL A   1      43.238  29.175  28.531  1.00  0.00    -0.248 NA
ATOM     43  C   UNL A   1      41.575  30.615  29.317  1.00  0.00     0.031 C 
ATOM     44  C   UNL A   1      40.134  25.934  28.275  1.00  0.00     0.029 A 
ATOM     45  N   UNL A   1      42.328  26.366  28.224  1.00  0.00    -0.354 N 
ATOM     46  C   UNL A   1      43.790  30.425  28.785  1.00  0.00     0.074 A 
ATOM     47  C   UNL A   1      42.711  31.287  29.215  1.00  0.00     0.031 C 
ATOM     48  C   UNL A   1      40.765  24.777  28.028  1.00  0.00     0.029 A 
ATOM     49  C   UNL A   1      42.190  25.044  27.880  1.00  0.00     0.049 A 
ATOM     50  H   UNL A   1      43.200  26.811  28.332  1.00  0.00     0.167 HD
ATOM     51  C   UNL A   1      45.082  30.809  28.654  1.00  0.00     0.037 A 
ATOM     52  C   UNL A   1      43.097  24.163  27.419  1.00  0.00     0.037 A 
ATOM     53  C   UNL A   1      46.137  29.914  28.254  1.00  0.00     0.049 A 
ATOM     54  C   UNL A   1      44.514  24.615  27.230  1.00  0.00     0.074 A 
ATOM     55  C   UNL A   1      47.487  30.179  28.115  1.00  0.00     0.029 A 
ATOM     56  N   UNL A   1      45.954  28.576  27.930  1.00  0.00    -0.354 N 
ATOM     57  N   UNL A   1      45.034  25.803  27.432  1.00  0.00    -0.248 NA
ATOM     58  C   UNL A   1      45.471  23.614  26.743  1.00  0.00     0.031 C 
ATOM     59  C   UNL A   1      48.111  29.016  27.651  1.00  0.00     0.029 A 
ATOM     60  C   UNL A   1      47.162  28.007  27.568  1.00  0.00     0.049 A 
ATOM     61  H   UNL A   1      45.091  28.103  27.953  1.00  0.00     0.167 HD
ATOM     62  C   UNL A   1      46.382  25.686  27.129  1.00  0.00     0.074 A 
ATOM     63  C   UNL A   1      46.599  24.310  26.725  1.00  0.00     0.031 C 
ATOM     64  C   UNL A   1      47.354  26.629  27.188  1.00  0.00     0.037 A 
BRANCH  51  65
ATOM     65  C   UNL A   1      45.399  32.259  28.887  1.00  0.00     0.057 A 
ATOM     66  C   UNL A   1      45.802  32.754  30.134  1.00  0.00     0.134 A 
ATOM     67  C   UNL A   1      45.282  33.183  27.839  1.00  0.00     0.134 A 
ATOM     68  F   UNL A   1      45.924  31.929  31.185  1.00  0.00    -0.206 F 
ATOM     69  C   UNL A   1      46.029  34.117  30.342  1.00  0.00     0.040 A 
ATOM     70  C   UNL A   1      45.542  34.542  28.026  1.00  0.00     0.040 A 
ATOM     71  F   UNL A   1      44.909  32.782  26.614  1.00  0.00    -0.206 F 
ATOM     72  C   UNL A   1      45.903  35.014  29.284  1.00  0.00     0.006 A 
ENDBRANCH  51  65
BRANCH  52  73
ATOM     73  C   UNL A   1      42.660  22.788  27.074  1.00  0.00     0.057 A 
ATOM     74  C   UNL A   1      42.371  21.852  28.072  1.00  0.00     0.134 A 
ATOM     75  C   UNL A   1      42.454  22.398  25.743  1.00  0.00     0.134 A 
ATOM     76  F   UNL A   1      42.559  22.162  29.362  1.00  0.00    -0.206 F 
ATOM     77  C   UNL A   1      41.892  20.578  27.760  1.00  0.00     0.040 A 
ATOM     78  C   UNL A   1      41.951  21.138  25.419  1.00  0.00     0.040 A 
ATOM     79  F   UNL A   1      42.700  23.255  24.740  1.00  0.00    -0.206 F 
ATOM     80  C   UNL A   1      41.670  20.223  26.431  1.00  0.00     0.006 A 
ENDBRANCH  52  73
BRANCH  64  81
ATOM     81  C   UNL A   1      48.756  26.196  26.876  1.00  0.00     0.057 A 
ATOM     82  C   UNL A   1      49.296  26.289  25.588  1.00  0.00     0.134 A 
ATOM     83  C   UNL A   1      49.599  25.757  27.905  1.00  0.00     0.134 A 
ATOM     84  F   UNL A   1      48.535  26.687  24.558  1.00  0.00    -0.206 F 
ATOM     85  C   UNL A   1      50.627  25.954  25.334  1.00  0.00     0.040 A 
ATOM     86  C   UNL A   1      50.938  25.447  27.669  1.00  0.00     0.040 A 
ATOM     87  F   UNL A   1      49.143  25.653  29.162  1.00  0.00    -0.206 F 
ATOM     88  C   UNL A   1      51.455  25.543  26.378  1.00  0.00     0.006 A 
ENDBRANCH  64  81
ENDBRANCH  38  39
ENDBRANCH  31  33
ENDBRANCH  30  31
ENDBRANCH  29  30
ENDBRANCH   1  29
TORSDOF 14
ENDMDL
