MODEL 1
REMARK VINA RESULT:     -13.6      0.000      0.000
REMARK SMILES Cc1coc2c(C)c3oc(=O)c(CCC(=O)N[C@H](CC(C)C)C(=O)OCCOC(=O)c4ccc(-c5c6nc(c(-c7c(F)cccc7F)c7ccc([nH]7)c(-c7c(F)cccc7F)c7nc(c(-c8c(F)cccc8F)c8ccc5[nH]8)C=C7)C=C6)cc4)c(C)c3cc12
REMARK SMILES IDX 26 1 25 2 23 3 24 4 18 5 17 6 15 7 16 8 14 10 13 11 12 12
REMARK SMILES IDX 1 13 2 14 3 15 89 16 4 17 5 18 88 19 6 20 87 21 7 22 8 23
REMARK SMILES IDX 85 24 9 25 86 26 10 27 11 28 19 29 20 30 21 31 22 32 27 33
REMARK SMILES IDX 28 34 29 35 30 36 31 37 32 38 84 39 33 40 83 41 34 42 35 43
REMARK SMILES IDX 36 44 77 45 37 46 82 47 76 48 78 49 38 50 81 51 75 52 74 53
REMARK SMILES IDX 39 55 65 56 48 57 64 58 49 59 52 60 63 61 79 62 50 63 51 64
REMARK SMILES IDX 62 66 80 67 53 68 40 69 41 70 46 71 42 72 43 73 45 74 47 75
REMARK SMILES IDX 44 76 66 77 67 78 72 79 68 80 69 81 71 82 73 83 70 84 54 85
REMARK SMILES IDX 55 86 60 87 56 88 57 89 59 90 61 91 58 92
REMARK H PARENT 17 9 78 54 52 65
REMARK Flexibility Score: inf
ROOT
ATOM      1  C   UNL A   1      33.116  30.349  26.024  1.00  0.00     0.274 C 
ENDROOT
BRANCH   1   2
ATOM      2  O   UNL A   1      31.906  29.407  25.139  1.00  0.00    -0.461 OA
BRANCH   2   3
ATOM      3  C   UNL A   1      31.112  29.090  23.487  1.00  0.00     0.328 C 
ATOM      4  O   UNL A   1      31.777  29.068  22.408  1.00  0.00    -0.250 OA
BRANCH   3   5
ATOM      5  C   UNL A   1      29.565  29.045  23.104  1.00  0.00     0.192 C 
BRANCH   5   6
ATOM      6  N   UNL A   1      28.693  27.873  23.316  1.00  0.00    -0.343 N 
ATOM      7  C   UNL A   1      28.967  26.687  23.950  1.00  0.00     0.221 C 
ATOM      8  O   UNL A   1      28.016  25.964  24.257  1.00  0.00    -0.275 OA
ATOM      9  H   UNL A   1      27.783  27.953  22.949  1.00  0.00     0.164 HD
BRANCH   7  10
ATOM     10  C   UNL A   1      30.402  26.214  24.161  1.00  0.00     0.105 C 
BRANCH  10  11
ATOM     11  C   UNL A   1      30.753  26.041  25.646  1.00  0.00     0.053 C 
BRANCH  11  12
ATOM     12  C   UNL A   1      31.813  24.989  25.753  1.00  0.00     0.042 A 
ATOM     13  C   UNL A   1      32.423  17.588  24.927  1.00  0.00     0.048 C 
ATOM     14  C   UNL A   1      33.576  18.507  24.895  1.00  0.00    -0.005 A 
ATOM     15  C   UNL A   1      34.871  18.165  24.587  1.00  0.00     0.199 A 
ATOM     16  C   UNL A   1      33.562  19.927  25.124  1.00  0.00     0.024 A 
ATOM     17  O   UNL A   1      35.652  19.255  24.578  1.00  0.00    -0.464 OA
ATOM     18  C   UNL A   1      34.874  20.349  24.843  1.00  0.00     0.140 A 
ATOM     19  C   UNL A   1      32.504  20.808  25.500  1.00  0.00     0.024 A 
ATOM     20  C   UNL A   1      35.450  21.638  24.756  1.00  0.00     0.036 A 
ATOM     21  C   UNL A   1      32.788  22.146  25.398  1.00  0.00     0.022 A 
ATOM     22  C   UNL A   1      36.902  21.715  24.454  1.00  0.00     0.052 C 
ATOM     23  C   UNL A   1      34.399  22.543  24.868  1.00  0.00     0.145 A 
ATOM     24  C   UNL A   1      31.521  23.454  25.878  1.00  0.00    -0.030 A 
ATOM     25  O   UNL A   1      34.711  24.354  24.742  1.00  0.00    -0.422 OA
ATOM     26  C   UNL A   1      30.206  22.851  26.292  1.00  0.00     0.046 C 
ATOM     27  C   UNL A   1      33.567  25.712  25.268  1.00  0.00     0.339 A 
ATOM     28  O   UNL A   1      33.901  26.894  25.331  1.00  0.00    -0.246 OA
ENDBRANCH  11  12
ENDBRANCH  10  11
ENDBRANCH   7  10
ENDBRANCH   5   6
BRANCH   5  29
ATOM     29  C   UNL A   1      29.088  29.958  21.931  1.00  0.00     0.040 C 
BRANCH  29  30
ATOM     30  C   UNL A   1      27.951  31.010  22.155  1.00  0.00    -0.015 C 
ATOM     31  C   UNL A   1      27.619  31.409  23.582  1.00  0.00     0.007 C 
ATOM     32  C   UNL A   1      28.325  32.323  21.438  1.00  0.00     0.007 C 
ENDBRANCH  29  30
ENDBRANCH   5  29
ENDBRANCH   3   5
ENDBRANCH   2   3
ENDBRANCH   1   2
BRANCH   1  33
ATOM     33  C   UNL A   1      32.803  31.016  27.452  1.00  0.00     0.275 C 
BRANCH  33  34
ATOM     34  O   UNL A   1      33.814  31.916  28.012  1.00  0.00    -0.458 OA
BRANCH  34  35
ATOM     35  C   UNL A   1      33.395  33.190  28.259  1.00  0.00     0.338 C 
ATOM     36  O   UNL A   1      32.388  33.726  27.820  1.00  0.00    -0.246 OA
BRANCH  35  37
ATOM     37  C   UNL A   1      34.260  34.047  29.082  1.00  0.00     0.060 A 
ATOM     38  C   UNL A   1      35.372  34.512  28.329  1.00  0.00     0.016 A 
ATOM     39  C   UNL A   1      34.470  33.272  30.218  1.00  0.00     0.016 A 
ATOM     40  C   UNL A   1      36.576  33.830  28.421  1.00  0.00     0.010 A 
ATOM     41  C   UNL A   1      35.635  32.535  30.269  1.00  0.00     0.010 A 
ATOM     42  C   UNL A   1      36.666  32.783  29.346  1.00  0.00    -0.014 A 
BRANCH  42  43
ATOM     43  C   UNL A   1      37.987  32.287  29.715  1.00  0.00     0.031 A 
ATOM     44  C   UNL A   1      38.059  30.858  29.290  1.00  0.00     0.074 A 
ATOM     45  C   UNL A   1      39.011  33.087  30.074  1.00  0.00     0.049 A 
ATOM     46  N   UNL A   1      38.049  29.800  30.036  1.00  0.00    -0.248 NA
ATOM     47  C   UNL A   1      37.727  30.572  27.873  1.00  0.00     0.031 C 
ATOM     48  C   UNL A   1      39.000  34.538  30.268  1.00  0.00     0.029 A 
ATOM     49  N   UNL A   1      40.334  32.775  30.208  1.00  0.00    -0.354 N 
ATOM     50  C   UNL A   1      37.984  28.748  29.123  1.00  0.00     0.074 A 
ATOM     51  C   UNL A   1      37.393  29.284  27.940  1.00  0.00     0.031 C 
ATOM     52  C   UNL A   1      40.271  35.006  30.257  1.00  0.00     0.029 A 
ATOM     53  C   UNL A   1      41.188  33.887  30.161  1.00  0.00     0.049 A 
ATOM     54  H   UNL A   1      40.659  31.853  30.326  1.00  0.00     0.167 HD
ATOM     55  C   UNL A   1      38.853  27.705  29.213  1.00  0.00     0.037 A 
ATOM     56  C   UNL A   1      42.534  33.827  29.962  1.00  0.00     0.037 A 
ATOM     57  C   UNL A   1      39.401  27.640  30.547  1.00  0.00     0.049 A 
ATOM     58  C   UNL A   1      42.935  32.422  30.241  1.00  0.00     0.074 A 
ATOM     59  C   UNL A   1      38.869  27.503  31.813  1.00  0.00     0.029 A 
ATOM     60  N   UNL A   1      40.653  28.179  30.706  1.00  0.00    -0.354 N 
ATOM     61  N   UNL A   1      42.870  31.873  31.422  1.00  0.00    -0.248 NA
ATOM     62  C   UNL A   1      42.935  31.499  29.117  1.00  0.00     0.031 C 
ATOM     63  C   UNL A   1      39.665  28.340  32.647  1.00  0.00     0.029 A 
ATOM     64  C   UNL A   1      40.703  28.873  31.883  1.00  0.00     0.049 A 
ATOM     65  H   UNL A   1      41.399  28.081  30.071  1.00  0.00     0.167 HD
ATOM     66  C   UNL A   1      42.371  30.600  31.185  1.00  0.00     0.074 A 
ATOM     67  C   UNL A   1      42.505  30.401  29.742  1.00  0.00     0.031 C 
ATOM     68  C   UNL A   1      41.618  29.965  32.131  1.00  0.00     0.037 A 
BRANCH  55  69
ATOM     69  C   UNL A   1      39.558  27.094  28.010  1.00  0.00     0.057 A 
ATOM     70  C   UNL A   1      39.580  25.694  27.899  1.00  0.00     0.134 A 
ATOM     71  C   UNL A   1      40.427  27.760  27.109  1.00  0.00     0.134 A 
ATOM     72  F   UNL A   1      38.817  24.932  28.695  1.00  0.00    -0.206 F 
ATOM     73  C   UNL A   1      40.442  25.018  27.025  1.00  0.00     0.040 A 
ATOM     74  C   UNL A   1      41.257  27.097  26.202  1.00  0.00     0.040 A 
ATOM     75  F   UNL A   1      40.610  29.083  27.087  1.00  0.00    -0.206 F 
ATOM     76  C   UNL A   1      41.290  25.718  26.177  1.00  0.00     0.006 A 
ENDBRANCH  55  69
BRANCH  56  77
ATOM     77  C   UNL A   1      43.442  34.742  29.217  1.00  0.00     0.057 A 
ATOM     78  C   UNL A   1      44.782  34.909  29.613  1.00  0.00     0.134 A 
ATOM     79  C   UNL A   1      43.126  35.225  27.937  1.00  0.00     0.134 A 
ATOM     80  F   UNL A   1      45.201  34.455  30.804  1.00  0.00    -0.206 F 
ATOM     81  C   UNL A   1      45.753  35.475  28.773  1.00  0.00     0.040 A 
ATOM     82  C   UNL A   1      44.085  35.796  27.089  1.00  0.00     0.040 A 
ATOM     83  F   UNL A   1      41.897  35.074  27.424  1.00  0.00    -0.206 F 
ATOM     84  C   UNL A   1      45.409  35.905  27.498  1.00  0.00     0.006 A 
ENDBRANCH  56  77
BRANCH  68  85
ATOM     85  C   UNL A   1      41.573  30.561  33.515  1.00  0.00     0.057 A 
ATOM     86  C   UNL A   1      40.591  31.461  33.961  1.00  0.00     0.134 A 
ATOM     87  C   UNL A   1      42.435  30.038  34.482  1.00  0.00     0.134 A 
ATOM     88  F   UNL A   1      39.676  31.959  33.122  1.00  0.00    -0.206 F 
ATOM     89  C   UNL A   1      40.479  31.822  35.308  1.00  0.00     0.040 A 
ATOM     90  C   UNL A   1      42.313  30.364  35.834  1.00  0.00     0.040 A 
ATOM     91  F   UNL A   1      43.369  29.139  34.135  1.00  0.00    -0.206 F 
ATOM     92  C   UNL A   1      41.333  31.259  36.252  1.00  0.00     0.006 A 
ENDBRANCH  68  85
ENDBRANCH  42  43
ENDBRANCH  35  37
ENDBRANCH  34  35
ENDBRANCH  33  34
ENDBRANCH   1  33
TORSDOF 17
ENDMDL
MODEL 2
REMARK VINA RESULT:     -13.4      2.357      6.068
REMARK SMILES Cc1coc2c(C)c3oc(=O)c(CCC(=O)N[C@H](CC(C)C)C(=O)OCCOC(=O)c4ccc(-c5c6nc(c(-c7c(F)cccc7F)c7ccc([nH]7)c(-c7c(F)cccc7F)c7nc(c(-c8c(F)cccc8F)c8ccc5[nH]8)C=C7)C=C6)cc4)c(C)c3cc12
REMARK SMILES IDX 26 1 25 2 23 3 24 4 18 5 17 6 15 7 16 8 14 10 13 11 12 12
REMARK SMILES IDX 1 13 2 14 3 15 89 16 4 17 5 18 88 19 6 20 87 21 7 22 8 23
REMARK SMILES IDX 85 24 9 25 86 26 10 27 11 28 19 29 20 30 21 31 22 32 27 33
REMARK SMILES IDX 28 34 29 35 30 36 31 37 32 38 84 39 33 40 83 41 34 42 35 43
REMARK SMILES IDX 36 44 77 45 37 46 82 47 76 48 78 49 38 50 81 51 75 52 74 53
REMARK SMILES IDX 39 55 65 56 48 57 64 58 49 59 52 60 63 61 79 62 50 63 51 64
REMARK SMILES IDX 62 66 80 67 53 68 40 69 41 70 46 71 42 72 43 73 45 74 47 75
REMARK SMILES IDX 44 76 66 77 67 78 72 79 68 80 69 81 71 82 73 83 70 84 54 85
REMARK SMILES IDX 55 86 60 87 56 88 57 89 59 90 61 91 58 92
REMARK H PARENT 17 9 78 54 52 65
REMARK Flexibility Score: inf
ROOT
ATOM      1  C   UNL A   1      32.492  30.385  27.233  1.00  0.00     0.274 C 
ENDROOT
BRANCH   1   2
ATOM      2  O   UNL A   1      31.973  30.068  25.571  1.00  0.00    -0.461 OA
BRANCH   2   3
ATOM      3  C   UNL A   1      32.190  28.987  24.073  1.00  0.00     0.328 C 
ATOM      4  O   UNL A   1      33.247  29.002  23.372  1.00  0.00    -0.250 OA
BRANCH   3   5
ATOM      5  C   UNL A   1      31.109  28.107  23.299  1.00  0.00     0.192 C 
BRANCH   5   6
ATOM      6  N   UNL A   1      31.263  26.667  23.013  1.00  0.00    -0.343 N 
ATOM      7  C   UNL A   1      30.611  25.595  23.567  1.00  0.00     0.221 C 
ATOM      8  O   UNL A   1      30.691  24.509  22.988  1.00  0.00    -0.275 OA
ATOM      9  H   UNL A   1      31.930  26.444  22.325  1.00  0.00     0.164 HD
BRANCH   7  10
ATOM     10  C   UNL A   1      29.911  25.704  24.919  1.00  0.00     0.105 C 
BRANCH  10  11
ATOM     11  C   UNL A   1      30.886  26.018  26.063  1.00  0.00     0.053 C 
BRANCH  11  12
ATOM     12  C   UNL A   1      31.919  24.936  26.103  1.00  0.00     0.042 A 
ATOM     13  C   UNL A   1      32.345  17.587  24.821  1.00  0.00     0.048 C 
ATOM     14  C   UNL A   1      33.520  18.477  24.843  1.00  0.00    -0.005 A 
ATOM     15  C   UNL A   1      34.806  18.123  24.512  1.00  0.00     0.199 A 
ATOM     16  C   UNL A   1      33.541  19.880  25.159  1.00  0.00     0.024 A 
ATOM     17  O   UNL A   1      35.614  19.191  24.569  1.00  0.00    -0.464 OA
ATOM     18  C   UNL A   1      34.863  20.286  24.903  1.00  0.00     0.140 A 
ATOM     19  C   UNL A   1      32.506  20.763  25.592  1.00  0.00     0.024 A 
ATOM     20  C   UNL A   1      35.471  21.563  24.893  1.00  0.00     0.036 A 
ATOM     21  C   UNL A   1      32.823  22.097  25.571  1.00  0.00     0.022 A 
ATOM     22  C   UNL A   1      36.924  21.623  24.594  1.00  0.00     0.052 C 
ATOM     23  C   UNL A   1      34.443  22.486  25.064  1.00  0.00     0.145 A 
ATOM     24  C   UNL A   1      31.589  23.404  26.134  1.00  0.00    -0.030 A 
ATOM     25  O   UNL A   1      34.800  24.293  25.049  1.00  0.00    -0.422 OA
ATOM     26  C   UNL A   1      30.260  22.810  26.512  1.00  0.00     0.046 C 
ATOM     27  C   UNL A   1      33.690  25.644  25.660  1.00  0.00     0.339 A 
ATOM     28  O   UNL A   1      34.053  26.811  25.795  1.00  0.00    -0.246 OA
ENDBRANCH  11  12
ENDBRANCH  10  11
ENDBRANCH   7  10
ENDBRANCH   5   6
BRANCH   5  29
ATOM     29  C   UNL A   1      30.189  28.839  22.271  1.00  0.00     0.040 C 
BRANCH  29  30
ATOM     30  C   UNL A   1      28.821  29.451  22.724  1.00  0.00    -0.015 C 
ATOM     31  C   UNL A   1      28.057  30.306  21.729  1.00  0.00     0.007 C 
ATOM     32  C   UNL A   1      27.858  28.310  23.110  1.00  0.00     0.007 C 
ENDBRANCH  29  30
ENDBRANCH   5  29
ENDBRANCH   3   5
ENDBRANCH   2   3
ENDBRANCH   1   2
BRANCH   1  33
ATOM     33  C   UNL A   1      33.670  31.422  27.578  1.00  0.00     0.275 C 
BRANCH  33  34
ATOM     34  O   UNL A   1      34.995  30.867  27.861  1.00  0.00    -0.458 OA
BRANCH  34  35
ATOM     35  C   UNL A   1      35.845  31.691  28.539  1.00  0.00     0.338 C 
ATOM     36  O   UNL A   1      36.258  32.780  28.168  1.00  0.00    -0.246 OA
BRANCH  35  37
ATOM     37  C   UNL A   1      36.385  31.213  29.820  1.00  0.00     0.060 A 
ATOM     38  C   UNL A   1      37.470  32.027  30.244  1.00  0.00     0.016 A 
ATOM     39  C   UNL A   1      36.588  29.858  29.582  1.00  0.00     0.016 A 
ATOM     40  C   UNL A   1      38.765  31.617  29.962  1.00  0.00     0.010 A 
ATOM     41  C   UNL A   1      37.862  29.467  29.226  1.00  0.00     0.010 A 
ATOM     42  C   UNL A   1      38.939  30.358  29.374  1.00  0.00    -0.014 A 
BRANCH  42  43
ATOM     43  C   UNL A   1      40.268  29.758  29.387  1.00  0.00     0.031 A 
ATOM     44  C   UNL A   1      40.731  29.738  30.807  1.00  0.00     0.074 A 
ATOM     45  C   UNL A   1      40.792  29.081  28.346  1.00  0.00     0.049 A 
ATOM     46  N   UNL A   1      41.648  30.467  31.360  1.00  0.00    -0.248 NA
ATOM     47  C   UNL A   1      39.819  29.107  31.792  1.00  0.00     0.031 C 
ATOM     48  C   UNL A   1      40.225  28.900  27.008  1.00  0.00     0.029 A 
ATOM     49  N   UNL A   1      41.900  28.284  28.314  1.00  0.00    -0.354 N 
ATOM     50  C   UNL A   1      41.561  30.141  32.712  1.00  0.00     0.074 A 
ATOM     51  C   UNL A   1      40.230  29.672  32.925  1.00  0.00     0.031 C 
ATOM     52  C   UNL A   1      40.854  27.875  26.385  1.00  0.00     0.029 A 
ATOM     53  C   UNL A   1      41.930  27.395  27.229  1.00  0.00     0.049 A 
ATOM     54  H   UNL A   1      42.613  28.328  28.991  1.00  0.00     0.167 HD
ATOM     55  C   UNL A   1      42.679  29.803  33.411  1.00  0.00     0.037 A 
ATOM     56  C   UNL A   1      42.744  26.307  27.136  1.00  0.00     0.037 A 
ATOM     57  C   UNL A   1      43.851  30.299  32.729  1.00  0.00     0.049 A 
ATOM     58  C   UNL A   1      43.826  26.508  28.137  1.00  0.00     0.074 A 
ATOM     59  C   UNL A   1      44.292  31.546  32.333  1.00  0.00     0.029 A 
ATOM     60  N   UNL A   1      44.531  29.383  31.967  1.00  0.00    -0.354 N 
ATOM     61  N   UNL A   1      44.721  27.452  28.054  1.00  0.00    -0.248 NA
ATOM     62  C   UNL A   1      43.600  25.969  29.470  1.00  0.00     0.031 C 
ATOM     63  C   UNL A   1      44.921  31.338  31.073  1.00  0.00     0.029 A 
ATOM     64  C   UNL A   1      44.927  29.971  30.796  1.00  0.00     0.049 A 
ATOM     65  H   UNL A   1      44.708  28.450  32.222  1.00  0.00     0.167 HD
ATOM     66  C   UNL A   1      44.839  27.933  29.350  1.00  0.00     0.074 A 
ATOM     67  C   UNL A   1      44.184  26.930  30.190  1.00  0.00     0.031 C 
ATOM     68  C   UNL A   1      45.178  29.236  29.576  1.00  0.00     0.037 A 
BRANCH  55  69
ATOM     69  C   UNL A   1      42.736  28.635  34.387  1.00  0.00     0.057 A 
ATOM     70  C   UNL A   1      43.157  28.896  35.701  1.00  0.00     0.134 A 
ATOM     71  C   UNL A   1      42.661  27.257  34.065  1.00  0.00     0.134 A 
ATOM     72  F   UNL A   1      43.284  30.155  36.143  1.00  0.00    -0.206 F 
ATOM     73  C   UNL A   1      43.540  27.880  36.589  1.00  0.00     0.040 A 
ATOM     74  C   UNL A   1      42.997  26.236  34.956  1.00  0.00     0.040 A 
ATOM     75  F   UNL A   1      42.345  26.788  32.855  1.00  0.00    -0.206 F 
ATOM     76  C   UNL A   1      43.468  26.545  36.216  1.00  0.00     0.006 A 
ENDBRANCH  55  69
BRANCH  56  77
ATOM     77  C   UNL A   1      42.496  24.962  26.546  1.00  0.00     0.057 A 
ATOM     78  C   UNL A   1      43.252  24.506  25.450  1.00  0.00     0.134 A 
ATOM     79  C   UNL A   1      41.751  23.980  27.218  1.00  0.00     0.134 A 
ATOM     80  F   UNL A   1      44.026  25.353  24.756  1.00  0.00    -0.206 F 
ATOM     81  C   UNL A   1      43.300  23.153  25.077  1.00  0.00     0.040 A 
ATOM     82  C   UNL A   1      41.786  22.627  26.853  1.00  0.00     0.040 A 
ATOM     83  F   UNL A   1      41.036  24.281  28.311  1.00  0.00    -0.206 F 
ATOM     84  C   UNL A   1      42.578  22.206  25.792  1.00  0.00     0.006 A 
ENDBRANCH  56  77
BRANCH  68  85
ATOM     85  C   UNL A   1      45.674  30.049  28.408  1.00  0.00     0.057 A 
ATOM     86  C   UNL A   1      44.859  30.853  27.595  1.00  0.00     0.134 A 
ATOM     87  C   UNL A   1      47.056  30.180  28.241  1.00  0.00     0.134 A 
ATOM     88  F   UNL A   1      43.528  30.851  27.731  1.00  0.00    -0.206 F 
ATOM     89  C   UNL A   1      45.397  31.742  26.658  1.00  0.00     0.040 A 
ATOM     90  C   UNL A   1      47.607  31.087  27.333  1.00  0.00     0.040 A 
ATOM     91  F   UNL A   1      47.896  29.476  29.014  1.00  0.00    -0.206 F 
ATOM     92  C   UNL A   1      46.778  31.872  26.537  1.00  0.00     0.006 A 
ENDBRANCH  68  85
ENDBRANCH  42  43
ENDBRANCH  35  37
ENDBRANCH  34  35
ENDBRANCH  33  34
ENDBRANCH   1  33
TORSDOF 17
ENDMDL
MODEL 3
REMARK VINA RESULT:     -13.1      3.716      7.948
REMARK SMILES Cc1coc2c(C)c3oc(=O)c(CCC(=O)N[C@H](CC(C)C)C(=O)OCCOC(=O)c4ccc(-c5c6nc(c(-c7c(F)cccc7F)c7ccc([nH]7)c(-c7c(F)cccc7F)c7nc(c(-c8c(F)cccc8F)c8ccc5[nH]8)C=C7)C=C6)cc4)c(C)c3cc12
REMARK SMILES IDX 26 1 25 2 23 3 24 4 18 5 17 6 15 7 16 8 14 10 13 11 12 12
REMARK SMILES IDX 1 13 2 14 3 15 89 16 4 17 5 18 88 19 6 20 87 21 7 22 8 23
REMARK SMILES IDX 85 24 9 25 86 26 10 27 11 28 19 29 20 30 21 31 22 32 27 33
REMARK SMILES IDX 28 34 29 35 30 36 31 37 32 38 84 39 33 40 83 41 34 42 35 43
REMARK SMILES IDX 36 44 77 45 37 46 82 47 76 48 78 49 38 50 81 51 75 52 74 53
REMARK SMILES IDX 39 55 65 56 48 57 64 58 49 59 52 60 63 61 79 62 50 63 51 64
REMARK SMILES IDX 62 66 80 67 53 68 40 69 41 70 46 71 42 72 43 73 45 74 47 75
REMARK SMILES IDX 44 76 66 77 67 78 72 79 68 80 69 81 71 82 73 83 70 84 54 85
REMARK SMILES IDX 55 86 60 87 56 88 57 89 59 90 61 91 58 92
REMARK H PARENT 17 9 78 54 52 65
REMARK Flexibility Score: inf
ROOT
ATOM      1  C   UNL A   1      33.792  31.315  27.993  1.00  0.00     0.274 C 
ENDROOT
BRANCH   1   2
ATOM      2  O   UNL A   1      32.801  30.631  26.696  1.00  0.00    -0.461 OA
BRANCH   2   3
ATOM      3  C   UNL A   1      32.682  29.320  25.381  1.00  0.00     0.328 C 
ATOM      4  O   UNL A   1      33.140  29.490  24.211  1.00  0.00    -0.250 OA
BRANCH   3   5
ATOM      5  C   UNL A   1      31.842  27.965  25.381  1.00  0.00     0.192 C 
BRANCH   5   6
ATOM      6  N   UNL A   1      30.443  27.858  24.922  1.00  0.00    -0.343 N 
ATOM      7  C   UNL A   1      29.957  27.598  23.666  1.00  0.00     0.221 C 
ATOM      8  O   UNL A   1      28.771  27.277  23.562  1.00  0.00    -0.275 OA
ATOM      9  H   UNL A   1      29.760  27.992  25.618  1.00  0.00     0.164 HD
BRANCH   7  10
ATOM     10  C   UNL A   1      30.814  27.816  22.423  1.00  0.00     0.105 C 
BRANCH  10  11
ATOM     11  C   UNL A   1      31.063  26.517  21.642  1.00  0.00     0.053 C 
BRANCH  11  12
ATOM     12  C   UNL A   1      31.977  25.655  22.456  1.00  0.00     0.042 A 
ATOM     13  C   UNL A   1      32.387  18.543  24.711  1.00  0.00     0.048 C 
ATOM     14  C   UNL A   1      33.545  19.456  24.688  1.00  0.00    -0.005 A 
ATOM     15  C   UNL A   1      34.850  19.110  24.943  1.00  0.00     0.199 A 
ATOM     16  C   UNL A   1      33.542  20.854  24.348  1.00  0.00     0.024 A 
ATOM     17  O   UNL A   1      35.657  20.165  24.763  1.00  0.00    -0.464 OA
ATOM     18  C   UNL A   1      34.899  21.226  24.344  1.00  0.00     0.140 A 
ATOM     19  C   UNL A   1      32.472  21.741  24.022  1.00  0.00     0.024 A 
ATOM     20  C   UNL A   1      35.547  22.422  23.957  1.00  0.00     0.036 A 
ATOM     21  C   UNL A   1      32.850  22.958  23.515  1.00  0.00     0.022 A 
ATOM     22  C   UNL A   1      37.023  22.475  24.107  1.00  0.00     0.052 C 
ATOM     23  C   UNL A   1      34.565  23.232  23.393  1.00  0.00     0.145 A 
ATOM     24  C   UNL A   1      31.573  24.264  23.055  1.00  0.00    -0.030 A 
ATOM     25  O   UNL A   1      35.005  24.879  22.695  1.00  0.00    -0.422 OA
ATOM     26  C   UNL A   1      30.163  23.776  23.243  1.00  0.00     0.046 C 
ATOM     27  C   UNL A   1      33.834  26.257  22.294  1.00  0.00     0.339 A 
ATOM     28  O   UNL A   1      34.199  27.395  22.005  1.00  0.00    -0.246 OA
ENDBRANCH  11  12
ENDBRANCH  10  11
ENDBRANCH   7  10
ENDBRANCH   5   6
BRANCH   5  29
ATOM     29  C   UNL A   1      32.222  26.884  26.441  1.00  0.00     0.040 C 
BRANCH  29  30
ATOM     30  C   UNL A   1      32.715  25.468  25.989  1.00  0.00    -0.015 C 
ATOM     31  C   UNL A   1      34.185  25.132  26.171  1.00  0.00     0.007 C 
ATOM     32  C   UNL A   1      31.946  24.388  26.776  1.00  0.00     0.007 C 
ENDBRANCH  29  30
ENDBRANCH   5  29
ENDBRANCH   3   5
ENDBRANCH   2   3
ENDBRANCH   1   2
BRANCH   1  33
ATOM     33  C   UNL A   1      35.397  31.242  27.972  1.00  0.00     0.275 C 
BRANCH  33  34
ATOM     34  O   UNL A   1      36.019  29.969  28.341  1.00  0.00    -0.458 OA
BRANCH  34  35
ATOM     35  C   UNL A   1      37.375  29.915  28.204  1.00  0.00     0.338 C 
ATOM     36  O   UNL A   1      38.004  29.925  27.156  1.00  0.00    -0.246 OA
BRANCH  35  37
ATOM     37  C   UNL A   1      38.181  29.763  29.423  1.00  0.00     0.060 A 
ATOM     38  C   UNL A   1      39.418  30.452  29.299  1.00  0.00     0.016 A 
ATOM     39  C   UNL A   1      38.174  28.387  29.627  1.00  0.00     0.016 A 
ATOM     40  C   UNL A   1      40.543  29.744  28.905  1.00  0.00     0.010 A 
ATOM     41  C   UNL A   1      39.262  27.678  29.163  1.00  0.00     0.010 A 
ATOM     42  C   UNL A   1      40.426  28.356  28.762  1.00  0.00    -0.014 A 
BRANCH  42  43
ATOM     43  C   UNL A   1      41.642  27.555  28.696  1.00  0.00     0.031 A 
ATOM     44  C   UNL A   1      42.350  27.715  30.001  1.00  0.00     0.074 A 
ATOM     45  C   UNL A   1      41.872  26.623  27.750  1.00  0.00     0.049 A 
ATOM     46  N   UNL A   1      43.442  28.369  30.244  1.00  0.00    -0.248 NA
ATOM     47  C   UNL A   1      41.558  27.435  31.223  1.00  0.00     0.031 C 
ATOM     48  C   UNL A   1      41.051  26.299  26.582  1.00  0.00     0.029 A 
ATOM     49  N   UNL A   1      42.839  25.659  27.715  1.00  0.00    -0.354 N 
ATOM     50  C   UNL A   1      43.561  28.313  31.632  1.00  0.00     0.074 A 
ATOM     51  C   UNL A   1      42.241  28.120  32.138  1.00  0.00     0.031 C 
ATOM     52  C   UNL A   1      41.412  25.088  26.096  1.00  0.00     0.029 A 
ATOM     53  C   UNL A   1      42.551  24.596  26.846  1.00  0.00     0.049 A 
ATOM     54  H   UNL A   1      43.663  25.706  28.251  1.00  0.00     0.167 HD
ATOM     55  C   UNL A   1      44.732  27.925  32.206  1.00  0.00     0.037 A 
ATOM     56  C   UNL A   1      43.181  23.388  26.857  1.00  0.00     0.037 A 
ATOM     57  C   UNL A   1      45.815  28.086  31.265  1.00  0.00     0.049 A 
ATOM     58  C   UNL A   1      44.444  23.584  27.617  1.00  0.00     0.074 A 
ATOM     59  C   UNL A   1      46.339  29.149  30.557  1.00  0.00     0.029 A 
ATOM     60  N   UNL A   1      46.217  26.947  30.614  1.00  0.00    -0.354 N 
ATOM     61  N   UNL A   1      45.427  24.334  27.204  1.00  0.00    -0.248 NA
ATOM     62  C   UNL A   1      44.396  23.341  29.051  1.00  0.00     0.031 C 
ATOM     63  C   UNL A   1      46.694  28.615  29.285  1.00  0.00     0.029 A 
ATOM     64  C   UNL A   1      46.466  27.238  29.301  1.00  0.00     0.049 A 
ATOM     65  H   UNL A   1      46.310  26.059  31.027  1.00  0.00     0.167 HD
ATOM     66  C   UNL A   1      45.844  25.015  28.339  1.00  0.00     0.074 A 
ATOM     67  C   UNL A   1      45.225  24.306  29.458  1.00  0.00     0.031 C 
ATOM     68  C   UNL A   1      46.389  26.263  28.235  1.00  0.00     0.037 A 
BRANCH  55  69
ATOM     69  C   UNL A   1      44.810  26.961  33.382  1.00  0.00     0.057 A 
ATOM     70  C   UNL A   1      45.462  27.396  34.548  1.00  0.00     0.134 A 
ATOM     71  C   UNL A   1      44.528  25.572  33.360  1.00  0.00     0.134 A 
ATOM     72  F   UNL A   1      45.800  28.683  34.704  1.00  0.00    -0.206 F 
ATOM     73  C   UNL A   1      45.863  26.517  35.564  1.00  0.00     0.040 A 
ATOM     74  C   UNL A   1      44.883  24.695  34.387  1.00  0.00     0.040 A 
ATOM     75  F   UNL A   1      43.973  24.939  32.324  1.00  0.00    -0.206 F 
ATOM     76  C   UNL A   1      45.581  25.160  35.483  1.00  0.00     0.006 A 
ENDBRANCH  55  69
BRANCH  56  77
ATOM     77  C   UNL A   1      42.651  22.020  26.603  1.00  0.00     0.057 A 
ATOM     78  C   UNL A   1      43.341  21.124  25.765  1.00  0.00     0.134 A 
ATOM     79  C   UNL A   1      41.648  21.449  27.404  1.00  0.00     0.134 A 
ATOM     80  F   UNL A   1      44.341  21.556  24.983  1.00  0.00    -0.206 F 
ATOM     81  C   UNL A   1      43.083  19.745  25.760  1.00  0.00     0.040 A 
ATOM     82  C   UNL A   1      41.377  20.074  27.404  1.00  0.00     0.040 A 
ATOM     83  F   UNL A   1      40.961  22.189  28.283  1.00  0.00    -0.206 F 
ATOM     84  C   UNL A   1      42.109  19.213  26.595  1.00  0.00     0.006 A 
ENDBRANCH  56  77
BRANCH  68  85
ATOM     85  C   UNL A   1      46.768  26.756  26.863  1.00  0.00     0.057 A 
ATOM     86  C   UNL A   1      47.933  26.379  26.176  1.00  0.00     0.134 A 
ATOM     87  C   UNL A   1      45.813  27.472  26.137  1.00  0.00     0.134 A 
ATOM     88  F   UNL A   1      48.873  25.630  26.765  1.00  0.00    -0.206 F 
ATOM     89  C   UNL A   1      48.135  26.703  24.829  1.00  0.00     0.040 A 
ATOM     90  C   UNL A   1      45.986  27.774  24.784  1.00  0.00     0.040 A 
ATOM     91  F   UNL A   1      44.656  27.828  26.716  1.00  0.00    -0.206 F 
ATOM     92  C   UNL A   1      47.150  27.390  24.125  1.00  0.00     0.006 A 
ENDBRANCH  68  85
ENDBRANCH  42  43
ENDBRANCH  35  37
ENDBRANCH  34  35
ENDBRANCH  33  34
ENDBRANCH   1  33
TORSDOF 17
ENDMDL
