MODEL 1
REMARK VINA RESULT:     -11.3      0.000      0.000
REMARK SMILES N#CCSc1nnnn1-c1ccc(C(=O)OCCOC(=O)c2ccc(-c3c4nc(c(-c5c(F)cccc5F)c5ccc([nH]5)c(-c5c(F)cccc5F)c5nc(c(-c6c(F)cccc6F)c6ccc3[nH]6)C=C5)C=C4)cc2)cc1
REMARK SMILES IDX 17 1 16 2 14 3 15 4 13 5 10 6 11 7 77 8 12 9 76 10 9 11 5 12
REMARK SMILES IDX 6 13 7 14 8 15 4 16 3 17 2 18 1 19 18 20 19 21 20 22 21 23
REMARK SMILES IDX 22 24 23 25 75 26 24 27 74 28 25 29 26 30 27 31 68 32 28 33
REMARK SMILES IDX 73 34 67 35 69 36 29 37 72 38 66 39 65 40 30 42 56 43 39 44
REMARK SMILES IDX 55 45 40 46 43 47 54 48 70 49 41 50 42 51 53 53 71 54 44 55
REMARK SMILES IDX 31 56 32 57 37 58 33 59 34 60 36 61 38 62 35 63 57 64 58 65
REMARK SMILES IDX 63 66 59 67 60 68 62 69 64 70 61 71 45 72 46 73 51 74 47 75
REMARK SMILES IDX 48 76 50 77 52 78 49 79
REMARK H PARENT 69 41 43 52
REMARK Flexibility Score: inf
ROOT
ATOM      1  C   UNL A   1      42.584  18.461  26.339  1.00  0.00     0.275 C 
ENDROOT
BRANCH   1   2
ATOM      2  O   UNL A   1      41.465  19.184  25.802  1.00  0.00    -0.458 OA
BRANCH   2   3
ATOM      3  C   UNL A   1      41.148  20.344  26.433  1.00  0.00     0.338 C 
ATOM      4  O   UNL A   1      41.903  21.031  27.108  1.00  0.00    -0.246 OA
BRANCH   3   5
ATOM      5  C   UNL A   1      39.760  20.742  26.093  1.00  0.00     0.060 A 
ATOM      6  C   UNL A   1      37.339  21.590  25.028  1.00  0.00     0.069 A 
ATOM      7  C   UNL A   1      37.697  20.240  24.913  1.00  0.00     0.029 A 
ATOM      8  C   UNL A   1      38.087  22.457  25.834  1.00  0.00     0.029 A 
ATOM      9  C   UNL A   1      38.932  19.828  25.420  1.00  0.00     0.018 A 
ATOM     10  C   UNL A   1      39.296  22.029  26.374  1.00  0.00     0.018 A 
BRANCH   6  11
ATOM     11  N   UNL A   1      36.350  22.107  24.163  1.00  0.00    -0.187 N 
ATOM     12  C   UNL A   1      34.962  22.034  24.259  1.00  0.00     0.215 A 
ATOM     13  N   UNL A   1      34.433  22.720  23.272  1.00  0.00    -0.101 NA
ATOM     14  N   UNL A   1      35.486  23.276  22.591  1.00  0.00    -0.022 NA
ATOM     15  N   UNL A   1      36.643  22.975  23.166  1.00  0.00    -0.039 NA
BRANCH  12  16
ATOM     16  S   UNL A   1      34.045  21.342  25.569  1.00  0.00    -0.069 SA
BRANCH  16  17
ATOM     17  C   UNL A   1      32.669  20.513  24.681  1.00  0.00     0.198 C 
BRANCH  17  18
ATOM     18  C   UNL A   1      32.486  19.069  25.117  1.00  0.00     0.074 C 
ATOM     19  N   UNL A   1      32.334  17.871  25.479  1.00  0.00    -0.197 NA
ENDBRANCH  17  18
ENDBRANCH  16  17
ENDBRANCH  12  16
ENDBRANCH   6  11
ENDBRANCH   3   5
ENDBRANCH   2   3
ENDBRANCH   1   2
BRANCH   1  20
ATOM     20  C   UNL A   1      43.754  18.453  25.363  1.00  0.00     0.275 C 
BRANCH  20  21
ATOM     21  O   UNL A   1      43.768  19.651  24.592  1.00  0.00    -0.458 OA
BRANCH  21  22
ATOM     22  C   UNL A   1      44.979  20.013  24.111  1.00  0.00     0.338 C 
ATOM     23  O   UNL A   1      45.920  19.279  23.853  1.00  0.00    -0.246 OA
BRANCH  22  24
ATOM     24  C   UNL A   1      45.093  21.474  24.147  1.00  0.00     0.060 A 
ATOM     25  C   UNL A   1      46.239  21.979  24.768  1.00  0.00     0.016 A 
ATOM     26  C   UNL A   1      43.934  22.242  23.974  1.00  0.00     0.016 A 
ATOM     27  C   UNL A   1      46.118  23.147  25.481  1.00  0.00     0.010 A 
ATOM     28  C   UNL A   1      43.810  23.397  24.698  1.00  0.00     0.010 A 
ATOM     29  C   UNL A   1      44.866  23.766  25.527  1.00  0.00    -0.014 A 
BRANCH  29  30
ATOM     30  C   UNL A   1      44.688  24.851  26.463  1.00  0.00     0.031 A 
ATOM     31  C   UNL A   1      45.821  25.799  26.474  1.00  0.00     0.074 A 
ATOM     32  C   UNL A   1      43.537  25.009  27.142  1.00  0.00     0.049 A 
ATOM     33  N   UNL A   1      46.610  26.093  27.453  1.00  0.00    -0.248 NA
ATOM     34  C   UNL A   1      46.220  26.373  25.177  1.00  0.00     0.031 C 
ATOM     35  C   UNL A   1      42.269  24.289  26.975  1.00  0.00     0.029 A 
ATOM     36  N   UNL A   1      43.230  25.952  28.067  1.00  0.00    -0.354 N 
ATOM     37  C   UNL A   1      47.489  27.041  26.941  1.00  0.00     0.074 A 
ATOM     38  C   UNL A   1      47.322  27.039  25.511  1.00  0.00     0.031 C 
ATOM     39  C   UNL A   1      41.283  24.977  27.596  1.00  0.00     0.029 A 
ATOM     40  C   UNL A   1      41.871  26.104  28.299  1.00  0.00     0.049 A 
ATOM     41  H   UNL A   1      43.914  26.484  28.535  1.00  0.00     0.167 HD
ATOM     42  C   UNL A   1      48.106  27.942  27.747  1.00  0.00     0.037 A 
ATOM     43  C   UNL A   1      41.298  27.155  28.935  1.00  0.00     0.037 A 
ATOM     44  C   UNL A   1      48.136  27.500  29.115  1.00  0.00     0.049 A 
ATOM     45  C   UNL A   1      42.367  27.842  29.707  1.00  0.00     0.074 A 
ATOM     46  C   UNL A   1      48.676  26.406  29.764  1.00  0.00     0.029 A 
ATOM     47  N   UNL A   1      47.221  28.035  29.988  1.00  0.00    -0.354 N 
ATOM     48  N   UNL A   1      42.968  27.319  30.741  1.00  0.00    -0.248 NA
ATOM     49  C   UNL A   1      43.097  28.913  29.040  1.00  0.00     0.031 C 
ATOM     50  C   UNL A   1      47.722  26.062  30.766  1.00  0.00     0.029 A 
ATOM     51  C   UNL A   1      46.684  26.992  30.699  1.00  0.00     0.049 A 
ATOM     52  H   UNL A   1      46.993  28.988  30.086  1.00  0.00     0.167 HD
ATOM     53  C   UNL A   1      44.299  27.696  30.613  1.00  0.00     0.074 A 
ATOM     54  C   UNL A   1      44.304  28.736  29.587  1.00  0.00     0.031 C 
ATOM     55  C   UNL A   1      45.307  26.937  31.136  1.00  0.00     0.037 A 
BRANCH  42  56
ATOM     56  C   UNL A   1      48.337  29.373  27.341  1.00  0.00     0.057 A 
ATOM     57  C   UNL A   1      49.626  29.918  27.443  1.00  0.00     0.134 A 
ATOM     58  C   UNL A   1      47.302  30.309  27.127  1.00  0.00     0.134 A 
ATOM     59  F   UNL A   1      50.688  29.132  27.672  1.00  0.00    -0.206 F 
ATOM     60  C   UNL A   1      49.858  31.297  27.396  1.00  0.00     0.040 A 
ATOM     61  C   UNL A   1      47.530  31.681  27.023  1.00  0.00     0.040 A 
ATOM     62  F   UNL A   1      46.009  29.963  27.111  1.00  0.00    -0.206 F 
ATOM     63  C   UNL A   1      48.808  32.184  27.190  1.00  0.00     0.006 A 
ENDBRANCH  42  56
BRANCH  43  64
ATOM     64  C   UNL A   1      40.007  27.804  28.605  1.00  0.00     0.057 A 
ATOM     65  C   UNL A   1      38.959  27.853  29.534  1.00  0.00     0.134 A 
ATOM     66  C   UNL A   1      39.857  28.617  27.467  1.00  0.00     0.134 A 
ATOM     67  F   UNL A   1      39.030  27.151  30.675  1.00  0.00    -0.206 F 
ATOM     68  C   UNL A   1      37.835  28.670  29.348  1.00  0.00     0.040 A 
ATOM     69  C   UNL A   1      38.738  29.430  27.263  1.00  0.00     0.040 A 
ATOM     70  F   UNL A   1      40.833  28.720  26.552  1.00  0.00    -0.206 F 
ATOM     71  C   UNL A   1      37.726  29.468  28.212  1.00  0.00     0.006 A 
ENDBRANCH  43  64
BRANCH  55  72
ATOM     72  C   UNL A   1      44.930  25.786  32.027  1.00  0.00     0.057 A 
ATOM     73  C   UNL A   1      44.583  24.513  31.546  1.00  0.00     0.134 A 
ATOM     74  C   UNL A   1      45.091  25.913  33.409  1.00  0.00     0.134 A 
ATOM     75  F   UNL A   1      44.506  24.268  30.233  1.00  0.00    -0.206 F 
ATOM     76  C   UNL A   1      44.368  23.430  32.405  1.00  0.00     0.040 A 
ATOM     77  C   UNL A   1      44.912  24.832  34.276  1.00  0.00     0.040 A 
ATOM     78  F   UNL A   1      45.484  27.083  33.939  1.00  0.00    -0.206 F 
ATOM     79  C   UNL A   1      44.541  23.587  33.775  1.00  0.00     0.006 A 
ENDBRANCH  55  72
ENDBRANCH  29  30
ENDBRANCH  22  24
ENDBRANCH  21  22
ENDBRANCH  20  21
ENDBRANCH   1  20
TORSDOF 15
ENDMDL
MODEL 2
REMARK VINA RESULT:     -11.0      1.811      2.404
REMARK SMILES N#CCSc1nnnn1-c1ccc(C(=O)OCCOC(=O)c2ccc(-c3c4nc(c(-c5c(F)cccc5F)c5ccc([nH]5)c(-c5c(F)cccc5F)c5nc(c(-c6c(F)cccc6F)c6ccc3[nH]6)C=C5)C=C4)cc2)cc1
REMARK SMILES IDX 17 1 16 2 14 3 15 4 13 5 10 6 11 7 77 8 12 9 76 10 9 11 5 12
REMARK SMILES IDX 6 13 7 14 8 15 4 16 3 17 2 18 1 19 18 20 19 21 20 22 21 23
REMARK SMILES IDX 22 24 23 25 75 26 24 27 74 28 25 29 26 30 27 31 68 32 28 33
REMARK SMILES IDX 73 34 67 35 69 36 29 37 72 38 66 39 65 40 30 42 56 43 39 44
REMARK SMILES IDX 55 45 40 46 43 47 54 48 70 49 41 50 42 51 53 53 71 54 44 55
REMARK SMILES IDX 31 56 32 57 37 58 33 59 34 60 36 61 38 62 35 63 57 64 58 65
REMARK SMILES IDX 63 66 59 67 60 68 62 69 64 70 61 71 45 72 46 73 51 74 47 75
REMARK SMILES IDX 48 76 50 77 52 78 49 79
REMARK H PARENT 69 41 43 52
REMARK Flexibility Score: inf
ROOT
ATOM      1  C   UNL A   1      40.761  19.956  26.861  1.00  0.00     0.275 C 
ENDROOT
BRANCH   1   2
ATOM      2  O   UNL A   1      39.799  20.543  25.970  1.00  0.00    -0.458 OA
BRANCH   2   3
ATOM      3  C   UNL A   1      39.592  21.878  26.113  1.00  0.00     0.338 C 
ATOM      4  O   UNL A   1      40.441  22.718  26.379  1.00  0.00    -0.246 OA
BRANCH   3   5
ATOM      5  C   UNL A   1      38.185  22.210  25.781  1.00  0.00     0.060 A 
ATOM      6  C   UNL A   1      35.710  22.881  24.715  1.00  0.00     0.069 A 
ATOM      7  C   UNL A   1      36.088  21.532  24.760  1.00  0.00     0.029 A 
ATOM      8  C   UNL A   1      36.472  23.855  25.372  1.00  0.00     0.029 A 
ATOM      9  C   UNL A   1      37.350  21.205  25.265  1.00  0.00     0.018 A 
ATOM     10  C   UNL A   1      37.708  23.516  25.913  1.00  0.00     0.018 A 
BRANCH   6  11
ATOM     11  N   UNL A   1      34.678  23.268  23.832  1.00  0.00    -0.187 N 
ATOM     12  C   UNL A   1      33.440  23.840  24.111  1.00  0.00     0.215 A 
ATOM     13  N   UNL A   1      32.830  24.105  22.979  1.00  0.00    -0.101 NA
ATOM     14  N   UNL A   1      33.711  23.759  21.986  1.00  0.00    -0.022 NA
ATOM     15  N   UNL A   1      34.858  23.324  22.491  1.00  0.00    -0.039 NA
BRANCH  12  16
ATOM     16  S   UNL A   1      32.850  24.332  25.675  1.00  0.00    -0.069 SA
BRANCH  16  17
ATOM     17  C   UNL A   1      32.126  22.776  26.323  1.00  0.00     0.198 C 
BRANCH  17  18
ATOM     18  C   UNL A   1      30.746  22.986  26.924  1.00  0.00     0.074 C 
ATOM     19  N   UNL A   1      29.602  23.160  27.423  1.00  0.00    -0.197 NA
ENDBRANCH  17  18
ENDBRANCH  16  17
ENDBRANCH  12  16
ENDBRANCH   6  11
ENDBRANCH   3   5
ENDBRANCH   2   3
ENDBRANCH   1   2
BRANCH   1  20
ATOM     20  C   UNL A   1      42.060  19.632  26.134  1.00  0.00     0.275 C 
BRANCH  20  21
ATOM     21  O   UNL A   1      43.014  20.673  26.329  1.00  0.00    -0.458 OA
BRANCH  21  22
ATOM     22  C   UNL A   1      43.816  20.926  25.269  1.00  0.00     0.338 C 
ATOM     23  O   UNL A   1      44.275  20.114  24.482  1.00  0.00    -0.246 OA
BRANCH  22  24
ATOM     24  C   UNL A   1      44.251  22.324  25.320  1.00  0.00     0.060 A 
ATOM     25  C   UNL A   1      45.153  22.643  26.340  1.00  0.00     0.016 A 
ATOM     26  C   UNL A   1      43.469  23.294  24.681  1.00  0.00     0.016 A 
ATOM     27  C   UNL A   1      45.049  23.883  26.921  1.00  0.00     0.010 A 
ATOM     28  C   UNL A   1      43.353  24.524  25.272  1.00  0.00     0.010 A 
ATOM     29  C   UNL A   1      44.062  24.753  26.448  1.00  0.00    -0.014 A 
BRANCH  29  30
ATOM     30  C   UNL A   1      43.801  25.950  27.213  1.00  0.00     0.031 A 
ATOM     31  C   UNL A   1      44.784  27.024  26.964  1.00  0.00     0.074 A 
ATOM     32  C   UNL A   1      42.692  26.072  27.966  1.00  0.00     0.049 A 
ATOM     33  N   UNL A   1      45.593  27.580  27.803  1.00  0.00    -0.248 NA
ATOM     34  C   UNL A   1      44.999  27.415  25.560  1.00  0.00     0.031 C 
ATOM     35  C   UNL A   1      41.532  25.176  28.039  1.00  0.00     0.029 A 
ATOM     36  N   UNL A   1      42.322  27.111  28.756  1.00  0.00    -0.354 N 
ATOM     37  C   UNL A   1      46.287  28.532  27.064  1.00  0.00     0.074 A 
ATOM     38  C   UNL A   1      46.017  28.264  25.676  1.00  0.00     0.031 C 
ATOM     39  C   UNL A   1      40.506  25.827  28.635  1.00  0.00     0.029 A 
ATOM     40  C   UNL A   1      40.977  27.124  29.091  1.00  0.00     0.049 A 
ATOM     41  H   UNL A   1      42.956  27.798  29.064  1.00  0.00     0.167 HD
ATOM     42  C   UNL A   1      46.827  29.630  27.654  1.00  0.00     0.037 A 
ATOM     43  C   UNL A   1      40.307  28.185  29.604  1.00  0.00     0.037 A 
ATOM     44  C   UNL A   1      47.020  29.434  29.065  1.00  0.00     0.049 A 
ATOM     45  C   UNL A   1      41.322  29.126  30.150  1.00  0.00     0.074 A 
ATOM     46  C   UNL A   1      47.757  28.546  29.825  1.00  0.00     0.029 A 
ATOM     47  N   UNL A   1      46.105  29.987  29.927  1.00  0.00    -0.354 N 
ATOM     48  N   UNL A   1      42.066  28.868  31.191  1.00  0.00    -0.248 NA
ATOM     49  C   UNL A   1      41.839  30.152  29.255  1.00  0.00     0.031 C 
ATOM     50  C   UNL A   1      46.940  28.258  30.956  1.00  0.00     0.029 A 
ATOM     51  C   UNL A   1      45.777  29.021  30.843  1.00  0.00     0.049 A 
ATOM     52  H   UNL A   1      45.751  30.906  29.894  1.00  0.00     0.167 HD
ATOM     53  C   UNL A   1      43.316  29.387  30.877  1.00  0.00     0.074 A 
ATOM     54  C   UNL A   1      43.096  30.228  29.703  1.00  0.00     0.031 C 
ATOM     55  C   UNL A   1      44.458  28.864  31.414  1.00  0.00     0.037 A 
BRANCH  42  56
ATOM     56  C   UNL A   1      46.819  30.988  27.006  1.00  0.00     0.057 A 
ATOM     57  C   UNL A   1      48.009  31.729  26.948  1.00  0.00     0.134 A 
ATOM     58  C   UNL A   1      45.645  31.707  26.695  1.00  0.00     0.134 A 
ATOM     59  F   UNL A   1      49.187  31.162  27.247  1.00  0.00    -0.206 F 
ATOM     60  C   UNL A   1      48.021  33.098  26.662  1.00  0.00     0.040 A 
ATOM     61  C   UNL A   1      45.652  33.060  26.354  1.00  0.00     0.040 A 
ATOM     62  F   UNL A   1      44.422  31.174  26.805  1.00  0.00    -0.206 F 
ATOM     63  C   UNL A   1      46.839  33.770  26.367  1.00  0.00     0.006 A 
ENDBRANCH  42  56
BRANCH  43  64
ATOM     64  C   UNL A   1      38.916  28.596  29.301  1.00  0.00     0.057 A 
ATOM     65  C   UNL A   1      37.951  28.695  30.313  1.00  0.00     0.134 A 
ATOM     66  C   UNL A   1      38.562  29.151  28.058  1.00  0.00     0.134 A 
ATOM     67  F   UNL A   1      38.212  28.240  31.547  1.00  0.00    -0.206 F 
ATOM     68  C   UNL A   1      36.713  29.318  30.103  1.00  0.00     0.040 A 
ATOM     69  C   UNL A   1      37.328  29.767  27.831  1.00  0.00     0.040 A 
ATOM     70  F   UNL A   1      39.437  29.194  27.041  1.00  0.00    -0.206 F 
ATOM     71  C   UNL A   1      36.401  29.863  28.860  1.00  0.00     0.006 A 
ENDBRANCH  43  64
BRANCH  55  72
ATOM     72  C   UNL A   1      44.317  27.843  32.509  1.00  0.00     0.057 A 
ATOM     73  C   UNL A   1      44.102  28.174  33.856  1.00  0.00     0.134 A 
ATOM     74  C   UNL A   1      44.220  26.490  32.170  1.00  0.00     0.134 A 
ATOM     75  F   UNL A   1      44.073  29.450  34.257  1.00  0.00    -0.206 F 
ATOM     76  C   UNL A   1      43.842  27.200  34.826  1.00  0.00     0.040 A 
ATOM     77  C   UNL A   1      43.929  25.511  33.123  1.00  0.00     0.040 A 
ATOM     78  F   UNL A   1      44.351  26.103  30.891  1.00  0.00    -0.206 F 
ATOM     79  C   UNL A   1      43.747  25.863  34.457  1.00  0.00     0.006 A 
ENDBRANCH  55  72
ENDBRANCH  29  30
ENDBRANCH  22  24
ENDBRANCH  21  22
ENDBRANCH  20  21
ENDBRANCH   1  20
TORSDOF 15
ENDMDL
MODEL 3
REMARK VINA RESULT:     -10.9      5.487     11.059
REMARK SMILES N#CCSc1nnnn1-c1ccc(C(=O)OCCOC(=O)c2ccc(-c3c4nc(c(-c5c(F)cccc5F)c5ccc([nH]5)c(-c5c(F)cccc5F)c5nc(c(-c6c(F)cccc6F)c6ccc3[nH]6)C=C5)C=C4)cc2)cc1
REMARK SMILES IDX 17 1 16 2 14 3 15 4 13 5 10 6 11 7 77 8 12 9 76 10 9 11 5 12
REMARK SMILES IDX 6 13 7 14 8 15 4 16 3 17 2 18 1 19 18 20 19 21 20 22 21 23
REMARK SMILES IDX 22 24 23 25 75 26 24 27 74 28 25 29 26 30 27 31 68 32 28 33
REMARK SMILES IDX 73 34 67 35 69 36 29 37 72 38 66 39 65 40 30 42 56 43 39 44
REMARK SMILES IDX 55 45 40 46 43 47 54 48 70 49 41 50 42 51 53 53 71 54 44 55
REMARK SMILES IDX 31 56 32 57 37 58 33 59 34 60 36 61 38 62 35 63 57 64 58 65
REMARK SMILES IDX 63 66 59 67 60 68 62 69 64 70 61 71 45 72 46 73 51 74 47 75
REMARK SMILES IDX 48 76 50 77 52 78 49 79
REMARK H PARENT 69 41 43 52
REMARK Flexibility Score: inf
ROOT
ATOM      1  C   UNL A   1      34.517  34.727  28.887  1.00  0.00     0.275 C 
ENDROOT
BRANCH   1   2
ATOM      2  O   UNL A   1      35.163  34.265  30.084  1.00  0.00    -0.458 OA
BRANCH   2   3
ATOM      3  C   UNL A   1      34.411  34.295  31.216  1.00  0.00     0.338 C 
ATOM      4  O   UNL A   1      33.294  34.782  31.330  1.00  0.00    -0.246 OA
BRANCH   3   5
ATOM      5  C   UNL A   1      35.090  33.537  32.294  1.00  0.00     0.060 A 
ATOM      6  C   UNL A   1      36.755  32.335  34.164  1.00  0.00     0.069 A 
ATOM      7  C   UNL A   1      36.138  33.552  34.486  1.00  0.00     0.029 A 
ATOM      8  C   UNL A   1      36.389  31.637  33.007  1.00  0.00     0.029 A 
ATOM      9  C   UNL A   1      35.330  34.168  33.527  1.00  0.00     0.018 A 
ATOM     10  C   UNL A   1      35.548  32.236  32.075  1.00  0.00     0.018 A 
BRANCH   6  11
ATOM     11  N   UNL A   1      37.889  31.932  34.904  1.00  0.00    -0.187 N 
ATOM     12  C   UNL A   1      39.227  31.885  34.520  1.00  0.00     0.215 A 
ATOM     13  N   UNL A   1      39.952  31.519  35.552  1.00  0.00    -0.101 NA
ATOM     14  N   UNL A   1      39.078  31.396  36.602  1.00  0.00    -0.022 NA
ATOM     15  N   UNL A   1      37.842  31.718  36.240  1.00  0.00    -0.039 NA
BRANCH  12  16
ATOM     16  S   UNL A   1      39.893  32.418  33.000  1.00  0.00    -0.069 SA
BRANCH  16  17
ATOM     17  C   UNL A   1      39.367  34.176  32.944  1.00  0.00     0.198 C 
BRANCH  17  18
ATOM     18  C   UNL A   1      38.907  34.598  31.558  1.00  0.00     0.074 C 
ATOM     19  N   UNL A   1      38.525  34.948  30.409  1.00  0.00    -0.197 NA
ENDBRANCH  17  18
ENDBRANCH  16  17
ENDBRANCH  12  16
ENDBRANCH   6  11
ENDBRANCH   3   5
ENDBRANCH   2   3
ENDBRANCH   1   2
BRANCH   1  20
ATOM     20  C   UNL A   1      34.321  33.589  27.893  1.00  0.00     0.275 C 
BRANCH  20  21
ATOM     21  O   UNL A   1      35.535  32.864  27.719  1.00  0.00    -0.458 OA
BRANCH  21  22
ATOM     22  C   UNL A   1      35.426  31.521  27.835  1.00  0.00     0.338 C 
ATOM     23  O   UNL A   1      34.584  30.802  27.321  1.00  0.00    -0.246 OA
BRANCH  22  24
ATOM     24  C   UNL A   1      36.353  31.052  28.869  1.00  0.00     0.060 A 
ATOM     25  C   UNL A   1      37.490  31.840  29.068  1.00  0.00     0.016 A 
ATOM     26  C   UNL A   1      36.291  29.710  29.267  1.00  0.00     0.016 A 
ATOM     27  C   UNL A   1      38.663  31.201  29.389  1.00  0.00     0.010 A 
ATOM     28  C   UNL A   1      37.464  29.071  29.570  1.00  0.00     0.010 A 
ATOM     29  C   UNL A   1      38.644  29.809  29.513  1.00  0.00    -0.014 A 
BRANCH  29  30
ATOM     30  C   UNL A   1      39.913  29.127  29.612  1.00  0.00     0.031 A 
ATOM     31  C   UNL A   1      40.401  29.008  31.002  1.00  0.00     0.074 A 
ATOM     32  C   UNL A   1      40.492  28.565  28.535  1.00  0.00     0.049 A 
ATOM     33  N   UNL A   1      41.483  29.490  31.515  1.00  0.00    -0.248 NA
ATOM     34  C   UNL A   1      39.478  28.405  31.979  1.00  0.00     0.031 C 
ATOM     35  C   UNL A   1      39.940  28.387  27.187  1.00  0.00     0.029 A 
ATOM     36  N   UNL A   1      41.683  27.920  28.461  1.00  0.00    -0.354 N 
ATOM     37  C   UNL A   1      41.469  29.081  32.844  1.00  0.00     0.074 A 
ATOM     38  C   UNL A   1      40.147  28.583  33.116  1.00  0.00     0.031 C 
ATOM     39  C   UNL A   1      40.691  27.482  26.516  1.00  0.00     0.029 A 
ATOM     40  C   UNL A   1      41.833  27.122  27.338  1.00  0.00     0.049 A 
ATOM     41  H   UNL A   1      42.383  28.012  29.148  1.00  0.00     0.167 HD
ATOM     42  C   UNL A   1      42.619  28.943  33.553  1.00  0.00     0.037 A 
ATOM     43  C   UNL A   1      42.778  26.163  27.179  1.00  0.00     0.037 A 
ATOM     44  C   UNL A   1      43.696  29.698  32.972  1.00  0.00     0.049 A 
ATOM     45  C   UNL A   1      43.853  26.431  28.172  1.00  0.00     0.074 A 
ATOM     46  C   UNL A   1      43.905  31.039  32.713  1.00  0.00     0.029 A 
ATOM     47  N   UNL A   1      44.623  29.025  32.215  1.00  0.00    -0.354 N 
ATOM     48  N   UNL A   1      44.644  27.468  28.124  1.00  0.00    -0.248 NA
ATOM     49  C   UNL A   1      43.733  25.801  29.480  1.00  0.00     0.031 C 
ATOM     50  C   UNL A   1      44.599  31.072  31.469  1.00  0.00     0.029 A 
ATOM     51  C   UNL A   1      44.812  29.753  31.068  1.00  0.00     0.049 A 
ATOM     52  H   UNL A   1      45.070  28.180  32.452  1.00  0.00     0.167 HD
ATOM     53  C   UNL A   1      44.797  27.866  29.446  1.00  0.00     0.074 A 
ATOM     54  C   UNL A   1      44.271  26.758  30.241  1.00  0.00     0.031 C 
ATOM     55  C   UNL A   1      45.065  29.165  29.772  1.00  0.00     0.037 A 
BRANCH  42  56
ATOM     56  C   UNL A   1      42.835  27.831  34.543  1.00  0.00     0.057 A 
ATOM     57  C   UNL A   1      43.095  26.534  34.074  1.00  0.00     0.134 A 
ATOM     58  C   UNL A   1      42.520  27.923  35.916  1.00  0.00     0.134 A 
ATOM     59  F   UNL A   1      43.381  26.315  32.782  1.00  0.00    -0.206 F 
ATOM     60  C   UNL A   1      42.989  25.408  34.898  1.00  0.00     0.040 A 
ATOM     61  C   UNL A   1      42.466  26.813  36.758  1.00  0.00     0.040 A 
ATOM     62  F   UNL A   1      42.146  29.072  36.494  1.00  0.00    -0.206 F 
ATOM     63  C   UNL A   1      42.669  25.545  36.244  1.00  0.00     0.006 A 
ENDBRANCH  42  56
BRANCH  43  64
ATOM     64  C   UNL A   1      42.617  24.850  26.510  1.00  0.00     0.057 A 
ATOM     65  C   UNL A   1      43.396  24.499  25.400  1.00  0.00     0.134 A 
ATOM     66  C   UNL A   1      41.879  23.806  27.098  1.00  0.00     0.134 A 
ATOM     67  F   UNL A   1      44.173  25.413  24.799  1.00  0.00    -0.206 F 
ATOM     68  C   UNL A   1      43.447  23.187  24.910  1.00  0.00     0.040 A 
ATOM     69  C   UNL A   1      41.912  22.495  26.615  1.00  0.00     0.040 A 
ATOM     70  F   UNL A   1      41.166  24.002  28.217  1.00  0.00    -0.206 F 
ATOM     71  C   UNL A   1      42.708  22.178  25.523  1.00  0.00     0.006 A 
ENDBRANCH  43  64
BRANCH  55  72
ATOM     72  C   UNL A   1      45.390  30.117  28.654  1.00  0.00     0.057 A 
ATOM     73  C   UNL A   1      44.418  30.843  27.946  1.00  0.00     0.134 A 
ATOM     74  C   UNL A   1      46.725  30.442  28.402  1.00  0.00     0.134 A 
ATOM     75  F   UNL A   1      43.114  30.675  28.193  1.00  0.00    -0.206 F 
ATOM     76  C   UNL A   1      44.763  31.818  27.004  1.00  0.00     0.040 A 
ATOM     77  C   UNL A   1      47.083  31.436  27.488  1.00  0.00     0.040 A 
ATOM     78  F   UNL A   1      47.709  29.834  29.086  1.00  0.00    -0.206 F 
ATOM     79  C   UNL A   1      46.100  32.122  26.779  1.00  0.00     0.006 A 
ENDBRANCH  55  72
ENDBRANCH  29  30
ENDBRANCH  22  24
ENDBRANCH  21  22
ENDBRANCH  20  21
ENDBRANCH   1  20
TORSDOF 15
ENDMDL
