MODEL 1
REMARK VINA RESULT:     -10.6      0.000      0.000
REMARK SMILES CC(C)C[C@@H](NC(=O)c1cccnc1)C(=O)OCCOC(=O)c1ccc(-c2c3nc(c(-c4c(F)cccc4F)c4ccc([nH]4)c(-c4c(F)cccc4F)c4nc(c(-c5c(F)cccc5F)c5ccc2[nH]5)C=C4)C=C3)cc1
REMARK SMILES IDX 18 1 17 2 15 3 16 4 5 5 4 6 2 7 1 8 3 9 6 10 7 11 8 13 9 14
REMARK SMILES IDX 10 15 14 16 11 17 13 18 12 19 19 20 20 21 21 22 22 23 23 24
REMARK SMILES IDX 24 25 76 26 25 27 75 28 26 29 27 30 28 31 69 32 29 33 74 34
REMARK SMILES IDX 68 35 70 36 30 37 73 38 67 39 66 40 31 42 57 43 40 44 56 45
REMARK SMILES IDX 41 46 44 47 55 48 71 49 42 50 43 51 54 53 72 54 45 55 32 56
REMARK SMILES IDX 33 57 38 58 34 59 35 60 37 61 39 62 36 63 58 64 59 65 64 66
REMARK SMILES IDX 60 67 61 68 63 69 65 70 62 71 46 72 47 73 52 74 48 75 49 76
REMARK SMILES IDX 51 77 53 78 50 79
REMARK H PARENT 6 12 70 41 44 52
REMARK Flexibility Score: inf
ROOT
ATOM      1  C   UNL A   1      31.416  31.920  26.902  1.00  0.00     0.274 C 
ENDROOT
BRANCH   1   2
ATOM      2  O   UNL A   1      31.411  31.182  25.662  1.00  0.00    -0.461 OA
BRANCH   2   3
ATOM      3  C   UNL A   1      31.605  29.844  25.782  1.00  0.00     0.328 C 
ATOM      4  O   UNL A   1      31.826  29.264  26.842  1.00  0.00    -0.250 OA
BRANCH   3   5
ATOM      5  C   UNL A   1      31.597  29.097  24.440  1.00  0.00     0.192 C 
BRANCH   5   6
ATOM      6  C   UNL A   1      30.395  29.558  23.588  1.00  0.00     0.040 C 
BRANCH   6   7
ATOM      7  C   UNL A   1      29.560  28.434  22.936  1.00  0.00    -0.015 C 
ATOM      8  C   UNL A   1      29.674  27.103  23.683  1.00  0.00     0.007 C 
ATOM      9  C   UNL A   1      28.086  28.856  22.899  1.00  0.00     0.007 C 
ENDBRANCH   6   7
ENDBRANCH   5   6
BRANCH   5  10
ATOM     10  N   UNL A   1      32.843  29.132  23.650  1.00  0.00    -0.339 N 
ATOM     11  C   UNL A   1      33.433  28.099  22.961  1.00  0.00     0.253 C 
ATOM     12  H   UNL A   1      33.307  29.998  23.613  1.00  0.00     0.164 HD
ATOM     13  O   UNL A   1      34.011  28.300  21.899  1.00  0.00    -0.269 OA
BRANCH  11  14
ATOM     14  C   UNL A   1      33.516  26.775  23.584  1.00  0.00     0.058 A 
ATOM     15  C   UNL A   1      34.021  26.582  24.864  1.00  0.00     0.017 A 
ATOM     16  C   UNL A   1      33.072  25.676  22.862  1.00  0.00     0.124 A 
ATOM     17  C   UNL A   1      34.126  25.279  25.349  1.00  0.00     0.021 A 
ATOM     18  N   UNL A   1      33.156  24.401  23.312  1.00  0.00    -0.264 NA
ATOM     19  C   UNL A   1      33.687  24.233  24.545  1.00  0.00     0.111 A 
ENDBRANCH  11  14
ENDBRANCH   5  10
ENDBRANCH   3   5
ENDBRANCH   2   3
ENDBRANCH   1   2
BRANCH   1  20
ATOM     20  C   UNL A   1      32.326  33.155  26.872  1.00  0.00     0.275 C 
BRANCH  20  21
ATOM     21  O   UNL A   1      32.216  33.946  28.072  1.00  0.00    -0.458 OA
BRANCH  21  22
ATOM     22  C   UNL A   1      33.324  34.653  28.391  1.00  0.00     0.338 C 
ATOM     23  O   UNL A   1      33.400  35.862  28.547  1.00  0.00    -0.246 OA
BRANCH  22  24
ATOM     24  C   UNL A   1      34.450  33.753  28.705  1.00  0.00     0.060 A 
ATOM     25  C   UNL A   1      34.183  32.649  29.525  1.00  0.00     0.016 A 
ATOM     26  C   UNL A   1      35.752  34.020  28.282  1.00  0.00     0.016 A 
ATOM     27  C   UNL A   1      35.217  31.824  29.954  1.00  0.00     0.010 A 
ATOM     28  C   UNL A   1      36.795  33.199  28.727  1.00  0.00     0.010 A 
ATOM     29  C   UNL A   1      36.534  32.116  29.586  1.00  0.00    -0.014 A 
BRANCH  29  30
ATOM     30  C   UNL A   1      37.645  31.375  30.225  1.00  0.00     0.031 A 
ATOM     31  C   UNL A   1      37.946  31.630  31.675  1.00  0.00     0.074 A 
ATOM     32  C   UNL A   1      38.347  30.459  29.538  1.00  0.00     0.049 A 
ATOM     33  N   UNL A   1      38.906  31.149  32.420  1.00  0.00    -0.248 NA
ATOM     34  C   UNL A   1      37.037  32.552  32.377  1.00  0.00     0.031 C 
ATOM     35  C   UNL A   1      38.103  30.077  28.148  1.00  0.00     0.029 A 
ATOM     36  N   UNL A   1      39.413  29.685  29.921  1.00  0.00    -0.354 N 
ATOM     37  C   UNL A   1      38.728  31.718  33.675  1.00  0.00     0.074 A 
ATOM     38  C   UNL A   1      37.577  32.592  33.586  1.00  0.00     0.031 C 
ATOM     39  C   UNL A   1      39.004  29.145  27.790  1.00  0.00     0.029 A 
ATOM     40  C   UNL A   1      39.907  28.897  28.912  1.00  0.00     0.049 A 
ATOM     41  H   UNL A   1      39.786  29.695  30.831  1.00  0.00     0.167 HD
ATOM     42  C   UNL A   1      39.457  31.528  34.799  1.00  0.00     0.037 A 
ATOM     43  C   UNL A   1      40.985  28.089  28.892  1.00  0.00     0.037 A 
ATOM     44  C   UNL A   1      40.599  30.658  34.884  1.00  0.00     0.049 A 
ATOM     45  C   UNL A   1      41.828  27.954  30.131  1.00  0.00     0.074 A 
ATOM     46  C   UNL A   1      41.405  30.395  35.977  1.00  0.00     0.029 A 
ATOM     47  N   UNL A   1      41.097  29.909  33.829  1.00  0.00    -0.354 N 
ATOM     48  N   UNL A   1      41.660  28.503  31.310  1.00  0.00    -0.248 NA
ATOM     49  C   UNL A   1      43.015  27.093  30.035  1.00  0.00     0.031 C 
ATOM     50  C   UNL A   1      42.415  29.516  35.572  1.00  0.00     0.029 A 
ATOM     51  C   UNL A   1      42.214  29.200  34.238  1.00  0.00     0.049 A 
ATOM     52  H   UNL A   1      40.713  29.884  32.923  1.00  0.00     0.167 HD
ATOM     53  C   UNL A   1      42.704  28.040  32.100  1.00  0.00     0.074 A 
ATOM     54  C   UNL A   1      43.495  27.155  31.269  1.00  0.00     0.031 C 
ATOM     55  C   UNL A   1      42.985  28.322  33.396  1.00  0.00     0.037 A 
BRANCH  42  56
ATOM     56  C   UNL A   1      39.058  32.310  36.014  1.00  0.00     0.057 A 
ATOM     57  C   UNL A   1      39.518  33.614  36.239  1.00  0.00     0.134 A 
ATOM     58  C   UNL A   1      38.199  31.752  36.968  1.00  0.00     0.134 A 
ATOM     59  F   UNL A   1      40.359  34.197  35.373  1.00  0.00    -0.206 F 
ATOM     60  C   UNL A   1      39.152  34.328  37.383  1.00  0.00     0.040 A 
ATOM     61  C   UNL A   1      37.809  32.463  38.104  1.00  0.00     0.040 A 
ATOM     62  F   UNL A   1      37.725  30.506  36.812  1.00  0.00    -0.206 F 
ATOM     63  C   UNL A   1      38.292  33.753  38.317  1.00  0.00     0.006 A 
ENDBRANCH  42  56
BRANCH  43  64
ATOM     64  C   UNL A   1      41.344  27.364  27.649  1.00  0.00     0.057 A 
ATOM     65  C   UNL A   1      42.112  27.974  26.651  1.00  0.00     0.134 A 
ATOM     66  C   UNL A   1      40.916  26.050  27.424  1.00  0.00     0.134 A 
ATOM     67  F   UNL A   1      42.528  29.240  26.798  1.00  0.00    -0.206 F 
ATOM     68  C   UNL A   1      42.435  27.305  25.469  1.00  0.00     0.040 A 
ATOM     69  C   UNL A   1      41.250  25.363  26.256  1.00  0.00     0.040 A 
ATOM     70  F   UNL A   1      40.175  25.413  28.341  1.00  0.00    -0.206 F 
ATOM     71  C   UNL A   1      42.008  25.993  25.272  1.00  0.00     0.006 A 
ENDBRANCH  43  64
BRANCH  55  72
ATOM     72  C   UNL A   1      44.179  27.646  34.001  1.00  0.00     0.057 A 
ATOM     73  C   UNL A   1      45.433  28.268  34.049  1.00  0.00     0.134 A 
ATOM     74  C   UNL A   1      44.062  26.377  34.581  1.00  0.00     0.134 A 
ATOM     75  F   UNL A   1      45.612  29.479  33.500  1.00  0.00    -0.206 F 
ATOM     76  C   UNL A   1      46.533  27.643  34.636  1.00  0.00     0.040 A 
ATOM     77  C   UNL A   1      45.149  25.751  35.190  1.00  0.00     0.040 A 
ATOM     78  F   UNL A   1      42.886  25.731  34.575  1.00  0.00    -0.206 F 
ATOM     79  C   UNL A   1      46.391  26.382  35.215  1.00  0.00     0.006 A 
ENDBRANCH  55  72
ENDBRANCH  29  30
ENDBRANCH  22  24
ENDBRANCH  21  22
ENDBRANCH  20  21
ENDBRANCH   1  20
TORSDOF 15
ENDMDL
MODEL 2
REMARK VINA RESULT:     -10.4      4.247      7.588
REMARK SMILES CC(C)C[C@@H](NC(=O)c1cccnc1)C(=O)OCCOC(=O)c1ccc(-c2c3nc(c(-c4c(F)cccc4F)c4ccc([nH]4)c(-c4c(F)cccc4F)c4nc(c(-c5c(F)cccc5F)c5ccc2[nH]5)C=C4)C=C3)cc1
REMARK SMILES IDX 18 1 17 2 15 3 16 4 5 5 4 6 2 7 1 8 3 9 6 10 7 11 8 13 9 14
REMARK SMILES IDX 10 15 14 16 11 17 13 18 12 19 19 20 20 21 21 22 22 23 23 24
REMARK SMILES IDX 24 25 76 26 25 27 75 28 26 29 27 30 28 31 69 32 29 33 74 34
REMARK SMILES IDX 68 35 70 36 30 37 73 38 67 39 66 40 31 42 57 43 40 44 56 45
REMARK SMILES IDX 41 46 44 47 55 48 71 49 42 50 43 51 54 53 72 54 45 55 32 56
REMARK SMILES IDX 33 57 38 58 34 59 35 60 37 61 39 62 36 63 58 64 59 65 64 66
REMARK SMILES IDX 60 67 61 68 63 69 65 70 62 71 46 72 47 73 52 74 48 75 49 76
REMARK SMILES IDX 51 77 53 78 50 79
REMARK H PARENT 6 12 70 41 44 52
REMARK Flexibility Score: inf
ROOT
ATOM      1  C   UNL A   1      35.154  21.804  25.429  1.00  0.00     0.274 C 
ENDROOT
BRANCH   1   2
ATOM      2  O   UNL A   1      35.476  23.164  25.070  1.00  0.00    -0.461 OA
BRANCH   2   3
ATOM      3  C   UNL A   1      34.871  23.627  23.947  1.00  0.00     0.328 C 
ATOM      4  O   UNL A   1      35.200  23.327  22.804  1.00  0.00    -0.250 OA
BRANCH   3   5
ATOM      5  C   UNL A   1      33.753  24.645  24.225  1.00  0.00     0.192 C 
BRANCH   5   6
ATOM      6  C   UNL A   1      32.699  24.588  23.098  1.00  0.00     0.040 C 
BRANCH   6   7
ATOM      7  C   UNL A   1      32.484  25.899  22.310  1.00  0.00    -0.015 C 
ATOM      8  C   UNL A   1      33.635  26.892  22.487  1.00  0.00     0.007 C 
ATOM      9  C   UNL A   1      32.335  25.573  20.819  1.00  0.00     0.007 C 
ENDBRANCH   6   7
ENDBRANCH   5   6
BRANCH   5  10
ATOM     10  N   UNL A   1      33.108  24.581  25.550  1.00  0.00    -0.339 N 
ATOM     11  C   UNL A   1      32.200  25.461  26.088  1.00  0.00     0.253 C 
ATOM     12  H   UNL A   1      33.359  23.817  26.117  1.00  0.00     0.164 HD
ATOM     13  O   UNL A   1      31.289  25.065  26.807  1.00  0.00    -0.269 OA
BRANCH  11  14
ATOM     14  C   UNL A   1      32.418  26.902  25.935  1.00  0.00     0.058 A 
ATOM     15  C   UNL A   1      33.608  27.520  26.302  1.00  0.00     0.017 A 
ATOM     16  C   UNL A   1      31.394  27.674  25.405  1.00  0.00     0.124 A 
ATOM     17  C   UNL A   1      33.702  28.906  26.186  1.00  0.00     0.021 A 
ATOM     18  N   UNL A   1      31.462  29.020  25.274  1.00  0.00    -0.264 NA
ATOM     19  C   UNL A   1      32.615  29.605  25.674  1.00  0.00     0.111 A 
ENDBRANCH  11  14
ENDBRANCH   5  10
ENDBRANCH   3   5
ENDBRANCH   2   3
ENDBRANCH   1   2
BRANCH   1  20
ATOM     20  C   UNL A   1      36.343  20.843  25.303  1.00  0.00     0.275 C 
BRANCH  20  21
ATOM     21  O   UNL A   1      37.566  21.526  24.963  1.00  0.00    -0.458 OA
BRANCH  21  22
ATOM     22  C   UNL A   1      38.644  21.163  25.698  1.00  0.00     0.338 C 
ATOM     23  O   UNL A   1      39.157  20.057  25.744  1.00  0.00    -0.246 OA
BRANCH  22  24
ATOM     24  C   UNL A   1      39.259  22.339  26.342  1.00  0.00     0.060 A 
ATOM     25  C   UNL A   1      38.730  23.597  26.027  1.00  0.00     0.016 A 
ATOM     26  C   UNL A   1      40.379  22.230  27.168  1.00  0.00     0.016 A 
ATOM     27  C   UNL A   1      39.333  24.755  26.507  1.00  0.00     0.010 A 
ATOM     28  C   UNL A   1      40.995  23.396  27.637  1.00  0.00     0.010 A 
ATOM     29  C   UNL A   1      40.490  24.660  27.286  1.00  0.00    -0.014 A 
BRANCH  29  30
ATOM     30  C   UNL A   1      41.252  25.891  27.602  1.00  0.00     0.031 A 
ATOM     31  C   UNL A   1      40.581  26.972  28.401  1.00  0.00     0.074 A 
ATOM     32  C   UNL A   1      42.533  26.024  27.221  1.00  0.00     0.049 A 
ATOM     33  N   UNL A   1      41.028  28.154  28.737  1.00  0.00    -0.248 NA
ATOM     34  C   UNL A   1      39.223  26.677  28.887  1.00  0.00     0.031 C 
ATOM     35  C   UNL A   1      43.310  25.015  26.503  1.00  0.00     0.029 A 
ATOM     36  N   UNL A   1      43.405  27.070  27.387  1.00  0.00    -0.354 N 
ATOM     37  C   UNL A   1      40.003  28.750  29.461  1.00  0.00     0.074 A 
ATOM     38  C   UNL A   1      38.906  27.806  29.503  1.00  0.00     0.031 C 
ATOM     39  C   UNL A   1      44.545  25.498  26.278  1.00  0.00     0.029 A 
ATOM     40  C   UNL A   1      44.629  26.859  26.803  1.00  0.00     0.049 A 
ATOM     41  H   UNL A   1      43.174  27.892  27.876  1.00  0.00     0.167 HD
ATOM     42  C   UNL A   1      39.981  29.973  30.041  1.00  0.00     0.037 A 
ATOM     43  C   UNL A   1      45.686  27.686  26.684  1.00  0.00     0.037 A 
ATOM     44  C   UNL A   1      41.073  30.908  30.000  1.00  0.00     0.049 A 
ATOM     45  C   UNL A   1      45.609  29.071  27.267  1.00  0.00     0.074 A 
ATOM     46  C   UNL A   1      41.150  32.172  30.555  1.00  0.00     0.029 A 
ATOM     47  N   UNL A   1      42.282  30.676  29.361  1.00  0.00    -0.354 N 
ATOM     48  N   UNL A   1      44.633  29.632  27.941  1.00  0.00    -0.248 NA
ATOM     49  C   UNL A   1      46.776  29.941  27.067  1.00  0.00     0.031 C 
ATOM     50  C   UNL A   1      42.392  32.721  30.220  1.00  0.00     0.029 A 
ATOM     51  C   UNL A   1      43.104  31.783  29.490  1.00  0.00     0.049 A 
ATOM     52  H   UNL A   1      42.521  29.847  28.887  1.00  0.00     0.167 HD
ATOM     53  C   UNL A   1      45.075  30.909  28.262  1.00  0.00     0.074 A 
ATOM     54  C   UNL A   1      46.412  31.036  27.719  1.00  0.00     0.031 C 
ATOM     55  C   UNL A   1      44.432  31.889  28.944  1.00  0.00     0.037 A 
BRANCH  42  56
ATOM     56  C   UNL A   1      38.715  30.378  30.734  1.00  0.00     0.057 A 
ATOM     57  C   UNL A   1      38.454  30.028  32.065  1.00  0.00     0.134 A 
ATOM     58  C   UNL A   1      37.747  31.134  30.061  1.00  0.00     0.134 A 
ATOM     59  F   UNL A   1      39.332  29.288  32.757  1.00  0.00    -0.206 F 
ATOM     60  C   UNL A   1      37.264  30.398  32.695  1.00  0.00     0.040 A 
ATOM     61  C   UNL A   1      36.564  31.529  30.687  1.00  0.00     0.040 A 
ATOM     62  F   UNL A   1      37.936  31.502  28.785  1.00  0.00    -0.206 F 
ATOM     63  C   UNL A   1      36.317  31.154  32.007  1.00  0.00     0.006 A 
ENDBRANCH  42  56
BRANCH  43  64
ATOM     64  C   UNL A   1      46.900  27.236  25.960  1.00  0.00     0.057 A 
ATOM     65  C   UNL A   1      47.030  27.416  24.579  1.00  0.00     0.134 A 
ATOM     66  C   UNL A   1      47.953  26.602  26.631  1.00  0.00     0.134 A 
ATOM     67  F   UNL A   1      46.042  27.993  23.879  1.00  0.00    -0.206 F 
ATOM     68  C   UNL A   1      48.159  26.975  23.888  1.00  0.00     0.040 A 
ATOM     69  C   UNL A   1      49.097  26.175  25.955  1.00  0.00     0.040 A 
ATOM     70  F   UNL A   1      47.887  26.397  27.954  1.00  0.00    -0.206 F 
ATOM     71  C   UNL A   1      49.200  26.357  24.579  1.00  0.00     0.006 A 
ENDBRANCH  43  64
BRANCH  55  72
ATOM     72  C   UNL A   1      45.177  33.171  29.164  1.00  0.00     0.057 A 
ATOM     73  C   UNL A   1      46.021  33.354  30.267  1.00  0.00     0.134 A 
ATOM     74  C   UNL A   1      45.083  34.219  28.239  1.00  0.00     0.134 A 
ATOM     75  F   UNL A   1      46.144  32.393  31.195  1.00  0.00    -0.206 F 
ATOM     76  C   UNL A   1      46.730  34.541  30.451  1.00  0.00     0.040 A 
ATOM     77  C   UNL A   1      45.804  35.401  28.401  1.00  0.00     0.040 A 
ATOM     78  F   UNL A   1      44.298  34.103  27.157  1.00  0.00    -0.206 F 
ATOM     79  C   UNL A   1      46.628  35.567  29.512  1.00  0.00     0.006 A 
ENDBRANCH  55  72
ENDBRANCH  29  30
ENDBRANCH  22  24
ENDBRANCH  21  22
ENDBRANCH  20  21
ENDBRANCH   1  20
TORSDOF 15
ENDMDL
MODEL 3
REMARK VINA RESULT:     -10.4      1.857      7.002
REMARK SMILES CC(C)C[C@@H](NC(=O)c1cccnc1)C(=O)OCCOC(=O)c1ccc(-c2c3nc(c(-c4c(F)cccc4F)c4ccc([nH]4)c(-c4c(F)cccc4F)c4nc(c(-c5c(F)cccc5F)c5ccc2[nH]5)C=C4)C=C3)cc1
REMARK SMILES IDX 18 1 17 2 15 3 16 4 5 5 4 6 2 7 1 8 3 9 6 10 7 11 8 13 9 14
REMARK SMILES IDX 10 15 14 16 11 17 13 18 12 19 19 20 20 21 21 22 22 23 23 24
REMARK SMILES IDX 24 25 76 26 25 27 75 28 26 29 27 30 28 31 69 32 29 33 74 34
REMARK SMILES IDX 68 35 70 36 30 37 73 38 67 39 66 40 31 42 57 43 40 44 56 45
REMARK SMILES IDX 41 46 44 47 55 48 71 49 42 50 43 51 54 53 72 54 45 55 32 56
REMARK SMILES IDX 33 57 38 58 34 59 35 60 37 61 39 62 36 63 58 64 59 65 64 66
REMARK SMILES IDX 60 67 61 68 63 69 65 70 62 71 46 72 47 73 52 74 48 75 49 76
REMARK SMILES IDX 51 77 53 78 50 79
REMARK H PARENT 6 12 70 41 44 52
REMARK Flexibility Score: inf
ROOT
ATOM      1  C   UNL A   1      31.738  28.504  27.303  1.00  0.00     0.274 C 
ENDROOT
BRANCH   1   2
ATOM      2  O   UNL A   1      32.381  27.436  26.578  1.00  0.00    -0.461 OA
BRANCH   2   3
ATOM      3  C   UNL A   1      31.588  26.373  26.286  1.00  0.00     0.328 C 
ATOM      4  O   UNL A   1      30.399  26.289  26.580  1.00  0.00    -0.250 OA
BRANCH   3   5
ATOM      5  C   UNL A   1      32.334  25.218  25.601  1.00  0.00     0.192 C 
BRANCH   5   6
ATOM      6  C   UNL A   1      31.340  24.097  25.230  1.00  0.00     0.040 C 
BRANCH   6   7
ATOM      7  C   UNL A   1      31.332  22.866  26.164  1.00  0.00    -0.015 C 
ATOM      8  C   UNL A   1      32.503  22.864  27.150  1.00  0.00     0.007 C 
ATOM      9  C   UNL A   1      30.019  22.841  26.955  1.00  0.00     0.007 C 
ENDBRANCH   6   7
ENDBRANCH   5   6
BRANCH   5  10
ATOM     10  N   UNL A   1      33.187  25.566  24.448  1.00  0.00    -0.339 N 
ATOM     11  C   UNL A   1      33.954  24.721  23.682  1.00  0.00     0.253 C 
ATOM     12  H   UNL A   1      33.208  26.517  24.198  1.00  0.00     0.164 HD
ATOM     13  O   UNL A   1      34.086  24.907  22.478  1.00  0.00    -0.269 OA
BRANCH  11  14
ATOM     14  C   UNL A   1      34.756  23.685  24.340  1.00  0.00     0.058 A 
ATOM     15  C   UNL A   1      34.600  22.332  24.064  1.00  0.00     0.017 A 
ATOM     16  C   UNL A   1      35.705  24.077  25.274  1.00  0.00     0.124 A 
ATOM     17  C   UNL A   1      35.357  21.413  24.788  1.00  0.00     0.021 A 
ATOM     18  N   UNL A   1      36.459  23.205  25.985  1.00  0.00    -0.264 NA
ATOM     19  C   UNL A   1      36.263  21.892  25.728  1.00  0.00     0.111 A 
ENDBRANCH  11  14
ENDBRANCH   5  10
ENDBRANCH   3   5
ENDBRANCH   2   3
ENDBRANCH   1   2
BRANCH   1  20
ATOM     20  C   UNL A   1      31.777  29.850  26.568  1.00  0.00     0.275 C 
BRANCH  20  21
ATOM     21  O   UNL A   1      33.124  30.310  26.341  1.00  0.00    -0.458 OA
BRANCH  21  22
ATOM     22  C   UNL A   1      33.529  31.312  27.156  1.00  0.00     0.338 C 
ATOM     23  O   UNL A   1      32.867  32.273  27.517  1.00  0.00    -0.246 OA
BRANCH  22  24
ATOM     24  C   UNL A   1      34.862  31.026  27.718  1.00  0.00     0.060 A 
ATOM     25  C   UNL A   1      35.135  29.703  28.088  1.00  0.00     0.016 A 
ATOM     26  C   UNL A   1      35.796  32.034  27.959  1.00  0.00     0.016 A 
ATOM     27  C   UNL A   1      36.327  29.382  28.728  1.00  0.00     0.010 A 
ATOM     28  C   UNL A   1      36.989  31.714  28.619  1.00  0.00     0.010 A 
ATOM     29  C   UNL A   1      37.244  30.393  29.029  1.00  0.00    -0.014 A 
BRANCH  29  30
ATOM     30  C   UNL A   1      38.398  30.086  29.906  1.00  0.00     0.031 A 
ATOM     31  C   UNL A   1      39.473  29.171  29.393  1.00  0.00     0.074 A 
ATOM     32  C   UNL A   1      38.506  30.646  31.122  1.00  0.00     0.049 A 
ATOM     33  N   UNL A   1      40.534  28.713  30.005  1.00  0.00    -0.248 NA
ATOM     34  C   UNL A   1      39.332  28.715  28.000  1.00  0.00     0.031 C 
ATOM     35  C   UNL A   1      37.562  31.601  31.699  1.00  0.00     0.029 A 
ATOM     36  N   UNL A   1      39.464  30.487  32.091  1.00  0.00    -0.354 N 
ATOM     37  C   UNL A   1      41.180  27.903  29.079  1.00  0.00     0.074 A 
ATOM     38  C   UNL A   1      40.385  27.921  27.869  1.00  0.00     0.031 C 
ATOM     39  C   UNL A   1      37.983  31.936  32.932  1.00  0.00     0.029 A 
ATOM     40  C   UNL A   1      39.202  31.190  33.240  1.00  0.00     0.049 A 
ATOM     41  H   UNL A   1      40.262  29.923  31.973  1.00  0.00     0.167 HD
ATOM     42  C   UNL A   1      42.334  27.210  29.224  1.00  0.00     0.037 A 
ATOM     43  C   UNL A   1      39.859  31.206  34.416  1.00  0.00     0.037 A 
ATOM     44  C   UNL A   1      43.123  27.196  30.426  1.00  0.00     0.049 A 
ATOM     45  C   UNL A   1      41.095  30.365  34.581  1.00  0.00     0.074 A 
ATOM     46  C   UNL A   1      44.307  26.526  30.675  1.00  0.00     0.029 A 
ATOM     47  N   UNL A   1      42.802  27.886  31.585  1.00  0.00    -0.354 N 
ATOM     48  N   UNL A   1      41.694  29.593  33.705  1.00  0.00    -0.248 NA
ATOM     49  C   UNL A   1      41.743  30.389  35.900  1.00  0.00     0.031 C 
ATOM     50  C   UNL A   1      44.683  26.780  31.998  1.00  0.00     0.029 A 
ATOM     51  C   UNL A   1      43.753  27.641  32.560  1.00  0.00     0.049 A 
ATOM     52  H   UNL A   1      42.014  28.466  31.698  1.00  0.00     0.167 HD
ATOM     53  C   UNL A   1      42.798  29.058  34.358  1.00  0.00     0.074 A 
ATOM     54  C   UNL A   1      42.792  29.602  35.701  1.00  0.00     0.031 C 
ATOM     55  C   UNL A   1      43.731  28.194  33.890  1.00  0.00     0.037 A 
BRANCH  42  56
ATOM     56  C   UNL A   1      42.783  26.379  28.060  1.00  0.00     0.057 A 
ATOM     57  C   UNL A   1      42.342  25.062  27.875  1.00  0.00     0.134 A 
ATOM     58  C   UNL A   1      43.666  26.905  27.110  1.00  0.00     0.134 A 
ATOM     59  F   UNL A   1      41.511  24.494  28.762  1.00  0.00    -0.206 F 
ATOM     60  C   UNL A   1      42.780  24.292  26.796  1.00  0.00     0.040 A 
ATOM     61  C   UNL A   1      44.094  26.153  26.015  1.00  0.00     0.040 A 
ATOM     62  F   UNL A   1      44.127  28.160  27.230  1.00  0.00    -0.206 F 
ATOM     63  C   UNL A   1      43.656  24.839  25.860  1.00  0.00     0.006 A 
ENDBRANCH  42  56
BRANCH  43  64
ATOM     64  C   UNL A   1      39.346  32.027  35.540  1.00  0.00     0.057 A 
ATOM     65  C   UNL A   1      38.408  31.515  36.443  1.00  0.00     0.134 A 
ATOM     66  C   UNL A   1      39.771  33.347  35.729  1.00  0.00     0.134 A 
ATOM     67  F   UNL A   1      37.943  30.266  36.297  1.00  0.00    -0.206 F 
ATOM     68  C   UNL A   1      37.904  32.289  37.489  1.00  0.00     0.040 A 
ATOM     69  C   UNL A   1      39.292  34.126  36.784  1.00  0.00     0.040 A 
ATOM     70  F   UNL A   1      40.666  33.896  34.895  1.00  0.00    -0.206 F 
ATOM     71  C   UNL A   1      38.351  33.598  37.665  1.00  0.00     0.006 A 
ENDBRANCH  43  64
BRANCH  55  72
ATOM     72  C   UNL A   1      44.836  27.807  34.826  1.00  0.00     0.057 A 
ATOM     73  C   UNL A   1      44.753  26.665  35.632  1.00  0.00     0.134 A 
ATOM     74  C   UNL A   1      46.015  28.561  34.889  1.00  0.00     0.134 A 
ATOM     75  F   UNL A   1      43.645  25.908  35.626  1.00  0.00    -0.206 F 
ATOM     76  C   UNL A   1      45.796  26.297  36.482  1.00  0.00     0.040 A 
ATOM     77  C   UNL A   1      47.073  28.191  35.718  1.00  0.00     0.040 A 
ATOM     78  F   UNL A   1      46.160  29.661  34.136  1.00  0.00    -0.206 F 
ATOM     79  C   UNL A   1      46.964  27.058  36.522  1.00  0.00     0.006 A 
ENDBRANCH  55  72
ENDBRANCH  29  30
ENDBRANCH  22  24
ENDBRANCH  21  22
ENDBRANCH  20  21
ENDBRANCH   1  20
TORSDOF 15
ENDMDL
