MODEL 1
REMARK VINA RESULT:     -12.3      0.000      0.000
REMARK SMILES O=C(OCCOC(=O)c1cccn(Cc2ccc3c(c2)OC(F)(F)O3)c1=O)c1ccc(-c2c3nc(c(-c4c(F)cccc4F)c4ccc([nH]4)c(-c4c(F)cccc4F)c4nc(c(-c5c(F)cccc5F)c5ccc2[nH]5)C=C4)C=C3)cc1
REMARK SMILES IDX 4 1 3 2 2 3 1 4 28 5 29 6 81 7 30 8 80 9 31 10 32 11 33 12
REMARK SMILES IDX 74 13 34 14 79 15 73 16 75 17 35 18 78 19 72 20 71 21 36 23
REMARK SMILES IDX 62 24 45 25 61 26 46 27 49 28 60 29 76 30 47 31 48 32 59 34
REMARK SMILES IDX 77 35 50 36 37 37 38 38 43 39 39 40 40 41 42 42 44 43 41 44
REMARK SMILES IDX 63 45 64 46 69 47 65 48 66 49 68 50 70 51 67 52 51 53 52 54
REMARK SMILES IDX 57 55 53 56 54 57 56 58 58 59 55 60 5 61 6 62 7 63 8 64 9 65
REMARK SMILES IDX 10 66 26 67 11 68 13 69 27 70 12 71 14 72 15 73 16 74 20 75
REMARK SMILES IDX 17 76 19 77 18 78 21 79 25 80 22 81 23 82 24 83
REMARK H PARENT 75 22 49 33
REMARK Flexibility Score: inf
ROOT
ATOM      1  C   UNL A   1      43.714  22.007  25.214  1.00  0.00     0.275 C 
ENDROOT
BRANCH   1   2
ATOM      2  O   UNL A   1      43.234  23.298  24.798  1.00  0.00    -0.458 OA
BRANCH   2   3
ATOM      3  C   UNL A   1      43.789  24.491  25.131  1.00  0.00     0.338 C 
ATOM      4  O   UNL A   1      44.891  24.809  24.692  1.00  0.00    -0.246 OA
BRANCH   3   5
ATOM      5  C   UNL A   1      43.225  25.278  26.265  1.00  0.00     0.060 A 
ATOM      6  C   UNL A   1      43.760  26.558  26.449  1.00  0.00     0.016 A 
ATOM      7  C   UNL A   1      42.215  24.848  27.129  1.00  0.00     0.016 A 
ATOM      8  C   UNL A   1      43.396  27.328  27.554  1.00  0.00     0.010 A 
ATOM      9  C   UNL A   1      41.833  25.630  28.229  1.00  0.00     0.010 A 
ATOM     10  C   UNL A   1      42.441  26.864  28.471  1.00  0.00    -0.014 A 
BRANCH  10  11
ATOM     11  C   UNL A   1      41.977  27.760  29.559  1.00  0.00     0.031 A 
ATOM     12  C   UNL A   1      40.851  28.741  29.391  1.00  0.00     0.074 A 
ATOM     13  C   UNL A   1      42.596  27.661  30.749  1.00  0.00     0.049 A 
ATOM     14  N   UNL A   1      40.172  29.367  30.322  1.00  0.00    -0.248 NA
ATOM     15  C   UNL A   1      40.410  29.050  28.025  1.00  0.00     0.031 C 
ATOM     16  C   UNL A   1      43.748  26.799  31.025  1.00  0.00     0.029 A 
ATOM     17  N   UNL A   1      42.349  28.284  31.941  1.00  0.00    -0.354 N 
ATOM     18  C   UNL A   1      39.169  30.065  29.663  1.00  0.00     0.074 A 
ATOM     19  C   UNL A   1      39.377  29.857  28.247  1.00  0.00     0.031 C 
ATOM     20  C   UNL A   1      44.097  26.934  32.312  1.00  0.00     0.029 A 
ATOM     21  C   UNL A   1      43.217  27.914  32.937  1.00  0.00     0.049 A 
ATOM     22  H   UNL A   1      41.621  28.933  32.073  1.00  0.00     0.167 HD
ATOM     23  C   UNL A   1      38.147  30.776  30.199  1.00  0.00     0.037 A 
ATOM     24  C   UNL A   1      43.306  28.326  34.213  1.00  0.00     0.037 A 
ATOM     25  C   UNL A   1      38.038  31.108  31.598  1.00  0.00     0.049 A 
ATOM     26  C   UNL A   1      42.297  29.304  34.731  1.00  0.00     0.074 A 
ATOM     27  C   UNL A   1      37.037  31.807  32.250  1.00  0.00     0.029 A 
ATOM     28  N   UNL A   1      39.010  30.829  32.545  1.00  0.00    -0.354 N 
ATOM     29  N   UNL A   1      41.236  29.791  34.136  1.00  0.00    -0.248 NA
ATOM     30  C   UNL A   1      42.499  29.783  36.102  1.00  0.00     0.031 C 
ATOM     31  C   UNL A   1      37.450  32.027  33.573  1.00  0.00     0.029 A 
ATOM     32  C   UNL A   1      38.677  31.413  33.757  1.00  0.00     0.049 A 
ATOM     33  H   UNL A   1      39.821  30.294  32.382  1.00  0.00     0.167 HD
ATOM     34  C   UNL A   1      40.630  30.624  35.065  1.00  0.00     0.074 A 
ATOM     35  C   UNL A   1      41.433  30.552  36.271  1.00  0.00     0.031 C 
ATOM     36  C   UNL A   1      39.507  31.373  34.935  1.00  0.00     0.037 A 
BRANCH  23  37
ATOM     37  C   UNL A   1      37.056  31.234  29.276  1.00  0.00     0.057 A 
ATOM     38  C   UNL A   1      37.003  32.543  28.788  1.00  0.00     0.134 A 
ATOM     39  C   UNL A   1      35.998  30.378  28.942  1.00  0.00     0.134 A 
ATOM     40  F   UNL A   1      37.974  33.420  29.086  1.00  0.00    -0.206 F 
ATOM     41  C   UNL A   1      35.940  32.983  27.995  1.00  0.00     0.040 A 
ATOM     42  C   UNL A   1      34.936  30.799  28.138  1.00  0.00     0.040 A 
ATOM     43  F   UNL A   1      35.977  29.121  29.406  1.00  0.00    -0.206 F 
ATOM     44  C   UNL A   1      34.903  32.109  27.666  1.00  0.00     0.006 A 
ENDBRANCH  23  37
BRANCH  24  45
ATOM     45  C   UNL A   1      44.396  27.807  35.070  1.00  0.00     0.057 A 
ATOM     46  C   UNL A   1      45.652  28.428  35.098  1.00  0.00     0.134 A 
ATOM     47  C   UNL A   1      44.223  26.662  35.852  1.00  0.00     0.134 A 
ATOM     48  F   UNL A   1      45.880  29.527  34.362  1.00  0.00    -0.206 F 
ATOM     49  C   UNL A   1      46.704  27.915  35.854  1.00  0.00     0.040 A 
ATOM     50  C   UNL A   1      45.259  26.154  36.636  1.00  0.00     0.040 A 
ATOM     51  F   UNL A   1      43.038  26.034  35.876  1.00  0.00    -0.206 F 
ATOM     52  C   UNL A   1      46.506  26.776  36.631  1.00  0.00     0.006 A 
ENDBRANCH  24  45
BRANCH  36  53
ATOM     53  C   UNL A   1      39.103  32.173  36.139  1.00  0.00     0.057 A 
ATOM     54  C   UNL A   1      39.590  33.470  36.336  1.00  0.00     0.134 A 
ATOM     55  C   UNL A   1      38.183  31.678  37.073  1.00  0.00     0.134 A 
ATOM     56  F   UNL A   1      40.479  34.002  35.484  1.00  0.00    -0.206 F 
ATOM     57  C   UNL A   1      39.162  34.254  37.408  1.00  0.00     0.040 A 
ATOM     58  C   UNL A   1      37.723  32.464  38.130  1.00  0.00     0.040 A 
ATOM     59  F   UNL A   1      37.663  30.449  36.930  1.00  0.00    -0.206 F 
ATOM     60  C   UNL A   1      38.213  33.757  38.299  1.00  0.00     0.006 A 
ENDBRANCH  36  53
ENDBRANCH  10  11
ENDBRANCH   3   5
ENDBRANCH   2   3
ENDBRANCH   1   2
BRANCH   1  61
ATOM     61  C   UNL A   1      42.777  21.267  26.174  1.00  0.00     0.275 C 
BRANCH  61  62
ATOM     62  O   UNL A   1      41.432  21.185  25.685  1.00  0.00    -0.458 OA
BRANCH  62  63
ATOM     63  C   UNL A   1      40.478  21.045  26.649  1.00  0.00     0.343 C 
ATOM     64  O   UNL A   1      40.603  20.435  27.694  1.00  0.00    -0.246 OA
BRANCH  63  65
ATOM     65  C   UNL A   1      39.319  21.897  26.334  1.00  0.00     0.125 A 
ATOM     66  C   UNL A   1      39.354  23.165  26.780  1.00  0.00     0.023 A 
ATOM     67  C   UNL A   1      38.162  21.423  25.529  1.00  0.00     0.265 A 
ATOM     68  C   UNL A   1      38.321  24.103  26.421  1.00  0.00     0.019 A 
ATOM     69  N   UNL A   1      37.182  22.385  25.249  1.00  0.00    -0.310 N 
ATOM     70  O   UNL A   1      38.086  20.245  25.182  1.00  0.00    -0.268 OA
ATOM     71  C   UNL A   1      37.291  23.700  25.672  1.00  0.00     0.089 A 
BRANCH  69  72
ATOM     72  C   UNL A   1      35.940  21.968  24.602  1.00  0.00     0.161 C 
BRANCH  72  73
ATOM     73  C   UNL A   1      34.742  22.487  25.363  1.00  0.00    -0.024 A 
ATOM     74  C   UNL A   1      34.439  22.003  26.655  1.00  0.00     0.010 A 
ATOM     75  C   UNL A   1      33.921  23.457  24.765  1.00  0.00     0.056 A 
ATOM     76  C   UNL A   1      33.332  22.485  27.356  1.00  0.00     0.051 A 
ATOM     77  C   UNL A   1      32.853  23.929  25.487  1.00  0.00     0.173 A 
ATOM     78  C   UNL A   1      32.566  23.458  26.750  1.00  0.00     0.172 A 
ATOM     79  O   UNL A   1      31.989  24.895  25.079  1.00  0.00    -0.395 OA
ATOM     80  O   UNL A   1      31.486  24.081  27.296  1.00  0.00    -0.395 OA
ATOM     81  C   UNL A   1      31.275  25.095  26.304  1.00  0.00     0.586 C 
ATOM     82  F   UNL A   1      31.657  26.289  26.826  1.00  0.00    -0.125 F 
ATOM     83  F   UNL A   1      29.950  25.173  26.031  1.00  0.00    -0.125 F 
ENDBRANCH  72  73
ENDBRANCH  69  72
ENDBRANCH  63  65
ENDBRANCH  62  63
ENDBRANCH  61  62
ENDBRANCH   1  61
TORSDOF 13
ENDMDL
MODEL 2
REMARK VINA RESULT:     -12.2      4.320      8.335
REMARK SMILES O=C(OCCOC(=O)c1cccn(Cc2ccc3c(c2)OC(F)(F)O3)c1=O)c1ccc(-c2c3nc(c(-c4c(F)cccc4F)c4ccc([nH]4)c(-c4c(F)cccc4F)c4nc(c(-c5c(F)cccc5F)c5ccc2[nH]5)C=C4)C=C3)cc1
REMARK SMILES IDX 4 1 3 2 2 3 1 4 28 5 29 6 81 7 30 8 80 9 31 10 32 11 33 12
REMARK SMILES IDX 74 13 34 14 79 15 73 16 75 17 35 18 78 19 72 20 71 21 36 23
REMARK SMILES IDX 62 24 45 25 61 26 46 27 49 28 60 29 76 30 47 31 48 32 59 34
REMARK SMILES IDX 77 35 50 36 37 37 38 38 43 39 39 40 40 41 42 42 44 43 41 44
REMARK SMILES IDX 63 45 64 46 69 47 65 48 66 49 68 50 70 51 67 52 51 53 52 54
REMARK SMILES IDX 57 55 53 56 54 57 56 58 58 59 55 60 5 61 6 62 7 63 8 64 9 65
REMARK SMILES IDX 10 66 26 67 11 68 13 69 27 70 12 71 14 72 15 73 16 74 20 75
REMARK SMILES IDX 17 76 19 77 18 78 21 79 25 80 22 81 23 82 24 83
REMARK H PARENT 75 22 49 33
REMARK Flexibility Score: inf
ROOT
ATOM      1  C   UNL A   1      38.608  19.939  25.016  1.00  0.00     0.275 C 
ENDROOT
BRANCH   1   2
ATOM      2  O   UNL A   1      39.544  19.184  25.806  1.00  0.00    -0.458 OA
BRANCH   2   3
ATOM      3  C   UNL A   1      40.876  19.427  25.895  1.00  0.00     0.338 C 
ATOM      4  O   UNL A   1      41.681  18.501  25.847  1.00  0.00    -0.246 OA
BRANCH   3   5
ATOM      5  C   UNL A   1      41.356  20.759  26.361  1.00  0.00     0.060 A 
ATOM      6  C   UNL A   1      41.107  21.065  27.704  1.00  0.00     0.016 A 
ATOM      7  C   UNL A   1      42.032  21.698  25.579  1.00  0.00     0.016 A 
ATOM      8  C   UNL A   1      41.398  22.333  28.210  1.00  0.00     0.010 A 
ATOM      9  C   UNL A   1      42.345  22.966  26.092  1.00  0.00     0.010 A 
ATOM     10  C   UNL A   1      42.004  23.308  27.402  1.00  0.00    -0.014 A 
BRANCH  10  11
ATOM     11  C   UNL A   1      42.423  24.597  28.005  1.00  0.00     0.031 A 
ATOM     12  C   UNL A   1      43.839  24.893  28.410  1.00  0.00     0.074 A 
ATOM     13  C   UNL A   1      41.477  25.539  28.172  1.00  0.00     0.049 A 
ATOM     14  N   UNL A   1      44.383  26.055  28.677  1.00  0.00    -0.248 NA
ATOM     15  C   UNL A   1      44.773  23.764  28.510  1.00  0.00     0.031 C 
ATOM     16  C   UNL A   1      40.052  25.356  27.885  1.00  0.00     0.029 A 
ATOM     17  N   UNL A   1      41.567  26.829  28.620  1.00  0.00    -0.354 N 
ATOM     18  C   UNL A   1      45.735  25.810  28.883  1.00  0.00     0.074 A 
ATOM     19  C   UNL A   1      45.917  24.378  28.795  1.00  0.00     0.031 C 
ATOM     20  C   UNL A   1      39.403  26.498  28.146  1.00  0.00     0.029 A 
ATOM     21  C   UNL A   1      40.358  27.477  28.649  1.00  0.00     0.049 A 
ATOM     22  H   UNL A   1      42.413  27.249  28.893  1.00  0.00     0.167 HD
ATOM     23  C   UNL A   1      46.731  26.707  29.083  1.00  0.00     0.037 A 
ATOM     24  C   UNL A   1      40.048  28.722  29.050  1.00  0.00     0.037 A 
ATOM     25  C   UNL A   1      46.520  28.112  29.326  1.00  0.00     0.049 A 
ATOM     26  C   UNL A   1      41.147  29.635  29.497  1.00  0.00     0.074 A 
ATOM     27  C   UNL A   1      47.457  29.111  29.523  1.00  0.00     0.029 A 
ATOM     28  N   UNL A   1      45.274  28.699  29.483  1.00  0.00    -0.354 N 
ATOM     29  N   UNL A   1      42.443  29.437  29.488  1.00  0.00    -0.248 NA
ATOM     30  C   UNL A   1      40.737  30.948  30.006  1.00  0.00     0.031 C 
ATOM     31  C   UNL A   1      46.776  30.282  29.889  1.00  0.00     0.029 A 
ATOM     32  C   UNL A   1      45.416  30.025  29.859  1.00  0.00     0.049 A 
ATOM     33  H   UNL A   1      44.413  28.240  29.348  1.00  0.00     0.167 HD
ATOM     34  C   UNL A   1      43.008  30.607  29.972  1.00  0.00     0.074 A 
ATOM     35  C   UNL A   1      41.911  31.516  30.243  1.00  0.00     0.031 C 
ATOM     36  C   UNL A   1      44.317  30.905  30.169  1.00  0.00     0.037 A 
BRANCH  23  37
ATOM     37  C   UNL A   1      48.143  26.201  29.037  1.00  0.00     0.057 A 
ATOM     38  C   UNL A   1      48.828  25.815  30.193  1.00  0.00     0.134 A 
ATOM     39  C   UNL A   1      48.856  26.184  27.830  1.00  0.00     0.134 A 
ATOM     40  F   UNL A   1      48.212  25.827  31.384  1.00  0.00    -0.206 F 
ATOM     41  C   UNL A   1      50.169  25.423  30.150  1.00  0.00     0.040 A 
ATOM     42  C   UNL A   1      50.191  25.781  27.769  1.00  0.00     0.040 A 
ATOM     43  F   UNL A   1      48.263  26.574  26.693  1.00  0.00    -0.206 F 
ATOM     44  C   UNL A   1      50.854  25.403  28.934  1.00  0.00     0.006 A 
ENDBRANCH  23  37
BRANCH  24  45
ATOM     45  C   UNL A   1      38.632  29.156  29.042  1.00  0.00     0.057 A 
ATOM     46  C   UNL A   1      37.841  29.062  30.194  1.00  0.00     0.134 A 
ATOM     47  C   UNL A   1      38.028  29.640  27.879  1.00  0.00     0.134 A 
ATOM     48  F   UNL A   1      38.364  28.598  31.339  1.00  0.00    -0.206 F 
ATOM     49  C   UNL A   1      36.492  29.412  30.184  1.00  0.00     0.040 A 
ATOM     50  C   UNL A   1      36.686  30.020  27.861  1.00  0.00     0.040 A 
ATOM     51  F   UNL A   1      38.741  29.766  26.749  1.00  0.00    -0.206 F 
ATOM     52  C   UNL A   1      35.912  29.897  29.014  1.00  0.00     0.006 A 
ENDBRANCH  24  45
BRANCH  36  53
ATOM     53  C   UNL A   1      44.609  32.274  30.709  1.00  0.00     0.057 A 
ATOM     54  C   UNL A   1      44.758  32.487  32.085  1.00  0.00     0.134 A 
ATOM     55  C   UNL A   1      44.802  33.372  29.859  1.00  0.00     0.134 A 
ATOM     56  F   UNL A   1      44.580  31.482  32.954  1.00  0.00    -0.206 F 
ATOM     57  C   UNL A   1      45.108  33.738  32.595  1.00  0.00     0.040 A 
ATOM     58  C   UNL A   1      45.184  34.619  30.355  1.00  0.00     0.040 A 
ATOM     59  F   UNL A   1      44.693  33.229  28.529  1.00  0.00    -0.206 F 
ATOM     60  C   UNL A   1      45.338  34.804  31.727  1.00  0.00     0.006 A 
ENDBRANCH  36  53
ENDBRANCH  10  11
ENDBRANCH   3   5
ENDBRANCH   2   3
ENDBRANCH   1   2
BRANCH   1  61
ATOM     61  C   UNL A   1      38.283  21.326  25.580  1.00  0.00     0.275 C 
BRANCH  61  62
ATOM     62  O   UNL A   1      37.659  22.186  24.618  1.00  0.00    -0.458 OA
BRANCH  62  63
ATOM     63  C   UNL A   1      36.836  23.135  25.147  1.00  0.00     0.343 C 
ATOM     64  O   UNL A   1      37.175  24.057  25.863  1.00  0.00    -0.246 OA
BRANCH  63  65
ATOM     65  C   UNL A   1      35.484  22.998  24.577  1.00  0.00     0.125 A 
ATOM     66  C   UNL A   1      35.164  23.816  23.560  1.00  0.00     0.023 A 
ATOM     67  C   UNL A   1      34.504  21.987  25.056  1.00  0.00     0.265 A 
ATOM     68  C   UNL A   1      33.910  23.676  22.865  1.00  0.00     0.019 A 
ATOM     69  N   UNL A   1      33.293  21.934  24.351  1.00  0.00    -0.310 N 
ATOM     70  O   UNL A   1      34.759  21.287  26.035  1.00  0.00    -0.268 OA
ATOM     71  C   UNL A   1      33.032  22.751  23.263  1.00  0.00     0.089 A 
BRANCH  69  72
ATOM     72  C   UNL A   1      32.216  21.081  24.850  1.00  0.00     0.161 C 
BRANCH  72  73
ATOM     73  C   UNL A   1      32.496  19.630  24.534  1.00  0.00    -0.024 A 
ATOM     74  C   UNL A   1      32.550  19.176  23.198  1.00  0.00     0.010 A 
ATOM     75  C   UNL A   1      32.697  18.728  25.592  1.00  0.00     0.056 A 
ATOM     76  C   UNL A   1      32.810  17.834  22.910  1.00  0.00     0.051 A 
ATOM     77  C   UNL A   1      32.972  17.420  25.278  1.00  0.00     0.173 A 
ATOM     78  C   UNL A   1      33.031  16.984  23.973  1.00  0.00     0.172 A 
ATOM     79  O   UNL A   1      33.235  16.431  26.173  1.00  0.00    -0.395 OA
ATOM     80  O   UNL A   1      33.346  15.664  23.887  1.00  0.00    -0.395 OA
ATOM     81  C   UNL A   1      33.650  15.406  25.264  1.00  0.00     0.586 C 
ATOM     82  F   UNL A   1      34.994  15.254  25.384  1.00  0.00    -0.125 F 
ATOM     83  F   UNL A   1      33.072  14.236  25.630  1.00  0.00    -0.125 F 
ENDBRANCH  72  73
ENDBRANCH  69  72
ENDBRANCH  63  65
ENDBRANCH  62  63
ENDBRANCH  61  62
ENDBRANCH   1  61
TORSDOF 13
ENDMDL
MODEL 3
REMARK VINA RESULT:     -12.0      0.311      6.311
REMARK SMILES O=C(OCCOC(=O)c1cccn(Cc2ccc3c(c2)OC(F)(F)O3)c1=O)c1ccc(-c2c3nc(c(-c4c(F)cccc4F)c4ccc([nH]4)c(-c4c(F)cccc4F)c4nc(c(-c5c(F)cccc5F)c5ccc2[nH]5)C=C4)C=C3)cc1
REMARK SMILES IDX 4 1 3 2 2 3 1 4 28 5 29 6 81 7 30 8 80 9 31 10 32 11 33 12
REMARK SMILES IDX 74 13 34 14 79 15 73 16 75 17 35 18 78 19 72 20 71 21 36 23
REMARK SMILES IDX 62 24 45 25 61 26 46 27 49 28 60 29 76 30 47 31 48 32 59 34
REMARK SMILES IDX 77 35 50 36 37 37 38 38 43 39 39 40 40 41 42 42 44 43 41 44
REMARK SMILES IDX 63 45 64 46 69 47 65 48 66 49 68 50 70 51 67 52 51 53 52 54
REMARK SMILES IDX 57 55 53 56 54 57 56 58 58 59 55 60 5 61 6 62 7 63 8 64 9 65
REMARK SMILES IDX 10 66 26 67 11 68 13 69 27 70 12 71 14 72 15 73 16 74 20 75
REMARK SMILES IDX 17 76 19 77 18 78 21 79 25 80 22 81 23 82 24 83
REMARK H PARENT 75 22 49 33
REMARK Flexibility Score: inf
ROOT
ATOM      1  C   UNL A   1      43.855  21.990  25.479  1.00  0.00     0.275 C 
ENDROOT
BRANCH   1   2
ATOM      2  O   UNL A   1      43.340  23.253  25.021  1.00  0.00    -0.458 OA
BRANCH   2   3
ATOM      3  C   UNL A   1      43.927  24.461  25.217  1.00  0.00     0.338 C 
ATOM      4  O   UNL A   1      44.964  24.752  24.627  1.00  0.00    -0.246 OA
BRANCH   3   5
ATOM      5  C   UNL A   1      43.504  25.311  26.366  1.00  0.00     0.060 A 
ATOM      6  C   UNL A   1      42.504  24.780  27.187  1.00  0.00     0.016 A 
ATOM      7  C   UNL A   1      44.030  26.565  26.686  1.00  0.00     0.016 A 
ATOM      8  C   UNL A   1      41.945  25.543  28.213  1.00  0.00     0.010 A 
ATOM      9  C   UNL A   1      43.484  27.327  27.730  1.00  0.00     0.010 A 
ATOM     10  C   UNL A   1      42.416  26.837  28.484  1.00  0.00    -0.014 A 
BRANCH  10  11
ATOM     11  C   UNL A   1      41.895  27.571  29.664  1.00  0.00     0.031 A 
ATOM     12  C   UNL A   1      42.500  27.457  31.035  1.00  0.00     0.074 A 
ATOM     13  C   UNL A   1      40.842  28.385  29.471  1.00  0.00     0.049 A 
ATOM     14  N   UNL A   1      42.325  28.244  32.069  1.00  0.00    -0.248 NA
ATOM     15  C   UNL A   1      43.428  26.346  31.284  1.00  0.00     0.031 C 
ATOM     16  C   UNL A   1      40.118  28.535  28.206  1.00  0.00     0.029 A 
ATOM     17  N   UNL A   1      40.199  29.235  30.329  1.00  0.00    -0.354 N 
ATOM     18  C   UNL A   1      43.189  27.782  33.054  1.00  0.00     0.074 A 
ATOM     19  C   UNL A   1      43.825  26.594  32.528  1.00  0.00     0.031 C 
ATOM     20  C   UNL A   1      39.141  29.438  28.365  1.00  0.00     0.029 A 
ATOM     21  C   UNL A   1      39.150  29.901  29.747  1.00  0.00     0.049 A 
ATOM     22  H   UNL A   1      40.462  29.357  31.269  1.00  0.00     0.167 HD
ATOM     23  C   UNL A   1      43.451  28.329  34.266  1.00  0.00     0.037 A 
ATOM     24  C   UNL A   1      38.280  30.781  30.271  1.00  0.00     0.037 A 
ATOM     25  C   UNL A   1      42.702  29.416  34.843  1.00  0.00     0.049 A 
ATOM     26  C   UNL A   1      38.444  31.203  31.698  1.00  0.00     0.074 A 
ATOM     27  C   UNL A   1      42.894  30.058  36.054  1.00  0.00     0.029 A 
ATOM     28  N   UNL A   1      41.563  29.967  34.277  1.00  0.00    -0.354 N 
ATOM     29  N   UNL A   1      39.397  30.899  32.545  1.00  0.00    -0.248 NA
ATOM     30  C   UNL A   1      37.413  32.096  32.236  1.00  0.00     0.031 C 
ATOM     31  C   UNL A   1      41.817  30.935  36.259  1.00  0.00     0.029 A 
ATOM     32  C   UNL A   1      40.991  30.880  35.149  1.00  0.00     0.049 A 
ATOM     33  H   UNL A   1      41.211  29.743  33.386  1.00  0.00     0.167 HD
ATOM     34  C   UNL A   1      39.091  31.577  33.716  1.00  0.00     0.074 A 
ATOM     35  C   UNL A   1      37.877  32.326  33.457  1.00  0.00     0.031 C 
ATOM     36  C   UNL A   1      39.759  31.585  34.897  1.00  0.00     0.037 A 
BRANCH  23  37
ATOM     37  C   UNL A   1      44.605  27.771  35.047  1.00  0.00     0.057 A 
ATOM     38  C   UNL A   1      44.425  26.802  36.039  1.00  0.00     0.134 A 
ATOM     39  C   UNL A   1      45.900  28.273  34.864  1.00  0.00     0.134 A 
ATOM     40  F   UNL A   1      43.208  26.292  36.279  1.00  0.00    -0.206 F 
ATOM     41  C   UNL A   1      45.494  26.348  36.817  1.00  0.00     0.040 A 
ATOM     42  C   UNL A   1      46.981  27.819  35.624  1.00  0.00     0.040 A 
ATOM     43  F   UNL A   1      46.129  29.227  33.950  1.00  0.00    -0.206 F 
ATOM     44  C   UNL A   1      46.777  26.855  36.609  1.00  0.00     0.006 A 
ENDBRANCH  23  37
BRANCH  24  45
ATOM     45  C   UNL A   1      37.183  31.308  29.426  1.00  0.00     0.057 A 
ATOM     46  C   UNL A   1      36.034  30.546  29.177  1.00  0.00     0.134 A 
ATOM     47  C   UNL A   1      37.270  32.565  28.822  1.00  0.00     0.134 A 
ATOM     48  F   UNL A   1      35.896  29.328  29.724  1.00  0.00    -0.206 F 
ATOM     49  C   UNL A   1      35.021  31.005  28.337  1.00  0.00     0.040 A 
ATOM     50  C   UNL A   1      36.251  33.049  28.002  1.00  0.00     0.040 A 
ATOM     51  F   UNL A   1      38.340  33.344  29.037  1.00  0.00    -0.206 F 
ATOM     52  C   UNL A   1      35.127  32.264  27.750  1.00  0.00     0.006 A 
ENDBRANCH  24  45
BRANCH  36  53
ATOM     53  C   UNL A   1      39.168  32.432  35.985  1.00  0.00     0.057 A 
ATOM     54  C   UNL A   1      38.222  31.905  36.873  1.00  0.00     0.134 A 
ATOM     55  C   UNL A   1      39.581  33.756  36.190  1.00  0.00     0.134 A 
ATOM     56  F   UNL A   1      37.779  30.648  36.730  1.00  0.00    -0.206 F 
ATOM     57  C   UNL A   1      37.724  32.657  37.937  1.00  0.00     0.040 A 
ATOM     58  C   UNL A   1      39.113  34.506  37.270  1.00  0.00     0.040 A 
ATOM     59  F   UNL A   1      40.500  34.313  35.386  1.00  0.00    -0.206 F 
ATOM     60  C   UNL A   1      38.182  33.956  38.147  1.00  0.00     0.006 A 
ENDBRANCH  36  53
ENDBRANCH  10  11
ENDBRANCH   3   5
ENDBRANCH   2   3
ENDBRANCH   1   2
BRANCH   1  61
ATOM     61  C   UNL A   1      42.777  20.950  25.799  1.00  0.00     0.275 C 
BRANCH  61  62
ATOM     62  O   UNL A   1      41.450  21.425  25.534  1.00  0.00    -0.458 OA
BRANCH  62  63
ATOM     63  C   UNL A   1      40.549  21.196  26.531  1.00  0.00     0.343 C 
ATOM     64  O   UNL A   1      40.757  20.567  27.552  1.00  0.00    -0.246 OA
BRANCH  63  65
ATOM     65  C   UNL A   1      39.325  21.977  26.288  1.00  0.00     0.125 A 
ATOM     66  C   UNL A   1      39.290  23.227  26.783  1.00  0.00     0.023 A 
ATOM     67  C   UNL A   1      38.174  21.455  25.503  1.00  0.00     0.265 A 
ATOM     68  C   UNL A   1      38.184  24.104  26.495  1.00  0.00     0.019 A 
ATOM     69  N   UNL A   1      37.122  22.357  25.294  1.00  0.00    -0.310 N 
ATOM     70  O   UNL A   1      38.166  20.289  25.112  1.00  0.00    -0.268 OA
ATOM     71  C   UNL A   1      37.157  23.659  25.765  1.00  0.00     0.089 A 
BRANCH  69  72
ATOM     72  C   UNL A   1      35.889  21.880  24.671  1.00  0.00     0.161 C 
BRANCH  72  73
ATOM     73  C   UNL A   1      34.681  22.417  25.402  1.00  0.00    -0.024 A 
ATOM     74  C   UNL A   1      34.347  21.949  26.693  1.00  0.00     0.010 A 
ATOM     75  C   UNL A   1      33.881  23.389  24.778  1.00  0.00     0.056 A 
ATOM     76  C   UNL A   1      33.230  22.449  27.366  1.00  0.00     0.051 A 
ATOM     77  C   UNL A   1      32.802  23.877  25.473  1.00  0.00     0.173 A 
ATOM     78  C   UNL A   1      32.486  23.423  26.734  1.00  0.00     0.172 A 
ATOM     79  O   UNL A   1      31.956  24.847  25.038  1.00  0.00    -0.395 OA
ATOM     80  O   UNL A   1      31.401  24.060  27.252  1.00  0.00    -0.395 OA
ATOM     81  C   UNL A   1      31.219  25.065  26.246  1.00  0.00     0.586 C 
ATOM     82  F   UNL A   1      31.601  26.261  26.763  1.00  0.00    -0.125 F 
ATOM     83  F   UNL A   1      29.901  25.153  25.945  1.00  0.00    -0.125 F 
ENDBRANCH  72  73
ENDBRANCH  69  72
ENDBRANCH  63  65
ENDBRANCH  62  63
ENDBRANCH  61  62
ENDBRANCH   1  61
TORSDOF 13
ENDMDL
