MODEL 1
REMARK VINA RESULT:     -11.6      0.000      0.000
REMARK SMILES CC[C@@H](C(=O)OCCOC(=O)c1ccc(-c2c3nc(c(-c4c(F)cccc4F)c4ccc([nH]4)c(-c4c(F)cccc4F)c4nc(c(-c5c(F)cccc5F)c5ccc2[nH]5)C=C4)C=C3)cc1)n1c(SCc2cccc(C(F)(F)F)c2)nc2ccncc21
REMARK SMILES IDX 6 1 4 2 5 3 3 4 2 5 1 6 66 7 67 8 86 9 80 10 81 11 85 12
REMARK SMILES IDX 82 13 84 14 83 15 68 16 69 17 70 18 71 19 79 20 72 21 74 22
REMARK SMILES IDX 73 23 75 24 76 25 77 26 78 27 7 28 8 29 9 30 10 31 11 32
REMARK SMILES IDX 12 33 13 34 65 35 14 36 64 37 15 38 16 39 17 40 58 41 18 42
REMARK SMILES IDX 63 43 57 44 59 45 19 46 62 47 56 48 55 49 20 51 46 52 29 53
REMARK SMILES IDX 45 54 30 55 33 56 44 57 60 58 31 59 32 60 43 62 61 63 34 64
REMARK SMILES IDX 21 65 22 66 27 67 23 68 24 69 26 70 28 71 25 72 47 73 48 74
REMARK SMILES IDX 53 75 49 76 50 77 52 78 54 79 51 80 35 81 36 82 41 83 37 84
REMARK SMILES IDX 38 85 40 86 42 87 39 88
REMARK H PARENT 59 50 33 61
REMARK Flexibility Score: inf
ROOT
ATOM      1  O   UNL A   1      33.858  21.763  26.082  1.00  0.00    -0.461 OA
ENDROOT
BRANCH   1   2
ATOM      2  C   UNL A   1      33.445  22.620  27.051  1.00  0.00     0.329 C 
ATOM      3  O   UNL A   1      33.925  22.590  28.174  1.00  0.00    -0.250 OA
BRANCH   2   4
ATOM      4  C   UNL A   1      32.288  23.526  26.623  1.00  0.00     0.199 C 
BRANCH   4   5
ATOM      5  C   UNL A   1      31.050  22.744  26.115  1.00  0.00     0.034 C 
ATOM      6  C   UNL A   1      29.748  23.004  26.868  1.00  0.00     0.007 C 
ENDBRANCH   4   5
BRANCH   4   7
ATOM      7  N   UNL A   1      32.741  24.616  25.719  1.00  0.00    -0.303 N 
ATOM      8  C   UNL A   1      33.666  24.500  24.677  1.00  0.00     0.170 A 
ATOM      9  C   UNL A   1      32.549  25.985  25.906  1.00  0.00     0.088 A 
ATOM     10  N   UNL A   1      34.361  25.620  24.589  1.00  0.00    -0.222 NA
ATOM     11  C   UNL A   1      33.591  26.574  25.198  1.00  0.00     0.093 A 
ATOM     12  C   UNL A   1      31.610  26.770  26.568  1.00  0.00     0.139 A 
ATOM     13  C   UNL A   1      33.700  27.964  25.138  1.00  0.00     0.051 A 
ATOM     14  N   UNL A   1      31.696  28.117  26.485  1.00  0.00    -0.262 NA
ATOM     15  C   UNL A   1      32.707  28.677  25.786  1.00  0.00     0.113 A 
BRANCH   8  16
ATOM     16  S   UNL A   1      33.383  23.673  23.152  1.00  0.00    -0.083 SA
BRANCH  16  17
ATOM     17  C   UNL A   1      32.518  24.707  21.965  1.00  0.00     0.113 C 
BRANCH  17  18
ATOM     18  C   UNL A   1      31.407  25.557  22.502  1.00  0.00    -0.037 A 
ATOM     19  C   UNL A   1      30.364  25.006  23.250  1.00  0.00     0.004 A 
ATOM     20  C   UNL A   1      31.402  26.932  22.257  1.00  0.00     0.017 A 
ATOM     21  C   UNL A   1      29.363  25.828  23.771  1.00  0.00     0.001 A 
ATOM     22  C   UNL A   1      30.473  27.783  22.868  1.00  0.00     0.056 A 
ATOM     23  C   UNL A   1      29.432  27.212  23.604  1.00  0.00     0.013 A 
BRANCH  22  24
ATOM     24  C   UNL A   1      30.640  29.274  22.735  1.00  0.00     0.416 C 
ATOM     25  F   UNL A   1      29.919  29.793  21.705  1.00  0.00    -0.166 F 
ATOM     26  F   UNL A   1      30.281  29.968  23.848  1.00  0.00    -0.166 F 
ATOM     27  F   UNL A   1      31.937  29.621  22.486  1.00  0.00    -0.166 F 
ENDBRANCH  22  24
ENDBRANCH  17  18
ENDBRANCH  16  17
ENDBRANCH   8  16
ENDBRANCH   4   7
ENDBRANCH   2   4
ENDBRANCH   1   2
BRANCH   1  28
ATOM     28  C   UNL A   1      35.267  21.446  26.105  1.00  0.00     0.274 C 
BRANCH  28  29
ATOM     29  C   UNL A   1      35.888  21.370  24.702  1.00  0.00     0.275 C 
BRANCH  29  30
ATOM     30  O   UNL A   1      37.193  21.983  24.630  1.00  0.00    -0.458 OA
BRANCH  30  31
ATOM     31  C   UNL A   1      38.154  21.410  25.388  1.00  0.00     0.338 C 
ATOM     32  O   UNL A   1      38.518  20.238  25.350  1.00  0.00    -0.246 OA
BRANCH  31  33
ATOM     33  C   UNL A   1      38.899  22.430  26.140  1.00  0.00     0.060 A 
ATOM     34  C   UNL A   1      38.508  23.754  25.962  1.00  0.00     0.016 A 
ATOM     35  C   UNL A   1      40.036  22.147  26.887  1.00  0.00     0.016 A 
ATOM     36  C   UNL A   1      39.213  24.812  26.501  1.00  0.00     0.010 A 
ATOM     37  C   UNL A   1      40.761  23.213  27.443  1.00  0.00     0.010 A 
ATOM     38  C   UNL A   1      40.354  24.549  27.242  1.00  0.00    -0.014 A 
BRANCH  38  39
ATOM     39  C   UNL A   1      41.179  25.686  27.686  1.00  0.00     0.031 A 
ATOM     40  C   UNL A   1      40.552  26.721  28.563  1.00  0.00     0.074 A 
ATOM     41  C   UNL A   1      42.488  25.750  27.387  1.00  0.00     0.049 A 
ATOM     42  N   UNL A   1      40.949  27.935  28.821  1.00  0.00    -0.248 NA
ATOM     43  C   UNL A   1      39.306  26.328  29.240  1.00  0.00     0.031 C 
ATOM     44  C   UNL A   1      43.262  24.703  26.719  1.00  0.00     0.029 A 
ATOM     45  N   UNL A   1      43.396  26.753  27.605  1.00  0.00    -0.354 N 
ATOM     46  C   UNL A   1      39.966  28.480  29.634  1.00  0.00     0.074 A 
ATOM     47  C   UNL A   1      38.969  27.454  29.853  1.00  0.00     0.031 C 
ATOM     48  C   UNL A   1      44.526  25.130  26.561  1.00  0.00     0.029 A 
ATOM     49  C   UNL A   1      44.619  26.508  27.030  1.00  0.00     0.049 A 
ATOM     50  H   UNL A   1      43.194  27.566  28.121  1.00  0.00     0.167 HD
ATOM     51  C   UNL A   1      39.904  29.738  30.126  1.00  0.00     0.037 A 
ATOM     52  C   UNL A   1      45.661  27.337  26.834  1.00  0.00     0.037 A 
ATOM     53  C   UNL A   1      40.939  30.716  29.921  1.00  0.00     0.049 A 
ATOM     54  C   UNL A   1      45.531  28.767  27.283  1.00  0.00     0.074 A 
ATOM     55  C   UNL A   1      40.971  32.042  30.309  1.00  0.00     0.029 A 
ATOM     56  N   UNL A   1      42.143  30.454  29.281  1.00  0.00    -0.354 N 
ATOM     57  N   UNL A   1      44.540  29.348  27.916  1.00  0.00    -0.248 NA
ATOM     58  C   UNL A   1      46.647  29.667  26.962  1.00  0.00     0.031 C 
ATOM     59  C   UNL A   1      42.183  32.590  29.877  1.00  0.00     0.029 A 
ATOM     60  C   UNL A   1      42.923  31.594  29.258  1.00  0.00     0.049 A 
ATOM     61  H   UNL A   1      42.402  29.583  28.899  1.00  0.00     0.167 HD
ATOM     62  C   UNL A   1      44.919  30.672  28.091  1.00  0.00     0.074 A 
ATOM     63  C   UNL A   1      46.235  30.808  27.500  1.00  0.00     0.031 C 
ATOM     64  C   UNL A   1      44.243  31.685  28.685  1.00  0.00     0.037 A 
BRANCH  51  65
ATOM     65  C   UNL A   1      38.654  30.137  30.847  1.00  0.00     0.057 A 
ATOM     66  C   UNL A   1      38.508  30.001  32.231  1.00  0.00     0.134 A 
ATOM     67  C   UNL A   1      37.571  30.663  30.130  1.00  0.00     0.134 A 
ATOM     68  F   UNL A   1      39.499  29.484  32.972  1.00  0.00    -0.206 F 
ATOM     69  C   UNL A   1      37.320  30.354  32.876  1.00  0.00     0.040 A 
ATOM     70  C   UNL A   1      36.388  31.041  30.765  1.00  0.00     0.040 A 
ATOM     71  F   UNL A   1      37.644  30.814  28.799  1.00  0.00    -0.206 F 
ATOM     72  C   UNL A   1      36.258  30.881  32.142  1.00  0.00     0.006 A 
ENDBRANCH  51  65
BRANCH  52  73
ATOM     73  C   UNL A   1      46.866  26.866  26.105  1.00  0.00     0.057 A 
ATOM     74  C   UNL A   1      47.006  27.063  24.728  1.00  0.00     0.134 A 
ATOM     75  C   UNL A   1      47.903  26.195  26.768  1.00  0.00     0.134 A 
ATOM     76  F   UNL A   1      46.036  27.674  24.032  1.00  0.00    -0.206 F 
ATOM     77  C   UNL A   1      48.127  26.605  24.034  1.00  0.00     0.040 A 
ATOM     78  C   UNL A   1      49.042  25.756  26.092  1.00  0.00     0.040 A 
ATOM     79  F   UNL A   1      47.831  25.967  28.087  1.00  0.00    -0.206 F 
ATOM     80  C   UNL A   1      49.154  25.954  24.718  1.00  0.00     0.006 A 
ENDBRANCH  52  73
BRANCH  64  81
ATOM     81  C   UNL A   1      44.937  33.007  28.780  1.00  0.00     0.057 A 
ATOM     82  C   UNL A   1      44.750  34.010  27.823  1.00  0.00     0.134 A 
ATOM     83  C   UNL A   1      45.742  33.302  29.888  1.00  0.00     0.134 A 
ATOM     84  F   UNL A   1      44.001  33.780  26.735  1.00  0.00    -0.206 F 
ATOM     85  C   UNL A   1      45.347  35.264  27.961  1.00  0.00     0.040 A 
ATOM     86  C   UNL A   1      46.326  34.558  30.048  1.00  0.00     0.040 A 
ATOM     87  F   UNL A   1      45.951  32.383  30.843  1.00  0.00    -0.206 F 
ATOM     88  C   UNL A   1      46.129  35.542  29.081  1.00  0.00     0.006 A 
ENDBRANCH  64  81
ENDBRANCH  38  39
ENDBRANCH  31  33
ENDBRANCH  30  31
ENDBRANCH  29  30
ENDBRANCH  28  29
ENDBRANCH   1  28
TORSDOF 17
ENDMDL
MODEL 2
REMARK VINA RESULT:     -11.6      4.293      8.528
REMARK SMILES CC[C@@H](C(=O)OCCOC(=O)c1ccc(-c2c3nc(c(-c4c(F)cccc4F)c4ccc([nH]4)c(-c4c(F)cccc4F)c4nc(c(-c5c(F)cccc5F)c5ccc2[nH]5)C=C4)C=C3)cc1)n1c(SCc2cccc(C(F)(F)F)c2)nc2ccncc21
REMARK SMILES IDX 6 1 4 2 5 3 3 4 2 5 1 6 66 7 67 8 86 9 80 10 81 11 85 12
REMARK SMILES IDX 82 13 84 14 83 15 68 16 69 17 70 18 71 19 79 20 72 21 74 22
REMARK SMILES IDX 73 23 75 24 76 25 77 26 78 27 7 28 8 29 9 30 10 31 11 32
REMARK SMILES IDX 12 33 13 34 65 35 14 36 64 37 15 38 16 39 17 40 58 41 18 42
REMARK SMILES IDX 63 43 57 44 59 45 19 46 62 47 56 48 55 49 20 51 46 52 29 53
REMARK SMILES IDX 45 54 30 55 33 56 44 57 60 58 31 59 32 60 43 62 61 63 34 64
REMARK SMILES IDX 21 65 22 66 27 67 23 68 24 69 26 70 28 71 25 72 47 73 48 74
REMARK SMILES IDX 53 75 49 76 50 77 52 78 54 79 51 80 35 81 36 82 41 83 37 84
REMARK SMILES IDX 38 85 40 86 42 87 39 88
REMARK H PARENT 59 50 33 61
REMARK Flexibility Score: inf
ROOT
ATOM      1  O   UNL A   1      32.942  27.380  26.717  1.00  0.00    -0.461 OA
ENDROOT
BRANCH   1   2
ATOM      2  C   UNL A   1      32.725  26.216  26.052  1.00  0.00     0.329 C 
ATOM      3  O   UNL A   1      33.583  25.348  25.990  1.00  0.00    -0.250 OA
BRANCH   2   4
ATOM      4  C   UNL A   1      31.374  26.156  25.336  1.00  0.00     0.199 C 
BRANCH   4   5
ATOM      5  C   UNL A   1      30.834  24.714  25.159  1.00  0.00     0.034 C 
ATOM      6  C   UNL A   1      30.515  23.965  26.450  1.00  0.00     0.007 C 
ENDBRANCH   4   5
BRANCH   4   7
ATOM      7  N   UNL A   1      31.367  26.971  24.092  1.00  0.00    -0.303 N 
ATOM      8  C   UNL A   1      32.488  27.391  23.369  1.00  0.00     0.170 A 
ATOM      9  C   UNL A   1      30.291  27.691  23.574  1.00  0.00     0.088 A 
ATOM     10  N   UNL A   1      32.248  28.583  22.852  1.00  0.00    -0.222 NA
ATOM     11  C   UNL A   1      30.885  28.698  22.821  1.00  0.00     0.093 A 
ATOM     12  C   UNL A   1      28.904  27.585  23.647  1.00  0.00     0.139 A 
ATOM     13  C   UNL A   1      30.093  29.609  22.120  1.00  0.00     0.051 A 
ATOM     14  N   UNL A   1      28.136  28.448  22.944  1.00  0.00    -0.262 NA
ATOM     15  C   UNL A   1      28.726  29.415  22.207  1.00  0.00     0.113 A 
BRANCH   8  16
ATOM     16  S   UNL A   1      33.523  26.350  22.400  1.00  0.00    -0.083 SA
BRANCH  16  17
ATOM     17  C   UNL A   1      32.857  24.691  22.233  1.00  0.00     0.113 C 
BRANCH  17  18
ATOM     18  C   UNL A   1      33.585  23.601  22.959  1.00  0.00    -0.037 A 
ATOM     19  C   UNL A   1      34.934  23.726  23.300  1.00  0.00     0.004 A 
ATOM     20  C   UNL A   1      32.911  22.429  23.310  1.00  0.00     0.017 A 
ATOM     21  C   UNL A   1      35.575  22.711  24.010  1.00  0.00     0.001 A 
ATOM     22  C   UNL A   1      33.505  21.456  24.121  1.00  0.00     0.056 A 
ATOM     23  C   UNL A   1      34.857  21.594  24.443  1.00  0.00     0.013 A 
BRANCH  22  24
ATOM     24  C   UNL A   1      32.668  20.315  24.639  1.00  0.00     0.416 C 
ATOM     25  F   UNL A   1      32.194  19.519  23.644  1.00  0.00    -0.166 F 
ATOM     26  F   UNL A   1      33.326  19.501  25.506  1.00  0.00    -0.166 F 
ATOM     27  F   UNL A   1      31.565  20.757  25.312  1.00  0.00    -0.166 F 
ENDBRANCH  22  24
ENDBRANCH  17  18
ENDBRANCH  16  17
ENDBRANCH   8  16
ENDBRANCH   4   7
ENDBRANCH   2   4
ENDBRANCH   1   2
BRANCH   1  28
ATOM     28  C   UNL A   1      31.754  28.029  27.220  1.00  0.00     0.274 C 
BRANCH  28  29
ATOM     29  C   UNL A   1      31.684  29.519  26.852  1.00  0.00     0.275 C 
BRANCH  29  30
ATOM     30  O   UNL A   1      32.963  30.061  26.456  1.00  0.00    -0.458 OA
BRANCH  30  31
ATOM     31  C   UNL A   1      33.355  31.178  27.108  1.00  0.00     0.338 C 
ATOM     32  O   UNL A   1      32.648  32.133  27.419  1.00  0.00    -0.246 OA
BRANCH  31  33
ATOM     33  C   UNL A   1      34.725  31.027  27.619  1.00  0.00     0.060 A 
ATOM     34  C   UNL A   1      35.109  29.752  28.024  1.00  0.00     0.016 A 
ATOM     35  C   UNL A   1      35.579  32.101  27.841  1.00  0.00     0.016 A 
ATOM     36  C   UNL A   1      36.316  29.506  28.649  1.00  0.00     0.010 A 
ATOM     37  C   UNL A   1      36.810  31.865  28.472  1.00  0.00     0.010 A 
ATOM     38  C   UNL A   1      37.176  30.567  28.886  1.00  0.00    -0.014 A 
BRANCH  38  39
ATOM     39  C   UNL A   1      38.390  30.320  29.682  1.00  0.00     0.031 A 
ATOM     40  C   UNL A   1      39.477  29.488  29.083  1.00  0.00     0.074 A 
ATOM     41  C   UNL A   1      38.560  30.900  30.883  1.00  0.00     0.049 A 
ATOM     42  N   UNL A   1      40.470  28.879  29.670  1.00  0.00    -0.248 NA
ATOM     43  C   UNL A   1      39.435  29.320  27.622  1.00  0.00     0.031 C 
ATOM     44  C   UNL A   1      37.671  31.895  31.483  1.00  0.00     0.029 A 
ATOM     45  N   UNL A   1      39.547  30.723  31.818  1.00  0.00    -0.354 N 
ATOM     46  C   UNL A   1      41.133  28.196  28.660  1.00  0.00     0.074 A 
ATOM     47  C   UNL A   1      40.449  28.490  27.420  1.00  0.00     0.031 C 
ATOM     48  C   UNL A   1      38.141  32.224  32.697  1.00  0.00     0.029 A 
ATOM     49  C   UNL A   1      39.305  31.394  32.991  1.00  0.00     0.049 A 
ATOM     50  H   UNL A   1      40.348  30.172  31.665  1.00  0.00     0.167 HD
ATOM     51  C   UNL A   1      42.204  27.379  28.781  1.00  0.00     0.037 A 
ATOM     52  C   UNL A   1      39.908  31.282  34.189  1.00  0.00     0.037 A 
ATOM     53  C   UNL A   1      42.882  27.148  30.028  1.00  0.00     0.049 A 
ATOM     54  C   UNL A   1      41.023  30.282  34.337  1.00  0.00     0.074 A 
ATOM     55  C   UNL A   1      43.936  26.296  30.298  1.00  0.00     0.029 A 
ATOM     56  N   UNL A   1      42.574  27.800  31.215  1.00  0.00    -0.354 N 
ATOM     57  N   UNL A   1      41.564  29.506  33.427  1.00  0.00    -0.248 NA
ATOM     58  C   UNL A   1      41.590  30.115  35.681  1.00  0.00     0.031 C 
ATOM     59  C   UNL A   1      44.247  26.411  31.658  1.00  0.00     0.029 A 
ATOM     60  C   UNL A   1      43.414  27.365  32.223  1.00  0.00     0.049 A 
ATOM     61  H   UNL A   1      41.862  28.471  31.322  1.00  0.00     0.167 HD
ATOM     62  C   UNL A   1      42.548  28.778  34.081  1.00  0.00     0.074 A 
ATOM     63  C   UNL A   1      42.533  29.207  35.465  1.00  0.00     0.031 C 
ATOM     64  C   UNL A   1      43.389  27.838  33.585  1.00  0.00     0.037 A 
BRANCH  51  65
ATOM     65  C   UNL A   1      42.637  26.626  27.562  1.00  0.00     0.057 A 
ATOM     66  C   UNL A   1      43.587  27.129  26.666  1.00  0.00     0.134 A 
ATOM     67  C   UNL A   1      42.082  25.371  27.280  1.00  0.00     0.134 A 
ATOM     68  F   UNL A   1      44.140  28.335  26.865  1.00  0.00    -0.206 F 
ATOM     69  C   UNL A   1      43.953  26.419  25.520  1.00  0.00     0.040 A 
ATOM     70  C   UNL A   1      42.458  24.642  26.153  1.00  0.00     0.040 A 
ATOM     71  F   UNL A   1      41.163  24.834  28.097  1.00  0.00    -0.206 F 
ATOM     72  C   UNL A   1      43.392  25.169  25.264  1.00  0.00     0.006 A 
ENDBRANCH  51  65
BRANCH  52  73
ATOM     73  C   UNL A   1      39.415  32.062  35.352  1.00  0.00     0.057 A 
ATOM     74  C   UNL A   1      38.455  31.538  36.222  1.00  0.00     0.134 A 
ATOM     75  C   UNL A   1      39.885  33.356  35.615  1.00  0.00     0.134 A 
ATOM     76  F   UNL A   1      37.945  30.317  36.010  1.00  0.00    -0.206 F 
ATOM     77  C   UNL A   1      37.972  32.275  37.307  1.00  0.00     0.040 A 
ATOM     78  C   UNL A   1      39.432  34.093  36.710  1.00  0.00     0.040 A 
ATOM     79  F   UNL A   1      40.803  33.921  34.817  1.00  0.00    -0.206 F 
ATOM     80  C   UNL A   1      38.467  33.554  37.557  1.00  0.00     0.006 A 
ENDBRANCH  52  73
BRANCH  64  81
ATOM     81  C   UNL A   1      44.398  27.258  34.525  1.00  0.00     0.057 A 
ATOM     82  C   UNL A   1      44.150  26.084  35.244  1.00  0.00     0.134 A 
ATOM     83  C   UNL A   1      45.663  27.846  34.650  1.00  0.00     0.134 A 
ATOM     84  F   UNL A   1      42.952  25.484  35.173  1.00  0.00    -0.206 F 
ATOM     85  C   UNL A   1      45.126  25.515  36.063  1.00  0.00     0.040 A 
ATOM     86  C   UNL A   1      46.654  27.275  35.448  1.00  0.00     0.040 A 
ATOM     87  F   UNL A   1      45.963  28.968  33.978  1.00  0.00    -0.206 F 
ATOM     88  C   UNL A   1      46.385  26.106  36.157  1.00  0.00     0.006 A 
ENDBRANCH  64  81
ENDBRANCH  38  39
ENDBRANCH  31  33
ENDBRANCH  30  31
ENDBRANCH  29  30
ENDBRANCH  28  29
ENDBRANCH   1  28
TORSDOF 17
ENDMDL
MODEL 3
REMARK VINA RESULT:     -11.4      1.745      3.286
REMARK SMILES CC[C@@H](C(=O)OCCOC(=O)c1ccc(-c2c3nc(c(-c4c(F)cccc4F)c4ccc([nH]4)c(-c4c(F)cccc4F)c4nc(c(-c5c(F)cccc5F)c5ccc2[nH]5)C=C4)C=C3)cc1)n1c(SCc2cccc(C(F)(F)F)c2)nc2ccncc21
REMARK SMILES IDX 6 1 4 2 5 3 3 4 2 5 1 6 66 7 67 8 86 9 80 10 81 11 85 12
REMARK SMILES IDX 82 13 84 14 83 15 68 16 69 17 70 18 71 19 79 20 72 21 74 22
REMARK SMILES IDX 73 23 75 24 76 25 77 26 78 27 7 28 8 29 9 30 10 31 11 32
REMARK SMILES IDX 12 33 13 34 65 35 14 36 64 37 15 38 16 39 17 40 58 41 18 42
REMARK SMILES IDX 63 43 57 44 59 45 19 46 62 47 56 48 55 49 20 51 46 52 29 53
REMARK SMILES IDX 45 54 30 55 33 56 44 57 60 58 31 59 32 60 43 62 61 63 34 64
REMARK SMILES IDX 21 65 22 66 27 67 23 68 24 69 26 70 28 71 25 72 47 73 48 74
REMARK SMILES IDX 53 75 49 76 50 77 52 78 54 79 51 80 35 81 36 82 41 83 37 84
REMARK SMILES IDX 38 85 40 86 42 87 39 88
REMARK H PARENT 59 50 33 61
REMARK Flexibility Score: inf
ROOT
ATOM      1  O   UNL A   1      35.805  23.824  24.414  1.00  0.00    -0.461 OA
ENDROOT
BRANCH   1   2
ATOM      2  C   UNL A   1      34.519  24.220  24.230  1.00  0.00     0.329 C 
ATOM      3  O   UNL A   1      34.118  25.295  24.649  1.00  0.00    -0.250 OA
BRANCH   2   4
ATOM      4  C   UNL A   1      33.639  23.167  23.552  1.00  0.00     0.199 C 
BRANCH   4   5
ATOM      5  C   UNL A   1      32.514  23.777  22.676  1.00  0.00     0.034 C 
ATOM      6  C   UNL A   1      32.958  24.843  21.678  1.00  0.00     0.007 C 
ENDBRANCH   4   5
BRANCH   4   7
ATOM      7  N   UNL A   1      33.177  22.127  24.510  1.00  0.00    -0.303 N 
ATOM      8  C   UNL A   1      33.201  22.214  25.905  1.00  0.00     0.170 A 
ATOM      9  C   UNL A   1      32.899  20.792  24.218  1.00  0.00     0.088 A 
ATOM     10  N   UNL A   1      33.443  21.018  26.410  1.00  0.00    -0.222 NA
ATOM     11  C   UNL A   1      33.094  20.132  25.427  1.00  0.00     0.093 A 
ATOM     12  C   UNL A   1      32.492  20.092  23.086  1.00  0.00     0.139 A 
ATOM     13  C   UNL A   1      32.871  18.757  25.518  1.00  0.00     0.051 A 
ATOM     14  N   UNL A   1      32.247  18.765  23.181  1.00  0.00    -0.262 NA
ATOM     15  C   UNL A   1      32.430  18.138  24.363  1.00  0.00     0.113 A 
BRANCH   8  16
ATOM     16  S   UNL A   1      32.155  23.240  26.879  1.00  0.00    -0.083 SA
BRANCH  16  17
ATOM     17  C   UNL A   1      30.734  23.836  25.957  1.00  0.00     0.113 C 
BRANCH  17  18
ATOM     18  C   UNL A   1      30.769  25.271  25.527  1.00  0.00    -0.037 A 
ATOM     19  C   UNL A   1      30.187  25.687  24.327  1.00  0.00     0.004 A 
ATOM     20  C   UNL A   1      31.391  26.225  26.335  1.00  0.00     0.017 A 
ATOM     21  C   UNL A   1      30.200  27.036  23.971  1.00  0.00     0.001 A 
ATOM     22  C   UNL A   1      31.311  27.593  26.051  1.00  0.00     0.056 A 
ATOM     23  C   UNL A   1      30.735  27.988  24.841  1.00  0.00     0.013 A 
BRANCH  22  24
ATOM     24  C   UNL A   1      31.820  28.588  27.061  1.00  0.00     0.416 C 
ATOM     25  F   UNL A   1      33.119  28.372  27.401  1.00  0.00    -0.166 F 
ATOM     26  F   UNL A   1      31.737  29.881  26.649  1.00  0.00    -0.166 F 
ATOM     27  F   UNL A   1      31.120  28.527  28.233  1.00  0.00    -0.166 F 
ENDBRANCH  22  24
ENDBRANCH  17  18
ENDBRANCH  16  17
ENDBRANCH   8  16
ENDBRANCH   4   7
ENDBRANCH   2   4
ENDBRANCH   1   2
BRANCH   1  28
ATOM     28  C   UNL A   1      36.264  22.796  23.509  1.00  0.00     0.274 C 
BRANCH  28  29
ATOM     29  C   UNL A   1      36.830  21.567  24.238  1.00  0.00     0.275 C 
BRANCH  29  30
ATOM     30  O   UNL A   1      37.258  21.859  25.585  1.00  0.00    -0.458 OA
BRANCH  30  31
ATOM     31  C   UNL A   1      38.524  21.499  25.891  1.00  0.00     0.338 C 
ATOM     32  O   UNL A   1      39.115  20.494  25.504  1.00  0.00    -0.246 OA
BRANCH  31  33
ATOM     33  C   UNL A   1      39.221  22.590  26.586  1.00  0.00     0.060 A 
ATOM     34  C   UNL A   1      38.857  23.889  26.244  1.00  0.00     0.016 A 
ATOM     35  C   UNL A   1      40.297  22.385  27.442  1.00  0.00     0.016 A 
ATOM     36  C   UNL A   1      39.531  24.997  26.720  1.00  0.00     0.010 A 
ATOM     37  C   UNL A   1      40.989  23.502  27.936  1.00  0.00     0.010 A 
ATOM     38  C   UNL A   1      40.612  24.810  27.568  1.00  0.00    -0.014 A 
BRANCH  38  39
ATOM     39  C   UNL A   1      41.412  25.985  27.952  1.00  0.00     0.031 A 
ATOM     40  C   UNL A   1      40.781  27.023  28.823  1.00  0.00     0.074 A 
ATOM     41  C   UNL A   1      42.706  26.085  27.604  1.00  0.00     0.049 A 
ATOM     42  N   UNL A   1      41.146  28.257  29.034  1.00  0.00    -0.248 NA
ATOM     43  C   UNL A   1      39.574  26.608  29.555  1.00  0.00     0.031 C 
ATOM     44  C   UNL A   1      43.492  25.046  26.937  1.00  0.00     0.029 A 
ATOM     45  N   UNL A   1      43.587  27.123  27.762  1.00  0.00    -0.354 N 
ATOM     46  C   UNL A   1      40.173  28.791  29.868  1.00  0.00     0.074 A 
ATOM     47  C   UNL A   1      39.221  27.739  30.149  1.00  0.00     0.031 C 
ATOM     48  C   UNL A   1      44.734  25.510  26.722  1.00  0.00     0.029 A 
ATOM     49  C   UNL A   1      44.797  26.903  27.150  1.00  0.00     0.049 A 
ATOM     50  H   UNL A   1      43.375  27.943  28.263  1.00  0.00     0.167 HD
ATOM     51  C   UNL A   1      40.086  30.060  30.328  1.00  0.00     0.037 A 
ATOM     52  C   UNL A   1      45.802  27.760  26.894  1.00  0.00     0.037 A 
ATOM     53  C   UNL A   1      41.079  31.065  30.060  1.00  0.00     0.049 A 
ATOM     54  C   UNL A   1      45.640  29.197  27.310  1.00  0.00     0.074 A 
ATOM     55  C   UNL A   1      41.079  32.402  30.411  1.00  0.00     0.029 A 
ATOM     56  N   UNL A   1      42.268  30.825  29.383  1.00  0.00    -0.354 N 
ATOM     57  N   UNL A   1      44.652  29.762  27.963  1.00  0.00    -0.248 NA
ATOM     58  C   UNL A   1      46.712  30.125  26.925  1.00  0.00     0.031 C 
ATOM     59  C   UNL A   1      42.256  32.978  29.921  1.00  0.00     0.029 A 
ATOM     60  C   UNL A   1      43.008  31.990  29.302  1.00  0.00     0.049 A 
ATOM     61  H   UNL A   1      42.543  29.954  29.016  1.00  0.00     0.167 HD
ATOM     62  C   UNL A   1      44.992  31.102  28.089  1.00  0.00     0.074 A 
ATOM     63  C   UNL A   1      46.281  31.265  27.447  1.00  0.00     0.031 C 
ATOM     64  C   UNL A   1      44.303  32.108  28.680  1.00  0.00     0.037 A 
BRANCH  51  65
ATOM     65  C   UNL A   1      38.849  30.436  31.082  1.00  0.00     0.057 A 
ATOM     66  C   UNL A   1      37.712  30.953  30.451  1.00  0.00     0.134 A 
ATOM     67  C   UNL A   1      38.804  30.282  32.474  1.00  0.00     0.134 A 
ATOM     68  F   UNL A   1      37.699  31.146  29.124  1.00  0.00    -0.206 F 
ATOM     69  C   UNL A   1      36.580  31.323  31.181  1.00  0.00     0.040 A 
ATOM     70  C   UNL A   1      37.671  30.625  33.211  1.00  0.00     0.040 A 
ATOM     71  F   UNL A   1      39.862  29.796  33.140  1.00  0.00    -0.206 F 
ATOM     72  C   UNL A   1      36.556  31.154  32.565  1.00  0.00     0.006 A 
ENDBRANCH  51  65
BRANCH  52  73
ATOM     73  C   UNL A   1      46.996  27.309  26.136  1.00  0.00     0.057 A 
ATOM     74  C   UNL A   1      47.048  27.401  24.742  1.00  0.00     0.134 A 
ATOM     75  C   UNL A   1      48.111  26.764  26.787  1.00  0.00     0.134 A 
ATOM     76  F   UNL A   1      46.003  27.888  24.057  1.00  0.00    -0.206 F 
ATOM     77  C   UNL A   1      48.160  26.960  24.021  1.00  0.00     0.040 A 
ATOM     78  C   UNL A   1      49.240  26.345  26.082  1.00  0.00     0.040 A 
ATOM     79  F   UNL A   1      48.126  26.642  28.122  1.00  0.00    -0.206 F 
ATOM     80  C   UNL A   1      49.264  26.436  24.693  1.00  0.00     0.006 A 
ENDBRANCH  52  73
BRANCH  64  81
ATOM     81  C   UNL A   1      44.954  33.455  28.715  1.00  0.00     0.057 A 
ATOM     82  C   UNL A   1      45.853  33.816  29.723  1.00  0.00     0.134 A 
ATOM     83  C   UNL A   1      44.732  34.371  27.679  1.00  0.00     0.134 A 
ATOM     84  F   UNL A   1      46.095  32.984  30.748  1.00  0.00    -0.206 F 
ATOM     85  C   UNL A   1      46.508  35.048  29.705  1.00  0.00     0.040 A 
ATOM     86  C   UNL A   1      45.396  35.597  27.638  1.00  0.00     0.040 A 
ATOM     87  F   UNL A   1      43.887  34.078  26.679  1.00  0.00    -0.206 F 
ATOM     88  C   UNL A   1      46.286  35.937  28.654  1.00  0.00     0.006 A 
ENDBRANCH  64  81
ENDBRANCH  38  39
ENDBRANCH  31  33
ENDBRANCH  30  31
ENDBRANCH  29  30
ENDBRANCH  28  29
ENDBRANCH   1  28
TORSDOF 17
ENDMDL
