MODEL 1
REMARK VINA RESULT:     -11.4      0.000      0.000
REMARK SMILES C[NH2+][C@@]1(C(=O)OCCOC(=O)c2ccc(-c3c4nc(c(-c5c(F)cccc5F)c5ccc([nH]5)c(-c5c(F)cccc5F)c5nc(c(-c6c(F)cccc6F)c6ccc3[nH]6)C=C5)C=C4)cc2)CCC[C@@H](Oc2cc(F)cc(F)c2)C1
REMARK SMILES IDX 7 1 6 2 4 3 5 4 3 5 66 6 79 7 67 8 69 9 68 10 2 11 1 12
REMARK SMILES IDX 70 15 71 16 72 17 78 18 73 19 76 20 74 21 75 22 77 23 8 24
REMARK SMILES IDX 9 25 10 26 11 27 12 28 13 29 65 30 14 31 64 32 15 33 16 34
REMARK SMILES IDX 17 35 58 36 18 37 63 38 57 39 59 40 19 41 62 42 56 43 55 44
REMARK SMILES IDX 20 46 46 47 29 48 45 49 30 50 33 51 44 52 60 53 31 54 32 55
REMARK SMILES IDX 43 57 61 58 34 59 21 60 22 61 27 62 23 63 24 64 26 65 28 66
REMARK SMILES IDX 25 67 47 68 48 69 53 70 49 71 50 72 52 73 54 74 51 75 35 76
REMARK SMILES IDX 36 77 41 78 37 79 38 80 40 81 42 82 39 83
REMARK H PARENT 2 13 2 14 59 45 33 56
REMARK Flexibility Score: inf
ROOT
ATOM      1  C   UNL A   1      31.779  28.624  27.253  1.00  0.00     0.274 C 
ENDROOT
BRANCH   1   2
ATOM      2  O   UNL A   1      31.231  27.469  26.582  1.00  0.00    -0.457 OA
BRANCH   2   3
ATOM      3  C   UNL A   1      32.039  26.839  25.686  1.00  0.00     0.368 C 
ATOM      4  O   UNL A   1      33.250  26.705  25.842  1.00  0.00    -0.245 OA
BRANCH   3   5
ATOM      5  C   UNL A   1      31.267  26.349  24.407  1.00  0.00     0.197 C 
ATOM      6  C   UNL A   1      32.204  26.618  23.206  1.00  0.00     0.081 C 
ATOM      7  C   UNL A   1      29.891  27.028  24.210  1.00  0.00     0.126 C 
ATOM      8  C   UNL A   1      32.280  28.099  22.833  1.00  0.00     0.011 C 
ATOM      9  C   UNL A   1      29.934  28.472  23.682  1.00  0.00     0.180 C 
ATOM     10  C   UNL A   1      30.895  28.642  22.501  1.00  0.00     0.046 C 
BRANCH   5  11
ATOM     11  N   UNL A   1      30.996  24.893  24.643  1.00  0.00    -0.334 N 
ATOM     12  C   UNL A   1      30.877  24.036  23.477  1.00  0.00     0.331 C 
ATOM     13  H   UNL A   1      31.758  24.529  25.214  1.00  0.00     0.347 HD
ATOM     14  H   UNL A   1      30.074  24.867  25.079  1.00  0.00     0.347 HD
ENDBRANCH   5  11
BRANCH   9  15
ATOM     15  O   UNL A   1      28.618  29.026  23.455  1.00  0.00    -0.490 OA
BRANCH  15  16
ATOM     16  C   UNL A   1      28.562  30.221  22.799  1.00  0.00     0.125 A 
ATOM     17  C   UNL A   1      28.886  31.388  23.488  1.00  0.00     0.085 A 
ATOM     18  C   UNL A   1      28.058  30.294  21.502  1.00  0.00     0.085 A 
ATOM     19  C   UNL A   1      28.780  32.615  22.838  1.00  0.00     0.129 A 
ATOM     20  C   UNL A   1      27.975  31.530  20.869  1.00  0.00     0.129 A 
ATOM     21  F   UNL A   1      29.108  33.735  23.494  1.00  0.00    -0.207 F 
ATOM     22  C   UNL A   1      28.340  32.698  21.524  1.00  0.00     0.078 A 
ATOM     23  F   UNL A   1      27.530  31.594  19.608  1.00  0.00    -0.207 F 
ENDBRANCH  15  16
ENDBRANCH   9  15
ENDBRANCH   3   5
ENDBRANCH   2   3
ENDBRANCH   1   2
BRANCH   1  24
ATOM     24  C   UNL A   1      31.801  29.825  26.312  1.00  0.00     0.275 C 
BRANCH  24  25
ATOM     25  O   UNL A   1      33.147  30.312  26.190  1.00  0.00    -0.458 OA
BRANCH  25  26
ATOM     26  C   UNL A   1      33.483  31.312  27.034  1.00  0.00     0.338 C 
ATOM     27  O   UNL A   1      32.837  32.302  27.324  1.00  0.00    -0.246 OA
BRANCH  26  28
ATOM     28  C   UNL A   1      34.785  31.007  27.642  1.00  0.00     0.060 A 
ATOM     29  C   UNL A   1      35.068  29.688  27.988  1.00  0.00     0.016 A 
ATOM     30  C   UNL A   1      35.658  32.035  27.991  1.00  0.00     0.016 A 
ATOM     31  C   UNL A   1      36.184  29.398  28.769  1.00  0.00     0.010 A 
ATOM     32  C   UNL A   1      36.826  31.729  28.695  1.00  0.00     0.010 A 
ATOM     33  C   UNL A   1      37.082  30.413  29.125  1.00  0.00    -0.014 A 
BRANCH  33  34
ATOM     34  C   UNL A   1      38.265  30.113  29.976  1.00  0.00     0.031 A 
ATOM     35  C   UNL A   1      39.390  29.270  29.436  1.00  0.00     0.074 A 
ATOM     36  C   UNL A   1      38.347  30.598  31.230  1.00  0.00     0.049 A 
ATOM     37  N   UNL A   1      40.408  28.744  30.068  1.00  0.00    -0.248 NA
ATOM     38  C   UNL A   1      39.359  28.971  27.995  1.00  0.00     0.031 C 
ATOM     39  C   UNL A   1      37.359  31.466  31.873  1.00  0.00     0.029 A 
ATOM     40  N   UNL A   1      39.317  30.434  32.189  1.00  0.00    -0.354 N 
ATOM     41  C   UNL A   1      41.102  28.003  29.119  1.00  0.00     0.074 A 
ATOM     42  C   UNL A   1      40.396  28.156  27.865  1.00  0.00     0.031 C 
ATOM     43  C   UNL A   1      37.789  31.787  33.102  1.00  0.00     0.029 A 
ATOM     44  C   UNL A   1      39.044  31.089  33.364  1.00  0.00     0.049 A 
ATOM     45  H   UNL A   1      40.131  29.899  32.046  1.00  0.00     0.167 HD
ATOM     46  C   UNL A   1      42.222  27.258  29.282  1.00  0.00     0.037 A 
ATOM     47  C   UNL A   1      39.706  31.100  34.536  1.00  0.00     0.037 A 
ATOM     48  C   UNL A   1      42.959  27.153  30.513  1.00  0.00     0.049 A 
ATOM     49  C   UNL A   1      40.946  30.270  34.693  1.00  0.00     0.074 A 
ATOM     50  C   UNL A   1      44.104  26.417  30.776  1.00  0.00     0.029 A 
ATOM     51  N   UNL A   1      42.638  27.823  31.682  1.00  0.00    -0.354 N 
ATOM     52  N   UNL A   1      41.543  29.506  33.811  1.00  0.00    -0.248 NA
ATOM     53  C   UNL A   1      41.589  30.284  36.014  1.00  0.00     0.031 C 
ATOM     54  C   UNL A   1      44.466  26.635  32.110  1.00  0.00     0.029 A 
ATOM     55  C   UNL A   1      43.562  27.521  32.669  1.00  0.00     0.049 A 
ATOM     56  H   UNL A   1      41.866  28.425  31.795  1.00  0.00     0.167 HD
ATOM     57  C   UNL A   1      42.627  28.944  34.470  1.00  0.00     0.074 A 
ATOM     58  C   UNL A   1      42.621  29.474  35.818  1.00  0.00     0.031 C 
ATOM     59  C   UNL A   1      43.538  28.057  34.004  1.00  0.00     0.037 A 
BRANCH  46  60
ATOM     60  C   UNL A   1      42.700  26.470  28.101  1.00  0.00     0.057 A 
ATOM     61  C   UNL A   1      42.294  25.150  27.876  1.00  0.00     0.134 A 
ATOM     62  C   UNL A   1      43.557  27.056  27.161  1.00  0.00     0.134 A 
ATOM     63  F   UNL A   1      41.486  24.530  28.749  1.00  0.00    -0.206 F 
ATOM     64  C   UNL A   1      42.737  24.433  26.764  1.00  0.00     0.040 A 
ATOM     65  C   UNL A   1      43.993  26.355  26.035  1.00  0.00     0.040 A 
ATOM     66  F   UNL A   1      43.980  28.319  27.318  1.00  0.00    -0.206 F 
ATOM     67  C   UNL A   1      43.586  25.037  25.837  1.00  0.00     0.006 A 
ENDBRANCH  46  60
BRANCH  47  68
ATOM     68  C   UNL A   1      39.181  31.899  35.668  1.00  0.00     0.057 A 
ATOM     69  C   UNL A   1      38.262  31.353  36.571  1.00  0.00     0.134 A 
ATOM     70  C   UNL A   1      39.594  33.220  35.882  1.00  0.00     0.134 A 
ATOM     71  F   UNL A   1      37.812  30.101  36.401  1.00  0.00    -0.206 F 
ATOM     72  C   UNL A   1      37.769  32.093  37.646  1.00  0.00     0.040 A 
ATOM     73  C   UNL A   1      39.126  33.964  36.964  1.00  0.00     0.040 A 
ATOM     74  F   UNL A   1      40.473  33.796  35.050  1.00  0.00    -0.206 F 
ATOM     75  C   UNL A   1      38.209  33.401  37.849  1.00  0.00     0.006 A 
ENDBRANCH  47  68
BRANCH  59  76
ATOM     76  C   UNL A   1      44.604  27.617  34.957  1.00  0.00     0.057 A 
ATOM     77  C   UNL A   1      45.782  28.354  35.123  1.00  0.00     0.134 A 
ATOM     78  C   UNL A   1      44.440  26.463  35.732  1.00  0.00     0.134 A 
ATOM     79  F   UNL A   1      45.999  29.461  34.398  1.00  0.00    -0.206 F 
ATOM     80  C   UNL A   1      46.770  27.950  36.021  1.00  0.00     0.040 A 
ATOM     81  C   UNL A   1      45.415  26.056  36.643  1.00  0.00     0.040 A 
ATOM     82  F   UNL A   1      43.332  25.717  35.618  1.00  0.00    -0.206 F 
ATOM     83  C   UNL A   1      46.586  26.799  36.788  1.00  0.00     0.006 A 
ENDBRANCH  59  76
ENDBRANCH  33  34
ENDBRANCH  26  28
ENDBRANCH  25  26
ENDBRANCH  24  25
ENDBRANCH   1  24
TORSDOF 14
ENDMDL
MODEL 2
REMARK VINA RESULT:     -11.4      5.098      9.885
REMARK SMILES C[NH2+][C@@]1(C(=O)OCCOC(=O)c2ccc(-c3c4nc(c(-c5c(F)cccc5F)c5ccc([nH]5)c(-c5c(F)cccc5F)c5nc(c(-c6c(F)cccc6F)c6ccc3[nH]6)C=C5)C=C4)cc2)CCC[C@@H](Oc2cc(F)cc(F)c2)C1
REMARK SMILES IDX 7 1 6 2 4 3 5 4 3 5 66 6 79 7 67 8 69 9 68 10 2 11 1 12
REMARK SMILES IDX 70 15 71 16 72 17 78 18 73 19 76 20 74 21 75 22 77 23 8 24
REMARK SMILES IDX 9 25 10 26 11 27 12 28 13 29 65 30 14 31 64 32 15 33 16 34
REMARK SMILES IDX 17 35 58 36 18 37 63 38 57 39 59 40 19 41 62 42 56 43 55 44
REMARK SMILES IDX 20 46 46 47 29 48 45 49 30 50 33 51 44 52 60 53 31 54 32 55
REMARK SMILES IDX 43 57 61 58 34 59 21 60 22 61 27 62 23 63 24 64 26 65 28 66
REMARK SMILES IDX 25 67 47 68 48 69 53 70 49 71 50 72 52 73 54 74 51 75 35 76
REMARK SMILES IDX 36 77 41 78 37 79 38 80 40 81 42 82 39 83
REMARK H PARENT 2 13 2 14 59 45 33 56
REMARK Flexibility Score: inf
ROOT
ATOM      1  C   UNL A   1      36.018  22.633  23.744  1.00  0.00     0.274 C 
ENDROOT
BRANCH   1   2
ATOM      2  O   UNL A   1      34.576  22.657  23.689  1.00  0.00    -0.457 OA
BRANCH   2   3
ATOM      3  C   UNL A   1      33.966  23.818  24.054  1.00  0.00     0.368 C 
ATOM      4  O   UNL A   1      34.354  24.928  23.700  1.00  0.00    -0.245 OA
BRANCH   3   5
ATOM      5  C   UNL A   1      32.746  23.591  25.020  1.00  0.00     0.197 C 
ATOM      6  C   UNL A   1      33.240  23.969  26.437  1.00  0.00     0.081 C 
ATOM      7  C   UNL A   1      32.184  22.150  24.987  1.00  0.00     0.126 C 
ATOM      8  C   UNL A   1      34.168  22.915  27.042  1.00  0.00     0.011 C 
ATOM      9  C   UNL A   1      33.021  21.094  25.727  1.00  0.00     0.180 C 
ATOM     10  C   UNL A   1      33.471  21.562  27.115  1.00  0.00     0.046 C 
BRANCH   5  11
ATOM     11  N   UNL A   1      31.661  24.487  24.503  1.00  0.00    -0.334 N 
ATOM     12  C   UNL A   1      30.857  23.995  23.399  1.00  0.00     0.331 C 
ATOM     13  H   UNL A   1      31.029  24.680  25.280  1.00  0.00     0.347 HD
ATOM     14  H   UNL A   1      32.150  25.298  24.127  1.00  0.00     0.347 HD
ENDBRANCH   5  11
BRANCH   9  15
ATOM     15  O   UNL A   1      32.409  19.784  25.718  1.00  0.00    -0.490 OA
BRANCH  15  16
ATOM     16  C   UNL A   1      32.852  18.907  24.772  1.00  0.00     0.125 A 
ATOM     17  C   UNL A   1      32.344  18.992  23.477  1.00  0.00     0.085 A 
ATOM     18  C   UNL A   1      33.697  17.856  25.122  1.00  0.00     0.085 A 
ATOM     19  C   UNL A   1      32.755  18.067  22.521  1.00  0.00     0.129 A 
ATOM     20  C   UNL A   1      34.104  16.952  24.146  1.00  0.00     0.129 A 
ATOM     21  F   UNL A   1      32.280  18.159  21.273  1.00  0.00    -0.207 F 
ATOM     22  C   UNL A   1      33.646  17.051  22.839  1.00  0.00     0.078 A 
ATOM     23  F   UNL A   1      34.950  15.967  24.474  1.00  0.00    -0.207 F 
ENDBRANCH  15  16
ENDBRANCH   9  15
ENDBRANCH   3   5
ENDBRANCH   2   3
ENDBRANCH   1   2
BRANCH   1  24
ATOM     24  C   UNL A   1      36.504  21.351  24.411  1.00  0.00     0.275 C 
BRANCH  24  25
ATOM     25  O   UNL A   1      37.050  21.661  25.703  1.00  0.00    -0.458 OA
BRANCH  25  26
ATOM     26  C   UNL A   1      38.359  21.371  25.867  1.00  0.00     0.338 C 
ATOM     27  O   UNL A   1      38.953  20.360  25.538  1.00  0.00    -0.246 OA
BRANCH  26  28
ATOM     28  C   UNL A   1      39.033  22.524  26.477  1.00  0.00     0.060 A 
ATOM     29  C   UNL A   1      38.552  23.801  26.201  1.00  0.00     0.016 A 
ATOM     30  C   UNL A   1      40.208  22.350  27.204  1.00  0.00     0.016 A 
ATOM     31  C   UNL A   1      39.296  24.919  26.569  1.00  0.00     0.010 A 
ATOM     32  C   UNL A   1      40.904  23.475  27.655  1.00  0.00     0.010 A 
ATOM     33  C   UNL A   1      40.477  24.772  27.309  1.00  0.00    -0.014 A 
BRANCH  33  34
ATOM     34  C   UNL A   1      41.286  25.962  27.689  1.00  0.00     0.031 A 
ATOM     35  C   UNL A   1      40.698  27.021  28.583  1.00  0.00     0.074 A 
ATOM     36  C   UNL A   1      42.551  26.097  27.248  1.00  0.00     0.049 A 
ATOM     37  N   UNL A   1      41.163  28.209  28.875  1.00  0.00    -0.248 NA
ATOM     38  C   UNL A   1      39.410  26.706  29.222  1.00  0.00     0.031 C 
ATOM     39  C   UNL A   1      43.271  25.132  26.415  1.00  0.00     0.029 A 
ATOM     40  N   UNL A   1      43.463  27.105  27.448  1.00  0.00    -0.354 N 
ATOM     41  C   UNL A   1      40.200  28.805  29.680  1.00  0.00     0.074 A 
ATOM     42  C   UNL A   1      39.129  27.845  29.840  1.00  0.00     0.031 C 
ATOM     43  C   UNL A   1      44.520  25.575  26.207  1.00  0.00     0.029 A 
ATOM     44  C   UNL A   1      44.667  26.889  26.825  1.00  0.00     0.049 A 
ATOM     45  H   UNL A   1      43.271  27.906  27.987  1.00  0.00     0.167 HD
ATOM     46  C   UNL A   1      40.207  30.043  30.230  1.00  0.00     0.037 A 
ATOM     47  C   UNL A   1      45.757  27.672  26.728  1.00  0.00     0.037 A 
ATOM     48  C   UNL A   1      41.296  30.977  30.122  1.00  0.00     0.049 A 
ATOM     49  C   UNL A   1      45.743  29.039  27.348  1.00  0.00     0.074 A 
ATOM     50  C   UNL A   1      41.391  32.258  30.642  1.00  0.00     0.029 A 
ATOM     51  N   UNL A   1      42.491  30.720  29.471  1.00  0.00    -0.354 N 
ATOM     52  N   UNL A   1      44.792  29.623  28.034  1.00  0.00    -0.248 NA
ATOM     53  C   UNL A   1      46.944  29.863  27.157  1.00  0.00     0.031 C 
ATOM     54  C   UNL A   1      42.642  32.780  30.291  1.00  0.00     0.029 A 
ATOM     55  C   UNL A   1      43.331  31.816  29.575  1.00  0.00     0.049 A 
ATOM     56  H   UNL A   1      42.710  29.882  29.002  1.00  0.00     0.167 HD
ATOM     57  C   UNL A   1      45.275  30.884  28.352  1.00  0.00     0.074 A 
ATOM     58  C   UNL A   1      46.614  30.972  27.807  1.00  0.00     0.031 C 
ATOM     59  C   UNL A   1      44.659  31.885  29.025  1.00  0.00     0.037 A 
BRANCH  46  60
ATOM     60  C   UNL A   1      38.978  30.471  30.973  1.00  0.00     0.057 A 
ATOM     61  C   UNL A   1      37.923  31.138  30.341  1.00  0.00     0.134 A 
ATOM     62  C   UNL A   1      38.841  30.183  32.337  1.00  0.00     0.134 A 
ATOM     63  F   UNL A   1      38.002  31.455  29.040  1.00  0.00    -0.206 F 
ATOM     64  C   UNL A   1      36.779  31.519  31.043  1.00  0.00     0.040 A 
ATOM     65  C   UNL A   1      37.694  30.543  33.046  1.00  0.00     0.040 A 
ATOM     66  F   UNL A   1      39.816  29.544  32.999  1.00  0.00    -0.206 F 
ATOM     67  C   UNL A   1      36.660  31.217  32.400  1.00  0.00     0.006 A 
ENDBRANCH  46  60
BRANCH  47  68
ATOM     68  C   UNL A   1      46.941  27.192  25.978  1.00  0.00     0.057 A 
ATOM     69  C   UNL A   1      47.958  26.476  26.618  1.00  0.00     0.134 A 
ATOM     70  C   UNL A   1      47.078  27.424  24.603  1.00  0.00     0.134 A 
ATOM     71  F   UNL A   1      47.892  26.245  27.938  1.00  0.00    -0.206 F 
ATOM     72  C   UNL A   1      49.072  26.010  25.920  1.00  0.00     0.040 A 
ATOM     73  C   UNL A   1      48.175  26.946  23.889  1.00  0.00     0.040 A 
ATOM     74  F   UNL A   1      46.135  28.104  23.936  1.00  0.00    -0.206 F 
ATOM     75  C   UNL A   1      49.178  26.238  24.548  1.00  0.00     0.006 A 
ENDBRANCH  47  68
BRANCH  59  76
ATOM     76  C   UNL A   1      45.433  33.151  29.213  1.00  0.00     0.057 A 
ATOM     77  C   UNL A   1      46.281  33.330  30.312  1.00  0.00     0.134 A 
ATOM     78  C   UNL A   1      45.350  34.189  28.277  1.00  0.00     0.134 A 
ATOM     79  F   UNL A   1      46.390  32.375  31.248  1.00  0.00    -0.206 F 
ATOM     80  C   UNL A   1      47.012  34.506  30.481  1.00  0.00     0.040 A 
ATOM     81  C   UNL A   1      46.086  35.363  28.428  1.00  0.00     0.040 A 
ATOM     82  F   UNL A   1      44.556  34.074  27.202  1.00  0.00    -0.206 F 
ATOM     83  C   UNL A   1      46.919  35.526  29.534  1.00  0.00     0.006 A 
ENDBRANCH  59  76
ENDBRANCH  33  34
ENDBRANCH  26  28
ENDBRANCH  25  26
ENDBRANCH  24  25
ENDBRANCH   1  24
TORSDOF 14
ENDMDL
MODEL 3
REMARK VINA RESULT:     -11.3      1.395      6.621
REMARK SMILES C[NH2+][C@@]1(C(=O)OCCOC(=O)c2ccc(-c3c4nc(c(-c5c(F)cccc5F)c5ccc([nH]5)c(-c5c(F)cccc5F)c5nc(c(-c6c(F)cccc6F)c6ccc3[nH]6)C=C5)C=C4)cc2)CCC[C@@H](Oc2cc(F)cc(F)c2)C1
REMARK SMILES IDX 7 1 6 2 4 3 5 4 3 5 66 6 79 7 67 8 69 9 68 10 2 11 1 12
REMARK SMILES IDX 70 15 71 16 72 17 78 18 73 19 76 20 74 21 75 22 77 23 8 24
REMARK SMILES IDX 9 25 10 26 11 27 12 28 13 29 65 30 14 31 64 32 15 33 16 34
REMARK SMILES IDX 17 35 58 36 18 37 63 38 57 39 59 40 19 41 62 42 56 43 55 44
REMARK SMILES IDX 20 46 46 47 29 48 45 49 30 50 33 51 44 52 60 53 31 54 32 55
REMARK SMILES IDX 43 57 61 58 34 59 21 60 22 61 27 62 23 63 24 64 26 65 28 66
REMARK SMILES IDX 25 67 47 68 48 69 53 70 49 71 50 72 52 73 54 74 51 75 35 76
REMARK SMILES IDX 36 77 41 78 37 79 38 80 40 81 42 82 39 83
REMARK H PARENT 2 13 2 14 59 45 33 56
REMARK Flexibility Score: inf
ROOT
ATOM      1  C   UNL A   1      31.808  31.453  26.324  1.00  0.00     0.274 C 
ENDROOT
BRANCH   1   2
ATOM      2  O   UNL A   1      31.785  30.069  26.735  1.00  0.00    -0.457 OA
BRANCH   2   3
ATOM      3  C   UNL A   1      32.824  29.290  26.326  1.00  0.00     0.368 C 
ATOM      4  O   UNL A   1      34.001  29.547  26.569  1.00  0.00    -0.245 OA
BRANCH   3   5
ATOM      5  C   UNL A   1      32.362  28.058  25.465  1.00  0.00     0.197 C 
ATOM      6  C   UNL A   1      33.382  27.931  24.308  1.00  0.00     0.081 C 
ATOM      7  C   UNL A   1      30.916  28.179  24.929  1.00  0.00     0.126 C 
ATOM      8  C   UNL A   1      33.195  29.003  23.234  1.00  0.00     0.011 C 
ATOM      9  C   UNL A   1      30.727  29.135  23.739  1.00  0.00     0.180 C 
ATOM     10  C   UNL A   1      31.788  28.941  22.650  1.00  0.00     0.046 C 
BRANCH   5  11
ATOM     11  N   UNL A   1      32.374  26.892  26.407  1.00  0.00    -0.334 N 
ATOM     12  C   UNL A   1      33.153  25.728  26.023  1.00  0.00     0.331 C 
ATOM     13  H   UNL A   1      32.739  27.223  27.299  1.00  0.00     0.347 HD
ATOM     14  H   UNL A   1      31.409  26.563  26.426  1.00  0.00     0.347 HD
ENDBRANCH   5  11
BRANCH   9  15
ATOM     15  O   UNL A   1      29.370  29.151  23.242  1.00  0.00    -0.490 OA
BRANCH  15  16
ATOM     16  C   UNL A   1      28.931  30.322  22.697  1.00  0.00     0.125 A 
ATOM     17  C   UNL A   1      28.370  30.308  21.422  1.00  0.00     0.085 A 
ATOM     18  C   UNL A   1      29.163  31.534  23.344  1.00  0.00     0.085 A 
ATOM     19  C   UNL A   1      27.967  31.508  20.841  1.00  0.00     0.129 A 
ATOM     20  C   UNL A   1      28.739  32.719  22.749  1.00  0.00     0.129 A 
ATOM     21  F   UNL A   1      27.412  31.493  19.623  1.00  0.00    -0.207 F 
ATOM     22  C   UNL A   1      28.133  32.718  21.500  1.00  0.00     0.078 A 
ATOM     23  F   UNL A   1      28.923  33.879  23.391  1.00  0.00    -0.207 F 
ENDBRANCH  15  16
ENDBRANCH   9  15
ENDBRANCH   3   5
ENDBRANCH   2   3
ENDBRANCH   1   2
BRANCH   1  24
ATOM     24  C   UNL A   1      31.819  32.371  27.542  1.00  0.00     0.275 C 
BRANCH  24  25
ATOM     25  O   UNL A   1      32.395  33.637  27.181  1.00  0.00    -0.458 OA
BRANCH  25  26
ATOM     26  C   UNL A   1      33.041  34.286  28.174  1.00  0.00     0.338 C 
ATOM     27  O   UNL A   1      32.717  35.317  28.734  1.00  0.00    -0.246 OA
BRANCH  26  28
ATOM     28  C   UNL A   1      34.229  33.512  28.558  1.00  0.00     0.060 A 
ATOM     29  C   UNL A   1      34.068  32.178  28.920  1.00  0.00     0.016 A 
ATOM     30  C   UNL A   1      35.465  34.139  28.689  1.00  0.00     0.016 A 
ATOM     31  C   UNL A   1      35.123  31.484  29.506  1.00  0.00     0.010 A 
ATOM     32  C   UNL A   1      36.549  33.412  29.191  1.00  0.00     0.010 A 
ATOM     33  C   UNL A   1      36.380  32.089  29.641  1.00  0.00    -0.014 A 
BRANCH  33  34
ATOM     34  C   UNL A   1      37.506  31.359  30.285  1.00  0.00     0.031 A 
ATOM     35  C   UNL A   1      37.793  31.554  31.750  1.00  0.00     0.074 A 
ATOM     36  C   UNL A   1      38.269  30.511  29.569  1.00  0.00     0.049 A 
ATOM     37  N   UNL A   1      38.828  31.163  32.450  1.00  0.00    -0.248 NA
ATOM     38  C   UNL A   1      36.790  32.299  32.527  1.00  0.00     0.031 C 
ATOM     39  C   UNL A   1      38.082  30.185  28.155  1.00  0.00     0.029 A 
ATOM     40  N   UNL A   1      39.357  29.759  29.941  1.00  0.00    -0.354 N 
ATOM     41  C   UNL A   1      38.630  31.664  33.731  1.00  0.00     0.074 A 
ATOM     42  C   UNL A   1      37.372  32.379  33.715  1.00  0.00     0.031 C 
ATOM     43  C   UNL A   1      38.998  29.275  27.788  1.00  0.00     0.029 A 
ATOM     44  C   UNL A   1      39.882  29.009  28.918  1.00  0.00     0.049 A 
ATOM     45  H   UNL A   1      39.725  29.758  30.854  1.00  0.00     0.167 HD
ATOM     46  C   UNL A   1      39.429  31.543  34.818  1.00  0.00     0.037 A 
ATOM     47  C   UNL A   1      40.975  28.223  28.878  1.00  0.00     0.037 A 
ATOM     48  C   UNL A   1      40.650  30.783  34.852  1.00  0.00     0.049 A 
ATOM     49  C   UNL A   1      41.843  28.102  30.095  1.00  0.00     0.074 A 
ATOM     50  C   UNL A   1      41.530  30.607  35.908  1.00  0.00     0.029 A 
ATOM     51  N   UNL A   1      41.150  30.050  33.789  1.00  0.00    -0.354 N 
ATOM     52  N   UNL A   1      41.690  28.651  31.276  1.00  0.00    -0.248 NA
ATOM     53  C   UNL A   1      43.049  27.273  29.967  1.00  0.00     0.031 C 
ATOM     54  C   UNL A   1      42.570  29.776  35.476  1.00  0.00     0.029 A 
ATOM     55  C   UNL A   1      42.325  29.418  34.161  1.00  0.00     0.049 A 
ATOM     56  H   UNL A   1      40.732  29.988  32.899  1.00  0.00     0.167 HD
ATOM     57  C   UNL A   1      42.780  28.241  32.028  1.00  0.00     0.074 A 
ATOM     58  C   UNL A   1      43.575  27.375  31.181  1.00  0.00     0.031 C 
ATOM     59  C   UNL A   1      43.101  28.563  33.304  1.00  0.00     0.037 A 
BRANCH  46  60
ATOM     60  C   UNL A   1      39.020  32.282  36.056  1.00  0.00     0.057 A 
ATOM     61  C   UNL A   1      39.426  33.598  36.303  1.00  0.00     0.134 A 
ATOM     62  C   UNL A   1      38.182  31.672  36.998  1.00  0.00     0.134 A 
ATOM     63  F   UNL A   1      40.241  34.230  35.445  1.00  0.00    -0.206 F 
ATOM     64  C   UNL A   1      39.026  34.277  37.455  1.00  0.00     0.040 A 
ATOM     65  C   UNL A   1      37.761  32.347  38.145  1.00  0.00     0.040 A 
ATOM     66  F   UNL A   1      37.756  30.413  36.817  1.00  0.00    -0.206 F 
ATOM     67  C   UNL A   1      38.187  33.653  38.377  1.00  0.00     0.006 A 
ENDBRANCH  46  60
BRANCH  47  68
ATOM     68  C   UNL A   1      41.327  27.520  27.622  1.00  0.00     0.057 A 
ATOM     69  C   UNL A   1      42.085  28.152  26.630  1.00  0.00     0.134 A 
ATOM     70  C   UNL A   1      40.927  26.198  27.390  1.00  0.00     0.134 A 
ATOM     71  F   UNL A   1      42.474  29.425  26.788  1.00  0.00    -0.206 F 
ATOM     72  C   UNL A   1      42.431  27.495  25.450  1.00  0.00     0.040 A 
ATOM     73  C   UNL A   1      41.284  25.523  26.224  1.00  0.00     0.040 A 
ATOM     74  F   UNL A   1      40.199  25.542  28.304  1.00  0.00    -0.206 F 
ATOM     75  C   UNL A   1      42.036  26.173  25.248  1.00  0.00     0.006 A 
ENDBRANCH  47  68
BRANCH  59  76
ATOM     76  C   UNL A   1      44.358  27.968  33.856  1.00  0.00     0.057 A 
ATOM     77  C   UNL A   1      44.352  26.728  34.506  1.00  0.00     0.134 A 
ATOM     78  C   UNL A   1      45.586  28.626  33.716  1.00  0.00     0.134 A 
ATOM     79  F   UNL A   1      43.204  26.057  34.681  1.00  0.00    -0.206 F 
ATOM     80  C   UNL A   1      45.526  26.167  35.010  1.00  0.00     0.040 A 
ATOM     81  C   UNL A   1      46.767  28.070  34.204  1.00  0.00     0.040 A 
ATOM     82  F   UNL A   1      45.653  29.816  33.102  1.00  0.00    -0.206 F 
ATOM     83  C   UNL A   1      46.740  26.838  34.856  1.00  0.00     0.006 A 
ENDBRANCH  59  76
ENDBRANCH  33  34
ENDBRANCH  26  28
ENDBRANCH  25  26
ENDBRANCH  24  25
ENDBRANCH   1  24
TORSDOF 14
ENDMDL
