MODEL 1
REMARK VINA RESULT:     -10.6      0.000      0.000
REMARK SMILES Cc1cc(Cl)c(C)c2c1O[C@H](C(F)(F)F)C(C(=O)OCCOC(=O)c1ccc(-c3c4nc(c(-c5c(F)cccc5F)c5ccc([nH]5)c(-c5c(F)cccc5F)c5nc(c(-c6c(F)cccc6F)c6ccc3[nH]6)C=C5)C=C4)cc1)=C2
REMARK SMILES IDX 21 1 20 2 19 3 17 4 18 5 16 6 1 7 2 8 3 9 9 10 4 11 8 12
REMARK SMILES IDX 10 13 5 14 6 15 79 16 11 17 7 18 12 19 13 20 14 21 15 22
REMARK SMILES IDX 22 23 23 24 24 25 25 26 26 27 78 28 27 29 77 30 28 31 29 32
REMARK SMILES IDX 30 33 71 34 31 35 76 36 70 37 72 38 32 39 75 40 69 41 68 42
REMARK SMILES IDX 33 44 59 45 42 46 58 47 43 48 46 49 57 50 73 51 44 52 45 53
REMARK SMILES IDX 56 55 74 56 47 57 34 58 35 59 40 60 36 61 37 62 39 63 41 64
REMARK SMILES IDX 38 65 60 66 61 67 66 68 62 69 63 70 65 71 67 72 64 73 48 74
REMARK SMILES IDX 49 75 54 76 50 77 51 78 53 79 55 80 52 81
REMARK H PARENT 72 43 46 54
REMARK Flexibility Score: inf
ROOT
ATOM      1  C   UNL A   1      40.849  20.276  26.324  1.00  0.00     0.275 C 
ENDROOT
BRANCH   1   2
ATOM      2  C   UNL A   1      42.206  20.034  26.984  1.00  0.00     0.275 C 
BRANCH   2   3
ATOM      3  O   UNL A   1      43.284  20.471  26.126  1.00  0.00    -0.459 OA
BRANCH   3   4
ATOM      4  C   UNL A   1      43.265  21.784  25.788  1.00  0.00     0.338 C 
ATOM      5  O   UNL A   1      42.450  22.345  25.082  1.00  0.00    -0.246 OA
BRANCH   4   6
ATOM      6  C   UNL A   1      44.393  22.487  26.429  1.00  0.00     0.087 C 
ATOM      7  C   UNL A   1      48.749  25.014  27.297  1.00  0.00     0.048 C 
ATOM      8  C   UNL A   1      47.456  24.826  28.038  1.00  0.00    -0.007 A 
ATOM      9  C   UNL A   1      47.268  25.463  29.269  1.00  0.00     0.028 A 
ATOM     10  C   UNL A   1      46.441  23.996  27.542  1.00  0.00     0.131 A 
ATOM     11  C   UNL A   1      46.088  25.289  29.997  1.00  0.00     0.045 A 
ATOM     12  C   UNL A   1      45.239  23.836  28.251  1.00  0.00     0.022 A 
ATOM     13  O   UNL A   1      46.718  23.346  26.368  1.00  0.00    -0.475 OA
ATOM     14  Cl  UNL A   1      45.982  26.127  31.507  1.00  0.00    -0.084 Cl
ATOM     15  C   UNL A   1      45.052  24.475  29.506  1.00  0.00    -0.021 A 
ATOM     16  C   UNL A   1      44.194  23.020  27.640  1.00  0.00     0.027 C 
ATOM     17  C   UNL A   1      45.652  22.680  25.646  1.00  0.00     0.316 C 
ATOM     18  C   UNL A   1      43.779  24.266  30.292  1.00  0.00     0.047 C 
BRANCH  17  19
ATOM     19  C   UNL A   1      45.390  23.435  24.334  1.00  0.00     0.430 C 
ATOM     20  F   UNL A   1      46.526  23.987  23.845  1.00  0.00    -0.167 F 
ATOM     21  F   UNL A   1      44.917  22.607  23.371  1.00  0.00    -0.167 F 
ATOM     22  F   UNL A   1      44.488  24.431  24.489  1.00  0.00    -0.167 F 
ENDBRANCH  17  19
ENDBRANCH   4   6
ENDBRANCH   3   4
ENDBRANCH   2   3
ENDBRANCH   1   2
BRANCH   1  23
ATOM     23  O   UNL A   1      40.057  21.150  27.148  1.00  0.00    -0.458 OA
BRANCH  23  24
ATOM     24  C   UNL A   1      39.355  22.105  26.499  1.00  0.00     0.338 C 
ATOM     25  O   UNL A   1      38.532  21.953  25.611  1.00  0.00    -0.246 OA
BRANCH  24  26
ATOM     26  C   UNL A   1      39.686  23.423  27.063  1.00  0.00     0.060 A 
ATOM     27  C   UNL A   1      39.137  24.559  26.479  1.00  0.00     0.016 A 
ATOM     28  C   UNL A   1      40.635  23.552  28.074  1.00  0.00     0.016 A 
ATOM     29  C   UNL A   1      39.620  25.819  26.811  1.00  0.00     0.010 A 
ATOM     30  C   UNL A   1      41.020  24.831  28.504  1.00  0.00     0.010 A 
ATOM     31  C   UNL A   1      40.550  25.983  27.848  1.00  0.00    -0.014 A 
BRANCH  31  32
ATOM     32  C   UNL A   1      41.022  27.354  28.207  1.00  0.00     0.031 A 
ATOM     33  C   UNL A   1      40.089  28.352  28.848  1.00  0.00     0.074 A 
ATOM     34  C   UNL A   1      42.317  27.693  28.019  1.00  0.00     0.049 A 
ATOM     35  N   UNL A   1      40.305  29.610  29.145  1.00  0.00    -0.248 NA
ATOM     36  C   UNL A   1      38.735  27.886  29.188  1.00  0.00     0.031 C 
ATOM     37  C   UNL A   1      43.344  26.822  27.441  1.00  0.00     0.029 A 
ATOM     38  N   UNL A   1      43.005  28.842  28.329  1.00  0.00    -0.354 N 
ATOM     39  C   UNL A   1      39.104  30.095  29.650  1.00  0.00     0.074 A 
ATOM     40  C   UNL A   1      38.160  29.001  29.614  1.00  0.00     0.031 C 
ATOM     41  C   UNL A   1      44.538  27.424  27.532  1.00  0.00     0.029 A 
ATOM     42  C   UNL A   1      44.353  28.764  28.071  1.00  0.00     0.049 A 
ATOM     43  H   UNL A   1      42.572  29.643  28.702  1.00  0.00     0.167 HD
ATOM     44  C   UNL A   1      38.818  31.338  30.109  1.00  0.00     0.037 A 
ATOM     45  C   UNL A   1      45.336  29.674  28.224  1.00  0.00     0.037 A 
ATOM     46  C   UNL A   1      39.776  32.407  30.209  1.00  0.00     0.049 A 
ATOM     47  C   UNL A   1      44.990  31.048  28.717  1.00  0.00     0.074 A 
ATOM     48  C   UNL A   1      39.577  33.702  30.660  1.00  0.00     0.029 A 
ATOM     49  N   UNL A   1      41.118  32.301  29.882  1.00  0.00    -0.354 N 
ATOM     50  N   UNL A   1      43.832  31.510  29.120  1.00  0.00    -0.248 NA
ATOM     51  C   UNL A   1      46.076  32.039  28.745  1.00  0.00     0.031 C 
ATOM     52  C   UNL A   1      40.792  34.386  30.579  1.00  0.00     0.029 A 
ATOM     53  C   UNL A   1      41.756  33.508  30.115  1.00  0.00     0.049 A 
ATOM     54  H   UNL A   1      41.553  31.488  29.535  1.00  0.00     0.167 HD
ATOM     55  C   UNL A   1      44.050  32.840  29.453  1.00  0.00     0.074 A 
ATOM     56  C   UNL A   1      45.454  33.107  29.224  1.00  0.00     0.031 C 
ATOM     57  C   UNL A   1      43.158  33.757  29.896  1.00  0.00     0.037 A 
BRANCH  44  58
ATOM     58  C   UNL A   1      37.406  31.626  30.527  1.00  0.00     0.057 A 
ATOM     59  C   UNL A   1      36.984  31.499  31.856  1.00  0.00     0.134 A 
ATOM     60  C   UNL A   1      36.475  32.106  29.596  1.00  0.00     0.134 A 
ATOM     61  F   UNL A   1      37.823  31.034  32.793  1.00  0.00    -0.206 F 
ATOM     62  C   UNL A   1      35.683  31.828  32.242  1.00  0.00     0.040 A 
ATOM     63  C   UNL A   1      35.179  32.461  29.975  1.00  0.00     0.040 A 
ATOM     64  F   UNL A   1      36.816  32.260  28.308  1.00  0.00    -0.206 F 
ATOM     65  C   UNL A   1      34.778  32.319  31.301  1.00  0.00     0.006 A 
ENDBRANCH  44  58
BRANCH  45  66
ATOM     66  C   UNL A   1      46.737  29.310  27.890  1.00  0.00     0.057 A 
ATOM     67  C   UNL A   1      47.207  29.395  26.575  1.00  0.00     0.134 A 
ATOM     68  C   UNL A   1      47.647  28.904  28.874  1.00  0.00     0.134 A 
ATOM     69  F   UNL A   1      46.378  29.753  25.584  1.00  0.00    -0.206 F 
ATOM     70  C   UNL A   1      48.532  29.097  26.251  1.00  0.00     0.040 A 
ATOM     71  C   UNL A   1      48.981  28.631  28.570  1.00  0.00     0.040 A 
ATOM     72  F   UNL A   1      47.260  28.805  30.155  1.00  0.00    -0.206 F 
ATOM     73  C   UNL A   1      49.427  28.724  27.254  1.00  0.00     0.006 A 
ENDBRANCH  45  66
BRANCH  57  74
ATOM     74  C   UNL A   1      43.664  35.136  30.187  1.00  0.00     0.057 A 
ATOM     75  C   UNL A   1      43.646  36.140  29.214  1.00  0.00     0.134 A 
ATOM     76  C   UNL A   1      44.083  35.484  31.478  1.00  0.00     0.134 A 
ATOM     77  F   UNL A   1      43.265  35.864  27.958  1.00  0.00    -0.206 F 
ATOM     78  C   UNL A   1      44.027  37.449  29.515  1.00  0.00     0.040 A 
ATOM     79  C   UNL A   1      44.447  36.793  31.795  1.00  0.00     0.040 A 
ATOM     80  F   UNL A   1      44.114  34.565  32.455  1.00  0.00    -0.206 F 
ATOM     81  C   UNL A   1      44.418  37.780  30.811  1.00  0.00     0.006 A 
ENDBRANCH  57  74
ENDBRANCH  31  32
ENDBRANCH  24  26
ENDBRANCH  23  24
ENDBRANCH   1  23
TORSDOF 12
ENDMDL
MODEL 2
REMARK VINA RESULT:     -10.3      4.765     11.031
REMARK SMILES Cc1cc(Cl)c(C)c2c1O[C@H](C(F)(F)F)C(C(=O)OCCOC(=O)c1ccc(-c3c4nc(c(-c5c(F)cccc5F)c5ccc([nH]5)c(-c5c(F)cccc5F)c5nc(c(-c6c(F)cccc6F)c6ccc3[nH]6)C=C5)C=C4)cc1)=C2
REMARK SMILES IDX 21 1 20 2 19 3 17 4 18 5 16 6 1 7 2 8 3 9 9 10 4 11 8 12
REMARK SMILES IDX 10 13 5 14 6 15 79 16 11 17 7 18 12 19 13 20 14 21 15 22
REMARK SMILES IDX 22 23 23 24 24 25 25 26 26 27 78 28 27 29 77 30 28 31 29 32
REMARK SMILES IDX 30 33 71 34 31 35 76 36 70 37 72 38 32 39 75 40 69 41 68 42
REMARK SMILES IDX 33 44 59 45 42 46 58 47 43 48 46 49 57 50 73 51 44 52 45 53
REMARK SMILES IDX 56 55 74 56 47 57 34 58 35 59 40 60 36 61 37 62 39 63 41 64
REMARK SMILES IDX 38 65 60 66 61 67 66 68 62 69 63 70 65 71 67 72 64 73 48 74
REMARK SMILES IDX 49 75 54 76 50 77 51 78 53 79 55 80 52 81
REMARK H PARENT 72 43 46 54
REMARK Flexibility Score: inf
ROOT
ATOM      1  C   UNL A   1      33.441  33.794  28.014  1.00  0.00     0.275 C 
ENDROOT
BRANCH   1   2
ATOM      2  C   UNL A   1      33.537  34.581  29.320  1.00  0.00     0.275 C 
BRANCH   2   3
ATOM      3  O   UNL A   1      34.880  34.544  29.849  1.00  0.00    -0.459 OA
BRANCH   3   4
ATOM      4  C   UNL A   1      35.075  33.696  30.888  1.00  0.00     0.338 C 
ATOM      5  O   UNL A   1      34.421  32.708  31.157  1.00  0.00    -0.246 OA
BRANCH   4   6
ATOM      6  C   UNL A   1      36.249  34.123  31.676  1.00  0.00     0.087 C 
ATOM      7  C   UNL A   1      39.431  35.309  35.493  1.00  0.00     0.048 C 
ATOM      8  C   UNL A   1      39.589  34.932  34.048  1.00  0.00    -0.007 A 
ATOM      9  C   UNL A   1      40.871  34.828  33.498  1.00  0.00     0.028 A 
ATOM     10  C   UNL A   1      38.477  34.717  33.222  1.00  0.00     0.131 A 
ATOM     11  C   UNL A   1      41.053  34.505  32.151  1.00  0.00     0.045 A 
ATOM     12  C   UNL A   1      38.648  34.364  31.872  1.00  0.00     0.022 A 
ATOM     13  O   UNL A   1      37.251  34.906  33.804  1.00  0.00    -0.475 OA
ATOM     14  Cl  UNL A   1      42.688  34.413  31.593  1.00  0.00    -0.084 Cl
ATOM     15  C   UNL A   1      39.950  34.267  31.312  1.00  0.00    -0.021 A 
ATOM     16  C   UNL A   1      37.450  34.078  31.089  1.00  0.00     0.027 C 
ATOM     17  C   UNL A   1      36.054  34.460  33.120  1.00  0.00     0.316 C 
ATOM     18  C   UNL A   1      40.133  33.935  29.849  1.00  0.00     0.047 C 
BRANCH  17  19
ATOM     19  C   UNL A   1      35.444  33.283  33.896  1.00  0.00     0.430 C 
ATOM     20  F   UNL A   1      35.721  33.366  35.219  1.00  0.00    -0.167 F 
ATOM     21  F   UNL A   1      34.093  33.261  33.784  1.00  0.00    -0.167 F 
ATOM     22  F   UNL A   1      35.904  32.089  33.458  1.00  0.00    -0.167 F 
ENDBRANCH  17  19
ENDBRANCH   4   6
ENDBRANCH   3   4
ENDBRANCH   2   3
ENDBRANCH   1   2
BRANCH   1  23
ATOM     23  O   UNL A   1      34.645  33.032  27.815  1.00  0.00    -0.458 OA
BRANCH  23  24
ATOM     24  C   UNL A   1      34.510  31.688  27.836  1.00  0.00     0.338 C 
ATOM     25  O   UNL A   1      33.518  31.033  27.557  1.00  0.00    -0.246 OA
BRANCH  24  26
ATOM     26  C   UNL A   1      35.794  31.072  28.204  1.00  0.00     0.060 A 
ATOM     27  C   UNL A   1      35.796  29.779  28.713  1.00  0.00     0.016 A 
ATOM     28  C   UNL A   1      36.976  31.809  28.175  1.00  0.00     0.016 A 
ATOM     29  C   UNL A   1      36.942  29.263  29.307  1.00  0.00     0.010 A 
ATOM     30  C   UNL A   1      38.163  31.232  28.651  1.00  0.00     0.010 A 
ATOM     31  C   UNL A   1      38.154  29.966  29.264  1.00  0.00    -0.014 A 
BRANCH  31  32
ATOM     32  C   UNL A   1      39.378  29.369  29.878  1.00  0.00     0.031 A 
ATOM     33  C   UNL A   1      40.174  28.314  29.150  1.00  0.00     0.074 A 
ATOM     34  C   UNL A   1      39.821  29.818  31.073  1.00  0.00     0.049 A 
ATOM     35  N   UNL A   1      41.208  27.626  29.568  1.00  0.00    -0.248 NA
ATOM     36  C   UNL A   1      39.751  27.976  27.782  1.00  0.00     0.031 C 
ATOM     37  C   UNL A   1      39.174  30.857  31.879  1.00  0.00     0.029 A 
ATOM     38  N   UNL A   1      40.939  29.492  31.802  1.00  0.00    -0.354 N 
ATOM     39  C   UNL A   1      41.520  26.741  28.543  1.00  0.00     0.074 A 
ATOM     40  C   UNL A   1      40.563  26.971  27.484  1.00  0.00     0.031 C 
ATOM     41  C   UNL A   1      39.953  31.152  32.929  1.00  0.00     0.029 A 
ATOM     42  C   UNL A   1      41.099  30.253  32.937  1.00  0.00     0.049 A 
ATOM     43  H   UNL A   1      41.567  28.782  31.536  1.00  0.00     0.167 HD
ATOM     44  C   UNL A   1      42.517  25.826  28.488  1.00  0.00     0.037 A 
ATOM     45  C   UNL A   1      42.045  30.221  33.897  1.00  0.00     0.037 A 
ATOM     46  C   UNL A   1      43.511  25.644  29.512  1.00  0.00     0.049 A 
ATOM     47  C   UNL A   1      43.128  29.186  33.821  1.00  0.00     0.074 A 
ATOM     48  C   UNL A   1      44.559  24.739  29.543  1.00  0.00     0.029 A 
ATOM     49  N   UNL A   1      43.600  26.398  30.671  1.00  0.00    -0.354 N 
ATOM     50  N   UNL A   1      43.362  28.307  32.878  1.00  0.00    -0.248 NA
ATOM     51  C   UNL A   1      44.059  29.112  34.957  1.00  0.00     0.031 C 
ATOM     52  C   UNL A   1      45.265  24.926  30.735  1.00  0.00     0.029 A 
ATOM     53  C   UNL A   1      44.680  25.973  31.427  1.00  0.00     0.049 A 
ATOM     54  H   UNL A   1      42.986  27.126  30.921  1.00  0.00     0.167 HD
ATOM     55  C   UNL A   1      44.466  27.581  33.301  1.00  0.00     0.074 A 
ATOM     56  C   UNL A   1      44.869  28.133  34.578  1.00  0.00     0.031 C 
ATOM     57  C   UNL A   1      45.079  26.541  32.689  1.00  0.00     0.037 A 
BRANCH  44  58
ATOM     58  C   UNL A   1      42.583  24.929  27.285  1.00  0.00     0.057 A 
ATOM     59  C   UNL A   1      43.341  25.258  26.155  1.00  0.00     0.134 A 
ATOM     60  C   UNL A   1      41.936  23.686  27.291  1.00  0.00     0.134 A 
ATOM     61  F   UNL A   1      43.976  26.437  26.082  1.00  0.00    -0.206 F 
ATOM     62  C   UNL A   1      43.442  24.388  25.067  1.00  0.00     0.040 A 
ATOM     63  C   UNL A   1      42.050  22.798  26.220  1.00  0.00     0.040 A 
ATOM     64  F   UNL A   1      41.201  23.305  28.347  1.00  0.00    -0.206 F 
ATOM     65  C   UNL A   1      42.803  23.149  25.103  1.00  0.00     0.006 A 
ENDBRANCH  44  58
BRANCH  45  66
ATOM     66  C   UNL A   1      41.993  31.195  35.017  1.00  0.00     0.057 A 
ATOM     67  C   UNL A   1      41.133  30.996  36.103  1.00  0.00     0.134 A 
ATOM     68  C   UNL A   1      42.820  32.325  35.050  1.00  0.00     0.134 A 
ATOM     69  F   UNL A   1      40.298  29.947  36.119  1.00  0.00    -0.206 F 
ATOM     70  C   UNL A   1      41.102  31.879  37.183  1.00  0.00     0.040 A 
ATOM     71  C   UNL A   1      42.821  33.201  36.136  1.00  0.00     0.040 A 
ATOM     72  F   UNL A   1      43.668  32.572  34.041  1.00  0.00    -0.206 F 
ATOM     73  C   UNL A   1      41.957  32.981  37.206  1.00  0.00     0.006 A 
ENDBRANCH  45  66
BRANCH  57  74
ATOM     74  C   UNL A   1      46.267  25.934  33.371  1.00  0.00     0.057 A 
ATOM     75  C   UNL A   1      46.130  24.858  34.254  1.00  0.00     0.134 A 
ATOM     76  C   UNL A   1      47.563  26.368  33.065  1.00  0.00     0.134 A 
ATOM     77  F   UNL A   1      44.913  24.405  34.592  1.00  0.00    -0.206 F 
ATOM     78  C   UNL A   1      47.245  24.231  34.812  1.00  0.00     0.040 A 
ATOM     79  C   UNL A   1      48.685  25.737  33.602  1.00  0.00     0.040 A 
ATOM     80  F   UNL A   1      47.757  27.389  32.218  1.00  0.00    -0.206 F 
ATOM     81  C   UNL A   1      48.527  24.663  34.477  1.00  0.00     0.006 A 
ENDBRANCH  57  74
ENDBRANCH  31  32
ENDBRANCH  24  26
ENDBRANCH  23  24
ENDBRANCH   1  23
TORSDOF 12
ENDMDL
MODEL 3
REMARK VINA RESULT:     -10.2      4.512      6.999
REMARK SMILES Cc1cc(Cl)c(C)c2c1O[C@H](C(F)(F)F)C(C(=O)OCCOC(=O)c1ccc(-c3c4nc(c(-c5c(F)cccc5F)c5ccc([nH]5)c(-c5c(F)cccc5F)c5nc(c(-c6c(F)cccc6F)c6ccc3[nH]6)C=C5)C=C4)cc1)=C2
REMARK SMILES IDX 21 1 20 2 19 3 17 4 18 5 16 6 1 7 2 8 3 9 9 10 4 11 8 12
REMARK SMILES IDX 10 13 5 14 6 15 79 16 11 17 7 18 12 19 13 20 14 21 15 22
REMARK SMILES IDX 22 23 23 24 24 25 25 26 26 27 78 28 27 29 77 30 28 31 29 32
REMARK SMILES IDX 30 33 71 34 31 35 76 36 70 37 72 38 32 39 75 40 69 41 68 42
REMARK SMILES IDX 33 44 59 45 42 46 58 47 43 48 46 49 57 50 73 51 44 52 45 53
REMARK SMILES IDX 56 55 74 56 47 57 34 58 35 59 40 60 36 61 37 62 39 63 41 64
REMARK SMILES IDX 38 65 60 66 61 67 66 68 62 69 63 70 65 71 67 72 64 73 48 74
REMARK SMILES IDX 49 75 54 76 50 77 51 78 53 79 55 80 52 81
REMARK H PARENT 72 43 46 54
REMARK Flexibility Score: inf
ROOT
ATOM      1  C   UNL A   1      37.120  19.461  24.979  1.00  0.00     0.275 C 
ENDROOT
BRANCH   1   2
ATOM      2  C   UNL A   1      35.695  20.011  25.000  1.00  0.00     0.275 C 
BRANCH   2   3
ATOM      3  O   UNL A   1      35.685  21.409  25.367  1.00  0.00    -0.459 OA
BRANCH   3   4
ATOM      4  C   UNL A   1      34.462  21.941  25.605  1.00  0.00     0.338 C 
ATOM      5  O   UNL A   1      33.685  21.624  26.484  1.00  0.00    -0.246 OA
BRANCH   4   6
ATOM      6  C   UNL A   1      34.183  23.020  24.636  1.00  0.00     0.087 C 
ATOM      7  C   UNL A   1      32.658  25.669  20.542  1.00  0.00     0.048 C 
ATOM      8  C   UNL A   1      32.984  26.002  21.970  1.00  0.00    -0.007 A 
ATOM      9  C   UNL A   1      32.860  27.322  22.416  1.00  0.00     0.028 A 
ATOM     10  C   UNL A   1      33.446  25.024  22.862  1.00  0.00     0.131 A 
ATOM     11  C   UNL A   1      33.179  27.670  23.731  1.00  0.00     0.045 A 
ATOM     12  C   UNL A   1      33.744  25.358  24.194  1.00  0.00     0.022 A 
ATOM     13  O   UNL A   1      33.614  23.768  22.342  1.00  0.00    -0.475 OA
ATOM     14  Cl  UNL A   1      32.989  29.337  24.156  1.00  0.00    -0.084 Cl
ATOM     15  C   UNL A   1      33.627  26.700  24.645  1.00  0.00    -0.021 A 
ATOM     16  C   UNL A   1      34.146  24.278  25.090  1.00  0.00     0.027 C 
ATOM     17  C   UNL A   1      33.833  22.645  23.232  1.00  0.00     0.316 C 
ATOM     18  C   UNL A   1      33.993  27.068  26.064  1.00  0.00     0.047 C 
BRANCH  17  19
ATOM     19  C   UNL A   1      32.604  21.724  23.184  1.00  0.00     0.430 C 
ATOM     20  F   UNL A   1      32.929  20.451  23.515  1.00  0.00    -0.167 F 
ATOM     21  F   UNL A   1      31.652  22.120  24.064  1.00  0.00    -0.167 F 
ATOM     22  F   UNL A   1      32.035  21.693  21.958  1.00  0.00    -0.167 F 
ENDBRANCH  17  19
ENDBRANCH   4   6
ENDBRANCH   3   4
ENDBRANCH   2   3
ENDBRANCH   1   2
BRANCH   1  23
ATOM     23  O   UNL A   1      38.062  20.546  25.051  1.00  0.00    -0.458 OA
BRANCH  23  24
ATOM     24  C   UNL A   1      39.240  20.274  25.655  1.00  0.00     0.338 C 
ATOM     25  O   UNL A   1      39.809  19.196  25.729  1.00  0.00    -0.246 OA
BRANCH  24  26
ATOM     26  C   UNL A   1      39.811  21.516  26.197  1.00  0.00     0.060 A 
ATOM     27  C   UNL A   1      39.076  22.692  26.096  1.00  0.00     0.016 A 
ATOM     28  C   UNL A   1      41.117  21.553  26.681  1.00  0.00     0.016 A 
ATOM     29  C   UNL A   1      39.677  23.917  26.357  1.00  0.00     0.010 A 
ATOM     30  C   UNL A   1      41.674  22.778  27.075  1.00  0.00     0.010 A 
ATOM     31  C   UNL A   1      40.978  23.984  26.878  1.00  0.00    -0.014 A 
BRANCH  31  32
ATOM     32  C   UNL A   1      41.584  25.315  27.183  1.00  0.00     0.031 A 
ATOM     33  C   UNL A   1      40.888  26.291  28.100  1.00  0.00     0.074 A 
ATOM     34  C   UNL A   1      42.801  25.632  26.690  1.00  0.00     0.049 A 
ATOM     35  N   UNL A   1      41.225  27.520  28.405  1.00  0.00    -0.248 NA
ATOM     36  C   UNL A   1      39.646  25.838  28.748  1.00  0.00     0.031 C 
ATOM     37  C   UNL A   1      43.609  24.776  25.817  1.00  0.00     0.029 A 
ATOM     38  N   UNL A   1      43.593  26.739  26.880  1.00  0.00    -0.354 N 
ATOM     39  C   UNL A   1      40.214  28.001  29.229  1.00  0.00     0.074 A 
ATOM     40  C   UNL A   1      39.246  26.937  29.373  1.00  0.00     0.031 C 
ATOM     41  C   UNL A   1      44.811  25.339  25.633  1.00  0.00     0.029 A 
ATOM     42  C   UNL A   1      44.827  26.645  26.280  1.00  0.00     0.049 A 
ATOM     43  H   UNL A   1      43.303  27.525  27.398  1.00  0.00     0.167 HD
ATOM     44  C   UNL A   1      40.107  29.216  29.818  1.00  0.00     0.037 A 
ATOM     45  C   UNL A   1      45.854  27.516  26.229  1.00  0.00     0.037 A 
ATOM     46  C   UNL A   1      41.103  30.252  29.732  1.00  0.00     0.049 A 
ATOM     47  C   UNL A   1      45.704  28.862  26.874  1.00  0.00     0.074 A 
ATOM     48  C   UNL A   1      41.080  31.517  30.295  1.00  0.00     0.029 A 
ATOM     49  N   UNL A   1      42.312  30.133  29.066  1.00  0.00    -0.354 N 
ATOM     50  N   UNL A   1      44.707  29.326  27.587  1.00  0.00    -0.248 NA
ATOM     51  C   UNL A   1      46.802  29.820  26.681  1.00  0.00     0.031 C 
ATOM     52  C   UNL A   1      42.263  32.174  29.945  1.00  0.00     0.029 A 
ATOM     53  C   UNL A   1      43.039  31.304  29.197  1.00  0.00     0.049 A 
ATOM     54  H   UNL A   1      42.610  29.335  28.572  1.00  0.00     0.167 HD
ATOM     55  C   UNL A   1      45.058  30.623  27.931  1.00  0.00     0.074 A 
ATOM     56  C   UNL A   1      46.368  30.869  27.366  1.00  0.00     0.031 C 
ATOM     57  C   UNL A   1      44.348  31.531  28.641  1.00  0.00     0.037 A 
BRANCH  44  58
ATOM     58  C   UNL A   1      38.861  29.512  30.601  1.00  0.00     0.057 A 
ATOM     59  C   UNL A   1      38.751  29.212  31.964  1.00  0.00     0.134 A 
ATOM     60  C   UNL A   1      37.783  30.172  29.996  1.00  0.00     0.134 A 
ATOM     61  F   UNL A   1      39.743  28.572  32.601  1.00  0.00    -0.206 F 
ATOM     62  C   UNL A   1      37.609  29.547  32.695  1.00  0.00     0.040 A 
ATOM     63  C   UNL A   1      36.646  30.533  30.721  1.00  0.00     0.040 A 
ATOM     64  F   UNL A   1      37.826  30.496  28.695  1.00  0.00    -0.206 F 
ATOM     65  C   UNL A   1      36.556  30.218  32.074  1.00  0.00     0.006 A 
ENDBRANCH  44  58
BRANCH  45  66
ATOM     66  C   UNL A   1      47.107  27.139  25.526  1.00  0.00     0.057 A 
ATOM     67  C   UNL A   1      47.325  27.514  24.196  1.00  0.00     0.134 A 
ATOM     68  C   UNL A   1      48.129  26.430  26.170  1.00  0.00     0.134 A 
ATOM     69  F   UNL A   1      46.376  28.174  23.516  1.00  0.00    -0.206 F 
ATOM     70  C   UNL A   1      48.514  27.205  23.534  1.00  0.00     0.040 A 
ATOM     71  C   UNL A   1      49.334  26.138  25.531  1.00  0.00     0.040 A 
ATOM     72  F   UNL A   1      47.983  26.042  27.446  1.00  0.00    -0.206 F 
ATOM     73  C   UNL A   1      49.528  26.524  24.207  1.00  0.00     0.006 A 
ENDBRANCH  45  66
BRANCH  57  74
ATOM     74  C   UNL A   1      44.970  32.873  28.874  1.00  0.00     0.057 A 
ATOM     75  C   UNL A   1      44.743  33.943  28.001  1.00  0.00     0.134 A 
ATOM     76  C   UNL A   1      45.722  33.121  30.029  1.00  0.00     0.134 A 
ATOM     77  F   UNL A   1      44.038  33.765  26.874  1.00  0.00    -0.206 F 
ATOM     78  C   UNL A   1      45.243  35.219  28.271  1.00  0.00     0.040 A 
ATOM     79  C   UNL A   1      46.211  34.395  30.319  1.00  0.00     0.040 A 
ATOM     80  F   UNL A   1      45.966  32.136  30.906  1.00  0.00    -0.206 F 
ATOM     81  C   UNL A   1      45.969  35.449  29.439  1.00  0.00     0.006 A 
ENDBRANCH  57  74
ENDBRANCH  31  32
ENDBRANCH  24  26
ENDBRANCH  23  24
ENDBRANCH   1  23
TORSDOF 12
ENDMDL
