MODEL 1
REMARK VINA RESULT:     -11.7      0.000      0.000
REMARK SMILES CC[C@@H](C(=O)OCCOC(=O)c1ccc(-c2c3nc(c(-c4c(F)cccc4F)c4ccc([nH]4)c(-c4c(F)cccc4F)c4nc(c(-c5c(F)cccc5F)c5ccc2[nH]5)C=C4)C=C3)cc1)N1C(=O)/C(=C/C(C)=C/c2ccccc2)SC1=S
REMARK SMILES IDX 7 1 6 2 4 3 5 4 3 5 2 6 1 7 66 8 67 9 81 10 68 11 69 12
REMARK SMILES IDX 80 13 82 14 70 15 71 16 72 17 73 18 74 19 75 20 79 21 76 22
REMARK SMILES IDX 78 23 77 24 8 25 9 26 10 27 11 28 12 29 13 30 65 31 14 32
REMARK SMILES IDX 64 33 15 34 16 35 17 36 58 37 18 38 63 39 57 40 59 41 19 42
REMARK SMILES IDX 62 43 56 44 55 45 20 47 46 48 29 49 45 50 30 51 33 52 44 53
REMARK SMILES IDX 60 54 31 55 32 56 43 58 61 59 34 60 21 61 22 62 27 63 23 64
REMARK SMILES IDX 24 65 26 66 28 67 25 68 47 69 48 70 53 71 49 72 50 73 52 74
REMARK SMILES IDX 54 75 51 76 35 77 36 78 41 79 37 80 38 81 40 82 42 83 39 84
REMARK H PARENT 59 46 33 57
REMARK Flexibility Score: inf
ROOT
ATOM      1  C   UNL A   1      31.474  31.161  26.515  1.00  0.00     0.274 C 
ENDROOT
BRANCH   1   2
ATOM      2  O   UNL A   1      32.067  30.461  25.401  1.00  0.00    -0.461 OA
BRANCH   2   3
ATOM      3  C   UNL A   1      31.703  29.166  25.192  1.00  0.00     0.329 C 
ATOM      4  O   UNL A   1      30.660  28.837  24.638  1.00  0.00    -0.250 OA
BRANCH   3   5
ATOM      5  C   UNL A   1      32.707  28.172  25.834  1.00  0.00     0.201 C 
BRANCH   5   6
ATOM      6  C   UNL A   1      34.090  28.829  26.062  1.00  0.00     0.034 C 
ATOM      7  C   UNL A   1      34.511  29.115  27.495  1.00  0.00     0.007 C 
ENDBRANCH   5   6
BRANCH   5   8
ATOM      8  N   UNL A   1      32.762  26.909  24.994  1.00  0.00    -0.278 N 
ATOM      9  C   UNL A   1      32.247  25.697  25.431  1.00  0.00     0.266 C 
ATOM     10  C   UNL A   1      33.313  26.870  23.721  1.00  0.00     0.149 C 
ATOM     11  O   UNL A   1      31.595  25.485  26.445  1.00  0.00    -0.268 OA
ATOM     12  C   UNL A   1      32.578  24.585  24.496  1.00  0.00     0.080 C 
ATOM     13  S   UNL A   1      33.362  25.211  23.116  1.00  0.00    -0.054 SA
ATOM     14  S   UNL A   1      33.864  28.140  22.784  1.00  0.00    -0.052 S 
ATOM     15  C   UNL A   1      32.295  23.320  24.845  1.00  0.00     0.024 C 
BRANCH  15  16
ATOM     16  C   UNL A   1      32.599  22.050  24.199  1.00  0.00    -0.049 C 
ATOM     17  C   UNL A   1      32.186  21.948  22.746  1.00  0.00     0.044 C 
ATOM     18  C   UNL A   1      33.043  20.977  24.882  1.00  0.00     0.011 C 
BRANCH  18  19
ATOM     19  C   UNL A   1      33.235  19.650  24.293  1.00  0.00    -0.025 A 
ATOM     20  C   UNL A   1      34.373  18.918  24.626  1.00  0.00     0.008 A 
ATOM     21  C   UNL A   1      32.302  19.107  23.405  1.00  0.00     0.008 A 
ATOM     22  C   UNL A   1      34.589  17.668  24.054  1.00  0.00     0.001 A 
ATOM     23  C   UNL A   1      32.532  17.858  22.822  1.00  0.00     0.001 A 
ATOM     24  C   UNL A   1      33.685  17.143  23.137  1.00  0.00     0.000 A 
ENDBRANCH  18  19
ENDBRANCH  15  16
ENDBRANCH   5   8
ENDBRANCH   3   5
ENDBRANCH   2   3
ENDBRANCH   1   2
BRANCH   1  25
ATOM     25  C   UNL A   1      31.826  32.655  26.550  1.00  0.00     0.275 C 
BRANCH  25  26
ATOM     26  O   UNL A   1      31.979  33.141  27.898  1.00  0.00    -0.458 OA
BRANCH  26  27
ATOM     27  C   UNL A   1      32.939  34.080  28.066  1.00  0.00     0.338 C 
ATOM     28  O   UNL A   1      32.781  35.293  28.039  1.00  0.00    -0.246 OA
BRANCH  27  29
ATOM     29  C   UNL A   1      34.193  33.448  28.527  1.00  0.00     0.060 A 
ATOM     30  C   UNL A   1      34.068  32.413  29.457  1.00  0.00     0.016 A 
ATOM     31  C   UNL A   1      35.458  33.834  28.081  1.00  0.00     0.016 A 
ATOM     32  C   UNL A   1      35.187  31.724  29.907  1.00  0.00     0.010 A 
ATOM     33  C   UNL A   1      36.592  33.169  28.571  1.00  0.00     0.010 A 
ATOM     34  C   UNL A   1      36.460  32.104  29.480  1.00  0.00    -0.014 A 
BRANCH  34  35
ATOM     35  C   UNL A   1      37.639  31.451  30.098  1.00  0.00     0.031 A 
ATOM     36  C   UNL A   1      37.946  31.723  31.541  1.00  0.00     0.074 A 
ATOM     37  C   UNL A   1      38.346  30.522  29.430  1.00  0.00     0.049 A 
ATOM     38  N   UNL A   1      38.919  31.265  32.286  1.00  0.00    -0.248 NA
ATOM     39  C   UNL A   1      37.002  32.600  32.253  1.00  0.00     0.031 C 
ATOM     40  C   UNL A   1      38.030  30.018  28.094  1.00  0.00     0.029 A 
ATOM     41  N   UNL A   1      39.455  29.803  29.807  1.00  0.00    -0.354 N 
ATOM     42  C   UNL A   1      38.704  31.791  33.553  1.00  0.00     0.074 A 
ATOM     43  C   UNL A   1      37.521  32.620  33.471  1.00  0.00     0.031 C 
ATOM     44  C   UNL A   1      38.912  29.054  27.774  1.00  0.00     0.029 A 
ATOM     45  C   UNL A   1      39.884  28.908  28.856  1.00  0.00     0.049 A 
ATOM     46  H   UNL A   1      39.899  29.919  30.677  1.00  0.00     0.167 HD
ATOM     47  C   UNL A   1      39.421  31.588  34.683  1.00  0.00     0.037 A 
ATOM     48  C   UNL A   1      40.942  28.073  28.862  1.00  0.00     0.037 A 
ATOM     49  C   UNL A   1      40.581  30.738  34.772  1.00  0.00     0.049 A 
ATOM     50  C   UNL A   1      41.838  28.008  30.075  1.00  0.00     0.074 A 
ATOM     51  C   UNL A   1      41.315  30.407  35.897  1.00  0.00     0.029 A 
ATOM     52  N   UNL A   1      41.184  30.098  33.699  1.00  0.00    -0.354 N 
ATOM     53  N   UNL A   1      41.759  28.670  31.206  1.00  0.00    -0.248 NA
ATOM     54  C   UNL A   1      42.967  27.065  30.018  1.00  0.00     0.031 C 
ATOM     55  C   UNL A   1      42.375  29.585  35.502  1.00  0.00     0.029 A 
ATOM     56  C   UNL A   1      42.249  29.330  34.145  1.00  0.00     0.049 A 
ATOM     57  H   UNL A   1      40.897  30.177  32.760  1.00  0.00     0.167 HD
ATOM     58  C   UNL A   1      42.765  28.159  32.021  1.00  0.00     0.074 A 
ATOM     59  C   UNL A   1      43.480  27.178  31.235  1.00  0.00     0.031 C 
ATOM     60  C   UNL A   1      43.022  28.426  33.326  1.00  0.00     0.037 A 
BRANCH  47  61
ATOM     61  C   UNL A   1      38.998  32.336  35.913  1.00  0.00     0.057 A 
ATOM     62  C   UNL A   1      38.214  31.757  36.920  1.00  0.00     0.134 A 
ATOM     63  C   UNL A   1      39.414  33.661  36.100  1.00  0.00     0.134 A 
ATOM     64  F   UNL A   1      37.774  30.495  36.799  1.00  0.00    -0.206 F 
ATOM     65  C   UNL A   1      37.834  32.479  38.053  1.00  0.00     0.040 A 
ATOM     66  C   UNL A   1      39.064  34.383  37.240  1.00  0.00     0.040 A 
ATOM     67  F   UNL A   1      40.173  34.271  35.177  1.00  0.00    -0.206 F 
ATOM     68  C   UNL A   1      38.265  33.795  38.218  1.00  0.00     0.006 A 
ENDBRANCH  47  61
BRANCH  48  69
ATOM     69  C   UNL A   1      41.222  27.219  27.675  1.00  0.00     0.057 A 
ATOM     70  C   UNL A   1      41.985  27.688  26.599  1.00  0.00     0.134 A 
ATOM     71  C   UNL A   1      40.699  25.925  27.574  1.00  0.00     0.134 A 
ATOM     72  F   UNL A   1      42.494  28.929  26.618  1.00  0.00    -0.206 F 
ATOM     73  C   UNL A   1      42.190  26.915  25.453  1.00  0.00     0.040 A 
ATOM     74  C   UNL A   1      40.922  25.128  26.449  1.00  0.00     0.040 A 
ATOM     75  F   UNL A   1      39.959  25.412  28.569  1.00  0.00    -0.206 F 
ATOM     76  C   UNL A   1      41.659  25.628  25.378  1.00  0.00     0.006 A 
ENDBRANCH  48  69
BRANCH  60  77
ATOM     77  C   UNL A   1      44.113  27.632  33.991  1.00  0.00     0.057 A 
ATOM     78  C   UNL A   1      43.872  26.395  34.598  1.00  0.00     0.134 A 
ATOM     79  C   UNL A   1      45.434  28.104  33.996  1.00  0.00     0.134 A 
ATOM     80  F   UNL A   1      42.628  25.896  34.654  1.00  0.00    -0.206 F 
ATOM     81  C   UNL A   1      44.900  25.662  35.197  1.00  0.00     0.040 A 
ATOM     82  C   UNL A   1      46.476  27.365  34.558  1.00  0.00     0.040 A 
ATOM     83  F   UNL A   1      45.738  29.286  33.438  1.00  0.00    -0.206 F 
ATOM     84  C   UNL A   1      46.208  26.142  35.167  1.00  0.00     0.006 A 
ENDBRANCH  60  77
ENDBRANCH  34  35
ENDBRANCH  27  29
ENDBRANCH  26  27
ENDBRANCH  25  26
ENDBRANCH   1  25
TORSDOF 15
ENDMDL
MODEL 2
REMARK VINA RESULT:     -11.6      1.427      2.506
REMARK SMILES CC[C@@H](C(=O)OCCOC(=O)c1ccc(-c2c3nc(c(-c4c(F)cccc4F)c4ccc([nH]4)c(-c4c(F)cccc4F)c4nc(c(-c5c(F)cccc5F)c5ccc2[nH]5)C=C4)C=C3)cc1)N1C(=O)/C(=C/C(C)=C/c2ccccc2)SC1=S
REMARK SMILES IDX 7 1 6 2 4 3 5 4 3 5 2 6 1 7 66 8 67 9 81 10 68 11 69 12
REMARK SMILES IDX 80 13 82 14 70 15 71 16 72 17 73 18 74 19 75 20 79 21 76 22
REMARK SMILES IDX 78 23 77 24 8 25 9 26 10 27 11 28 12 29 13 30 65 31 14 32
REMARK SMILES IDX 64 33 15 34 16 35 17 36 58 37 18 38 63 39 57 40 59 41 19 42
REMARK SMILES IDX 62 43 56 44 55 45 20 47 46 48 29 49 45 50 30 51 33 52 44 53
REMARK SMILES IDX 60 54 31 55 32 56 43 58 61 59 34 60 21 61 22 62 27 63 23 64
REMARK SMILES IDX 24 65 26 66 28 67 25 68 47 69 48 70 53 71 49 72 50 73 52 74
REMARK SMILES IDX 54 75 51 76 35 77 36 78 41 79 37 80 38 81 40 82 42 83 39 84
REMARK H PARENT 59 46 33 57
REMARK Flexibility Score: inf
ROOT
ATOM      1  C   UNL A   1      31.778  28.951  27.233  1.00  0.00     0.274 C 
ENDROOT
BRANCH   1   2
ATOM      2  O   UNL A   1      31.341  27.914  26.328  1.00  0.00    -0.461 OA
BRANCH   2   3
ATOM      3  C   UNL A   1      32.230  27.454  25.406  1.00  0.00     0.329 C 
ATOM      4  O   UNL A   1      33.445  27.506  25.553  1.00  0.00    -0.250 OA
BRANCH   3   5
ATOM      5  C   UNL A   1      31.522  26.962  24.116  1.00  0.00     0.201 C 
BRANCH   5   6
ATOM      6  C   UNL A   1      29.998  27.226  24.167  1.00  0.00     0.034 C 
ATOM      7  C   UNL A   1      29.405  28.163  23.125  1.00  0.00     0.007 C 
ENDBRANCH   5   6
BRANCH   5   8
ATOM      8  N   UNL A   1      31.881  25.506  23.875  1.00  0.00    -0.278 N 
ATOM      9  C   UNL A   1      31.647  24.513  24.816  1.00  0.00     0.266 C 
ATOM     10  C   UNL A   1      32.451  25.052  22.695  1.00  0.00     0.149 C 
ATOM     11  O   UNL A   1      31.040  24.616  25.874  1.00  0.00    -0.268 OA
ATOM     12  C   UNL A   1      32.240  23.210  24.405  1.00  0.00     0.080 C 
ATOM     13  S   UNL A   1      32.888  23.346  22.832  1.00  0.00    -0.054 SA
ATOM     14  S   UNL A   1      32.716  25.893  21.274  1.00  0.00    -0.052 S 
ATOM     15  C   UNL A   1      32.247  22.184  25.270  1.00  0.00     0.024 C 
BRANCH  15  16
ATOM     16  C   UNL A   1      32.845  20.858  25.188  1.00  0.00    -0.049 C 
ATOM     17  C   UNL A   1      34.341  20.808  25.412  1.00  0.00     0.044 C 
ATOM     18  C   UNL A   1      32.160  19.778  24.764  1.00  0.00     0.011 C 
BRANCH  18  19
ATOM     19  C   UNL A   1      32.758  18.459  24.544  1.00  0.00    -0.025 A 
ATOM     20  C   UNL A   1      32.809  17.552  25.601  1.00  0.00     0.008 A 
ATOM     21  C   UNL A   1      33.280  18.096  23.299  1.00  0.00     0.008 A 
ATOM     22  C   UNL A   1      33.401  16.306  25.420  1.00  0.00     0.001 A 
ATOM     23  C   UNL A   1      33.887  16.848  23.128  1.00  0.00     0.001 A 
ATOM     24  C   UNL A   1      33.960  15.958  24.196  1.00  0.00     0.000 A 
ENDBRANCH  18  19
ENDBRANCH  15  16
ENDBRANCH   5   8
ENDBRANCH   3   5
ENDBRANCH   2   3
ENDBRANCH   1   2
BRANCH   1  25
ATOM     25  C   UNL A   1      31.811  30.345  26.588  1.00  0.00     0.275 C 
BRANCH  25  26
ATOM     26  O   UNL A   1      33.158  30.819  26.400  1.00  0.00    -0.458 OA
BRANCH  26  27
ATOM     27  C   UNL A   1      33.546  31.802  27.247  1.00  0.00     0.338 C 
ATOM     28  O   UNL A   1      32.865  32.746  27.624  1.00  0.00    -0.246 OA
BRANCH  27  29
ATOM     29  C   UNL A   1      34.848  31.461  27.858  1.00  0.00     0.060 A 
ATOM     30  C   UNL A   1      35.021  30.136  28.264  1.00  0.00     0.016 A 
ATOM     31  C   UNL A   1      35.878  32.385  28.037  1.00  0.00     0.016 A 
ATOM     32  C   UNL A   1      36.231  29.710  28.799  1.00  0.00     0.010 A 
ATOM     33  C   UNL A   1      37.084  31.965  28.620  1.00  0.00     0.010 A 
ATOM     34  C   UNL A   1      37.268  30.623  28.995  1.00  0.00    -0.014 A 
BRANCH  34  35
ATOM     35  C   UNL A   1      38.485  30.169  29.709  1.00  0.00     0.031 A 
ATOM     36  C   UNL A   1      38.719  30.637  31.116  1.00  0.00     0.074 A 
ATOM     37  C   UNL A   1      39.301  29.245  29.170  1.00  0.00     0.049 A 
ATOM     38  N   UNL A   1      39.708  30.370  31.928  1.00  0.00    -0.248 NA
ATOM     39  C   UNL A   1      37.672  31.490  31.699  1.00  0.00     0.031 C 
ATOM     40  C   UNL A   1      39.078  28.559  27.898  1.00  0.00     0.029 A 
ATOM     41  N   UNL A   1      40.463  28.691  29.651  1.00  0.00    -0.354 N 
ATOM     42  C   UNL A   1      39.404  31.015  33.119  1.00  0.00     0.074 A 
ATOM     43  C   UNL A   1      38.148  31.705  32.917  1.00  0.00     0.031 C 
ATOM     44  C   UNL A   1      40.060  27.660  27.712  1.00  0.00     0.029 A 
ATOM     45  C   UNL A   1      41.007  27.740  28.823  1.00  0.00     0.049 A 
ATOM     46  H   UNL A   1      40.866  28.952  30.510  1.00  0.00     0.167 HD
ATOM     47  C   UNL A   1      40.101  31.019  34.279  1.00  0.00     0.037 A 
ATOM     48  C   UNL A   1      42.142  27.022  28.948  1.00  0.00     0.037 A 
ATOM     49  C   UNL A   1      41.336  30.307  34.491  1.00  0.00     0.049 A 
ATOM     50  C   UNL A   1      43.001  27.190  30.178  1.00  0.00     0.074 A 
ATOM     51  C   UNL A   1      42.063  30.185  35.662  1.00  0.00     0.029 A 
ATOM     52  N   UNL A   1      42.032  29.611  33.514  1.00  0.00    -0.354 N 
ATOM     53  N   UNL A   1      42.823  27.968  31.220  1.00  0.00    -0.248 NA
ATOM     54  C   UNL A   1      44.219  26.366  30.255  1.00  0.00     0.031 C 
ATOM     55  C   UNL A   1      43.210  29.434  35.388  1.00  0.00     0.029 A 
ATOM     56  C   UNL A   1      43.153  29.012  34.069  1.00  0.00     0.049 A 
ATOM     57  H   UNL A   1      41.768  29.550  32.567  1.00  0.00     0.167 HD
ATOM     58  C   UNL A   1      43.847  27.660  32.109  1.00  0.00     0.074 A 
ATOM     59  C   UNL A   1      44.680  26.671  31.460  1.00  0.00     0.031 C 
ATOM     60  C   UNL A   1      44.036  28.101  33.378  1.00  0.00     0.037 A 
BRANCH  47  61
ATOM     61  C   UNL A   1      39.569  31.858  35.403  1.00  0.00     0.057 A 
ATOM     62  C   UNL A   1      39.982  33.179  35.625  1.00  0.00     0.134 A 
ATOM     63  C   UNL A   1      38.597  31.332  36.264  1.00  0.00     0.134 A 
ATOM     64  F   UNL A   1      40.916  33.740  34.843  1.00  0.00    -0.206 F 
ATOM     65  C   UNL A   1      39.470  33.934  36.682  1.00  0.00     0.040 A 
ATOM     66  C   UNL A   1      38.058  32.086  37.306  1.00  0.00     0.040 A 
ATOM     67  F   UNL A   1      38.153  30.077  36.101  1.00  0.00    -0.206 F 
ATOM     68  C   UNL A   1      38.499  33.389  37.523  1.00  0.00     0.006 A 
ENDBRANCH  47  61
BRANCH  48  69
ATOM     69  C   UNL A   1      42.541  26.069  27.877  1.00  0.00     0.057 A 
ATOM     70  C   UNL A   1      42.028  24.767  27.825  1.00  0.00     0.134 A 
ATOM     71  C   UNL A   1      43.477  26.428  26.900  1.00  0.00     0.134 A 
ATOM     72  F   UNL A   1      41.147  24.348  28.747  1.00  0.00    -0.206 F 
ATOM     73  C   UNL A   1      42.454  23.848  26.863  1.00  0.00     0.040 A 
ATOM     74  C   UNL A   1      43.889  25.530  25.913  1.00  0.00     0.040 A 
ATOM     75  F   UNL A   1      44.009  27.659  26.890  1.00  0.00    -0.206 F 
ATOM     76  C   UNL A   1      43.386  24.232  25.900  1.00  0.00     0.006 A 
ENDBRANCH  48  69
BRANCH  60  77
ATOM     77  C   UNL A   1      45.179  27.505  34.154  1.00  0.00     0.057 A 
ATOM     78  C   UNL A   1      46.436  28.117  34.220  1.00  0.00     0.134 A 
ATOM     79  C   UNL A   1      45.006  26.312  34.871  1.00  0.00     0.134 A 
ATOM     80  F   UNL A   1      46.679  29.245  33.536  1.00  0.00    -0.206 F 
ATOM     81  C   UNL A   1      47.483  27.558  34.958  1.00  0.00     0.040 A 
ATOM     82  C   UNL A   1      46.033  25.763  35.641  1.00  0.00     0.040 A 
ATOM     83  F   UNL A   1      43.830  25.666  34.848  1.00  0.00    -0.206 F 
ATOM     84  C   UNL A   1      47.278  26.384  35.680  1.00  0.00     0.006 A 
ENDBRANCH  60  77
ENDBRANCH  34  35
ENDBRANCH  27  29
ENDBRANCH  26  27
ENDBRANCH  25  26
ENDBRANCH   1  25
TORSDOF 15
ENDMDL
MODEL 3
REMARK VINA RESULT:     -11.5      3.374      4.698
REMARK SMILES CC[C@@H](C(=O)OCCOC(=O)c1ccc(-c2c3nc(c(-c4c(F)cccc4F)c4ccc([nH]4)c(-c4c(F)cccc4F)c4nc(c(-c5c(F)cccc5F)c5ccc2[nH]5)C=C4)C=C3)cc1)N1C(=O)/C(=C/C(C)=C/c2ccccc2)SC1=S
REMARK SMILES IDX 7 1 6 2 4 3 5 4 3 5 2 6 1 7 66 8 67 9 81 10 68 11 69 12
REMARK SMILES IDX 80 13 82 14 70 15 71 16 72 17 73 18 74 19 75 20 79 21 76 22
REMARK SMILES IDX 78 23 77 24 8 25 9 26 10 27 11 28 12 29 13 30 65 31 14 32
REMARK SMILES IDX 64 33 15 34 16 35 17 36 58 37 18 38 63 39 57 40 59 41 19 42
REMARK SMILES IDX 62 43 56 44 55 45 20 47 46 48 29 49 45 50 30 51 33 52 44 53
REMARK SMILES IDX 60 54 31 55 32 56 43 58 61 59 34 60 21 61 22 62 27 63 23 64
REMARK SMILES IDX 24 65 26 66 28 67 25 68 47 69 48 70 53 71 49 72 50 73 52 74
REMARK SMILES IDX 54 75 51 76 35 77 36 78 41 79 37 80 38 81 40 82 42 83 39 84
REMARK H PARENT 59 46 33 57
REMARK Flexibility Score: inf
ROOT
ATOM      1  C   UNL A   1      32.411  29.647  25.699  1.00  0.00     0.274 C 
ENDROOT
BRANCH   1   2
ATOM      2  O   UNL A   1      31.678  28.454  25.343  1.00  0.00    -0.461 OA
BRANCH   2   3
ATOM      3  C   UNL A   1      32.329  27.492  24.634  1.00  0.00     0.329 C 
ATOM      4  O   UNL A   1      33.525  27.254  24.756  1.00  0.00    -0.250 OA
BRANCH   3   5
ATOM      5  C   UNL A   1      31.402  26.817  23.588  1.00  0.00     0.201 C 
BRANCH   5   6
ATOM      6  C   UNL A   1      29.908  27.045  23.922  1.00  0.00     0.034 C 
ATOM      7  C   UNL A   1      29.152  28.087  23.112  1.00  0.00     0.007 C 
ENDBRANCH   5   6
BRANCH   5   8
ATOM      8  N   UNL A   1      31.782  25.353  23.458  1.00  0.00    -0.278 N 
ATOM      9  C   UNL A   1      31.565  24.431  24.471  1.00  0.00     0.266 C 
ATOM     10  C   UNL A   1      32.357  24.820  22.313  1.00  0.00     0.149 C 
ATOM     11  O   UNL A   1      30.958  24.604  25.520  1.00  0.00    -0.268 OA
ATOM     12  C   UNL A   1      32.176  23.109  24.158  1.00  0.00     0.080 C 
ATOM     13  S   UNL A   1      32.819  23.135  22.578  1.00  0.00    -0.054 SA
ATOM     14  S   UNL A   1      32.607  25.554  20.832  1.00  0.00    -0.052 S 
ATOM     15  C   UNL A   1      32.199  22.151  25.099  1.00  0.00     0.024 C 
BRANCH  15  16
ATOM     16  C   UNL A   1      32.817  20.832  25.116  1.00  0.00    -0.049 C 
ATOM     17  C   UNL A   1      34.294  20.812  25.446  1.00  0.00     0.044 C 
ATOM     18  C   UNL A   1      32.176  19.726  24.691  1.00  0.00     0.011 C 
BRANCH  18  19
ATOM     19  C   UNL A   1      32.803  18.408  24.570  1.00  0.00    -0.025 A 
ATOM     20  C   UNL A   1      32.791  17.547  25.666  1.00  0.00     0.008 A 
ATOM     21  C   UNL A   1      33.414  17.999  23.380  1.00  0.00     0.008 A 
ATOM     22  C   UNL A   1      33.409  16.303  25.581  1.00  0.00     0.001 A 
ATOM     23  C   UNL A   1      34.045  16.755  23.306  1.00  0.00     0.001 A 
ATOM     24  C   UNL A   1      34.054  15.911  24.414  1.00  0.00     0.000 A 
ENDBRANCH  18  19
ENDBRANCH  15  16
ENDBRANCH   5   8
ENDBRANCH   3   5
ENDBRANCH   2   3
ENDBRANCH   1   2
BRANCH   1  25
ATOM     25  C   UNL A   1      32.698  29.756  27.203  1.00  0.00     0.275 C 
BRANCH  25  26
ATOM     26  O   UNL A   1      34.081  29.494  27.508  1.00  0.00    -0.458 OA
BRANCH  26  27
ATOM     27  C   UNL A   1      34.727  30.489  28.159  1.00  0.00     0.338 C 
ATOM     28  O   UNL A   1      34.220  31.506  28.615  1.00  0.00    -0.246 OA
BRANCH  27  29
ATOM     29  C   UNL A   1      36.114  30.081  28.464  1.00  0.00     0.060 A 
ATOM     30  C   UNL A   1      37.053  30.243  27.442  1.00  0.00     0.016 A 
ATOM     31  C   UNL A   1      36.508  29.558  29.696  1.00  0.00     0.016 A 
ATOM     32  C   UNL A   1      38.392  29.938  27.654  1.00  0.00     0.010 A 
ATOM     33  C   UNL A   1      37.853  29.206  29.894  1.00  0.00     0.010 A 
ATOM     34  C   UNL A   1      38.802  29.404  28.876  1.00  0.00    -0.014 A 
BRANCH  34  35
ATOM     35  C   UNL A   1      40.205  28.945  29.013  1.00  0.00     0.031 A 
ATOM     36  C   UNL A   1      41.186  29.817  29.741  1.00  0.00     0.074 A 
ATOM     37  C   UNL A   1      40.572  27.712  28.620  1.00  0.00     0.049 A 
ATOM     38  N   UNL A   1      42.457  29.619  29.980  1.00  0.00    -0.248 NA
ATOM     39  C   UNL A   1      40.650  31.062  30.312  1.00  0.00     0.031 C 
ATOM     40  C   UNL A   1      39.672  26.692  28.085  1.00  0.00     0.029 A 
ATOM     41  N   UNL A   1      41.798  27.093  28.655  1.00  0.00    -0.354 N 
ATOM     42  C   UNL A   1      42.873  30.710  30.732  1.00  0.00     0.074 A 
ATOM     43  C   UNL A   1      41.725  31.576  30.892  1.00  0.00     0.031 C 
ATOM     44  C   UNL A   1      40.374  25.567  27.863  1.00  0.00     0.029 A 
ATOM     45  C   UNL A   1      41.779  25.800  28.192  1.00  0.00     0.049 A 
ATOM     46  H   UNL A   1      42.615  27.536  28.982  1.00  0.00     0.167 HD
ATOM     47  C   UNL A   1      44.097  30.957  31.254  1.00  0.00     0.037 A 
ATOM     48  C   UNL A   1      42.783  24.912  28.047  1.00  0.00     0.037 A 
ATOM     49  C   UNL A   1      45.233  30.079  31.122  1.00  0.00     0.049 A 
ATOM     50  C   UNL A   1      44.183  25.289  28.467  1.00  0.00     0.074 A 
ATOM     51  C   UNL A   1      46.486  30.210  31.693  1.00  0.00     0.029 A 
ATOM     52  N   UNL A   1      45.260  28.921  30.359  1.00  0.00    -0.354 N 
ATOM     53  N   UNL A   1      44.623  26.411  28.988  1.00  0.00    -0.248 NA
ATOM     54  C   UNL A   1      45.228  24.268  28.293  1.00  0.00     0.031 C 
ATOM     55  C   UNL A   1      47.278  29.143  31.258  1.00  0.00     0.029 A 
ATOM     56  C   UNL A   1      46.493  28.299  30.489  1.00  0.00     0.049 A 
ATOM     57  H   UNL A   1      44.514  28.589  29.808  1.00  0.00     0.167 HD
ATOM     58  C   UNL A   1      45.965  26.196  29.285  1.00  0.00     0.074 A 
ATOM     59  C   UNL A   1      46.285  24.861  28.830  1.00  0.00     0.031 C 
ATOM     60  C   UNL A   1      46.832  27.006  29.944  1.00  0.00     0.037 A 
BRANCH  47  61
ATOM     61  C   UNL A   1      44.289  32.254  31.982  1.00  0.00     0.057 A 
ATOM     62  C   UNL A   1      44.713  33.427  31.343  1.00  0.00     0.134 A 
ATOM     63  C   UNL A   1      44.014  32.329  33.354  1.00  0.00     0.134 A 
ATOM     64  F   UNL A   1      45.003  33.422  30.033  1.00  0.00    -0.206 F 
ATOM     65  C   UNL A   1      44.885  34.620  32.049  1.00  0.00     0.040 A 
ATOM     66  C   UNL A   1      44.155  33.521  34.064  1.00  0.00     0.040 A 
ATOM     67  F   UNL A   1      43.597  31.244  34.024  1.00  0.00    -0.206 F 
ATOM     68  C   UNL A   1      44.600  34.670  33.413  1.00  0.00     0.006 A 
ENDBRANCH  47  61
BRANCH  48  69
ATOM     69  C   UNL A   1      42.508  23.566  27.474  1.00  0.00     0.057 A 
ATOM     70  C   UNL A   1      42.480  23.349  26.091  1.00  0.00     0.134 A 
ATOM     71  C   UNL A   1      42.229  22.470  28.300  1.00  0.00     0.134 A 
ATOM     72  F   UNL A   1      42.712  24.361  25.241  1.00  0.00    -0.206 F 
ATOM     73  C   UNL A   1      42.154  22.103  25.550  1.00  0.00     0.040 A 
ATOM     74  C   UNL A   1      41.931  21.211  27.774  1.00  0.00     0.040 A 
ATOM     75  F   UNL A   1      42.239  22.606  29.634  1.00  0.00    -0.206 F 
ATOM     76  C   UNL A   1      41.881  21.028  26.394  1.00  0.00     0.006 A 
ENDBRANCH  48  69
BRANCH  60  77
ATOM     77  C   UNL A   1      48.206  26.461  30.226  1.00  0.00     0.057 A 
ATOM     78  C   UNL A   1      48.509  25.780  31.411  1.00  0.00     0.134 A 
ATOM     79  C   UNL A   1      49.233  26.596  29.281  1.00  0.00     0.134 A 
ATOM     80  F   UNL A   1      47.583  25.639  32.370  1.00  0.00    -0.206 F 
ATOM     81  C   UNL A   1      49.787  25.266  31.651  1.00  0.00     0.040 A 
ATOM     82  C   UNL A   1      50.502  26.055  29.493  1.00  0.00     0.040 A 
ATOM     83  F   UNL A   1      49.016  27.243  28.125  1.00  0.00    -0.206 F 
ATOM     84  C   UNL A   1      50.783  25.393  30.685  1.00  0.00     0.006 A 
ENDBRANCH  60  77
ENDBRANCH  34  35
ENDBRANCH  27  29
ENDBRANCH  26  27
ENDBRANCH  25  26
ENDBRANCH   1  25
TORSDOF 15
ENDMDL
