MODEL 1
REMARK VINA RESULT:     -11.1      0.000      0.000
REMARK SMILES C[C@H]1CC=C(C2=NN=C(C(=O)OCCOC(=O)c3ccc(-c4c5nc(c(-c6c(F)cccc6F)c6ccc([nH]6)c(-c6c(F)cccc6F)c6nc(c(-c7c(F)cccc7F)c7ccc4[nH]7)C=C6)C=C5)cc3)C2)O1
REMARK SMILES IDX 14 1 13 2 12 3 10 4 11 5 9 6 6 7 7 8 72 9 8 10 5 11 1 12
REMARK SMILES IDX 2 13 3 14 73 15 4 16 15 17 16 18 17 19 18 20 19 21 71 22
REMARK SMILES IDX 20 23 70 24 21 25 22 26 23 27 64 28 24 29 69 30 63 31 65 32
REMARK SMILES IDX 25 33 68 34 62 35 61 36 26 38 52 39 35 40 51 41 36 42 39 43
REMARK SMILES IDX 50 44 66 45 37 46 38 47 49 49 67 50 40 51 27 52 28 53 33 54
REMARK SMILES IDX 29 55 30 56 32 57 34 58 31 59 53 60 54 61 59 62 55 63 56 64
REMARK SMILES IDX 58 65 60 66 57 67 41 68 42 69 47 70 43 71 44 72 46 73 48 74
REMARK SMILES IDX 45 75
REMARK H PARENT 65 37 39 48
REMARK Flexibility Score: inf
ROOT
ATOM      1  C   UNL A   1      46.016  19.519  24.545  1.00  0.00     0.275 C 
ENDROOT
BRANCH   1   2
ATOM      2  C   UNL A   1      44.609  18.938  24.594  1.00  0.00     0.275 C 
BRANCH   2   3
ATOM      3  O   UNL A   1      44.122  18.875  25.944  1.00  0.00    -0.458 OA
BRANCH   3   4
ATOM      4  C   UNL A   1      42.833  18.513  26.076  1.00  0.00     0.355 C 
ATOM      5  O   UNL A   1      42.355  17.393  25.959  1.00  0.00    -0.245 OA
BRANCH   4   6
ATOM      6  C   UNL A   1      41.976  19.652  26.532  1.00  0.00     0.154 C 
ATOM      7  C   UNL A   1      40.337  21.153  26.586  1.00  0.00     0.111 C 
ATOM      8  N   UNL A   1      41.276  21.548  27.394  1.00  0.00    -0.151 NA
ATOM      9  C   UNL A   1      40.616  19.828  25.962  1.00  0.00     0.128 C 
ATOM     10  N   UNL A   1      42.334  20.582  27.364  1.00  0.00    -0.147 NA
BRANCH   7  11
ATOM     11  C   UNL A   1      39.134  21.912  26.206  1.00  0.00     0.139 C 
ATOM     12  C   UNL A   1      35.853  22.162  25.217  1.00  0.00     0.053 C 
ATOM     13  C   UNL A   1      37.324  22.514  25.042  1.00  0.00     0.174 C 
ATOM     14  C   UNL A   1      37.753  23.705  25.910  1.00  0.00     0.076 C 
ATOM     15  O   UNL A   1      38.152  21.374  25.383  1.00  0.00    -0.489 OA
ATOM     16  C   UNL A   1      38.998  23.198  26.516  1.00  0.00     0.025 C 
ENDBRANCH   7  11
ENDBRANCH   4   6
ENDBRANCH   3   4
ENDBRANCH   2   3
ENDBRANCH   1   2
BRANCH   1  17
ATOM     17  O   UNL A   1      46.011  20.935  24.730  1.00  0.00    -0.458 OA
BRANCH  17  18
ATOM     18  C   UNL A   1      44.935  21.573  24.219  1.00  0.00     0.338 C 
ATOM     19  O   UNL A   1      44.565  21.582  23.061  1.00  0.00    -0.246 OA
BRANCH  18  20
ATOM     20  C   UNL A   1      44.394  22.488  25.229  1.00  0.00     0.060 A 
ATOM     21  C   UNL A   1      43.283  23.249  24.855  1.00  0.00     0.016 A 
ATOM     22  C   UNL A   1      45.145  22.784  26.375  1.00  0.00     0.016 A 
ATOM     23  C   UNL A   1      43.031  24.419  25.535  1.00  0.00     0.010 A 
ATOM     24  C   UNL A   1      44.901  23.958  27.045  1.00  0.00     0.010 A 
ATOM     25  C   UNL A   1      43.893  24.794  26.573  1.00  0.00    -0.014 A 
BRANCH  25  26
ATOM     26  C   UNL A   1      43.609  26.027  27.274  1.00  0.00     0.031 A 
ATOM     27  C   UNL A   1      44.590  27.090  26.950  1.00  0.00     0.074 A 
ATOM     28  C   UNL A   1      42.504  26.203  28.023  1.00  0.00     0.049 A 
ATOM     29  N   UNL A   1      45.436  27.646  27.749  1.00  0.00    -0.248 NA
ATOM     30  C   UNL A   1      44.782  27.437  25.531  1.00  0.00     0.031 C 
ATOM     31  C   UNL A   1      41.363  25.299  28.184  1.00  0.00     0.029 A 
ATOM     32  N   UNL A   1      42.125  27.298  28.735  1.00  0.00    -0.354 N 
ATOM     33  C   UNL A   1      46.117  28.578  26.974  1.00  0.00     0.074 A 
ATOM     34  C   UNL A   1      45.823  28.267  25.602  1.00  0.00     0.031 C 
ATOM     35  C   UNL A   1      40.333  25.976  28.744  1.00  0.00     0.029 A 
ATOM     36  C   UNL A   1      40.782  27.313  29.093  1.00  0.00     0.049 A 
ATOM     37  H   UNL A   1      42.749  28.019  28.975  1.00  0.00     0.167 HD
ATOM     38  C   UNL A   1      46.623  29.704  27.539  1.00  0.00     0.037 A 
ATOM     39  C   UNL A   1      40.097  28.384  29.568  1.00  0.00     0.037 A 
ATOM     40  C   UNL A   1      46.800  29.538  28.960  1.00  0.00     0.049 A 
ATOM     41  C   UNL A   1      41.094  29.364  30.071  1.00  0.00     0.074 A 
ATOM     42  C   UNL A   1      47.514  28.659  29.754  1.00  0.00     0.029 A 
ATOM     43  N   UNL A   1      45.874  30.119  29.792  1.00  0.00    -0.354 N 
ATOM     44  N   UNL A   1      41.828  29.168  31.129  1.00  0.00    -0.248 NA
ATOM     45  C   UNL A   1      41.612  30.343  29.125  1.00  0.00     0.031 C 
ATOM     46  C   UNL A   1      46.672  28.406  30.877  1.00  0.00     0.029 A 
ATOM     47  C   UNL A   1      45.529  29.193  30.741  1.00  0.00     0.049 A 
ATOM     48  H   UNL A   1      45.522  31.036  29.719  1.00  0.00     0.167 HD
ATOM     49  C   UNL A   1      43.084  29.640  30.778  1.00  0.00     0.074 A 
ATOM     50  C   UNL A   1      42.871  30.425  29.564  1.00  0.00     0.031 C 
ATOM     51  C   UNL A   1      44.214  29.108  31.331  1.00  0.00     0.037 A 
BRANCH  38  52
ATOM     52  C   UNL A   1      46.520  31.064  26.890  1.00  0.00     0.057 A 
ATOM     53  C   UNL A   1      47.654  31.894  26.878  1.00  0.00     0.134 A 
ATOM     54  C   UNL A   1      45.305  31.709  26.572  1.00  0.00     0.134 A 
ATOM     55  F   UNL A   1      48.868  31.403  27.169  1.00  0.00    -0.206 F 
ATOM     56  C   UNL A   1      47.570  33.275  26.668  1.00  0.00     0.040 A 
ATOM     57  C   UNL A   1      45.217  33.077  26.309  1.00  0.00     0.040 A 
ATOM     58  F   UNL A   1      44.121  31.086  26.597  1.00  0.00    -0.206 F 
ATOM     59  C   UNL A   1      46.347  33.873  26.394  1.00  0.00     0.006 A 
ENDBRANCH  38  52
BRANCH  39  60
ATOM     60  C   UNL A   1      38.684  28.761  29.322  1.00  0.00     0.057 A 
ATOM     61  C   UNL A   1      37.757  28.829  30.373  1.00  0.00     0.134 A 
ATOM     62  C   UNL A   1      38.276  29.339  28.107  1.00  0.00     0.134 A 
ATOM     63  F   UNL A   1      38.065  28.345  31.585  1.00  0.00    -0.206 F 
ATOM     64  C   UNL A   1      36.510  29.455  30.232  1.00  0.00     0.040 A 
ATOM     65  C   UNL A   1      37.033  29.961  27.951  1.00  0.00     0.040 A 
ATOM     66  F   UNL A   1      39.106  29.403  27.056  1.00  0.00    -0.206 F 
ATOM     67  C   UNL A   1      36.151  30.034  29.019  1.00  0.00     0.006 A 
ENDBRANCH  39  60
BRANCH  51  68
ATOM     68  C   UNL A   1      44.051  28.182  32.503  1.00  0.00     0.057 A 
ATOM     69  C   UNL A   1      43.879  26.793  32.396  1.00  0.00     0.134 A 
ATOM     70  C   UNL A   1      44.210  28.701  33.792  1.00  0.00     0.134 A 
ATOM     71  F   UNL A   1      43.821  26.191  31.202  1.00  0.00    -0.206 F 
ATOM     72  C   UNL A   1      43.818  25.968  33.524  1.00  0.00     0.040 A 
ATOM     73  C   UNL A   1      44.185  27.884  34.924  1.00  0.00     0.040 A 
ATOM     74  F   UNL A   1      44.436  30.013  33.969  1.00  0.00    -0.206 F 
ATOM     75  C   UNL A   1      43.977  26.514  34.793  1.00  0.00     0.006 A 
ENDBRANCH  51  68
ENDBRANCH  25  26
ENDBRANCH  18  20
ENDBRANCH  17  18
ENDBRANCH   1  17
TORSDOF 12
ENDMDL
MODEL 2
REMARK VINA RESULT:     -10.9      1.394      2.008
REMARK SMILES C[C@H]1CC=C(C2=NN=C(C(=O)OCCOC(=O)c3ccc(-c4c5nc(c(-c6c(F)cccc6F)c6ccc([nH]6)c(-c6c(F)cccc6F)c6nc(c(-c7c(F)cccc7F)c7ccc4[nH]7)C=C6)C=C5)cc3)C2)O1
REMARK SMILES IDX 14 1 13 2 12 3 10 4 11 5 9 6 6 7 7 8 72 9 8 10 5 11 1 12
REMARK SMILES IDX 2 13 3 14 73 15 4 16 15 17 16 18 17 19 18 20 19 21 71 22
REMARK SMILES IDX 20 23 70 24 21 25 22 26 23 27 64 28 24 29 69 30 63 31 65 32
REMARK SMILES IDX 25 33 68 34 62 35 61 36 26 38 52 39 35 40 51 41 36 42 39 43
REMARK SMILES IDX 50 44 66 45 37 46 38 47 49 49 67 50 40 51 27 52 28 53 33 54
REMARK SMILES IDX 29 55 30 56 32 57 34 58 31 59 53 60 54 61 59 62 55 63 56 64
REMARK SMILES IDX 58 65 60 66 57 67 41 68 42 69 47 70 43 71 44 72 46 73 48 74
REMARK SMILES IDX 45 75
REMARK H PARENT 65 37 39 48
REMARK Flexibility Score: inf
ROOT
ATOM      1  C   UNL A   1      43.139  19.113  25.701  1.00  0.00     0.275 C 
ENDROOT
BRANCH   1   2
ATOM      2  C   UNL A   1      42.214  19.707  26.754  1.00  0.00     0.275 C 
BRANCH   2   3
ATOM      3  O   UNL A   1      41.387  20.739  26.195  1.00  0.00    -0.458 OA
BRANCH   3   4
ATOM      4  C   UNL A   1      40.132  20.367  25.882  1.00  0.00     0.355 C 
ATOM      5  O   UNL A   1      39.724  19.240  25.643  1.00  0.00    -0.245 OA
BRANCH   4   6
ATOM      6  C   UNL A   1      39.170  21.511  25.974  1.00  0.00     0.154 C 
ATOM      7  C   UNL A   1      37.476  22.869  25.498  1.00  0.00     0.111 C 
ATOM      8  N   UNL A   1      38.274  23.488  26.317  1.00  0.00    -0.151 NA
ATOM      9  C   UNL A   1      37.897  21.469  25.211  1.00  0.00     0.128 C 
ATOM     10  N   UNL A   1      39.368  22.615  26.628  1.00  0.00    -0.147 NA
BRANCH   7  11
ATOM     11  C   UNL A   1      36.305  23.446  24.816  1.00  0.00     0.139 C 
ATOM     12  C   UNL A   1      33.979  25.919  24.283  1.00  0.00     0.053 C 
ATOM     13  C   UNL A   1      34.333  24.462  24.549  1.00  0.00     0.174 C 
ATOM     14  C   UNL A   1      34.651  23.687  23.263  1.00  0.00     0.076 C 
ATOM     15  O   UNL A   1      35.481  24.381  25.431  1.00  0.00    -0.489 OA
ATOM     16  C   UNL A   1      35.899  22.996  23.633  1.00  0.00     0.025 C 
ENDBRANCH   7  11
ENDBRANCH   4   6
ENDBRANCH   3   4
ENDBRANCH   2   3
ENDBRANCH   1   2
BRANCH   1  17
ATOM     17  O   UNL A   1      43.454  20.059  24.678  1.00  0.00    -0.458 OA
BRANCH  17  18
ATOM     18  C   UNL A   1      44.740  20.478  24.666  1.00  0.00     0.338 C 
ATOM     19  O   UNL A   1      45.739  19.789  24.583  1.00  0.00    -0.246 OA
BRANCH  18  20
ATOM     20  C   UNL A   1      44.786  21.897  25.028  1.00  0.00     0.060 A 
ATOM     21  C   UNL A   1      45.660  22.253  26.060  1.00  0.00     0.016 A 
ATOM     22  C   UNL A   1      43.789  22.768  24.566  1.00  0.00     0.016 A 
ATOM     23  C   UNL A   1      45.417  23.418  26.751  1.00  0.00     0.010 A 
ATOM     24  C   UNL A   1      43.540  23.924  25.265  1.00  0.00     0.010 A 
ATOM     25  C   UNL A   1      44.311  24.198  26.391  1.00  0.00    -0.014 A 
BRANCH  25  26
ATOM     26  C   UNL A   1      44.076  25.418  27.132  1.00  0.00     0.031 A 
ATOM     27  C   UNL A   1      45.127  26.432  26.881  1.00  0.00     0.074 A 
ATOM     28  C   UNL A   1      42.960  25.630  27.853  1.00  0.00     0.049 A 
ATOM     29  N   UNL A   1      45.978  26.907  27.726  1.00  0.00    -0.248 NA
ATOM     30  C   UNL A   1      45.386  26.821  25.483  1.00  0.00     0.031 C 
ATOM     31  C   UNL A   1      41.764  24.790  27.943  1.00  0.00     0.029 A 
ATOM     32  N   UNL A   1      42.622  26.717  28.596  1.00  0.00    -0.354 N 
ATOM     33  C   UNL A   1      46.737  27.826  27.010  1.00  0.00     0.074 A 
ATOM     34  C   UNL A   1      46.470  27.584  25.618  1.00  0.00     0.031 C 
ATOM     35  C   UNL A   1      40.757  25.505  28.499  1.00  0.00     0.029 A 
ATOM     36  C   UNL A   1      41.271  26.798  28.914  1.00  0.00     0.049 A 
ATOM     37  H   UNL A   1      43.279  27.391  28.884  1.00  0.00     0.167 HD
ATOM     38  C   UNL A   1      47.288  28.897  27.635  1.00  0.00     0.037 A 
ATOM     39  C   UNL A   1      40.634  27.889  29.411  1.00  0.00     0.037 A 
ATOM     40  C   UNL A   1      47.409  28.667  29.053  1.00  0.00     0.049 A 
ATOM     41  C   UNL A   1      41.669  28.789  29.982  1.00  0.00     0.074 A 
ATOM     42  C   UNL A   1      48.044  27.718  29.832  1.00  0.00     0.029 A 
ATOM     43  N   UNL A   1      46.492  29.270  29.879  1.00  0.00    -0.354 N 
ATOM     44  N   UNL A   1      42.356  28.509  31.054  1.00  0.00    -0.248 NA
ATOM     45  C   UNL A   1      42.274  29.770  29.092  1.00  0.00     0.031 C 
ATOM     46  C   UNL A   1      47.153  27.472  30.918  1.00  0.00     0.029 A 
ATOM     47  C   UNL A   1      46.062  28.330  30.779  1.00  0.00     0.049 A 
ATOM     48  H   UNL A   1      46.196  30.208  29.832  1.00  0.00     0.167 HD
ATOM     49  C   UNL A   1      43.648  28.920  30.760  1.00  0.00     0.074 A 
ATOM     50  C   UNL A   1      43.521  29.761  29.572  1.00  0.00     0.031 C 
ATOM     51  C   UNL A   1      44.727  28.301  31.325  1.00  0.00     0.037 A 
BRANCH  38  52
ATOM     52  C   UNL A   1      47.286  30.285  27.038  1.00  0.00     0.057 A 
ATOM     53  C   UNL A   1      48.465  31.047  27.098  1.00  0.00     0.134 A 
ATOM     54  C   UNL A   1      46.121  31.011  26.705  1.00  0.00     0.134 A 
ATOM     55  F   UNL A   1      49.638  30.476  27.409  1.00  0.00    -0.206 F 
ATOM     56  C   UNL A   1      48.466  32.437  26.940  1.00  0.00     0.040 A 
ATOM     57  C   UNL A   1      46.121  32.390  26.495  1.00  0.00     0.040 A 
ATOM     58  F   UNL A   1      44.904  30.456  26.666  1.00  0.00    -0.206 F 
ATOM     59  C   UNL A   1      47.289  33.115  26.650  1.00  0.00     0.006 A 
ENDBRANCH  38  52
BRANCH  39  60
ATOM     60  C   UNL A   1      39.254  28.359  29.137  1.00  0.00     0.057 A 
ATOM     61  C   UNL A   1      38.297  28.436  30.160  1.00  0.00     0.134 A 
ATOM     62  C   UNL A   1      38.922  29.010  27.936  1.00  0.00     0.134 A 
ATOM     63  F   UNL A   1      38.536  27.884  31.359  1.00  0.00    -0.206 F 
ATOM     64  C   UNL A   1      37.094  29.140  30.007  1.00  0.00     0.040 A 
ATOM     65  C   UNL A   1      37.722  29.710  27.768  1.00  0.00     0.040 A 
ATOM     66  F   UNL A   1      39.789  29.070  26.916  1.00  0.00    -0.206 F 
ATOM     67  C   UNL A   1      36.809  29.789  28.811  1.00  0.00     0.006 A 
ENDBRANCH  39  60
BRANCH  51  68
ATOM     68  C   UNL A   1      44.471  27.342  32.454  1.00  0.00     0.057 A 
ATOM     69  C   UNL A   1      44.273  25.962  32.290  1.00  0.00     0.134 A 
ATOM     70  C   UNL A   1      44.567  27.814  33.767  1.00  0.00     0.134 A 
ATOM     71  F   UNL A   1      44.270  25.400  31.075  1.00  0.00    -0.206 F 
ATOM     72  C   UNL A   1      44.125  25.103  33.385  1.00  0.00     0.040 A 
ATOM     73  C   UNL A   1      44.455  26.962  34.867  1.00  0.00     0.040 A 
ATOM     74  F   UNL A   1      44.813  29.114  34.000  1.00  0.00    -0.206 F 
ATOM     75  C   UNL A   1      44.221  25.603  34.678  1.00  0.00     0.006 A 
ENDBRANCH  51  68
ENDBRANCH  25  26
ENDBRANCH  18  20
ENDBRANCH  17  18
ENDBRANCH   1  17
TORSDOF 12
ENDMDL
MODEL 3
REMARK VINA RESULT:     -10.7      5.597     11.189
REMARK SMILES C[C@H]1CC=C(C2=NN=C(C(=O)OCCOC(=O)c3ccc(-c4c5nc(c(-c6c(F)cccc6F)c6ccc([nH]6)c(-c6c(F)cccc6F)c6nc(c(-c7c(F)cccc7F)c7ccc4[nH]7)C=C6)C=C5)cc3)C2)O1
REMARK SMILES IDX 14 1 13 2 12 3 10 4 11 5 9 6 6 7 7 8 72 9 8 10 5 11 1 12
REMARK SMILES IDX 2 13 3 14 73 15 4 16 15 17 16 18 17 19 18 20 19 21 71 22
REMARK SMILES IDX 20 23 70 24 21 25 22 26 23 27 64 28 24 29 69 30 63 31 65 32
REMARK SMILES IDX 25 33 68 34 62 35 61 36 26 38 52 39 35 40 51 41 36 42 39 43
REMARK SMILES IDX 50 44 66 45 37 46 38 47 49 49 67 50 40 51 27 52 28 53 33 54
REMARK SMILES IDX 29 55 30 56 32 57 34 58 31 59 53 60 54 61 59 62 55 63 56 64
REMARK SMILES IDX 58 65 60 66 57 67 41 68 42 69 47 70 43 71 44 72 46 73 48 74
REMARK SMILES IDX 45 75
REMARK H PARENT 65 37 39 48
REMARK Flexibility Score: inf
ROOT
ATOM      1  C   UNL A   1      33.448  36.860  32.845  1.00  0.00     0.275 C 
ENDROOT
BRANCH   1   2
ATOM      2  C   UNL A   1      33.400  37.351  31.404  1.00  0.00     0.275 C 
BRANCH   2   3
ATOM      3  O   UNL A   1      32.656  36.446  30.573  1.00  0.00    -0.458 OA
BRANCH   3   4
ATOM      4  C   UNL A   1      33.092  36.335  29.305  1.00  0.00     0.355 C 
ATOM      5  O   UNL A   1      33.059  37.184  28.426  1.00  0.00    -0.245 OA
BRANCH   4   6
ATOM      6  C   UNL A   1      33.786  35.030  29.065  1.00  0.00     0.154 C 
ATOM      7  C   UNL A   1      34.161  32.950  28.376  1.00  0.00     0.111 C 
ATOM      8  N   UNL A   1      35.050  33.246  29.278  1.00  0.00    -0.151 NA
ATOM      9  C   UNL A   1      33.255  34.087  28.048  1.00  0.00     0.128 C 
ATOM     10  N   UNL A   1      34.813  34.587  29.724  1.00  0.00    -0.147 NA
BRANCH   7  11
ATOM     11  C   UNL A   1      33.951  31.632  27.757  1.00  0.00     0.139 C 
ATOM     12  C   UNL A   1      32.301  29.452  25.675  1.00  0.00     0.053 C 
ATOM     13  C   UNL A   1      32.877  29.808  27.038  1.00  0.00     0.174 C 
ATOM     14  C   UNL A   1      34.370  29.471  27.154  1.00  0.00     0.076 C 
ATOM     15  O   UNL A   1      32.704  31.224  27.298  1.00  0.00    -0.489 OA
ATOM     16  C   UNL A   1      34.911  30.713  27.736  1.00  0.00     0.025 C 
ENDBRANCH   7  11
ENDBRANCH   4   6
ENDBRANCH   3   4
ENDBRANCH   2   3
ENDBRANCH   1   2
BRANCH   1  17
ATOM     17  O   UNL A   1      34.507  35.924  33.051  1.00  0.00    -0.458 OA
BRANCH  17  18
ATOM     18  C   UNL A   1      34.145  34.625  32.962  1.00  0.00     0.338 C 
ATOM     19  O   UNL A   1      33.016  34.173  32.966  1.00  0.00    -0.246 OA
BRANCH  18  20
ATOM     20  C   UNL A   1      35.335  33.782  33.117  1.00  0.00     0.060 A 
ATOM     21  C   UNL A   1      36.569  34.437  33.132  1.00  0.00     0.016 A 
ATOM     22  C   UNL A   1      35.232  32.394  32.949  1.00  0.00     0.016 A 
ATOM     23  C   UNL A   1      37.695  33.719  32.799  1.00  0.00     0.010 A 
ATOM     24  C   UNL A   1      36.355  31.682  32.605  1.00  0.00     0.010 A 
ATOM     25  C   UNL A   1      37.559  32.367  32.465  1.00  0.00    -0.014 A 
BRANCH  25  26
ATOM     26  C   UNL A   1      38.756  31.632  32.119  1.00  0.00     0.031 A 
ATOM     27  C   UNL A   1      39.582  31.323  33.310  1.00  0.00     0.074 A 
ATOM     28  C   UNL A   1      39.002  31.182  30.874  1.00  0.00     0.049 A 
ATOM     29  N   UNL A   1      40.766  31.758  33.579  1.00  0.00    -0.248 NA
ATOM     30  C   UNL A   1      38.940  30.599  34.421  1.00  0.00     0.031 C 
ATOM     31  C   UNL A   1      38.122  31.220  29.705  1.00  0.00     0.029 A 
ATOM     32  N   UNL A   1      40.082  30.494  30.418  1.00  0.00    -0.354 N 
ATOM     33  C   UNL A   1      41.106  31.177  34.795  1.00  0.00     0.074 A 
ATOM     34  C   UNL A   1      39.890  30.651  35.354  1.00  0.00     0.031 C 
ATOM     35  C   UNL A   1      38.605  30.384  28.756  1.00  0.00     0.029 A 
ATOM     36  C   UNL A   1      39.883  29.855  29.200  1.00  0.00     0.049 A 
ATOM     37  H   UNL A   1      40.934  30.452  30.909  1.00  0.00     0.167 HD
ATOM     38  C   UNL A   1      42.405  30.920  35.095  1.00  0.00     0.037 A 
ATOM     39  C   UNL A   1      40.689  28.907  28.656  1.00  0.00     0.037 A 
ATOM     40  C   UNL A   1      43.292  31.733  34.302  1.00  0.00     0.049 A 
ATOM     41  C   UNL A   1      42.012  29.010  29.325  1.00  0.00     0.074 A 
ATOM     42  C   UNL A   1      43.465  33.093  34.124  1.00  0.00     0.029 A 
ATOM     43  N   UNL A   1      43.925  31.137  33.239  1.00  0.00    -0.354 N 
ATOM     44  N   UNL A   1      42.825  30.015  29.165  1.00  0.00    -0.248 NA
ATOM     45  C   UNL A   1      42.215  28.230  30.539  1.00  0.00     0.031 C 
ATOM     46  C   UNL A   1      43.758  33.251  32.738  1.00  0.00     0.029 A 
ATOM     47  C   UNL A   1      43.816  31.981  32.164  1.00  0.00     0.049 A 
ATOM     48  H   UNL A   1      44.375  30.261  33.246  1.00  0.00     0.167 HD
ATOM     49  C   UNL A   1      43.328  30.266  30.433  1.00  0.00     0.074 A 
ATOM     50  C   UNL A   1      42.980  29.087  31.222  1.00  0.00     0.031 C 
ATOM     51  C   UNL A   1      43.712  31.525  30.799  1.00  0.00     0.037 A 
BRANCH  38  52
ATOM     52  C   UNL A   1      42.853  29.637  35.756  1.00  0.00     0.057 A 
ATOM     53  C   UNL A   1      43.791  29.709  36.800  1.00  0.00     0.134 A 
ATOM     54  C   UNL A   1      42.661  28.348  35.213  1.00  0.00     0.134 A 
ATOM     55  F   UNL A   1      44.068  30.879  37.396  1.00  0.00    -0.206 F 
ATOM     56  C   UNL A   1      44.549  28.604  37.203  1.00  0.00     0.040 A 
ATOM     57  C   UNL A   1      43.375  27.229  35.643  1.00  0.00     0.040 A 
ATOM     58  F   UNL A   1      41.854  28.109  34.173  1.00  0.00    -0.206 F 
ATOM     59  C   UNL A   1      44.351  27.362  36.616  1.00  0.00     0.006 A 
ENDBRANCH  38  52
BRANCH  39  60
ATOM     60  C   UNL A   1      40.309  27.721  27.851  1.00  0.00     0.057 A 
ATOM     61  C   UNL A   1      40.897  27.474  26.602  1.00  0.00     0.134 A 
ATOM     62  C   UNL A   1      39.579  26.656  28.407  1.00  0.00     0.134 A 
ATOM     63  F   UNL A   1      41.650  28.410  26.006  1.00  0.00    -0.206 F 
ATOM     64  C   UNL A   1      40.787  26.234  25.956  1.00  0.00     0.040 A 
ATOM     65  C   UNL A   1      39.455  25.417  27.770  1.00  0.00     0.040 A 
ATOM     66  F   UNL A   1      39.037  26.750  29.630  1.00  0.00    -0.206 F 
ATOM     67  C   UNL A   1      40.073  25.197  26.546  1.00  0.00     0.006 A 
ENDBRANCH  39  60
BRANCH  51  68
ATOM     68  C   UNL A   1      43.812  32.567  29.722  1.00  0.00     0.057 A 
ATOM     69  C   UNL A   1      42.789  33.474  29.401  1.00  0.00     0.134 A 
ATOM     70  C   UNL A   1      45.040  32.749  29.078  1.00  0.00     0.134 A 
ATOM     71  F   UNL A   1      41.612  33.446  30.037  1.00  0.00    -0.206 F 
ATOM     72  C   UNL A   1      42.968  34.481  28.446  1.00  0.00     0.040 A 
ATOM     73  C   UNL A   1      45.243  33.771  28.148  1.00  0.00     0.040 A 
ATOM     74  F   UNL A   1      46.082  31.956  29.377  1.00  0.00    -0.206 F 
ATOM     75  C   UNL A   1      44.201  34.634  27.820  1.00  0.00     0.006 A 
ENDBRANCH  51  68
ENDBRANCH  25  26
ENDBRANCH  18  20
ENDBRANCH  17  18
ENDBRANCH   1  17
TORSDOF 12
ENDMDL
