MODEL 1
REMARK VINA RESULT:     -11.8      0.000      0.000
REMARK SMILES COc1cc(/C=C(\CC(=O)OCCOC(=O)c2ccc(-c3c4nc(c(-c5c(F)cccc5F)c5ccc([nH]5)c(-c5c(F)cccc5F)c5nc(c(-c6c(F)cccc6F)c6ccc3[nH]6)C=C5)C=C4)cc2)c2nc3ccccc3s2)cc(Br)c1OC
REMARK SMILES IDX 12 1 11 2 9 3 10 4 8 5 7 6 6 7 5 8 3 9 4 10 83 11 81 12
REMARK SMILES IDX 80 13 82 14 2 15 1 16 84 17 85 18 71 19 72 20 79 21 73 22
REMARK SMILES IDX 78 23 74 24 77 25 75 26 76 27 13 28 14 29 15 30 16 31 17 32
REMARK SMILES IDX 18 33 70 34 19 35 69 36 20 37 21 38 22 39 63 40 23 41 68 42
REMARK SMILES IDX 62 43 64 44 24 45 67 46 61 47 60 48 25 50 51 51 34 52 50 53
REMARK SMILES IDX 35 54 38 55 49 56 65 57 36 58 37 59 48 61 66 62 39 63 26 64
REMARK SMILES IDX 27 65 32 66 28 67 29 68 31 69 33 70 30 71 52 72 53 73 58 74
REMARK SMILES IDX 54 75 55 76 57 77 59 78 56 79 40 80 41 81 46 82 42 83 43 84
REMARK SMILES IDX 45 85 47 86 44 87
REMARK H PARENT 64 49 38 60
REMARK Flexibility Score: inf
ROOT
ATOM      1  C   UNL A   1      31.755  28.469  27.597  1.00  0.00     0.274 C 
ENDROOT
BRANCH   1   2
ATOM      2  O   UNL A   1      31.253  27.243  27.033  1.00  0.00    -0.462 OA
BRANCH   2   3
ATOM      3  C   UNL A   1      32.175  26.469  26.401  1.00  0.00     0.310 C 
ATOM      4  O   UNL A   1      33.387  26.673  26.419  1.00  0.00    -0.252 OA
BRANCH   3   5
ATOM      5  C   UNL A   1      31.586  25.287  25.648  1.00  0.00     0.161 C 
BRANCH   5   6
ATOM      6  C   UNL A   1      31.645  25.425  24.140  1.00  0.00    -0.000 C 
ATOM      7  C   UNL A   1      32.486  24.694  23.362  1.00  0.00     0.015 C 
BRANCH   7   8
ATOM      8  C   UNL A   1      33.441  23.615  23.755  1.00  0.00    -0.020 A 
ATOM      9  C   UNL A   1      35.633  22.789  24.470  1.00  0.00     0.162 A 
ATOM     10  C   UNL A   1      34.821  23.778  23.902  1.00  0.00     0.058 A 
ATOM     11  C   UNL A   1      35.118  21.524  24.757  1.00  0.00     0.174 A 
ATOM     12  C   UNL A   1      33.762  21.294  24.497  1.00  0.00     0.064 A 
ATOM     13  C   UNL A   1      32.938  22.332  24.010  1.00  0.00     0.028 A 
ATOM     14  Br  UNL A   1      32.900  19.639  24.859  1.00  0.00    -0.047 Br
BRANCH   9  15
ATOM     15  O   UNL A   1      36.964  23.045  24.707  1.00  0.00    -0.493 OA
ATOM     16  C   UNL A   1      37.159  23.781  25.919  1.00  0.00     0.278 C 
ENDBRANCH   9  15
BRANCH  11  17
ATOM     17  O   UNL A   1      35.947  20.666  25.430  1.00  0.00    -0.492 OA
ATOM     18  C   UNL A   1      36.601  19.691  24.627  1.00  0.00     0.278 C 
ENDBRANCH  11  17
ENDBRANCH   7   8
BRANCH   6  19
ATOM     19  C   UNL A   1      30.718  26.380  23.560  1.00  0.00     0.121 A 
ATOM     20  N   UNL A   1      31.126  27.453  22.904  1.00  0.00    -0.236 NA
ATOM     21  S   UNL A   1      29.016  26.370  23.875  1.00  0.00    -0.114 S 
ATOM     22  C   UNL A   1      30.087  28.335  22.670  1.00  0.00     0.082 A 
ATOM     23  C   UNL A   1      28.845  27.927  23.150  1.00  0.00     0.055 A 
ATOM     24  C   UNL A   1      30.191  29.586  22.028  1.00  0.00     0.030 A 
ATOM     25  C   UNL A   1      27.703  28.738  23.017  1.00  0.00     0.021 A 
ATOM     26  C   UNL A   1      29.067  30.405  21.899  1.00  0.00     0.002 A 
ATOM     27  C   UNL A   1      27.837  29.984  22.391  1.00  0.00     0.002 A 
ENDBRANCH   6  19
ENDBRANCH   5   6
ENDBRANCH   3   5
ENDBRANCH   2   3
ENDBRANCH   1   2
BRANCH   1  28
ATOM     28  C   UNL A   1      31.654  29.602  26.577  1.00  0.00     0.275 C 
BRANCH  28  29
ATOM     29  O   UNL A   1      32.964  30.142  26.331  1.00  0.00    -0.458 OA
BRANCH  29  30
ATOM     30  C   UNL A   1      33.321  31.201  27.090  1.00  0.00     0.338 C 
ATOM     31  O   UNL A   1      32.659  32.219  27.273  1.00  0.00    -0.246 OA
BRANCH  30  32
ATOM     32  C   UNL A   1      34.653  30.987  27.706  1.00  0.00     0.060 A 
ATOM     33  C   UNL A   1      35.516  32.046  27.998  1.00  0.00     0.016 A 
ATOM     34  C   UNL A   1      35.076  29.680  27.956  1.00  0.00     0.016 A 
ATOM     35  C   UNL A   1      36.804  31.808  28.474  1.00  0.00     0.010 A 
ATOM     36  C   UNL A   1      36.326  29.446  28.538  1.00  0.00     0.010 A 
ATOM     37  C   UNL A   1      37.201  30.510  28.810  1.00  0.00    -0.014 A 
BRANCH  37  38
ATOM     38  C   UNL A   1      38.460  30.260  29.561  1.00  0.00     0.031 A 
ATOM     39  C   UNL A   1      39.511  29.332  29.024  1.00  0.00     0.074 A 
ATOM     40  C   UNL A   1      38.602  30.795  30.792  1.00  0.00     0.049 A 
ATOM     41  N   UNL A   1      40.527  28.791  29.646  1.00  0.00    -0.248 NA
ATOM     42  C   UNL A   1      39.398  28.949  27.608  1.00  0.00     0.031 C 
ATOM     43  C   UNL A   1      37.660  31.719  31.430  1.00  0.00     0.029 A 
ATOM     44  N   UNL A   1      39.577  30.611  31.742  1.00  0.00    -0.354 N 
ATOM     45  C   UNL A   1      41.150  27.969  28.716  1.00  0.00     0.074 A 
ATOM     46  C   UNL A   1      40.399  28.086  27.483  1.00  0.00     0.031 C 
ATOM     47  C   UNL A   1      38.099  32.018  32.660  1.00  0.00     0.029 A 
ATOM     48  C   UNL A   1      39.300  31.241  32.931  1.00  0.00     0.049 A 
ATOM     49  H   UNL A   1      40.391  30.081  31.586  1.00  0.00     0.167 HD
ATOM     50  C   UNL A   1      42.242  27.186  28.885  1.00  0.00     0.037 A 
ATOM     51  C   UNL A   1      39.899  31.159  34.133  1.00  0.00     0.037 A 
ATOM     52  C   UNL A   1      43.003  27.101  30.105  1.00  0.00     0.049 A 
ATOM     53  C   UNL A   1      41.078  30.252  34.304  1.00  0.00     0.074 A 
ATOM     54  C   UNL A   1      44.159  26.378  30.352  1.00  0.00     0.029 A 
ATOM     55  N   UNL A   1      42.686  27.759  31.284  1.00  0.00    -0.354 N 
ATOM     56  N   UNL A   1      41.655  29.477  33.419  1.00  0.00    -0.248 NA
ATOM     57  C   UNL A   1      41.682  30.197  35.642  1.00  0.00     0.031 C 
ATOM     58  C   UNL A   1      44.517  26.566  31.692  1.00  0.00     0.029 A 
ATOM     59  C   UNL A   1      43.609  27.439  32.268  1.00  0.00     0.049 A 
ATOM     60  H   UNL A   1      41.921  28.366  31.404  1.00  0.00     0.167 HD
ATOM     61  C   UNL A   1      42.694  28.848  34.089  1.00  0.00     0.074 A 
ATOM     62  C   UNL A   1      42.679  29.347  35.449  1.00  0.00     0.031 C 
ATOM     63  C   UNL A   1      43.578  27.937  33.619  1.00  0.00     0.037 A 
BRANCH  50  64
ATOM     64  C   UNL A   1      42.677  26.328  27.732  1.00  0.00     0.057 A 
ATOM     65  C   UNL A   1      42.175  25.038  27.534  1.00  0.00     0.134 A 
ATOM     66  C   UNL A   1      43.552  26.838  26.763  1.00  0.00     0.134 A 
ATOM     67  F   UNL A   1      41.339  24.489  28.428  1.00  0.00    -0.206 F 
ATOM     68  C   UNL A   1      42.532  24.279  26.417  1.00  0.00     0.040 A 
ATOM     69  C   UNL A   1      43.901  26.098  25.632  1.00  0.00     0.040 A 
ATOM     70  F   UNL A   1      44.064  28.072  26.889  1.00  0.00    -0.206 F 
ATOM     71  C   UNL A   1      43.391  24.814  25.457  1.00  0.00     0.006 A 
ENDBRANCH  50  64
BRANCH  51  72
ATOM     72  C   UNL A   1      39.346  31.920  35.280  1.00  0.00     0.057 A 
ATOM     73  C   UNL A   1      39.717  33.248  35.510  1.00  0.00     0.134 A 
ATOM     74  C   UNL A   1      38.411  31.347  36.152  1.00  0.00     0.134 A 
ATOM     75  F   UNL A   1      40.623  33.842  34.719  1.00  0.00    -0.206 F 
ATOM     76  C   UNL A   1      39.183  33.980  36.571  1.00  0.00     0.040 A 
ATOM     77  C   UNL A   1      37.849  32.075  37.201  1.00  0.00     0.040 A 
ATOM     78  F   UNL A   1      38.009  30.079  35.978  1.00  0.00    -0.206 F 
ATOM     79  C   UNL A   1      38.239  33.395  37.414  1.00  0.00     0.006 A 
ENDBRANCH  51  72
BRANCH  63  80
ATOM     80  C   UNL A   1      44.614  27.441  34.580  1.00  0.00     0.057 A 
ATOM     81  C   UNL A   1      45.834  28.107  34.755  1.00  0.00     0.134 A 
ATOM     82  C   UNL A   1      44.384  26.293  35.350  1.00  0.00     0.134 A 
ATOM     83  F   UNL A   1      46.120  29.201  34.033  1.00  0.00    -0.206 F 
ATOM     84  C   UNL A   1      46.797  27.637  35.649  1.00  0.00     0.040 A 
ATOM     85  C   UNL A   1      45.330  25.827  36.262  1.00  0.00     0.040 A 
ATOM     86  F   UNL A   1      43.234  25.614  35.230  1.00  0.00    -0.206 F 
ATOM     87  C   UNL A   1      46.543  26.496  36.409  1.00  0.00     0.006 A 
ENDBRANCH  63  80
ENDBRANCH  37  38
ENDBRANCH  30  32
ENDBRANCH  29  30
ENDBRANCH  28  29
ENDBRANCH   1  28
TORSDOF 16
ENDMDL
MODEL 2
REMARK VINA RESULT:     -11.7      4.286      9.506
REMARK SMILES COc1cc(/C=C(\CC(=O)OCCOC(=O)c2ccc(-c3c4nc(c(-c5c(F)cccc5F)c5ccc([nH]5)c(-c5c(F)cccc5F)c5nc(c(-c6c(F)cccc6F)c6ccc3[nH]6)C=C5)C=C4)cc2)c2nc3ccccc3s2)cc(Br)c1OC
REMARK SMILES IDX 12 1 11 2 9 3 10 4 8 5 7 6 6 7 5 8 3 9 4 10 83 11 81 12
REMARK SMILES IDX 80 13 82 14 2 15 1 16 84 17 85 18 71 19 72 20 79 21 73 22
REMARK SMILES IDX 78 23 74 24 77 25 75 26 76 27 13 28 14 29 15 30 16 31 17 32
REMARK SMILES IDX 18 33 70 34 19 35 69 36 20 37 21 38 22 39 63 40 23 41 68 42
REMARK SMILES IDX 62 43 64 44 24 45 67 46 61 47 60 48 25 50 51 51 34 52 50 53
REMARK SMILES IDX 35 54 38 55 49 56 65 57 36 58 37 59 48 61 66 62 39 63 26 64
REMARK SMILES IDX 27 65 32 66 28 67 29 68 31 69 33 70 30 71 52 72 53 73 58 74
REMARK SMILES IDX 54 75 55 76 57 77 59 78 56 79 40 80 41 81 46 82 42 83 43 84
REMARK SMILES IDX 45 85 47 86 44 87
REMARK H PARENT 64 49 38 60
REMARK Flexibility Score: inf
ROOT
ATOM      1  C   UNL A   1      38.161  20.739  24.778  1.00  0.00     0.274 C 
ENDROOT
BRANCH   1   2
ATOM      2  O   UNL A   1      37.748  21.633  25.829  1.00  0.00    -0.462 OA
BRANCH   2   3
ATOM      3  C   UNL A   1      36.780  22.525  25.492  1.00  0.00     0.310 C 
ATOM      4  O   UNL A   1      36.554  23.571  26.097  1.00  0.00    -0.252 OA
BRANCH   3   5
ATOM      5  C   UNL A   1      35.968  22.132  24.268  1.00  0.00     0.161 C 
BRANCH   5   6
ATOM      6  C   UNL A   1      34.508  21.850  24.560  1.00  0.00    -0.000 C 
ATOM      7  C   UNL A   1      33.543  22.805  24.500  1.00  0.00     0.015 C 
BRANCH   7   8
ATOM      8  C   UNL A   1      33.655  24.240  24.102  1.00  0.00    -0.020 A 
ATOM      9  C   UNL A   1      33.609  26.065  22.470  1.00  0.00     0.162 A 
ATOM     10  C   UNL A   1      33.715  24.706  22.786  1.00  0.00     0.058 A 
ATOM     11  C   UNL A   1      33.611  27.032  23.477  1.00  0.00     0.174 A 
ATOM     12  C   UNL A   1      33.680  26.596  24.805  1.00  0.00     0.064 A 
ATOM     13  C   UNL A   1      33.693  25.216  25.108  1.00  0.00     0.028 A 
ATOM     14  Br  UNL A   1      33.661  27.779  26.291  1.00  0.00    -0.047 Br
BRANCH   9  15
ATOM     15  O   UNL A   1      33.550  26.462  21.154  1.00  0.00    -0.493 OA
ATOM     16  C   UNL A   1      32.496  25.804  20.444  1.00  0.00     0.278 C 
ENDBRANCH   9  15
BRANCH  11  17
ATOM     17  O   UNL A   1      33.372  28.323  23.084  1.00  0.00    -0.492 OA
ATOM     18  C   UNL A   1      32.005  28.718  23.083  1.00  0.00     0.278 C 
ENDBRANCH  11  17
ENDBRANCH   7   8
BRANCH   6  19
ATOM     19  C   UNL A   1      34.188  20.472  24.889  1.00  0.00     0.121 A 
ATOM     20  N   UNL A   1      35.029  19.478  24.666  1.00  0.00    -0.236 NA
ATOM     21  S   UNL A   1      32.606  19.947  25.358  1.00  0.00    -0.114 S 
ATOM     22  C   UNL A   1      34.417  18.247  24.818  1.00  0.00     0.082 A 
ATOM     23  C   UNL A   1      33.073  18.295  25.176  1.00  0.00     0.055 A 
ATOM     24  C   UNL A   1      35.024  16.989  24.618  1.00  0.00     0.030 A 
ATOM     25  C   UNL A   1      32.311  17.122  25.331  1.00  0.00     0.021 A 
ATOM     26  C   UNL A   1      34.276  15.818  24.758  1.00  0.00     0.002 A 
ATOM     27  C   UNL A   1      32.933  15.887  25.109  1.00  0.00     0.002 A 
ENDBRANCH   6  19
ENDBRANCH   5   6
ENDBRANCH   3   5
ENDBRANCH   2   3
ENDBRANCH   1   2
BRANCH   1  28
ATOM     28  C   UNL A   1      38.640  19.413  25.367  1.00  0.00     0.275 C 
BRANCH  28  29
ATOM     29  O   UNL A   1      39.544  19.671  26.455  1.00  0.00    -0.458 OA
BRANCH  29  30
ATOM     30  C   UNL A   1      40.856  19.714  26.137  1.00  0.00     0.338 C 
ATOM     31  O   UNL A   1      41.491  18.840  25.552  1.00  0.00    -0.246 OA
BRANCH  30  32
ATOM     32  C   UNL A   1      41.470  20.988  26.585  1.00  0.00     0.060 A 
ATOM     33  C   UNL A   1      41.744  22.034  25.701  1.00  0.00     0.016 A 
ATOM     34  C   UNL A   1      41.829  21.125  27.928  1.00  0.00     0.016 A 
ATOM     35  C   UNL A   1      42.421  23.174  26.130  1.00  0.00     0.010 A 
ATOM     36  C   UNL A   1      42.407  22.314  28.382  1.00  0.00     0.010 A 
ATOM     37  C   UNL A   1      42.704  23.355  27.487  1.00  0.00    -0.014 A 
BRANCH  37  38
ATOM     38  C   UNL A   1      43.180  24.664  28.006  1.00  0.00     0.031 A 
ATOM     39  C   UNL A   1      42.210  25.744  28.393  1.00  0.00     0.074 A 
ATOM     40  C   UNL A   1      44.506  24.916  28.023  1.00  0.00     0.049 A 
ATOM     41  N   UNL A   1      42.434  27.015  28.603  1.00  0.00    -0.248 NA
ATOM     42  C   UNL A   1      40.802  25.346  28.550  1.00  0.00     0.031 C 
ATOM     43  C   UNL A   1      45.558  23.955  27.680  1.00  0.00     0.029 A 
ATOM     44  N   UNL A   1      45.195  26.069  28.308  1.00  0.00    -0.354 N 
ATOM     45  C   UNL A   1      41.194  27.581  28.871  1.00  0.00     0.074 A 
ATOM     46  C   UNL A   1      40.220  26.511  28.802  1.00  0.00     0.031 C 
ATOM     47  C   UNL A   1      46.752  24.554  27.772  1.00  0.00     0.029 A 
ATOM     48  C   UNL A   1      46.548  25.960  28.091  1.00  0.00     0.049 A 
ATOM     49  H   UNL A   1      44.764  26.891  28.635  1.00  0.00     0.167 HD
ATOM     50  C   UNL A   1      40.903  28.876  29.142  1.00  0.00     0.037 A 
ATOM     51  C   UNL A   1      47.518  26.892  28.080  1.00  0.00     0.037 A 
ATOM     52  C   UNL A   1      41.882  29.929  29.241  1.00  0.00     0.049 A 
ATOM     53  C   UNL A   1      47.162  28.324  28.339  1.00  0.00     0.074 A 
ATOM     54  C   UNL A   1      41.687  31.260  29.567  1.00  0.00     0.029 A 
ATOM     55  N   UNL A   1      43.241  29.770  29.015  1.00  0.00    -0.354 N 
ATOM     56  N   UNL A   1      45.987  28.847  28.587  1.00  0.00    -0.248 NA
ATOM     57  C   UNL A   1      48.262  29.295  28.303  1.00  0.00     0.031 C 
ATOM     58  C   UNL A   1      42.920  31.916  29.498  1.00  0.00     0.029 A 
ATOM     59  C   UNL A   1      43.892  30.984  29.169  1.00  0.00     0.049 A 
ATOM     60  H   UNL A   1      43.680  28.920  28.781  1.00  0.00     0.167 HD
ATOM     61  C   UNL A   1      46.206  30.208  28.746  1.00  0.00     0.074 A 
ATOM     62  C   UNL A   1      47.629  30.425  28.584  1.00  0.00     0.031 C 
ATOM     63  C   UNL A   1      45.307  31.188  28.999  1.00  0.00     0.037 A 
BRANCH  50  64
ATOM     64  C   UNL A   1      39.460  29.249  29.326  1.00  0.00     0.057 A 
ATOM     65  C   UNL A   1      38.627  29.554  28.244  1.00  0.00     0.134 A 
ATOM     66  C   UNL A   1      38.880  29.220  30.602  1.00  0.00     0.134 A 
ATOM     67  F   UNL A   1      39.122  29.605  26.998  1.00  0.00    -0.206 F 
ATOM     68  C   UNL A   1      37.269  29.826  28.424  1.00  0.00     0.040 A 
ATOM     69  C   UNL A   1      37.521  29.470  30.792  1.00  0.00     0.040 A 
ATOM     70  F   UNL A   1      39.622  28.926  31.681  1.00  0.00    -0.206 F 
ATOM     71  C   UNL A   1      36.711  29.776  29.701  1.00  0.00     0.006 A 
ENDBRANCH  50  64
BRANCH  51  72
ATOM     72  C   UNL A   1      48.909  26.496  27.754  1.00  0.00     0.057 A 
ATOM     73  C   UNL A   1      49.349  26.431  26.429  1.00  0.00     0.134 A 
ATOM     74  C   UNL A   1      49.839  26.202  28.761  1.00  0.00     0.134 A 
ATOM     75  F   UNL A   1      48.498  26.683  25.423  1.00  0.00    -0.206 F 
ATOM     76  C   UNL A   1      50.663  26.084  26.114  1.00  0.00     0.040 A 
ATOM     77  C   UNL A   1      51.162  25.879  28.462  1.00  0.00     0.040 A 
ATOM     78  F   UNL A   1      49.479  26.254  30.052  1.00  0.00    -0.206 F 
ATOM     79  C   UNL A   1      51.576  25.815  27.133  1.00  0.00     0.006 A 
ENDBRANCH  51  72
BRANCH  63  80
ATOM     80  C   UNL A   1      45.845  32.579  29.138  1.00  0.00     0.057 A 
ATOM     81  C   UNL A   1      45.916  33.452  28.046  1.00  0.00     0.134 A 
ATOM     82  C   UNL A   1      46.282  33.055  30.381  1.00  0.00     0.134 A 
ATOM     83  F   UNL A   1      45.530  33.048  26.827  1.00  0.00    -0.206 F 
ATOM     84  C   UNL A   1      46.424  34.745  28.182  1.00  0.00     0.040 A 
ATOM     85  C   UNL A   1      46.770  34.352  30.533  1.00  0.00     0.040 A 
ATOM     86  F   UNL A   1      46.235  32.267  31.466  1.00  0.00    -0.206 F 
ATOM     87  C   UNL A   1      46.847  35.200  29.429  1.00  0.00     0.006 A 
ENDBRANCH  63  80
ENDBRANCH  37  38
ENDBRANCH  30  32
ENDBRANCH  29  30
ENDBRANCH  28  29
ENDBRANCH   1  28
TORSDOF 16
ENDMDL
MODEL 3
REMARK VINA RESULT:     -11.7      3.788      8.989
REMARK SMILES COc1cc(/C=C(\CC(=O)OCCOC(=O)c2ccc(-c3c4nc(c(-c5c(F)cccc5F)c5ccc([nH]5)c(-c5c(F)cccc5F)c5nc(c(-c6c(F)cccc6F)c6ccc3[nH]6)C=C5)C=C4)cc2)c2nc3ccccc3s2)cc(Br)c1OC
REMARK SMILES IDX 12 1 11 2 9 3 10 4 8 5 7 6 6 7 5 8 3 9 4 10 83 11 81 12
REMARK SMILES IDX 80 13 82 14 2 15 1 16 84 17 85 18 71 19 72 20 79 21 73 22
REMARK SMILES IDX 78 23 74 24 77 25 75 26 76 27 13 28 14 29 15 30 16 31 17 32
REMARK SMILES IDX 18 33 70 34 19 35 69 36 20 37 21 38 22 39 63 40 23 41 68 42
REMARK SMILES IDX 62 43 64 44 24 45 67 46 61 47 60 48 25 50 51 51 34 52 50 53
REMARK SMILES IDX 35 54 38 55 49 56 65 57 36 58 37 59 48 61 66 62 39 63 26 64
REMARK SMILES IDX 27 65 32 66 28 67 29 68 31 69 33 70 30 71 52 72 53 73 58 74
REMARK SMILES IDX 54 75 55 76 57 77 59 78 56 79 40 80 41 81 46 82 42 83 43 84
REMARK SMILES IDX 45 85 47 86 44 87
REMARK H PARENT 64 49 38 60
REMARK Flexibility Score: inf
ROOT
ATOM      1  C   UNL A   1      36.450  23.074  23.560  1.00  0.00     0.274 C 
ENDROOT
BRANCH   1   2
ATOM      2  O   UNL A   1      35.279  23.291  22.752  1.00  0.00    -0.462 OA
BRANCH   2   3
ATOM      3  C   UNL A   1      34.495  24.337  23.125  1.00  0.00     0.310 C 
ATOM      4  O   UNL A   1      34.091  25.212  22.363  1.00  0.00    -0.252 OA
BRANCH   3   5
ATOM      5  C   UNL A   1      34.134  24.350  24.602  1.00  0.00     0.161 C 
BRANCH   5   6
ATOM      6  C   UNL A   1      32.729  23.866  24.898  1.00  0.00    -0.000 C 
ATOM      7  C   UNL A   1      31.736  24.691  25.322  1.00  0.00     0.015 C 
BRANCH   7   8
ATOM      8  C   UNL A   1      31.755  26.171  25.525  1.00  0.00    -0.020 A 
ATOM      9  C   UNL A   1      32.596  28.224  26.562  1.00  0.00     0.162 A 
ATOM     10  C   UNL A   1      32.445  26.832  26.544  1.00  0.00     0.058 A 
ATOM     11  C   UNL A   1      31.914  29.025  25.645  1.00  0.00     0.174 A 
ATOM     12  C   UNL A   1      31.112  28.391  24.689  1.00  0.00     0.064 A 
ATOM     13  C   UNL A   1      31.044  26.981  24.630  1.00  0.00     0.028 A 
ATOM     14  Br  UNL A   1      30.144  29.333  23.353  1.00  0.00    -0.047 Br
BRANCH   9  15
ATOM     15  O   UNL A   1      33.387  28.817  27.519  1.00  0.00    -0.493 OA
ATOM     16  C   UNL A   1      34.743  28.953  27.082  1.00  0.00     0.278 C 
ENDBRANCH   9  15
BRANCH  11  17
ATOM     17  O   UNL A   1      32.224  30.359  25.651  1.00  0.00    -0.492 OA
ATOM     18  C   UNL A   1      31.403  31.174  26.479  1.00  0.00     0.278 C 
ENDBRANCH  11  17
ENDBRANCH   7   8
BRANCH   6  19
ATOM     19  C   UNL A   1      32.493  22.450  24.677  1.00  0.00     0.121 A 
ATOM     20  N   UNL A   1      32.721  21.541  25.608  1.00  0.00    -0.236 NA
ATOM     21  S   UNL A   1      32.142  21.774  23.122  1.00  0.00    -0.114 S 
ATOM     22  C   UNL A   1      32.670  20.258  25.093  1.00  0.00     0.082 A 
ATOM     23  C   UNL A   1      32.385  20.178  23.732  1.00  0.00     0.055 A 
ATOM     24  C   UNL A   1      32.903  19.067  25.811  1.00  0.00     0.030 A 
ATOM     25  C   UNL A   1      32.336  18.941  23.063  1.00  0.00     0.021 A 
ATOM     26  C   UNL A   1      32.868  17.833  25.156  1.00  0.00     0.002 A 
ATOM     27  C   UNL A   1      32.588  17.774  23.796  1.00  0.00     0.002 A 
ENDBRANCH   6  19
ENDBRANCH   5   6
ENDBRANCH   3   5
ENDBRANCH   2   3
ENDBRANCH   1   2
BRANCH   1  28
ATOM     28  C   UNL A   1      36.364  21.723  24.267  1.00  0.00     0.275 C 
BRANCH  28  29
ATOM     29  O   UNL A   1      36.897  21.844  25.597  1.00  0.00    -0.458 OA
BRANCH  29  30
ATOM     30  C   UNL A   1      38.203  21.531  25.742  1.00  0.00     0.338 C 
ATOM     31  O   UNL A   1      38.739  20.477  25.412  1.00  0.00    -0.246 OA
BRANCH  30  32
ATOM     32  C   UNL A   1      38.950  22.650  26.366  1.00  0.00     0.060 A 
ATOM     33  C   UNL A   1      40.033  22.437  27.223  1.00  0.00     0.016 A 
ATOM     34  C   UNL A   1      38.526  23.959  26.126  1.00  0.00     0.016 A 
ATOM     35  C   UNL A   1      40.645  23.502  27.881  1.00  0.00     0.010 A 
ATOM     36  C   UNL A   1      39.210  25.035  26.698  1.00  0.00     0.010 A 
ATOM     37  C   UNL A   1      40.283  24.818  27.578  1.00  0.00    -0.014 A 
BRANCH  37  38
ATOM     38  C   UNL A   1      41.091  25.969  28.059  1.00  0.00     0.031 A 
ATOM     39  C   UNL A   1      40.455  27.100  28.816  1.00  0.00     0.074 A 
ATOM     40  C   UNL A   1      42.393  26.042  27.712  1.00  0.00     0.049 A 
ATOM     41  N   UNL A   1      40.934  28.289  29.075  1.00  0.00    -0.248 NA
ATOM     42  C   UNL A   1      39.099  26.869  29.338  1.00  0.00     0.031 C 
ATOM     43  C   UNL A   1      43.138  25.011  26.985  1.00  0.00     0.029 A 
ATOM     44  N   UNL A   1      43.314  27.045  27.894  1.00  0.00    -0.354 N 
ATOM     45  C   UNL A   1      39.926  28.967  29.748  1.00  0.00     0.074 A 
ATOM     46  C   UNL A   1      38.808  28.053  29.862  1.00  0.00     0.031 C 
ATOM     47  C   UNL A   1      44.393  25.432  26.781  1.00  0.00     0.029 A 
ATOM     48  C   UNL A   1      44.518  26.793  27.282  1.00  0.00     0.049 A 
ATOM     49  H   UNL A   1      43.130  27.861  28.412  1.00  0.00     0.167 HD
ATOM     50  C   UNL A   1      39.936  30.238  30.216  1.00  0.00     0.037 A 
ATOM     51  C   UNL A   1      45.588  27.584  27.079  1.00  0.00     0.037 A 
ATOM     52  C   UNL A   1      41.064  31.131  30.127  1.00  0.00     0.049 A 
ATOM     53  C   UNL A   1      45.556  28.999  27.569  1.00  0.00     0.074 A 
ATOM     54  C   UNL A   1      41.187  32.417  30.625  1.00  0.00     0.029 A 
ATOM     55  N   UNL A   1      42.264  30.831  29.499  1.00  0.00    -0.354 N 
ATOM     56  N   UNL A   1      44.596  29.630  28.199  1.00  0.00    -0.248 NA
ATOM     57  C   UNL A   1      46.748  29.815  27.308  1.00  0.00     0.031 C 
ATOM     58  C   UNL A   1      42.444  32.911  30.262  1.00  0.00     0.029 A 
ATOM     59  C   UNL A   1      43.122  31.917  29.574  1.00  0.00     0.049 A 
ATOM     60  H   UNL A   1      42.476  29.973  29.066  1.00  0.00     0.167 HD
ATOM     61  C   UNL A   1      45.071  30.915  28.419  1.00  0.00     0.074 A 
ATOM     62  C   UNL A   1      46.411  30.967  27.870  1.00  0.00     0.031 C 
ATOM     63  C   UNL A   1      44.449  31.958  29.018  1.00  0.00     0.037 A 
BRANCH  50  64
ATOM     64  C   UNL A   1      38.681  30.764  30.850  1.00  0.00     0.057 A 
ATOM     65  C   UNL A   1      38.436  30.648  32.223  1.00  0.00     0.134 A 
ATOM     66  C   UNL A   1      37.744  31.470  30.083  1.00  0.00     0.134 A 
ATOM     67  F   UNL A   1      39.290  29.979  33.011  1.00  0.00    -0.206 F 
ATOM     68  C   UNL A   1      37.299  31.207  32.810  1.00  0.00     0.040 A 
ATOM     69  C   UNL A   1      36.615  32.050  30.661  1.00  0.00     0.040 A 
ATOM     70  F   UNL A   1      37.924  31.625  28.762  1.00  0.00    -0.206 F 
ATOM     71  C   UNL A   1      36.389  31.919  32.029  1.00  0.00     0.006 A 
ENDBRANCH  50  64
BRANCH  51  72
ATOM     72  C   UNL A   1      46.752  27.061  26.323  1.00  0.00     0.057 A 
ATOM     73  C   UNL A   1      47.790  26.387  26.973  1.00  0.00     0.134 A 
ATOM     74  C   UNL A   1      46.838  27.196  24.931  1.00  0.00     0.134 A 
ATOM     75  F   UNL A   1      47.771  26.246  28.307  1.00  0.00    -0.206 F 
ATOM     76  C   UNL A   1      48.876  25.870  26.268  1.00  0.00     0.040 A 
ATOM     77  C   UNL A   1      47.905  26.661  24.210  1.00  0.00     0.040 A 
ATOM     78  F   UNL A   1      45.869  27.826  24.250  1.00  0.00    -0.206 F 
ATOM     79  C   UNL A   1      48.931  25.998  24.881  1.00  0.00     0.006 A 
ENDBRANCH  51  72
BRANCH  63  80
ATOM     80  C   UNL A   1      45.225  33.234  29.129  1.00  0.00     0.057 A 
ATOM     81  C   UNL A   1      46.076  33.486  30.213  1.00  0.00     0.134 A 
ATOM     82  C   UNL A   1      45.132  34.216  28.134  1.00  0.00     0.134 A 
ATOM     83  F   UNL A   1      46.194  32.592  31.206  1.00  0.00    -0.206 F 
ATOM     84  C   UNL A   1      46.792  34.680  30.313  1.00  0.00     0.040 A 
ATOM     85  C   UNL A   1      45.859  35.403  28.213  1.00  0.00     0.040 A 
ATOM     86  F   UNL A   1      44.336  34.032  27.070  1.00  0.00    -0.206 F 
ATOM     87  C   UNL A   1      46.688  35.640  29.308  1.00  0.00     0.006 A 
ENDBRANCH  63  80
ENDBRANCH  37  38
ENDBRANCH  30  32
ENDBRANCH  29  30
ENDBRANCH  28  29
ENDBRANCH   1  28
TORSDOF 16
ENDMDL
