MODEL 1
REMARK VINA RESULT:     -10.7      0.000      0.000
REMARK SMILES CC(C)[C@H](CO)NS(=O)(=O)c1ccc(C(=O)OCCOC(=O)c2ccc(-c3c4nc(c(-c5c(F)cccc5F)c5ccc([nH]5)c(-c5c(F)cccc5F)c5nc(c(-c6c(F)cccc6F)c6ccc3[nH]6)C=C5)C=C4)cc2)cn1
REMARK SMILES IDX 17 1 15 2 16 3 14 4 11 5 12 6 78 7 13 8 77 9 8 10 9 11 10 12
REMARK SMILES IDX 7 13 4 15 2 16 1 17 3 18 5 19 6 20 18 22 19 23 20 24 21 25
REMARK SMILES IDX 22 26 23 27 24 28 76 29 25 30 75 31 26 32 27 33 28 34 69 35
REMARK SMILES IDX 29 36 74 37 68 38 70 39 30 40 73 41 67 42 66 43 31 45 57 46
REMARK SMILES IDX 40 47 56 48 41 49 44 50 55 51 71 52 42 53 43 54 54 56 72 57
REMARK SMILES IDX 45 58 32 59 33 60 38 61 34 62 35 63 37 64 39 65 36 66 58 67
REMARK SMILES IDX 59 68 64 69 60 70 61 71 63 72 65 73 62 74 46 75 47 76 52 77
REMARK SMILES IDX 48 78 49 79 51 80 53 81 50 82
REMARK H PARENT 7 14 6 21 70 44 44 55
REMARK Flexibility Score: inf
ROOT
ATOM      1  O   UNL A   1      41.428  20.939  25.754  1.00  0.00    -0.458 OA
ENDROOT
BRANCH   1   2
ATOM      2  C   UNL A   1      40.573  21.223  26.766  1.00  0.00     0.339 C 
ATOM      3  O   UNL A   1      40.793  21.087  27.959  1.00  0.00    -0.246 OA
BRANCH   2   4
ATOM      4  C   UNL A   1      39.327  21.846  26.275  1.00  0.00     0.078 A 
ATOM      5  C   UNL A   1      37.007  22.778  25.168  1.00  0.00     0.170 A 
ATOM      6  C   UNL A   1      37.758  23.654  25.945  1.00  0.00     0.043 A 
ATOM      7  N   UNL A   1      37.356  21.496  24.912  1.00  0.00    -0.243 NA
ATOM      8  C   UNL A   1      38.936  23.163  26.532  1.00  0.00     0.020 A 
ATOM      9  C   UNL A   1      38.523  21.081  25.438  1.00  0.00     0.128 A 
BRANCH   5  10
ATOM     10  S   UNL A   1      35.546  23.298  24.273  1.00  0.00     0.258 S 
ATOM     11  O   UNL A   1      35.733  23.026  22.869  1.00  0.00    -0.205 OA
ATOM     12  O   UNL A   1      35.213  24.628  24.754  1.00  0.00    -0.205 OA
BRANCH  10  13
ATOM     13  N   UNL A   1      34.315  22.311  24.814  1.00  0.00    -0.204 NA
ATOM     14  H   UNL A   1      34.676  21.857  25.653  1.00  0.00     0.141 HD
BRANCH  13  15
ATOM     15  C   UNL A   1      33.696  21.234  24.017  1.00  0.00     0.098 C 
BRANCH  15  16
ATOM     16  C   UNL A   1      32.249  21.563  23.569  1.00  0.00     0.003 C 
ATOM     17  C   UNL A   1      31.885  23.038  23.795  1.00  0.00     0.009 C 
ATOM     18  C   UNL A   1      31.925  21.201  22.115  1.00  0.00     0.009 C 
ENDBRANCH  15  16
BRANCH  15  19
ATOM     19  C   UNL A   1      33.818  19.950  24.872  1.00  0.00     0.176 C 
BRANCH  19  20
ATOM     20  O   UNL A   1      35.204  19.648  25.088  1.00  0.00    -0.395 OA
ATOM     21  H   UNL A   1      35.739  20.437  24.909  1.00  0.00     0.210 HD
ENDBRANCH  19  20
ENDBRANCH  15  19
ENDBRANCH  13  15
ENDBRANCH  10  13
ENDBRANCH   5  10
ENDBRANCH   2   4
ENDBRANCH   1   2
BRANCH   1  22
ATOM     22  C   UNL A   1      42.830  20.961  26.111  1.00  0.00     0.275 C 
BRANCH  22  23
ATOM     23  C   UNL A   1      43.670  21.749  25.101  1.00  0.00     0.275 C 
BRANCH  23  24
ATOM     24  O   UNL A   1      43.038  22.999  24.760  1.00  0.00    -0.458 OA
BRANCH  24  25
ATOM     25  C   UNL A   1      43.756  24.107  25.046  1.00  0.00     0.338 C 
ATOM     26  O   UNL A   1      44.813  24.456  24.545  1.00  0.00    -0.246 OA
BRANCH  25  27
ATOM     27  C   UNL A   1      43.027  24.967  25.993  1.00  0.00     0.060 A 
ATOM     28  C   UNL A   1      43.418  26.295  26.066  1.00  0.00     0.016 A 
ATOM     29  C   UNL A   1      42.147  24.450  26.941  1.00  0.00     0.016 A 
ATOM     30  C   UNL A   1      43.050  27.081  27.153  1.00  0.00     0.010 A 
ATOM     31  C   UNL A   1      41.666  25.286  27.963  1.00  0.00     0.010 A 
ATOM     32  C   UNL A   1      42.148  26.602  28.113  1.00  0.00    -0.014 A 
BRANCH  32  33
ATOM     33  C   UNL A   1      41.745  27.482  29.257  1.00  0.00     0.031 A 
ATOM     34  C   UNL A   1      42.538  27.506  30.543  1.00  0.00     0.074 A 
ATOM     35  C   UNL A   1      40.682  28.307  29.135  1.00  0.00     0.049 A 
ATOM     36  N   UNL A   1      42.274  28.124  31.669  1.00  0.00    -0.248 NA
ATOM     37  C   UNL A   1      43.781  26.719  30.576  1.00  0.00     0.031 C 
ATOM     38  C   UNL A   1      39.830  28.422  27.950  1.00  0.00     0.029 A 
ATOM     39  N   UNL A   1      40.148  29.225  30.008  1.00  0.00    -0.354 N 
ATOM     40  C   UNL A   1      43.283  27.759  32.555  1.00  0.00     0.074 A 
ATOM     41  C   UNL A   1      44.156  26.853  31.840  1.00  0.00     0.031 C 
ATOM     42  C   UNL A   1      38.933  29.399  28.140  1.00  0.00     0.029 A 
ATOM     43  C   UNL A   1      39.069  29.909  29.498  1.00  0.00     0.049 A 
ATOM     44  H   UNL A   1      40.505  29.379  30.914  1.00  0.00     0.167 HD
ATOM     45  C   UNL A   1      43.467  28.145  33.843  1.00  0.00     0.037 A 
ATOM     46  C   UNL A   1      38.246  30.813  30.062  1.00  0.00     0.037 A 
ATOM     47  C   UNL A   1      42.632  29.093  34.539  1.00  0.00     0.049 A 
ATOM     48  C   UNL A   1      38.454  31.203  31.496  1.00  0.00     0.074 A 
ATOM     49  C   UNL A   1      42.759  29.565  35.835  1.00  0.00     0.029 A 
ATOM     50  N   UNL A   1      41.523  29.723  33.995  1.00  0.00    -0.354 N 
ATOM     51  N   UNL A   1      39.388  30.816  32.330  1.00  0.00    -0.248 NA
ATOM     52  C   UNL A   1      37.481  32.140  32.073  1.00  0.00     0.031 C 
ATOM     53  C   UNL A   1      41.701  30.443  36.091  1.00  0.00     0.029 A 
ATOM     54  C   UNL A   1      40.943  30.560  34.937  1.00  0.00     0.049 A 
ATOM     55  H   UNL A   1      41.195  29.596  33.075  1.00  0.00     0.167 HD
ATOM     56  C   UNL A   1      39.120  31.465  33.526  1.00  0.00     0.074 A 
ATOM     57  C   UNL A   1      37.955  32.295  33.301  1.00  0.00     0.031 C 
ATOM     58  C   UNL A   1      39.777  31.374  34.709  1.00  0.00     0.037 A 
BRANCH  45  59
ATOM     59  C   UNL A   1      44.600  27.514  34.605  1.00  0.00     0.057 A 
ATOM     60  C   UNL A   1      45.875  28.092  34.673  1.00  0.00     0.134 A 
ATOM     61  C   UNL A   1      44.396  26.324  35.318  1.00  0.00     0.134 A 
ATOM     62  F   UNL A   1      46.145  29.225  34.008  1.00  0.00    -0.206 F 
ATOM     63  C   UNL A   1      46.911  27.496  35.396  1.00  0.00     0.040 A 
ATOM     64  C   UNL A   1      45.416  25.734  36.069  1.00  0.00     0.040 A 
ATOM     65  F   UNL A   1      43.199  25.720  35.307  1.00  0.00    -0.206 F 
ATOM     66  C   UNL A   1      46.680  26.316  36.103  1.00  0.00     0.006 A 
ENDBRANCH  45  59
BRANCH  46  67
ATOM     67  C   UNL A   1      37.117  31.377  29.277  1.00  0.00     0.057 A 
ATOM     68  C   UNL A   1      37.181  32.663  28.730  1.00  0.00     0.134 A 
ATOM     69  C   UNL A   1      35.947  30.640  29.050  1.00  0.00     0.134 A 
ATOM     70  F   UNL A   1      38.261  33.431  28.935  1.00  0.00    -0.206 F 
ATOM     71  C   UNL A   1      36.123  33.198  27.991  1.00  0.00     0.040 A 
ATOM     72  C   UNL A   1      34.896  31.148  28.285  1.00  0.00     0.040 A 
ATOM     73  F   UNL A   1      35.820  29.400  29.546  1.00  0.00    -0.206 F 
ATOM     74  C   UNL A   1      34.980  32.434  27.760  1.00  0.00     0.006 A 
ENDBRANCH  46  67
BRANCH  58  75
ATOM     75  C   UNL A   1      39.256  32.212  35.840  1.00  0.00     0.057 A 
ATOM     76  C   UNL A   1      38.342  31.706  36.775  1.00  0.00     0.134 A 
ATOM     77  C   UNL A   1      39.672  33.540  35.998  1.00  0.00     0.134 A 
ATOM     78  F   UNL A   1      37.890  30.446  36.671  1.00  0.00    -0.206 F 
ATOM     79  C   UNL A   1      37.837  32.500  37.806  1.00  0.00     0.040 A 
ATOM     80  C   UNL A   1      39.196  34.335  37.041  1.00  0.00     0.040 A 
ATOM     81  F   UNL A   1      40.550  34.085  35.144  1.00  0.00    -0.206 F 
ATOM     82  C   UNL A   1      38.268  33.818  37.943  1.00  0.00     0.006 A 
ENDBRANCH  58  75
ENDBRANCH  32  33
ENDBRANCH  25  27
ENDBRANCH  24  25
ENDBRANCH  23  24
ENDBRANCH  22  23
ENDBRANCH   1  22
TORSDOF 17
ENDMDL
MODEL 2
REMARK VINA RESULT:     -10.6      4.193      8.121
REMARK SMILES CC(C)[C@H](CO)NS(=O)(=O)c1ccc(C(=O)OCCOC(=O)c2ccc(-c3c4nc(c(-c5c(F)cccc5F)c5ccc([nH]5)c(-c5c(F)cccc5F)c5nc(c(-c6c(F)cccc6F)c6ccc3[nH]6)C=C5)C=C4)cc2)cn1
REMARK SMILES IDX 17 1 15 2 16 3 14 4 11 5 12 6 78 7 13 8 77 9 8 10 9 11 10 12
REMARK SMILES IDX 7 13 4 15 2 16 1 17 3 18 5 19 6 20 18 22 19 23 20 24 21 25
REMARK SMILES IDX 22 26 23 27 24 28 76 29 25 30 75 31 26 32 27 33 28 34 69 35
REMARK SMILES IDX 29 36 74 37 68 38 70 39 30 40 73 41 67 42 66 43 31 45 57 46
REMARK SMILES IDX 40 47 56 48 41 49 44 50 55 51 71 52 42 53 43 54 54 56 72 57
REMARK SMILES IDX 45 58 32 59 33 60 38 61 34 62 35 63 37 64 39 65 36 66 58 67
REMARK SMILES IDX 59 68 64 69 60 70 61 71 63 72 65 73 62 74 46 75 47 76 52 77
REMARK SMILES IDX 48 78 49 79 51 80 53 81 50 82
REMARK H PARENT 7 14 6 21 70 44 44 55
REMARK Flexibility Score: inf
ROOT
ATOM      1  O   UNL A   1      35.057  22.104  25.995  1.00  0.00    -0.458 OA
ENDROOT
BRANCH   1   2
ATOM      2  C   UNL A   1      33.851  22.709  26.116  1.00  0.00     0.339 C 
ATOM      3  O   UNL A   1      33.022  22.501  26.988  1.00  0.00    -0.246 OA
BRANCH   2   4
ATOM      4  C   UNL A   1      33.666  23.773  25.109  1.00  0.00     0.078 A 
ATOM      5  C   UNL A   1      33.244  25.530  23.057  1.00  0.00     0.170 A 
ATOM      6  C   UNL A   1      34.005  25.960  24.139  1.00  0.00     0.043 A 
ATOM      7  N   UNL A   1      32.708  24.292  22.946  1.00  0.00    -0.243 NA
ATOM      8  C   UNL A   1      34.198  25.063  25.202  1.00  0.00     0.020 A 
ATOM      9  C   UNL A   1      32.969  23.439  23.954  1.00  0.00     0.128 A 
BRANCH   5  10
ATOM     10  S   UNL A   1      33.010  26.528  21.588  1.00  0.00     0.258 S 
ATOM     11  O   UNL A   1      33.076  25.676  20.426  1.00  0.00    -0.205 OA
ATOM     12  O   UNL A   1      33.871  27.689  21.732  1.00  0.00    -0.205 OA
BRANCH  10  13
ATOM     13  N   UNL A   1      31.453  27.116  21.691  1.00  0.00    -0.204 NA
ATOM     14  H   UNL A   1      31.392  27.856  20.993  1.00  0.00     0.141 HD
BRANCH  13  15
ATOM     15  C   UNL A   1      30.849  27.675  22.916  1.00  0.00     0.098 C 
BRANCH  15  16
ATOM     16  C   UNL A   1      29.748  26.766  23.522  1.00  0.00     0.003 C 
ATOM     17  C   UNL A   1      30.094  26.290  24.940  1.00  0.00     0.009 C 
ATOM     18  C   UNL A   1      28.345  27.383  23.546  1.00  0.00     0.009 C 
ENDBRANCH  15  16
BRANCH  15  19
ATOM     19  C   UNL A   1      30.362  29.094  22.539  1.00  0.00     0.176 C 
BRANCH  19  20
ATOM     20  O   UNL A   1      31.355  29.743  21.730  1.00  0.00    -0.395 OA
ATOM     21  H   UNL A   1      31.150  30.688  21.663  1.00  0.00     0.210 HD
ENDBRANCH  19  20
ENDBRANCH  15  19
ENDBRANCH  13  15
ENDBRANCH  10  13
ENDBRANCH   5  10
ENDBRANCH   2   4
ENDBRANCH   1   2
BRANCH   1  22
ATOM     22  C   UNL A   1      35.101  21.000  25.061  1.00  0.00     0.275 C 
BRANCH  22  23
ATOM     23  C   UNL A   1      36.490  20.359  24.990  1.00  0.00     0.275 C 
BRANCH  23  24
ATOM     24  O   UNL A   1      37.528  21.357  25.055  1.00  0.00    -0.458 OA
BRANCH  24  25
ATOM     25  C   UNL A   1      38.644  20.988  25.723  1.00  0.00     0.338 C 
ATOM     26  O   UNL A   1      39.194  19.899  25.704  1.00  0.00    -0.246 OA
BRANCH  25  27
ATOM     27  C   UNL A   1      39.234  22.142  26.420  1.00  0.00     0.060 A 
ATOM     28  C   UNL A   1      38.706  23.391  26.129  1.00  0.00     0.016 A 
ATOM     29  C   UNL A   1      40.411  22.043  27.158  1.00  0.00     0.016 A 
ATOM     30  C   UNL A   1      39.408  24.548  26.447  1.00  0.00     0.010 A 
ATOM     31  C   UNL A   1      41.048  23.215  27.599  1.00  0.00     0.010 A 
ATOM     32  C   UNL A   1      40.583  24.487  27.210  1.00  0.00    -0.014 A 
BRANCH  32  33
ATOM     33  C   UNL A   1      41.304  25.752  27.565  1.00  0.00     0.031 A 
ATOM     34  C   UNL A   1      40.663  26.797  28.448  1.00  0.00     0.074 A 
ATOM     35  C   UNL A   1      42.567  25.955  27.132  1.00  0.00     0.049 A 
ATOM     36  N   UNL A   1      41.097  27.992  28.769  1.00  0.00    -0.248 NA
ATOM     37  C   UNL A   1      39.354  26.465  29.034  1.00  0.00     0.031 C 
ATOM     38  C   UNL A   1      43.336  25.031  26.295  1.00  0.00     0.029 A 
ATOM     39  N   UNL A   1      43.441  26.993  27.354  1.00  0.00    -0.354 N 
ATOM     40  C   UNL A   1      40.097  28.571  29.544  1.00  0.00     0.074 A 
ATOM     41  C   UNL A   1      39.027  27.601  29.633  1.00  0.00     0.031 C 
ATOM     42  C   UNL A   1      44.578  25.505  26.135  1.00  0.00     0.029 A 
ATOM     43  C   UNL A   1      44.670  26.816  26.763  1.00  0.00     0.049 A 
ATOM     44  H   UNL A   1      43.208  27.789  27.887  1.00  0.00     0.167 HD
ATOM     45  C   UNL A   1      40.074  29.795  30.130  1.00  0.00     0.037 A 
ATOM     46  C   UNL A   1      45.742  27.627  26.688  1.00  0.00     0.037 A 
ATOM     47  C   UNL A   1      41.164  30.739  30.092  1.00  0.00     0.049 A 
ATOM     48  C   UNL A   1      45.682  28.986  27.322  1.00  0.00     0.074 A 
ATOM     49  C   UNL A   1      41.240  31.991  30.682  1.00  0.00     0.029 A 
ATOM     50  N   UNL A   1      42.371  30.534  29.441  1.00  0.00    -0.354 N 
ATOM     51  N   UNL A   1      44.712  29.532  28.014  1.00  0.00    -0.248 NA
ATOM     52  C   UNL A   1      46.857  29.849  27.144  1.00  0.00     0.031 C 
ATOM     53  C   UNL A   1      42.473  32.561  30.347  1.00  0.00     0.029 A 
ATOM     54  C   UNL A   1      43.187  31.644  29.593  1.00  0.00     0.049 A 
ATOM     55  H   UNL A   1      42.613  29.718  28.944  1.00  0.00     0.167 HD
ATOM     56  C   UNL A   1      45.161  30.798  28.361  1.00  0.00     0.074 A 
ATOM     57  C   UNL A   1      46.502  30.928  27.829  1.00  0.00     0.031 C 
ATOM     58  C   UNL A   1      44.516  31.770  29.051  1.00  0.00     0.037 A 
BRANCH  45  59
ATOM     59  C   UNL A   1      38.812  30.205  30.839  1.00  0.00     0.057 A 
ATOM     60  C   UNL A   1      38.582  29.919  32.191  1.00  0.00     0.134 A 
ATOM     61  C   UNL A   1      37.827  30.936  30.160  1.00  0.00     0.134 A 
ATOM     62  F   UNL A   1      39.477  29.216  32.900  1.00  0.00    -0.206 F 
ATOM     63  C   UNL A   1      37.408  30.320  32.834  1.00  0.00     0.040 A 
ATOM     64  C   UNL A   1      36.662  31.368  30.800  1.00  0.00     0.040 A 
ATOM     65  F   UNL A   1      37.984  31.255  28.867  1.00  0.00    -0.206 F 
ATOM     66  C   UNL A   1      36.447  31.053  32.139  1.00  0.00     0.006 A 
ENDBRANCH  45  59
BRANCH  46  67
ATOM     67  C   UNL A   1      46.951  27.189  25.942  1.00  0.00     0.057 A 
ATOM     68  C   UNL A   1      47.091  27.438  24.572  1.00  0.00     0.134 A 
ATOM     69  C   UNL A   1      48.000  26.516  26.583  1.00  0.00     0.134 A 
ATOM     70  F   UNL A   1      46.110  28.051  23.894  1.00  0.00    -0.206 F 
ATOM     71  C   UNL A   1      48.224  27.028  23.866  1.00  0.00     0.040 A 
ATOM     72  C   UNL A   1      49.153  26.132  25.898  1.00  0.00     0.040 A 
ATOM     73  F   UNL A   1      47.930  26.247  27.895  1.00  0.00    -0.206 F 
ATOM     74  C   UNL A   1      49.264  26.382  24.533  1.00  0.00     0.006 A 
ENDBRANCH  46  67
BRANCH  58  75
ATOM     75  C   UNL A   1      45.266  33.049  29.285  1.00  0.00     0.057 A 
ATOM     76  C   UNL A   1      45.169  34.134  28.403  1.00  0.00     0.134 A 
ATOM     77  C   UNL A   1      46.095  33.198  30.404  1.00  0.00     0.134 A 
ATOM     78  F   UNL A   1      44.404  34.050  27.303  1.00  0.00    -0.206 F 
ATOM     79  C   UNL A   1      45.894  35.309  28.608  1.00  0.00     0.040 A 
ATOM     80  C   UNL A   1      46.804  34.378  30.635  1.00  0.00     0.040 A 
ATOM     81  F   UNL A   1      46.229  32.202  31.291  1.00  0.00    -0.206 F 
ATOM     82  C   UNL A   1      46.712  35.434  29.730  1.00  0.00     0.006 A 
ENDBRANCH  58  75
ENDBRANCH  32  33
ENDBRANCH  25  27
ENDBRANCH  24  25
ENDBRANCH  23  24
ENDBRANCH  22  23
ENDBRANCH   1  22
TORSDOF 17
ENDMDL
MODEL 3
REMARK VINA RESULT:     -10.3      0.967      1.622
REMARK SMILES CC(C)[C@H](CO)NS(=O)(=O)c1ccc(C(=O)OCCOC(=O)c2ccc(-c3c4nc(c(-c5c(F)cccc5F)c5ccc([nH]5)c(-c5c(F)cccc5F)c5nc(c(-c6c(F)cccc6F)c6ccc3[nH]6)C=C5)C=C4)cc2)cn1
REMARK SMILES IDX 17 1 15 2 16 3 14 4 11 5 12 6 78 7 13 8 77 9 8 10 9 11 10 12
REMARK SMILES IDX 7 13 4 15 2 16 1 17 3 18 5 19 6 20 18 22 19 23 20 24 21 25
REMARK SMILES IDX 22 26 23 27 24 28 76 29 25 30 75 31 26 32 27 33 28 34 69 35
REMARK SMILES IDX 29 36 74 37 68 38 70 39 30 40 73 41 67 42 66 43 31 45 57 46
REMARK SMILES IDX 40 47 56 48 41 49 44 50 55 51 71 52 42 53 43 54 54 56 72 57
REMARK SMILES IDX 45 58 32 59 33 60 38 61 34 62 35 63 37 64 39 65 36 66 58 67
REMARK SMILES IDX 59 68 64 69 60 70 61 71 63 72 65 73 62 74 46 75 47 76 52 77
REMARK SMILES IDX 48 78 49 79 51 80 53 81 50 82
REMARK H PARENT 7 14 6 21 70 44 44 55
REMARK Flexibility Score: inf
ROOT
ATOM      1  O   UNL A   1      41.101  21.287  25.646  1.00  0.00    -0.458 OA
ENDROOT
BRANCH   1   2
ATOM      2  C   UNL A   1      40.211  21.508  26.644  1.00  0.00     0.339 C 
ATOM      3  O   UNL A   1      40.429  21.415  27.842  1.00  0.00    -0.246 OA
BRANCH   2   4
ATOM      4  C   UNL A   1      38.918  22.001  26.129  1.00  0.00     0.078 A 
ATOM      5  C   UNL A   1      36.518  22.674  25.004  1.00  0.00     0.170 A 
ATOM      6  C   UNL A   1      37.237  23.671  25.654  1.00  0.00     0.043 A 
ATOM      7  N   UNL A   1      36.935  21.392  24.880  1.00  0.00    -0.243 NA
ATOM      8  C   UNL A   1      38.457  23.316  26.252  1.00  0.00     0.020 A 
ATOM      9  C   UNL A   1      38.138  21.104  25.410  1.00  0.00     0.128 A 
BRANCH   5  10
ATOM     10  S   UNL A   1      35.005  23.009  24.107  1.00  0.00     0.258 S 
ATOM     11  O   UNL A   1      34.132  21.865  24.214  1.00  0.00    -0.205 OA
ATOM     12  O   UNL A   1      35.396  23.550  22.817  1.00  0.00    -0.205 OA
BRANCH  10  13
ATOM     13  N   UNL A   1      34.276  24.272  24.916  1.00  0.00    -0.204 NA
ATOM     14  H   UNL A   1      34.646  24.240  25.865  1.00  0.00     0.141 HD
BRANCH  13  15
ATOM     15  C   UNL A   1      32.817  24.438  25.064  1.00  0.00     0.098 C 
BRANCH  15  16
ATOM     16  C   UNL A   1      32.197  25.368  23.990  1.00  0.00     0.003 C 
ATOM     17  C   UNL A   1      32.974  26.683  23.834  1.00  0.00     0.009 C 
ATOM     18  C   UNL A   1      32.032  24.734  22.605  1.00  0.00     0.009 C 
ENDBRANCH  15  16
BRANCH  15  19
ATOM     19  C   UNL A   1      32.590  24.912  26.520  1.00  0.00     0.176 C 
BRANCH  19  20
ATOM     20  O   UNL A   1      31.662  24.033  27.172  1.00  0.00    -0.395 OA
ATOM     21  H   UNL A   1      30.902  23.876  26.589  1.00  0.00     0.210 HD
ENDBRANCH  19  20
ENDBRANCH  15  19
ENDBRANCH  13  15
ENDBRANCH  10  13
ENDBRANCH   5  10
ENDBRANCH   2   4
ENDBRANCH   1   2
BRANCH   1  22
ATOM     22  C   UNL A   1      42.428  20.911  26.080  1.00  0.00     0.275 C 
BRANCH  22  23
ATOM     23  C   UNL A   1      43.516  21.745  25.396  1.00  0.00     0.275 C 
BRANCH  23  24
ATOM     24  O   UNL A   1      42.965  22.939  24.807  1.00  0.00    -0.458 OA
BRANCH  24  25
ATOM     25  C   UNL A   1      43.670  24.071  25.027  1.00  0.00     0.338 C 
ATOM     26  O   UNL A   1      44.701  24.421  24.477  1.00  0.00    -0.246 OA
BRANCH  25  27
ATOM     27  C   UNL A   1      42.955  24.951  25.966  1.00  0.00     0.060 A 
ATOM     28  C   UNL A   1      43.424  26.250  26.091  1.00  0.00     0.016 A 
ATOM     29  C   UNL A   1      42.005  24.468  26.862  1.00  0.00     0.016 A 
ATOM     30  C   UNL A   1      43.060  27.031  27.183  1.00  0.00     0.010 A 
ATOM     31  C   UNL A   1      41.534  25.308  27.886  1.00  0.00     0.010 A 
ATOM     32  C   UNL A   1      42.089  26.587  28.091  1.00  0.00    -0.014 A 
BRANCH  32  33
ATOM     33  C   UNL A   1      41.693  27.461  29.241  1.00  0.00     0.031 A 
ATOM     34  C   UNL A   1      42.482  27.466  30.530  1.00  0.00     0.074 A 
ATOM     35  C   UNL A   1      40.640  28.299  29.123  1.00  0.00     0.049 A 
ATOM     36  N   UNL A   1      42.222  28.078  31.660  1.00  0.00    -0.248 NA
ATOM     37  C   UNL A   1      43.716  26.664  30.560  1.00  0.00     0.031 C 
ATOM     38  C   UNL A   1      39.793  28.435  27.936  1.00  0.00     0.029 A 
ATOM     39  N   UNL A   1      40.114  29.217  30.002  1.00  0.00    -0.354 N 
ATOM     40  C   UNL A   1      43.224  27.694  32.546  1.00  0.00     0.074 A 
ATOM     41  C   UNL A   1      44.089  26.784  31.826  1.00  0.00     0.031 C 
ATOM     42  C   UNL A   1      38.907  29.420  28.132  1.00  0.00     0.029 A 
ATOM     43  C   UNL A   1      39.044  29.917  29.494  1.00  0.00     0.049 A 
ATOM     44  H   UNL A   1      40.470  29.360  30.910  1.00  0.00     0.167 HD
ATOM     45  C   UNL A   1      43.408  28.067  33.838  1.00  0.00     0.037 A 
ATOM     46  C   UNL A   1      38.230  30.826  30.063  1.00  0.00     0.037 A 
ATOM     47  C   UNL A   1      42.582  29.019  34.539  1.00  0.00     0.049 A 
ATOM     48  C   UNL A   1      38.439  31.203  31.501  1.00  0.00     0.074 A 
ATOM     49  C   UNL A   1      42.711  29.479  35.839  1.00  0.00     0.029 A 
ATOM     50  N   UNL A   1      41.482  29.667  33.997  1.00  0.00    -0.354 N 
ATOM     51  N   UNL A   1      39.365  30.797  32.334  1.00  0.00    -0.248 NA
ATOM     52  C   UNL A   1      37.474  32.146  32.082  1.00  0.00     0.031 C 
ATOM     53  C   UNL A   1      41.662  30.367  36.099  1.00  0.00     0.029 A 
ATOM     54  C   UNL A   1      40.908  30.502  34.944  1.00  0.00     0.049 A 
ATOM     55  H   UNL A   1      41.155  29.550  33.075  1.00  0.00     0.167 HD
ATOM     56  C   UNL A   1      39.101  31.440  33.535  1.00  0.00     0.074 A 
ATOM     57  C   UNL A   1      37.946  32.285  33.313  1.00  0.00     0.031 C 
ATOM     58  C   UNL A   1      39.753  31.332  34.718  1.00  0.00     0.037 A 
BRANCH  45  59
ATOM     59  C   UNL A   1      44.532  27.417  34.598  1.00  0.00     0.057 A 
ATOM     60  C   UNL A   1      44.372  26.209  35.290  1.00  0.00     0.134 A 
ATOM     61  C   UNL A   1      45.809  27.994  34.601  1.00  0.00     0.134 A 
ATOM     62  F   UNL A   1      43.176  25.604  35.337  1.00  0.00    -0.206 F 
ATOM     63  C   UNL A   1      45.432  25.615  35.979  1.00  0.00     0.040 A 
ATOM     64  C   UNL A   1      46.884  27.395  35.263  1.00  0.00     0.040 A 
ATOM     65  F   UNL A   1      46.039  29.145  33.951  1.00  0.00    -0.206 F 
ATOM     66  C   UNL A   1      46.695  26.205  35.961  1.00  0.00     0.006 A 
ENDBRANCH  45  59
BRANCH  46  67
ATOM     67  C   UNL A   1      37.110  31.410  29.279  1.00  0.00     0.057 A 
ATOM     68  C   UNL A   1      37.180  32.711  28.767  1.00  0.00     0.134 A 
ATOM     69  C   UNL A   1      35.944  30.678  29.017  1.00  0.00     0.134 A 
ATOM     70  F   UNL A   1      38.255  33.474  29.007  1.00  0.00    -0.206 F 
ATOM     71  C   UNL A   1      36.130  33.264  28.031  1.00  0.00     0.040 A 
ATOM     72  C   UNL A   1      34.902  31.204  28.254  1.00  0.00     0.040 A 
ATOM     73  F   UNL A   1      35.814  29.424  29.478  1.00  0.00    -0.206 F 
ATOM     74  C   UNL A   1      34.991  32.505  27.764  1.00  0.00     0.006 A 
ENDBRANCH  46  67
BRANCH  58  75
ATOM     75  C   UNL A   1      39.238  32.167  35.856  1.00  0.00     0.057 A 
ATOM     76  C   UNL A   1      38.301  31.670  36.772  1.00  0.00     0.134 A 
ATOM     77  C   UNL A   1      39.684  33.482  36.036  1.00  0.00     0.134 A 
ATOM     78  F   UNL A   1      37.821  30.423  36.645  1.00  0.00    -0.206 F 
ATOM     79  C   UNL A   1      37.802  32.461  37.808  1.00  0.00     0.040 A 
ATOM     80  C   UNL A   1      39.214  34.274  37.085  1.00  0.00     0.040 A 
ATOM     81  F   UNL A   1      40.585  34.017  35.200  1.00  0.00    -0.206 F 
ATOM     82  C   UNL A   1      38.263  33.767  37.968  1.00  0.00     0.006 A 
ENDBRANCH  58  75
ENDBRANCH  32  33
ENDBRANCH  25  27
ENDBRANCH  24  25
ENDBRANCH  23  24
ENDBRANCH  22  23
ENDBRANCH   1  22
TORSDOF 17
ENDMDL
