MODEL 1
REMARK VINA RESULT:     -10.7      0.000      0.000
REMARK SMILES O=C(Cn1c(SCCOc2ccccc2Cl)nc2ccccc21)OCCOC(=O)c1ccc(-c2c3nc(c(-c4c(F)cccc4F)c4ccc([nH]4)c(-c4c(F)cccc4F)c4nc(c(-c5c(F)cccc5F)c5ccc2[nH]5)C=C4)C=C3)cc1
REMARK SMILES IDX 1 1 2 2 3 3 4 4 5 5 23 6 17 7 18 8 22 9 19 10 21 11 20 12
REMARK SMILES IDX 6 13 7 14 8 15 9 16 10 17 11 18 15 19 12 20 14 21 16 22
REMARK SMILES IDX 13 23 24 24 25 25 26 26 27 27 28 28 29 29 30 30 31 31 83 32
REMARK SMILES IDX 32 33 82 34 33 35 34 36 35 37 76 38 36 39 81 40 75 41 77 42
REMARK SMILES IDX 37 43 80 44 74 45 73 46 38 48 64 49 47 50 63 51 48 52 51 53
REMARK SMILES IDX 62 54 78 55 49 56 50 57 61 59 79 60 52 61 39 62 40 63 45 64
REMARK SMILES IDX 41 65 42 66 44 67 46 68 43 69 65 70 66 71 71 72 67 73 68 74
REMARK SMILES IDX 70 75 72 76 69 77 53 78 54 79 59 80 55 81 56 82 58 83 60 84
REMARK SMILES IDX 57 85
REMARK H PARENT 77 47 51 58
REMARK Flexibility Score: inf
ROOT
ATOM      1  O   UNL A   1      34.646  22.813  27.177  1.00  0.00    -0.250 OA
ATOM      2  C   UNL A   1      35.001  23.229  26.102  1.00  0.00     0.326 C 
ENDROOT
BRANCH   2   3
ATOM      3  C   UNL A   1      34.300  24.342  25.375  1.00  0.00     0.247 C 
BRANCH   3   4
ATOM      4  N   UNL A   1      33.149  24.948  26.023  1.00  0.00    -0.308 N 
ATOM      5  C   UNL A   1      31.852  24.504  26.138  1.00  0.00     0.169 A 
ATOM      6  C   UNL A   1      33.114  26.316  26.278  1.00  0.00     0.069 A 
ATOM      7  N   UNL A   1      31.024  25.462  26.481  1.00  0.00    -0.222 NA
ATOM      8  C   UNL A   1      31.772  26.598  26.502  1.00  0.00     0.090 A 
ATOM      9  C   UNL A   1      34.088  27.322  26.224  1.00  0.00     0.028 A 
ATOM     10  C   UNL A   1      31.359  27.926  26.661  1.00  0.00     0.030 A 
ATOM     11  C   UNL A   1      33.657  28.643  26.362  1.00  0.00     0.002 A 
ATOM     12  C   UNL A   1      32.314  28.944  26.576  1.00  0.00     0.002 A 
BRANCH   5  13
ATOM     13  S   UNL A   1      31.244  22.930  25.804  1.00  0.00    -0.084 SA
BRANCH  13  14
ATOM     14  C   UNL A   1      31.023  22.928  24.030  1.00  0.00     0.119 C 
BRANCH  14  15
ATOM     15  C   UNL A   1      31.760  23.979  23.183  1.00  0.00     0.241 C 
BRANCH  15  16
ATOM     16  O   UNL A   1      31.077  25.172  22.795  1.00  0.00    -0.491 OA
BRANCH  16  17
ATOM     17  C   UNL A   1      31.716  26.382  22.848  1.00  0.00     0.137 A 
ATOM     18  C   UNL A   1      33.077  26.546  22.591  1.00  0.00     0.048 A 
ATOM     19  C   UNL A   1      30.938  27.534  23.086  1.00  0.00     0.083 A 
ATOM     20  C   UNL A   1      33.645  27.820  22.545  1.00  0.00     0.004 A 
ATOM     21  C   UNL A   1      31.503  28.811  23.012  1.00  0.00     0.024 A 
ATOM     22  Cl  UNL A   1      29.257  27.451  23.492  1.00  0.00    -0.080 Cl
ATOM     23  C   UNL A   1      32.859  28.953  22.733  1.00  0.00     0.002 A 
ENDBRANCH  16  17
ENDBRANCH  15  16
ENDBRANCH  14  15
ENDBRANCH  13  14
ENDBRANCH   5  13
ENDBRANCH   3   4
ENDBRANCH   2   3
BRANCH   2  24
ATOM     24  O   UNL A   1      35.951  22.559  25.375  1.00  0.00    -0.461 OA
BRANCH  24  25
ATOM     25  C   UNL A   1      35.994  21.121  25.306  1.00  0.00     0.274 C 
BRANCH  25  26
ATOM     26  C   UNL A   1      37.404  20.569  25.028  1.00  0.00     0.275 C 
BRANCH  26  27
ATOM     27  O   UNL A   1      38.441  21.581  25.036  1.00  0.00    -0.458 OA
BRANCH  27  28
ATOM     28  C   UNL A   1      39.400  21.426  25.999  1.00  0.00     0.338 C 
ATOM     29  O   UNL A   1      40.060  20.425  26.203  1.00  0.00    -0.246 OA
BRANCH  28  30
ATOM     30  C   UNL A   1      39.652  22.707  26.706  1.00  0.00     0.060 A 
ATOM     31  C   UNL A   1      38.828  23.816  26.526  1.00  0.00     0.016 A 
ATOM     32  C   UNL A   1      40.732  22.794  27.594  1.00  0.00     0.016 A 
ATOM     33  C   UNL A   1      39.177  25.042  27.116  1.00  0.00     0.010 A 
ATOM     34  C   UNL A   1      41.075  24.021  28.194  1.00  0.00     0.010 A 
ATOM     35  C   UNL A   1      40.347  25.178  27.903  1.00  0.00    -0.014 A 
BRANCH  35  36
ATOM     36  C   UNL A   1      40.731  26.540  28.378  1.00  0.00     0.031 A 
ATOM     37  C   UNL A   1      42.065  26.960  27.907  1.00  0.00     0.074 A 
ATOM     38  C   UNL A   1      40.037  27.409  29.168  1.00  0.00     0.049 A 
ATOM     39  N   UNL A   1      43.099  27.214  28.637  1.00  0.00    -0.248 NA
ATOM     40  C   UNL A   1      42.300  27.010  26.457  1.00  0.00     0.031 C 
ATOM     41  C   UNL A   1      38.670  27.218  29.637  1.00  0.00     0.029 A 
ATOM     42  N   UNL A   1      40.363  28.646  29.722  1.00  0.00    -0.354 N 
ATOM     43  C   UNL A   1      44.036  27.719  27.751  1.00  0.00     0.074 A 
ATOM     44  C   UNL A   1      43.567  27.422  26.420  1.00  0.00     0.031 C 
ATOM     45  C   UNL A   1      38.243  28.298  30.315  1.00  0.00     0.029 A 
ATOM     46  C   UNL A   1      39.286  29.305  30.332  1.00  0.00     0.049 A 
ATOM     47  H   UNL A   1      41.272  29.025  29.686  1.00  0.00     0.167 HD
ATOM     48  C   UNL A   1      44.901  28.674  28.170  1.00  0.00     0.037 A 
ATOM     49  C   UNL A   1      39.161  30.557  30.855  1.00  0.00     0.037 A 
ATOM     50  C   UNL A   1      45.104  28.665  29.594  1.00  0.00     0.049 A 
ATOM     51  C   UNL A   1      40.490  31.030  31.286  1.00  0.00     0.074 A 
ATOM     52  C   UNL A   1      45.787  27.901  30.512  1.00  0.00     0.029 A 
ATOM     53  N   UNL A   1      44.246  29.462  30.294  1.00  0.00    -0.354 N 
ATOM     54  N   UNL A   1      41.072  30.629  32.380  1.00  0.00    -0.248 NA
ATOM     55  C   UNL A   1      41.323  31.821  30.384  1.00  0.00     0.031 C 
ATOM     56  C   UNL A   1      45.274  28.243  31.799  1.00  0.00     0.029 A 
ATOM     57  C   UNL A   1      44.293  29.214  31.639  1.00  0.00     0.049 A 
ATOM     58  H   UNL A   1      43.662  30.138  29.880  1.00  0.00     0.167 HD
ATOM     59  C   UNL A   1      42.413  30.720  32.090  1.00  0.00     0.074 A 
ATOM     60  C   UNL A   1      42.513  31.624  30.954  1.00  0.00     0.031 C 
ATOM     61  C   UNL A   1      43.267  29.746  32.503  1.00  0.00     0.037 A 
BRANCH  48  62
ATOM     62  C   UNL A   1      45.111  29.933  27.367  1.00  0.00     0.057 A 
ATOM     63  C   UNL A   1      44.100  30.899  27.167  1.00  0.00     0.134 A 
ATOM     64  C   UNL A   1      46.412  30.347  27.052  1.00  0.00     0.134 A 
ATOM     65  F   UNL A   1      42.839  30.707  27.581  1.00  0.00    -0.206 F 
ATOM     66  C   UNL A   1      44.353  32.164  26.636  1.00  0.00     0.040 A 
ATOM     67  C   UNL A   1      46.686  31.634  26.573  1.00  0.00     0.040 A 
ATOM     68  F   UNL A   1      47.459  29.538  27.274  1.00  0.00    -0.206 F 
ATOM     69  C   UNL A   1      45.655  32.543  26.355  1.00  0.00     0.006 A 
ENDBRANCH  48  62
BRANCH  49  70
ATOM     70  C   UNL A   1      37.938  31.384  31.111  1.00  0.00     0.057 A 
ATOM     71  C   UNL A   1      37.242  31.343  32.333  1.00  0.00     0.134 A 
ATOM     72  C   UNL A   1      37.282  32.086  30.080  1.00  0.00     0.134 A 
ATOM     73  F   UNL A   1      37.710  30.647  33.378  1.00  0.00    -0.206 F 
ATOM     74  C   UNL A   1      35.992  31.952  32.522  1.00  0.00     0.040 A 
ATOM     75  C   UNL A   1      36.021  32.682  30.249  1.00  0.00     0.040 A 
ATOM     76  F   UNL A   1      37.816  32.170  28.853  1.00  0.00    -0.206 F 
ATOM     77  C   UNL A   1      35.368  32.608  31.472  1.00  0.00     0.006 A 
ENDBRANCH  49  70
BRANCH  61  78
ATOM     78  C   UNL A   1      43.011  29.113  33.830  1.00  0.00     0.057 A 
ATOM     79  C   UNL A   1      42.220  27.956  33.852  1.00  0.00     0.134 A 
ATOM     80  C   UNL A   1      43.475  29.595  35.060  1.00  0.00     0.134 A 
ATOM     81  F   UNL A   1      41.724  27.455  32.708  1.00  0.00    -0.206 F 
ATOM     82  C   UNL A   1      41.904  27.298  35.039  1.00  0.00     0.040 A 
ATOM     83  C   UNL A   1      43.190  28.925  36.256  1.00  0.00     0.040 A 
ATOM     84  F   UNL A   1      44.179  30.734  35.141  1.00  0.00    -0.206 F 
ATOM     85  C   UNL A   1      42.400  27.776  36.247  1.00  0.00     0.006 A 
ENDBRANCH  61  78
ENDBRANCH  35  36
ENDBRANCH  28  30
ENDBRANCH  27  28
ENDBRANCH  26  27
ENDBRANCH  25  26
ENDBRANCH  24  25
ENDBRANCH   2  24
TORSDOF 17
ENDMDL
MODEL 2
REMARK VINA RESULT:     -10.6      2.693      7.548
REMARK SMILES O=C(Cn1c(SCCOc2ccccc2Cl)nc2ccccc21)OCCOC(=O)c1ccc(-c2c3nc(c(-c4c(F)cccc4F)c4ccc([nH]4)c(-c4c(F)cccc4F)c4nc(c(-c5c(F)cccc5F)c5ccc2[nH]5)C=C4)C=C3)cc1
REMARK SMILES IDX 1 1 2 2 3 3 4 4 5 5 23 6 17 7 18 8 22 9 19 10 21 11 20 12
REMARK SMILES IDX 6 13 7 14 8 15 9 16 10 17 11 18 15 19 12 20 14 21 16 22
REMARK SMILES IDX 13 23 24 24 25 25 26 26 27 27 28 28 29 29 30 30 31 31 83 32
REMARK SMILES IDX 32 33 82 34 33 35 34 36 35 37 76 38 36 39 81 40 75 41 77 42
REMARK SMILES IDX 37 43 80 44 74 45 73 46 38 48 64 49 47 50 63 51 48 52 51 53
REMARK SMILES IDX 62 54 78 55 49 56 50 57 61 59 79 60 52 61 39 62 40 63 45 64
REMARK SMILES IDX 41 65 42 66 44 67 46 68 43 69 65 70 66 71 71 72 67 73 68 74
REMARK SMILES IDX 70 75 72 76 69 77 53 78 54 79 59 80 55 81 56 82 58 83 60 84
REMARK SMILES IDX 57 85
REMARK H PARENT 77 47 51 58
REMARK Flexibility Score: inf
ROOT
ATOM      1  O   UNL A   1      31.503  27.283  26.329  1.00  0.00    -0.250 OA
ATOM      2  C   UNL A   1      32.660  27.287  25.990  1.00  0.00     0.326 C 
ENDROOT
BRANCH   2   3
ATOM      3  C   UNL A   1      33.547  26.075  26.065  1.00  0.00     0.247 C 
BRANCH   3   4
ATOM      4  N   UNL A   1      34.018  25.509  24.813  1.00  0.00    -0.308 N 
ATOM      5  C   UNL A   1      33.392  25.393  23.593  1.00  0.00     0.169 A 
ATOM      6  C   UNL A   1      35.071  24.600  24.795  1.00  0.00     0.069 A 
ATOM      7  N   UNL A   1      33.986  24.527  22.806  1.00  0.00    -0.222 NA
ATOM      8  C   UNL A   1      34.979  23.977  23.556  1.00  0.00     0.090 A 
ATOM      9  C   UNL A   1      36.001  24.197  25.763  1.00  0.00     0.028 A 
ATOM     10  C   UNL A   1      35.819  22.899  23.257  1.00  0.00     0.030 A 
ATOM     11  C   UNL A   1      36.817  23.106  25.458  1.00  0.00     0.002 A 
ATOM     12  C   UNL A   1      36.729  22.464  24.225  1.00  0.00     0.002 A 
BRANCH   5  13
ATOM     13  S   UNL A   1      31.943  26.163  23.076  1.00  0.00    -0.084 SA
BRANCH  13  14
ATOM     14  C   UNL A   1      30.675  24.948  23.408  1.00  0.00     0.119 C 
BRANCH  14  15
ATOM     15  C   UNL A   1      30.580  24.331  24.813  1.00  0.00     0.241 C 
BRANCH  15  16
ATOM     16  O   UNL A   1      30.862  22.941  24.990  1.00  0.00    -0.491 OA
BRANCH  16  17
ATOM     17  C   UNL A   1      31.927  22.546  25.755  1.00  0.00     0.137 A 
ATOM     18  C   UNL A   1      32.144  22.988  27.060  1.00  0.00     0.048 A 
ATOM     19  C   UNL A   1      32.798  21.571  25.227  1.00  0.00     0.083 A 
ATOM     20  C   UNL A   1      33.181  22.456  27.829  1.00  0.00     0.004 A 
ATOM     21  C   UNL A   1      33.819  21.020  26.008  1.00  0.00     0.024 A 
ATOM     22  Cl  UNL A   1      32.675  21.003  23.596  1.00  0.00    -0.080 Cl
ATOM     23  C   UNL A   1      34.005  21.459  27.315  1.00  0.00     0.002 A 
ENDBRANCH  16  17
ENDBRANCH  15  16
ENDBRANCH  14  15
ENDBRANCH  13  14
ENDBRANCH   5  13
ENDBRANCH   3   4
ENDBRANCH   2   3
BRANCH   2  24
ATOM     24  O   UNL A   1      33.300  28.467  25.711  1.00  0.00    -0.461 OA
BRANCH  24  25
ATOM     25  C   UNL A   1      32.594  29.636  25.251  1.00  0.00     0.274 C 
BRANCH  25  26
ATOM     26  C   UNL A   1      32.306  30.651  26.372  1.00  0.00     0.275 C 
BRANCH  26  27
ATOM     27  O   UNL A   1      33.153  30.492  27.537  1.00  0.00    -0.458 OA
BRANCH  27  28
ATOM     28  C   UNL A   1      34.004  31.534  27.785  1.00  0.00     0.338 C 
ATOM     29  O   UNL A   1      33.691  32.698  27.943  1.00  0.00    -0.246 OA
BRANCH  28  30
ATOM     30  C   UNL A   1      35.393  31.046  27.982  1.00  0.00     0.060 A 
ATOM     31  C   UNL A   1      35.743  29.719  27.743  1.00  0.00     0.016 A 
ATOM     32  C   UNL A   1      36.380  31.950  28.397  1.00  0.00     0.016 A 
ATOM     33  C   UNL A   1      37.036  29.275  28.064  1.00  0.00     0.010 A 
ATOM     34  C   UNL A   1      37.679  31.507  28.708  1.00  0.00     0.010 A 
ATOM     35  C   UNL A   1      38.003  30.149  28.618  1.00  0.00    -0.014 A 
BRANCH  35  36
ATOM     36  C   UNL A   1      39.307  29.577  29.067  1.00  0.00     0.031 A 
ATOM     37  C   UNL A   1      39.603  29.862  30.484  1.00  0.00     0.074 A 
ATOM     38  C   UNL A   1      40.226  28.860  28.360  1.00  0.00     0.049 A 
ATOM     39  N   UNL A   1      40.587  30.559  30.944  1.00  0.00    -0.248 NA
ATOM     40  C   UNL A   1      38.644  29.398  31.496  1.00  0.00     0.031 C 
ATOM     41  C   UNL A   1      40.061  28.391  26.989  1.00  0.00     0.029 A 
ATOM     42  N   UNL A   1      41.493  28.374  28.682  1.00  0.00    -0.354 N 
ATOM     43  C   UNL A   1      40.521  30.393  32.318  1.00  0.00     0.074 A 
ATOM     44  C   UNL A   1      39.232  29.818  32.616  1.00  0.00     0.031 C 
ATOM     45  C   UNL A   1      41.108  27.633  26.616  1.00  0.00     0.029 A 
ATOM     46  C   UNL A   1      42.042  27.518  27.717  1.00  0.00     0.049 A 
ATOM     47  H   UNL A   1      41.961  28.613  29.515  1.00  0.00     0.167 HD
ATOM     48  C   UNL A   1      41.668  30.368  33.041  1.00  0.00     0.037 A 
ATOM     49  C   UNL A   1      43.168  26.749  27.715  1.00  0.00     0.037 A 
ATOM     50  C   UNL A   1      42.757  31.045  32.392  1.00  0.00     0.049 A 
ATOM     51  C   UNL A   1      44.154  27.344  28.638  1.00  0.00     0.074 A 
ATOM     52  C   UNL A   1      43.145  32.346  32.161  1.00  0.00     0.029 A 
ATOM     53  N   UNL A   1      43.520  30.251  31.587  1.00  0.00    -0.354 N 
ATOM     54  N   UNL A   1      44.867  28.392  28.343  1.00  0.00    -0.248 NA
ATOM     55  C   UNL A   1      44.225  26.905  30.029  1.00  0.00     0.031 C 
ATOM     56  C   UNL A   1      44.151  32.304  31.149  1.00  0.00     0.029 A 
ATOM     57  C   UNL A   1      44.360  30.979  30.789  1.00  0.00     0.049 A 
ATOM     58  H   UNL A   1      43.474  29.267  31.582  1.00  0.00     0.167 HD
ATOM     59  C   UNL A   1      45.094  28.988  29.562  1.00  0.00     0.074 A 
ATOM     60  C   UNL A   1      44.856  27.954  30.559  1.00  0.00     0.031 C 
ATOM     61  C   UNL A   1      45.030  30.341  29.681  1.00  0.00     0.037 A 
BRANCH  48  62
ATOM     62  C   UNL A   1      41.925  29.272  34.044  1.00  0.00     0.057 A 
ATOM     63  C   UNL A   1      41.850  29.470  35.440  1.00  0.00     0.134 A 
ATOM     64  C   UNL A   1      41.940  27.936  33.624  1.00  0.00     0.134 A 
ATOM     65  F   UNL A   1      41.659  30.683  35.978  1.00  0.00    -0.206 F 
ATOM     66  C   UNL A   1      41.850  28.419  36.357  1.00  0.00     0.040 A 
ATOM     67  C   UNL A   1      41.882  26.872  34.531  1.00  0.00     0.040 A 
ATOM     68  F   UNL A   1      41.934  27.630  32.318  1.00  0.00    -0.206 F 
ATOM     69  C   UNL A   1      41.846  27.111  35.902  1.00  0.00     0.006 A 
ENDBRANCH  48  62
BRANCH  49  70
ATOM     70  C   UNL A   1      43.522  25.549  26.891  1.00  0.00     0.057 A 
ATOM     71  C   UNL A   1      44.307  25.639  25.727  1.00  0.00     0.134 A 
ATOM     72  C   UNL A   1      42.918  24.294  27.101  1.00  0.00     0.134 A 
ATOM     73  F   UNL A   1      44.881  26.794  25.361  1.00  0.00    -0.206 F 
ATOM     74  C   UNL A   1      44.483  24.568  24.839  1.00  0.00     0.040 A 
ATOM     75  C   UNL A   1      43.067  23.219  26.208  1.00  0.00     0.040 A 
ATOM     76  F   UNL A   1      42.112  24.082  28.152  1.00  0.00    -0.206 F 
ATOM     77  C   UNL A   1      43.845  23.358  25.067  1.00  0.00     0.006 A 
ENDBRANCH  49  70
BRANCH  61  78
ATOM     78  C   UNL A   1      45.531  31.164  28.542  1.00  0.00     0.057 A 
ATOM     79  C   UNL A   1      46.851  31.630  28.614  1.00  0.00     0.134 A 
ATOM     80  C   UNL A   1      44.782  31.532  27.418  1.00  0.00     0.134 A 
ATOM     81  F   UNL A   1      47.616  31.333  29.677  1.00  0.00    -0.206 F 
ATOM     82  C   UNL A   1      47.412  32.422  27.613  1.00  0.00     0.040 A 
ATOM     83  C   UNL A   1      45.344  32.300  26.391  1.00  0.00     0.040 A 
ATOM     84  F   UNL A   1      43.490  31.190  27.299  1.00  0.00    -0.206 F 
ATOM     85  C   UNL A   1      46.660  32.751  26.490  1.00  0.00     0.006 A 
ENDBRANCH  61  78
ENDBRANCH  35  36
ENDBRANCH  28  30
ENDBRANCH  27  28
ENDBRANCH  26  27
ENDBRANCH  25  26
ENDBRANCH  24  25
ENDBRANCH   2  24
TORSDOF 17
ENDMDL
MODEL 3
REMARK VINA RESULT:     -10.1      2.736      7.592
REMARK SMILES O=C(Cn1c(SCCOc2ccccc2Cl)nc2ccccc21)OCCOC(=O)c1ccc(-c2c3nc(c(-c4c(F)cccc4F)c4ccc([nH]4)c(-c4c(F)cccc4F)c4nc(c(-c5c(F)cccc5F)c5ccc2[nH]5)C=C4)C=C3)cc1
REMARK SMILES IDX 1 1 2 2 3 3 4 4 5 5 23 6 17 7 18 8 22 9 19 10 21 11 20 12
REMARK SMILES IDX 6 13 7 14 8 15 9 16 10 17 11 18 15 19 12 20 14 21 16 22
REMARK SMILES IDX 13 23 24 24 25 25 26 26 27 27 28 28 29 29 30 30 31 31 83 32
REMARK SMILES IDX 32 33 82 34 33 35 34 36 35 37 76 38 36 39 81 40 75 41 77 42
REMARK SMILES IDX 37 43 80 44 74 45 73 46 38 48 64 49 47 50 63 51 48 52 51 53
REMARK SMILES IDX 62 54 78 55 49 56 50 57 61 59 79 60 52 61 39 62 40 63 45 64
REMARK SMILES IDX 41 65 42 66 44 67 46 68 43 69 65 70 66 71 71 72 67 73 68 74
REMARK SMILES IDX 70 75 72 76 69 77 53 78 54 79 59 80 55 81 56 82 58 83 60 84
REMARK SMILES IDX 57 85
REMARK H PARENT 77 47 51 58
REMARK Flexibility Score: inf
ROOT
ATOM      1  O   UNL A   1      31.743  26.248  26.727  1.00  0.00    -0.250 OA
ATOM      2  C   UNL A   1      31.083  27.009  26.063  1.00  0.00     0.326 C 
ENDROOT
BRANCH   2   3
ATOM      3  C   UNL A   1      30.430  26.618  24.766  1.00  0.00     0.247 C 
BRANCH   3   4
ATOM      4  N   UNL A   1      30.625  27.496  23.625  1.00  0.00    -0.308 N 
ATOM      5  C   UNL A   1      31.774  28.053  23.112  1.00  0.00     0.169 A 
ATOM      6  C   UNL A   1      29.570  28.249  23.119  1.00  0.00     0.069 A 
ATOM      7  N   UNL A   1      31.525  29.055  22.301  1.00  0.00    -0.222 NA
ATOM      8  C   UNL A   1      30.178  29.234  22.350  1.00  0.00     0.090 A 
ATOM      9  C   UNL A   1      28.187  28.229  23.345  1.00  0.00     0.028 A 
ATOM     10  C   UNL A   1      29.401  30.258  21.794  1.00  0.00     0.030 A 
ATOM     11  C   UNL A   1      27.430  29.268  22.803  1.00  0.00     0.002 A 
ATOM     12  C   UNL A   1      28.025  30.270  22.039  1.00  0.00     0.002 A 
BRANCH   5  13
ATOM     13  S   UNL A   1      33.401  27.641  23.484  1.00  0.00    -0.084 SA
BRANCH  13  14
ATOM     14  C   UNL A   1      33.656  26.095  22.623  1.00  0.00     0.119 C 
BRANCH  14  15
ATOM     15  C   UNL A   1      33.318  24.776  23.337  1.00  0.00     0.241 C 
BRANCH  15  16
ATOM     16  O   UNL A   1      33.756  23.540  22.771  1.00  0.00    -0.491 OA
BRANCH  16  17
ATOM     17  C   UNL A   1      34.683  22.772  23.423  1.00  0.00     0.137 A 
ATOM     18  C   UNL A   1      36.054  23.026  23.390  1.00  0.00     0.048 A 
ATOM     19  C   UNL A   1      34.219  21.725  24.245  1.00  0.00     0.083 A 
ATOM     20  C   UNL A   1      36.937  22.278  24.172  1.00  0.00     0.004 A 
ATOM     21  C   UNL A   1      35.101  20.996  25.048  1.00  0.00     0.024 A 
ATOM     22  Cl  UNL A   1      32.550  21.266  24.310  1.00  0.00    -0.080 Cl
ATOM     23  C   UNL A   1      36.462  21.280  25.017  1.00  0.00     0.002 A 
ENDBRANCH  16  17
ENDBRANCH  15  16
ENDBRANCH  14  15
ENDBRANCH  13  14
ENDBRANCH   5  13
ENDBRANCH   3   4
ENDBRANCH   2   3
BRANCH   2  24
ATOM     24  O   UNL A   1      31.067  28.349  26.349  1.00  0.00    -0.461 OA
BRANCH  24  25
ATOM     25  C   UNL A   1      32.048  28.965  27.205  1.00  0.00     0.274 C 
BRANCH  25  26
ATOM     26  C   UNL A   1      32.299  30.447  26.870  1.00  0.00     0.275 C 
BRANCH  26  27
ATOM     27  O   UNL A   1      33.695  30.773  26.664  1.00  0.00    -0.458 OA
BRANCH  27  28
ATOM     28  C   UNL A   1      34.230  31.648  27.570  1.00  0.00     0.338 C 
ATOM     29  O   UNL A   1      33.732  32.693  27.942  1.00  0.00    -0.246 OA
BRANCH  28  30
ATOM     30  C   UNL A   1      35.468  31.093  28.174  1.00  0.00     0.060 A 
ATOM     31  C   UNL A   1      36.519  31.915  28.573  1.00  0.00     0.016 A 
ATOM     32  C   UNL A   1      35.570  29.709  28.367  1.00  0.00     0.016 A 
ATOM     33  C   UNL A   1      37.719  31.339  29.020  1.00  0.00     0.010 A 
ATOM     34  C   UNL A   1      36.770  29.132  28.825  1.00  0.00     0.010 A 
ATOM     35  C   UNL A   1      37.885  29.934  29.086  1.00  0.00    -0.014 A 
BRANCH  35  36
ATOM     36  C   UNL A   1      39.232  29.391  29.433  1.00  0.00     0.031 A 
ATOM     37  C   UNL A   1      39.624  29.670  30.827  1.00  0.00     0.074 A 
ATOM     38  C   UNL A   1      40.114  28.702  28.653  1.00  0.00     0.049 A 
ATOM     39  N   UNL A   1      40.622  30.388  31.222  1.00  0.00    -0.248 NA
ATOM     40  C   UNL A   1      38.753  29.174  31.902  1.00  0.00     0.031 C 
ATOM     41  C   UNL A   1      39.861  28.241  27.294  1.00  0.00     0.029 A 
ATOM     42  N   UNL A   1      41.413  28.245  28.877  1.00  0.00    -0.354 N 
ATOM     43  C   UNL A   1      40.661  30.209  32.594  1.00  0.00     0.074 A 
ATOM     44  C   UNL A   1      39.412  29.599  32.980  1.00  0.00     0.031 C 
ATOM     45  C   UNL A   1      40.895  27.511  26.837  1.00  0.00     0.029 A 
ATOM     46  C   UNL A   1      41.910  27.410  27.867  1.00  0.00     0.049 A 
ATOM     47  H   UNL A   1      41.935  28.488  29.677  1.00  0.00     0.167 HD
ATOM     48  C   UNL A   1      41.858  30.206  33.231  1.00  0.00     0.037 A 
ATOM     49  C   UNL A   1      43.051  26.670  27.775  1.00  0.00     0.037 A 
ATOM     50  C   UNL A   1      42.880  30.915  32.512  1.00  0.00     0.049 A 
ATOM     51  C   UNL A   1      44.087  27.281  28.629  1.00  0.00     0.074 A 
ATOM     52  C   UNL A   1      43.219  32.227  32.266  1.00  0.00     0.029 A 
ATOM     53  N   UNL A   1      43.601  30.146  31.646  1.00  0.00    -0.354 N 
ATOM     54  N   UNL A   1      44.752  28.349  28.294  1.00  0.00    -0.248 NA
ATOM     55  C   UNL A   1      44.271  26.832  30.006  1.00  0.00     0.031 C 
ATOM     56  C   UNL A   1      44.149  32.219  31.184  1.00  0.00     0.029 A 
ATOM     57  C   UNL A   1      44.363  30.902  30.796  1.00  0.00     0.049 A 
ATOM     58  H   UNL A   1      43.578  29.162  31.634  1.00  0.00     0.167 HD
ATOM     59  C   UNL A   1      45.052  28.940  29.499  1.00  0.00     0.074 A 
ATOM     60  C   UNL A   1      44.913  27.892  30.499  1.00  0.00     0.031 C 
ATOM     61  C   UNL A   1      44.965  30.290  29.636  1.00  0.00     0.037 A 
BRANCH  48  62
ATOM     62  C   UNL A   1      42.214  29.108  34.202  1.00  0.00     0.057 A 
ATOM     63  C   UNL A   1      42.230  29.291  35.602  1.00  0.00     0.134 A 
ATOM     64  C   UNL A   1      42.236  27.777  33.767  1.00  0.00     0.134 A 
ATOM     65  F   UNL A   1      42.043  30.493  36.166  1.00  0.00    -0.206 F 
ATOM     66  C   UNL A   1      42.323  28.232  36.505  1.00  0.00     0.040 A 
ATOM     67  C   UNL A   1      42.270  26.703  34.664  1.00  0.00     0.040 A 
ATOM     68  F   UNL A   1      42.149  27.484  32.461  1.00  0.00    -0.206 F 
ATOM     69  C   UNL A   1      42.323  26.929  36.037  1.00  0.00     0.006 A 
ENDBRANCH  48  62
BRANCH  49  70
ATOM     70  C   UNL A   1      43.373  25.486  26.915  1.00  0.00     0.057 A 
ATOM     71  C   UNL A   1      44.146  25.592  25.744  1.00  0.00     0.134 A 
ATOM     72  C   UNL A   1      42.746  24.237  27.098  1.00  0.00     0.134 A 
ATOM     73  F   UNL A   1      44.738  26.745  25.403  1.00  0.00    -0.206 F 
ATOM     74  C   UNL A   1      44.291  24.542  24.826  1.00  0.00     0.040 A 
ATOM     75  C   UNL A   1      42.865  23.184  26.175  1.00  0.00     0.040 A 
ATOM     76  F   UNL A   1      41.948  24.012  28.152  1.00  0.00    -0.206 F 
ATOM     77  C   UNL A   1      43.633  23.338  25.029  1.00  0.00     0.006 A 
ENDBRANCH  49  70
BRANCH  61  78
ATOM     78  C   UNL A   1      45.362  31.134  28.472  1.00  0.00     0.057 A 
ATOM     79  C   UNL A   1      46.668  31.642  28.457  1.00  0.00     0.134 A 
ATOM     80  C   UNL A   1      44.527  31.484  27.403  1.00  0.00     0.134 A 
ATOM     81  F   UNL A   1      47.512  31.364  29.464  1.00  0.00    -0.206 F 
ATOM     82  C   UNL A   1      47.134  32.457  27.427  1.00  0.00     0.040 A 
ATOM     83  C   UNL A   1      44.993  32.276  26.347  1.00  0.00     0.040 A 
ATOM     84  F   UNL A   1      43.241  31.102  27.369  1.00  0.00    -0.206 F 
ATOM     85  C   UNL A   1      46.298  32.767  26.360  1.00  0.00     0.006 A 
ENDBRANCH  61  78
ENDBRANCH  35  36
ENDBRANCH  28  30
ENDBRANCH  27  28
ENDBRANCH  26  27
ENDBRANCH  25  26
ENDBRANCH  24  25
ENDBRANCH   2  24
TORSDOF 17
ENDMDL
