MODEL 1
REMARK VINA RESULT:     -10.2      0.000      0.000
REMARK SMILES CCC1(CC)C[NH+]([C@H](CCS(C)(=O)=O)C(=O)OCCOC(=O)c2ccc(-c3c4nc(c(-c5c(F)cccc5F)c5ccc([nH]5)c(-c5c(F)cccc5F)c5nc(c(-c6c(F)cccc6F)c6ccc3[nH]6)C=C5)C=C4)cc2)C1
REMARK SMILES IDX 18 1 17 2 15 3 16 4 8 5 7 6 3 7 6 8 77 9 2 11 1 12 4 13 5 14
REMARK SMILES IDX 9 15 10 16 11 17 12 18 13 19 14 20 19 21 20 22 21 23 22 24
REMARK SMILES IDX 23 25 24 26 76 27 25 28 75 29 26 30 27 31 28 32 69 33 29 34
REMARK SMILES IDX 74 35 68 36 70 37 30 38 73 39 67 40 66 41 31 43 57 44 40 45
REMARK SMILES IDX 56 46 41 47 44 48 55 49 71 50 42 51 43 52 54 54 72 55 45 56
REMARK SMILES IDX 32 57 33 58 38 59 34 60 35 61 37 62 39 63 36 64 58 65 59 66
REMARK SMILES IDX 64 67 60 68 61 69 63 70 65 71 62 72 46 73 47 74 52 75 48 76
REMARK SMILES IDX 49 77 51 78 53 79 50 80
REMARK H PARENT 7 10 70 42 44 53
REMARK Flexibility Score: inf
ROOT
ATOM      1  C   UNL A   1      31.971  31.250  26.657  1.00  0.00     0.274 C 
ENDROOT
BRANCH   1   2
ATOM      2  O   UNL A   1      32.679  30.045  26.295  1.00  0.00    -0.458 OA
BRANCH   2   3
ATOM      3  C   UNL A   1      32.013  28.879  26.523  1.00  0.00     0.365 C 
ATOM      4  O   UNL A   1      31.682  28.493  27.641  1.00  0.00    -0.245 OA
BRANCH   3   5
ATOM      5  C   UNL A   1      31.735  28.060  25.234  1.00  0.00     0.296 C 
BRANCH   5   6
ATOM      6  N   UNL A   1      32.740  26.994  25.210  1.00  0.00    -0.322 N 
ATOM      7  C   UNL A   1      33.535  25.348  24.188  1.00  0.00     0.068 C 
ATOM      8  C   UNL A   1      33.552  26.907  23.995  1.00  0.00     0.275 C 
ATOM      9  C   UNL A   1      32.226  25.634  25.005  1.00  0.00     0.275 C 
ATOM     10  H   UNL A   1      33.188  27.234  26.094  1.00  0.00     0.348 HD
BRANCH   7  11
ATOM     11  C   UNL A   1      33.302  24.594  22.873  1.00  0.00     0.015 C 
ATOM     12  C   UNL A   1      34.126  23.319  22.794  1.00  0.00     0.005 C 
ENDBRANCH   7  11
BRANCH   7  13
ATOM     13  C   UNL A   1      34.704  24.822  25.050  1.00  0.00     0.015 C 
ATOM     14  C   UNL A   1      34.256  23.821  26.105  1.00  0.00     0.005 C 
ENDBRANCH   7  13
ENDBRANCH   5   6
BRANCH   5  15
ATOM     15  C   UNL A   1      31.447  28.921  23.965  1.00  0.00     0.094 C 
BRANCH  15  16
ATOM     16  C   UNL A   1      30.124  28.484  23.321  1.00  0.00     0.143 C 
BRANCH  16  17
ATOM     17  S   UNL A   1      29.012  29.729  22.679  1.00  0.00     0.147 S 
ATOM     18  C   UNL A   1      27.322  29.175  22.835  1.00  0.00     0.158 C 
ATOM     19  O   UNL A   1      29.145  30.896  23.534  1.00  0.00    -0.229 OA
ATOM     20  O   UNL A   1      29.304  29.852  21.259  1.00  0.00    -0.229 OA
ENDBRANCH  16  17
ENDBRANCH  15  16
ENDBRANCH   5  15
ENDBRANCH   3   5
ENDBRANCH   2   3
ENDBRANCH   1   2
BRANCH   1  21
ATOM     21  C   UNL A   1      32.891  32.321  27.262  1.00  0.00     0.275 C 
BRANCH  21  22
ATOM     22  O   UNL A   1      32.202  33.543  27.598  1.00  0.00    -0.458 OA
BRANCH  22  23
ATOM     23  C   UNL A   1      32.914  34.381  28.378  1.00  0.00     0.338 C 
ATOM     24  O   UNL A   1      32.572  35.499  28.742  1.00  0.00    -0.246 OA
BRANCH  23  25
ATOM     25  C   UNL A   1      34.137  33.770  28.898  1.00  0.00     0.060 A 
ATOM     26  C   UNL A   1      34.008  32.810  29.904  1.00  0.00     0.016 A 
ATOM     27  C   UNL A   1      35.389  34.254  28.527  1.00  0.00     0.016 A 
ATOM     28  C   UNL A   1      35.133  32.329  30.557  1.00  0.00     0.010 A 
ATOM     29  C   UNL A   1      36.525  33.743  29.158  1.00  0.00     0.010 A 
ATOM     30  C   UNL A   1      36.401  32.777  30.171  1.00  0.00    -0.014 A 
BRANCH  30  31
ATOM     31  C   UNL A   1      37.594  32.151  30.775  1.00  0.00     0.031 A 
ATOM     32  C   UNL A   1      38.335  31.061  30.071  1.00  0.00     0.074 A 
ATOM     33  C   UNL A   1      38.000  32.601  31.976  1.00  0.00     0.049 A 
ATOM     34  N   UNL A   1      39.338  30.341  30.504  1.00  0.00    -0.248 NA
ATOM     35  C   UNL A   1      37.900  30.735  28.705  1.00  0.00     0.031 C 
ATOM     36  C   UNL A   1      37.369  33.694  32.723  1.00  0.00     0.029 A 
ATOM     37  N   UNL A   1      39.033  32.200  32.779  1.00  0.00    -0.354 N 
ATOM     38  C   UNL A   1      39.645  29.463  29.475  1.00  0.00     0.074 A 
ATOM     39  C   UNL A   1      38.720  29.738  28.394  1.00  0.00     0.031 C 
ATOM     40  C   UNL A   1      38.031  33.875  33.874  1.00  0.00     0.029 A 
ATOM     41  C   UNL A   1      39.089  32.878  33.970  1.00  0.00     0.049 A 
ATOM     42  H   UNL A   1      39.673  31.495  32.527  1.00  0.00     0.167 HD
ATOM     43  C   UNL A   1      40.612  28.516  29.447  1.00  0.00     0.037 A 
ATOM     44  C   UNL A   1      39.880  32.689  35.041  1.00  0.00     0.037 A 
ATOM     45  C   UNL A   1      41.532  28.264  30.527  1.00  0.00     0.049 A 
ATOM     46  C   UNL A   1      40.899  31.592  35.005  1.00  0.00     0.074 A 
ATOM     47  C   UNL A   1      42.559  27.338  30.588  1.00  0.00     0.029 A 
ATOM     48  N   UNL A   1      41.532  28.941  31.737  1.00  0.00    -0.354 N 
ATOM     49  N   UNL A   1      41.170  30.752  34.034  1.00  0.00    -0.248 NA
ATOM     50  C   UNL A   1      41.712  31.405  36.213  1.00  0.00     0.031 C 
ATOM     51  C   UNL A   1      43.157  27.430  31.851  1.00  0.00     0.029 A 
ATOM     52  C   UNL A   1      42.526  28.438  32.562  1.00  0.00     0.049 A 
ATOM     53  H   UNL A   1      40.916  29.670  31.976  1.00  0.00     0.167 HD
ATOM     54  C   UNL A   1      42.186  29.939  34.510  1.00  0.00     0.074 A 
ATOM     55  C   UNL A   1      42.496  30.400  35.850  1.00  0.00     0.031 C 
ATOM     56  C   UNL A   1      42.805  28.902  33.896  1.00  0.00     0.037 A 
BRANCH  43  57
ATOM     57  C   UNL A   1      40.708  27.659  28.221  1.00  0.00     0.057 A 
ATOM     58  C   UNL A   1      41.491  28.027  27.120  1.00  0.00     0.134 A 
ATOM     59  C   UNL A   1      40.050  26.424  28.165  1.00  0.00     0.134 A 
ATOM     60  F   UNL A   1      42.138  29.202  27.108  1.00  0.00    -0.206 F 
ATOM     61  C   UNL A   1      41.608  27.200  26.001  1.00  0.00     0.040 A 
ATOM     62  C   UNL A   1      40.174  25.580  27.060  1.00  0.00     0.040 A 
ATOM     63  F   UNL A   1      39.288  26.012  29.190  1.00  0.00    -0.206 F 
ATOM     64  C   UNL A   1      40.954  25.969  25.973  1.00  0.00     0.006 A 
ENDBRANCH  43  57
BRANCH  44  65
ATOM     65  C   UNL A   1      39.699  33.538  36.241  1.00  0.00     0.057 A 
ATOM     66  C   UNL A   1      40.356  34.766  36.364  1.00  0.00     0.134 A 
ATOM     67  C   UNL A   1      38.837  33.156  37.275  1.00  0.00     0.134 A 
ATOM     68  F   UNL A   1      41.206  35.176  35.412  1.00  0.00    -0.206 F 
ATOM     69  C   UNL A   1      40.162  35.586  37.477  1.00  0.00     0.040 A 
ATOM     70  C   UNL A   1      38.617  33.975  38.383  1.00  0.00     0.040 A 
ATOM     71  F   UNL A   1      38.175  31.991  37.209  1.00  0.00    -0.206 F 
ATOM     72  C   UNL A   1      39.285  35.194  38.486  1.00  0.00     0.006 A 
ENDBRANCH  44  65
BRANCH  56  73
ATOM     73  C   UNL A   1      43.879  28.208  34.675  1.00  0.00     0.057 A 
ATOM     74  C   UNL A   1      43.599  27.094  35.475  1.00  0.00     0.134 A 
ATOM     75  C   UNL A   1      45.205  28.652  34.615  1.00  0.00     0.134 A 
ATOM     76  F   UNL A   1      42.343  26.635  35.585  1.00  0.00    -0.206 F 
ATOM     77  C   UNL A   1      44.599  26.457  36.209  1.00  0.00     0.040 A 
ATOM     78  C   UNL A   1      46.218  28.010  35.330  1.00  0.00     0.040 A 
ATOM     79  F   UNL A   1      45.537  29.712  33.863  1.00  0.00    -0.206 F 
ATOM     80  C   UNL A   1      45.915  26.913  36.133  1.00  0.00     0.006 A 
ENDBRANCH  56  73
ENDBRANCH  30  31
ENDBRANCH  23  25
ENDBRANCH  22  23
ENDBRANCH  21  22
ENDBRANCH   1  21
TORSDOF 17
ENDMDL
MODEL 2
REMARK VINA RESULT:     -10.2      6.014     10.616
REMARK SMILES CCC1(CC)C[NH+]([C@H](CCS(C)(=O)=O)C(=O)OCCOC(=O)c2ccc(-c3c4nc(c(-c5c(F)cccc5F)c5ccc([nH]5)c(-c5c(F)cccc5F)c5nc(c(-c6c(F)cccc6F)c6ccc3[nH]6)C=C5)C=C4)cc2)C1
REMARK SMILES IDX 18 1 17 2 15 3 16 4 8 5 7 6 3 7 6 8 77 9 2 11 1 12 4 13 5 14
REMARK SMILES IDX 9 15 10 16 11 17 12 18 13 19 14 20 19 21 20 22 21 23 22 24
REMARK SMILES IDX 23 25 24 26 76 27 25 28 75 29 26 30 27 31 28 32 69 33 29 34
REMARK SMILES IDX 74 35 68 36 70 37 30 38 73 39 67 40 66 41 31 43 57 44 40 45
REMARK SMILES IDX 56 46 41 47 44 48 55 49 71 50 42 51 43 52 54 54 72 55 45 56
REMARK SMILES IDX 32 57 33 58 38 59 34 60 35 61 37 62 39 63 36 64 58 65 59 66
REMARK SMILES IDX 64 67 60 68 61 69 63 70 65 71 62 72 46 73 47 74 52 75 48 76
REMARK SMILES IDX 49 77 51 78 53 79 50 80
REMARK H PARENT 7 10 70 42 44 53
REMARK Flexibility Score: inf
ROOT
ATOM      1  C   UNL A   1      37.960  20.167  24.995  1.00  0.00     0.274 C 
ENDROOT
BRANCH   1   2
ATOM      2  O   UNL A   1      37.004  21.176  25.380  1.00  0.00    -0.458 OA
BRANCH   2   3
ATOM      3  C   UNL A   1      36.384  21.823  24.353  1.00  0.00     0.365 C 
ATOM      4  O   UNL A   1      36.971  22.538  23.546  1.00  0.00    -0.245 OA
BRANCH   3   5
ATOM      5  C   UNL A   1      34.848  21.596  24.315  1.00  0.00     0.296 C 
BRANCH   5   6
ATOM      6  N   UNL A   1      34.241  22.911  24.541  1.00  0.00    -0.322 N 
ATOM      7  C   UNL A   1      32.906  24.061  25.672  1.00  0.00     0.068 C 
ATOM      8  C   UNL A   1      34.325  23.428  25.907  1.00  0.00     0.275 C 
ATOM      9  C   UNL A   1      32.773  22.939  24.583  1.00  0.00     0.275 C 
ATOM     10  H   UNL A   1      34.732  23.398  23.791  1.00  0.00     0.348 HD
BRANCH   7  11
ATOM     11  C   UNL A   1      31.973  23.881  26.875  1.00  0.00     0.015 C 
ATOM     12  C   UNL A   1      30.513  23.804  26.457  1.00  0.00     0.005 C 
ENDBRANCH   7  11
BRANCH   7  13
ATOM     13  C   UNL A   1      32.960  25.491  25.088  1.00  0.00     0.015 C 
ATOM     14  C   UNL A   1      32.791  26.568  26.149  1.00  0.00     0.005 C 
ENDBRANCH   7  13
ENDBRANCH   5   6
BRANCH   5  15
ATOM     15  C   UNL A   1      34.356  20.340  25.098  1.00  0.00     0.094 C 
BRANCH  15  16
ATOM     16  C   UNL A   1      33.346  19.553  24.251  1.00  0.00     0.143 C 
BRANCH  16  17
ATOM     17  S   UNL A   1      33.532  17.781  24.093  1.00  0.00     0.147 S 
ATOM     18  C   UNL A   1      32.539  16.951  25.323  1.00  0.00     0.158 C 
ATOM     19  O   UNL A   1      32.982  17.412  22.800  1.00  0.00    -0.229 OA
ATOM     20  O   UNL A   1      34.927  17.484  24.382  1.00  0.00    -0.229 OA
ENDBRANCH  16  17
ENDBRANCH  15  16
ENDBRANCH   5  15
ENDBRANCH   3   5
ENDBRANCH   2   3
ENDBRANCH   1   2
BRANCH   1  21
ATOM     21  C   UNL A   1      39.305  20.311  25.723  1.00  0.00     0.275 C 
BRANCH  21  22
ATOM     22  O   UNL A   1      40.015  19.063  25.866  1.00  0.00    -0.458 OA
BRANCH  22  23
ATOM     23  C   UNL A   1      41.347  19.201  26.018  1.00  0.00     0.338 C 
ATOM     24  O   UNL A   1      42.198  18.362  25.751  1.00  0.00    -0.246 OA
BRANCH  23  25
ATOM     25  C   UNL A   1      41.734  20.552  26.423  1.00  0.00     0.060 A 
ATOM     26  C   UNL A   1      42.189  21.424  25.432  1.00  0.00     0.016 A 
ATOM     27  C   UNL A   1      41.813  20.897  27.770  1.00  0.00     0.016 A 
ATOM     28  C   UNL A   1      42.735  22.650  25.779  1.00  0.00     0.010 A 
ATOM     29  C   UNL A   1      42.329  22.147  28.119  1.00  0.00     0.010 A 
ATOM     30  C   UNL A   1      42.788  23.028  27.124  1.00  0.00    -0.014 A 
BRANCH  30  31
ATOM     31  C   UNL A   1      43.238  24.392  27.466  1.00  0.00     0.031 A 
ATOM     32  C   UNL A   1      42.266  25.443  27.896  1.00  0.00     0.074 A 
ATOM     33  C   UNL A   1      44.555  24.656  27.390  1.00  0.00     0.049 A 
ATOM     34  N   UNL A   1      42.484  26.710  28.136  1.00  0.00    -0.248 NA
ATOM     35  C   UNL A   1      40.870  25.021  28.085  1.00  0.00     0.031 C 
ATOM     36  C   UNL A   1      45.589  23.683  27.025  1.00  0.00     0.029 A 
ATOM     37  N   UNL A   1      45.249  25.815  27.613  1.00  0.00    -0.354 N 
ATOM     38  C   UNL A   1      41.252  27.246  28.485  1.00  0.00     0.074 A 
ATOM     39  C   UNL A   1      40.289  26.166  28.424  1.00  0.00     0.031 C 
ATOM     40  C   UNL A   1      46.785  24.288  27.050  1.00  0.00     0.029 A 
ATOM     41  C   UNL A   1      46.595  25.696  27.374  1.00  0.00     0.049 A 
ATOM     42  H   UNL A   1      44.825  26.651  27.914  1.00  0.00     0.167 HD
ATOM     43  C   UNL A   1      40.964  28.525  28.821  1.00  0.00     0.037 A 
ATOM     44  C   UNL A   1      47.563  26.628  27.375  1.00  0.00     0.037 A 
ATOM     45  C   UNL A   1      41.937  29.585  28.888  1.00  0.00     0.049 A 
ATOM     46  C   UNL A   1      47.203  28.047  27.689  1.00  0.00     0.074 A 
ATOM     47  C   UNL A   1      41.748  30.911  29.236  1.00  0.00     0.029 A 
ATOM     48  N   UNL A   1      43.286  29.438  28.597  1.00  0.00    -0.354 N 
ATOM     49  N   UNL A   1      46.031  28.549  27.999  1.00  0.00    -0.248 NA
ATOM     50  C   UNL A   1      48.291  29.032  27.641  1.00  0.00     0.031 C 
ATOM     51  C   UNL A   1      42.975  31.575  29.120  1.00  0.00     0.029 A 
ATOM     52  C   UNL A   1      43.936  30.654  28.735  1.00  0.00     0.049 A 
ATOM     53  H   UNL A   1      43.717  28.594  28.331  1.00  0.00     0.167 HD
ATOM     54  C   UNL A   1      46.239  29.906  28.187  1.00  0.00     0.074 A 
ATOM     55  C   UNL A   1      47.654  30.145  27.976  1.00  0.00     0.031 C 
ATOM     56  C   UNL A   1      45.340  30.869  28.503  1.00  0.00     0.037 A 
BRANCH  43  57
ATOM     57  C   UNL A   1      39.533  28.859  29.114  1.00  0.00     0.057 A 
ATOM     58  C   UNL A   1      38.652  29.288  28.113  1.00  0.00     0.134 A 
ATOM     59  C   UNL A   1      39.016  28.698  30.406  1.00  0.00     0.134 A 
ATOM     60  F   UNL A   1      39.087  29.471  26.858  1.00  0.00    -0.206 F 
ATOM     61  C   UNL A   1      37.309  29.554  28.390  1.00  0.00     0.040 A 
ATOM     62  C   UNL A   1      37.673  28.944  30.691  1.00  0.00     0.040 A 
ATOM     63  F   UNL A   1      39.808  28.286  31.408  1.00  0.00    -0.206 F 
ATOM     64  C   UNL A   1      36.815  29.375  29.681  1.00  0.00     0.006 A 
ENDBRANCH  43  57
BRANCH  44  65
ATOM     65  C   UNL A   1      48.949  26.241  27.026  1.00  0.00     0.057 A 
ATOM     66  C   UNL A   1      49.403  26.288  25.704  1.00  0.00     0.134 A 
ATOM     67  C   UNL A   1      49.863  25.850  28.013  1.00  0.00     0.134 A 
ATOM     68  F   UNL A   1      48.569  26.639  24.716  1.00  0.00    -0.206 F 
ATOM     69  C   UNL A   1      50.718  25.957  25.375  1.00  0.00     0.040 A 
ATOM     70  C   UNL A   1      51.186  25.537  27.701  1.00  0.00     0.040 A 
ATOM     71  F   UNL A   1      49.486  25.793  29.299  1.00  0.00    -0.206 F 
ATOM     72  C   UNL A   1      51.615  25.588  26.376  1.00  0.00     0.006 A 
ENDBRANCH  44  65
BRANCH  56  73
ATOM     73  C   UNL A   1      45.873  32.262  28.641  1.00  0.00     0.057 A 
ATOM     74  C   UNL A   1      46.368  32.738  29.861  1.00  0.00     0.134 A 
ATOM     75  C   UNL A   1      45.901  33.128  27.543  1.00  0.00     0.134 A 
ATOM     76  F   UNL A   1      46.351  31.958  30.952  1.00  0.00    -0.206 F 
ATOM     77  C   UNL A   1      46.854  34.040  29.989  1.00  0.00     0.040 A 
ATOM     78  C   UNL A   1      46.402  34.426  27.654  1.00  0.00     0.040 A 
ATOM     79  F   UNL A   1      45.443  32.729  26.346  1.00  0.00    -0.206 F 
ATOM     80  C   UNL A   1      46.876  34.886  28.881  1.00  0.00     0.006 A 
ENDBRANCH  56  73
ENDBRANCH  30  31
ENDBRANCH  23  25
ENDBRANCH  22  23
ENDBRANCH  21  22
ENDBRANCH   1  21
TORSDOF 17
ENDMDL
MODEL 3
REMARK VINA RESULT:     -10.1      5.510      9.805
REMARK SMILES CCC1(CC)C[NH+]([C@H](CCS(C)(=O)=O)C(=O)OCCOC(=O)c2ccc(-c3c4nc(c(-c5c(F)cccc5F)c5ccc([nH]5)c(-c5c(F)cccc5F)c5nc(c(-c6c(F)cccc6F)c6ccc3[nH]6)C=C5)C=C4)cc2)C1
REMARK SMILES IDX 18 1 17 2 15 3 16 4 8 5 7 6 3 7 6 8 77 9 2 11 1 12 4 13 5 14
REMARK SMILES IDX 9 15 10 16 11 17 12 18 13 19 14 20 19 21 20 22 21 23 22 24
REMARK SMILES IDX 23 25 24 26 76 27 25 28 75 29 26 30 27 31 28 32 69 33 29 34
REMARK SMILES IDX 74 35 68 36 70 37 30 38 73 39 67 40 66 41 31 43 57 44 40 45
REMARK SMILES IDX 56 46 41 47 44 48 55 49 71 50 42 51 43 52 54 54 72 55 45 56
REMARK SMILES IDX 32 57 33 58 38 59 34 60 35 61 37 62 39 63 36 64 58 65 59 66
REMARK SMILES IDX 64 67 60 68 61 69 63 70 65 71 62 72 46 73 47 74 52 75 48 76
REMARK SMILES IDX 49 77 51 78 53 79 50 80
REMARK H PARENT 7 10 70 42 44 53
REMARK Flexibility Score: inf
ROOT
ATOM      1  C   UNL A   1      37.948  21.043  25.327  1.00  0.00     0.274 C 
ENDROOT
BRANCH   1   2
ATOM      2  O   UNL A   1      36.722  21.093  24.567  1.00  0.00    -0.458 OA
BRANCH   2   3
ATOM      3  C   UNL A   1      35.614  21.476  25.260  1.00  0.00     0.365 C 
ATOM      4  O   UNL A   1      35.552  21.496  26.486  1.00  0.00    -0.245 OA
BRANCH   3   5
ATOM      5  C   UNL A   1      34.414  21.859  24.351  1.00  0.00     0.296 C 
BRANCH   5   6
ATOM      6  N   UNL A   1      34.103  23.256  24.663  1.00  0.00    -0.322 N 
ATOM      7  C   UNL A   1      33.504  25.128  23.941  1.00  0.00     0.068 C 
ATOM      8  C   UNL A   1      32.806  23.744  24.193  1.00  0.00     0.275 C 
ATOM      9  C   UNL A   1      34.810  24.264  23.862  1.00  0.00     0.275 C 
ATOM     10  H   UNL A   1      34.281  23.196  25.666  1.00  0.00     0.348 HD
BRANCH   7  11
ATOM     11  C   UNL A   1      33.089  25.763  22.608  1.00  0.00     0.015 C 
ATOM     12  C   UNL A   1      33.634  27.175  22.456  1.00  0.00     0.005 C 
ENDBRANCH   7  11
BRANCH   7  13
ATOM     13  C   UNL A   1      33.455  26.072  25.164  1.00  0.00     0.015 C 
ATOM     14  C   UNL A   1      32.043  26.525  25.504  1.00  0.00     0.005 C 
ENDBRANCH   7  13
ENDBRANCH   5   6
BRANCH   5  15
ATOM     15  C   UNL A   1      33.287  20.783  24.275  1.00  0.00     0.094 C 
BRANCH  15  16
ATOM     16  C   UNL A   1      33.829  19.419  24.724  1.00  0.00     0.143 C 
BRANCH  16  17
ATOM     17  S   UNL A   1      33.051  17.927  24.116  1.00  0.00     0.147 S 
ATOM     18  C   UNL A   1      32.298  18.236  22.528  1.00  0.00     0.158 C 
ATOM     19  O   UNL A   1      34.111  16.959  23.891  1.00  0.00    -0.229 OA
ATOM     20  O   UNL A   1      31.984  17.606  25.052  1.00  0.00    -0.229 OA
ENDBRANCH  16  17
ENDBRANCH  15  16
ENDBRANCH   5  15
ENDBRANCH   3   5
ENDBRANCH   2   3
ENDBRANCH   1   2
BRANCH   1  21
ATOM     21  C   UNL A   1      38.815  19.823  24.980  1.00  0.00     0.275 C 
BRANCH  21  22
ATOM     22  O   UNL A   1      39.591  19.337  26.094  1.00  0.00    -0.458 OA
BRANCH  22  23
ATOM     23  C   UNL A   1      40.904  19.637  26.023  1.00  0.00     0.338 C 
ATOM     24  O   UNL A   1      41.767  18.983  25.452  1.00  0.00    -0.246 OA
BRANCH  23  25
ATOM     25  C   UNL A   1      41.219  20.944  26.598  1.00  0.00     0.060 A 
ATOM     26  C   UNL A   1      41.768  21.912  25.755  1.00  0.00     0.016 A 
ATOM     27  C   UNL A   1      41.137  21.157  27.972  1.00  0.00     0.016 A 
ATOM     28  C   UNL A   1      42.250  23.102  26.279  1.00  0.00     0.010 A 
ATOM     29  C   UNL A   1      41.588  22.370  28.497  1.00  0.00     0.010 A 
ATOM     30  C   UNL A   1      42.141  23.347  27.651  1.00  0.00    -0.014 A 
BRANCH  30  31
ATOM     31  C   UNL A   1      42.526  24.674  28.173  1.00  0.00     0.031 A 
ATOM     32  C   UNL A   1      41.503  25.736  28.417  1.00  0.00     0.074 A 
ATOM     33  C   UNL A   1      43.828  24.893  28.433  1.00  0.00     0.049 A 
ATOM     34  N   UNL A   1      41.685  26.980  28.777  1.00  0.00    -0.248 NA
ATOM     35  C   UNL A   1      40.094  25.355  28.238  1.00  0.00     0.031 C 
ATOM     36  C   UNL A   1      44.897  23.904  28.270  1.00  0.00     0.029 A 
ATOM     37  N   UNL A   1      44.473  26.013  28.885  1.00  0.00    -0.354 N 
ATOM     38  C   UNL A   1      40.418  27.541  28.849  1.00  0.00     0.074 A 
ATOM     39  C   UNL A   1      39.473  26.501  28.493  1.00  0.00     0.031 C 
ATOM     40  C   UNL A   1      46.065  24.462  28.620  1.00  0.00     0.029 A 
ATOM     41  C   UNL A   1      45.833  25.857  28.971  1.00  0.00     0.049 A 
ATOM     42  H   UNL A   1      44.008  26.847  29.124  1.00  0.00     0.167 HD
ATOM     43  C   UNL A   1      40.085  28.811  29.181  1.00  0.00     0.037 A 
ATOM     44  C   UNL A   1      46.793  26.752  29.261  1.00  0.00     0.037 A 
ATOM     45  C   UNL A   1      41.037  29.829  29.544  1.00  0.00     0.049 A 
ATOM     46  C   UNL A   1      46.399  28.165  29.563  1.00  0.00     0.074 A 
ATOM     47  C   UNL A   1      40.799  31.141  29.914  1.00  0.00     0.029 A 
ATOM     48  N   UNL A   1      42.412  29.648  29.579  1.00  0.00    -0.354 N 
ATOM     49  N   UNL A   1      45.200  28.693  29.611  1.00  0.00    -0.248 NA
ATOM     50  C   UNL A   1      47.488  29.110  29.838  1.00  0.00     0.031 C 
ATOM     51  C   UNL A   1      42.032  31.765  30.138  1.00  0.00     0.029 A 
ATOM     52  C   UNL A   1      43.037  30.831  29.942  1.00  0.00     0.049 A 
ATOM     53  H   UNL A   1      42.876  28.805  29.375  1.00  0.00     0.167 HD
ATOM     54  C   UNL A   1      45.386  30.029  29.924  1.00  0.00     0.074 A 
ATOM     55  C   UNL A   1      46.815  30.227  30.075  1.00  0.00     0.031 C 
ATOM     56  C   UNL A   1      44.459  31.007  30.070  1.00  0.00     0.037 A 
BRANCH  43  57
ATOM     57  C   UNL A   1      38.634  29.181  29.139  1.00  0.00     0.057 A 
ATOM     58  C   UNL A   1      37.823  29.131  30.281  1.00  0.00     0.134 A 
ATOM     59  C   UNL A   1      38.053  29.644  27.952  1.00  0.00     0.134 A 
ATOM     60  F   UNL A   1      38.317  28.687  31.446  1.00  0.00    -0.206 F 
ATOM     61  C   UNL A   1      36.483  29.521  30.239  1.00  0.00     0.040 A 
ATOM     62  C   UNL A   1      36.720  30.053  27.902  1.00  0.00     0.040 A 
ATOM     63  F   UNL A   1      38.777  29.719  26.825  1.00  0.00    -0.206 F 
ATOM     64  C   UNL A   1      35.930  29.990  29.049  1.00  0.00     0.006 A 
ENDBRANCH  43  57
BRANCH  44  65
ATOM     65  C   UNL A   1      48.213  26.333  29.236  1.00  0.00     0.057 A 
ATOM     66  C   UNL A   1      48.974  26.427  28.066  1.00  0.00     0.134 A 
ATOM     67  C   UNL A   1      48.852  25.864  30.390  1.00  0.00     0.134 A 
ATOM     68  F   UNL A   1      48.412  26.855  26.927  1.00  0.00    -0.206 F 
ATOM     69  C   UNL A   1      50.322  26.066  28.045  1.00  0.00     0.040 A 
ATOM     70  C   UNL A   1      50.204  25.520  30.388  1.00  0.00     0.040 A 
ATOM     71  F   UNL A   1      48.174  25.759  31.543  1.00  0.00    -0.206 F 
ATOM     72  C   UNL A   1      50.942  25.618  29.211  1.00  0.00     0.006 A 
ENDBRANCH  44  65
BRANCH  56  73
ATOM     73  C   UNL A   1      44.974  32.370  30.415  1.00  0.00     0.057 A 
ATOM     74  C   UNL A   1      45.265  33.315  29.423  1.00  0.00     0.134 A 
ATOM     75  C   UNL A   1      45.171  32.743  31.749  1.00  0.00     0.134 A 
ATOM     76  F   UNL A   1      45.113  33.007  28.127  1.00  0.00    -0.206 F 
ATOM     77  C   UNL A   1      45.756  34.580  29.747  1.00  0.00     0.040 A 
ATOM     78  C   UNL A   1      45.642  34.013  32.086  1.00  0.00     0.040 A 
ATOM     79  F   UNL A   1      44.907  31.883  32.745  1.00  0.00    -0.206 F 
ATOM     80  C   UNL A   1      45.941  34.933  31.083  1.00  0.00     0.006 A 
ENDBRANCH  56  73
ENDBRANCH  30  31
ENDBRANCH  23  25
ENDBRANCH  22  23
ENDBRANCH  21  22
ENDBRANCH   1  21
TORSDOF 17
ENDMDL
