MODEL 1
REMARK VINA RESULT:     -11.3      0.000      0.000
REMARK SMILES C[C@@H](C(=O)OCCOC(=O)c1ccc(-c2c3nc(c(-c4c(F)cccc4F)c4ccc([nH]4)c(-c4c(F)cccc4F)c4nc(c(-c5c(F)cccc5F)c5ccc2[nH]5)C=C4)C=C3)cc1)c1ccc(Cc2cccs2)cc1F
REMARK SMILES IDX 6 1 5 2 3 3 4 4 2 5 1 6 65 7 66 8 76 9 67 10 75 11 77 12
REMARK SMILES IDX 68 13 69 14 70 15 71 16 74 17 72 18 73 19 7 20 8 21 9 22
REMARK SMILES IDX 10 23 11 24 12 25 64 26 13 27 63 28 14 29 15 30 16 31 57 32
REMARK SMILES IDX 17 33 62 34 56 35 58 36 18 37 61 38 55 39 54 40 19 42 45 43
REMARK SMILES IDX 28 44 44 45 29 46 32 47 43 48 59 49 30 50 31 51 42 53 60 54
REMARK SMILES IDX 33 55 20 56 21 57 26 58 22 59 23 60 25 61 27 62 24 63 46 64
REMARK SMILES IDX 47 65 52 66 48 67 49 68 51 69 53 70 50 71 34 72 35 73 40 74
REMARK SMILES IDX 36 75 37 76 39 77 41 78 38 79
REMARK H PARENT 58 41 32 52
REMARK Flexibility Score: inf
ROOT
ATOM      1  C   UNL A   1      31.831  28.225  27.584  1.00  0.00     0.274 C 
ENDROOT
BRANCH   1   2
ATOM      2  O   UNL A   1      31.533  26.945  26.986  1.00  0.00    -0.462 OA
BRANCH   2   3
ATOM      3  C   UNL A   1      32.474  26.419  26.154  1.00  0.00     0.313 C 
ATOM      4  O   UNL A   1      33.682  26.576  26.305  1.00  0.00    -0.252 OA
BRANCH   3   5
ATOM      5  C   UNL A   1      31.861  25.658  24.965  1.00  0.00     0.129 C 
ATOM      6  C   UNL A   1      32.923  25.107  24.007  1.00  0.00     0.025 C 
BRANCH   5   7
ATOM      7  C   UNL A   1      30.742  26.462  24.298  1.00  0.00     0.002 A 
ATOM      8  C   UNL A   1      29.414  26.019  24.438  1.00  0.00     0.008 A 
ATOM      9  C   UNL A   1      30.943  27.649  23.585  1.00  0.00     0.127 A 
ATOM     10  C   UNL A   1      28.339  26.759  23.927  1.00  0.00     0.004 A 
ATOM     11  C   UNL A   1      29.877  28.379  23.047  1.00  0.00     0.043 A 
ATOM     12  F   UNL A   1      32.174  28.156  23.430  1.00  0.00    -0.207 F 
ATOM     13  C   UNL A   1      28.557  27.957  23.234  1.00  0.00    -0.040 A 
BRANCH  13  14
ATOM     14  C   UNL A   1      27.396  28.834  22.806  1.00  0.00     0.082 C 
BRANCH  14  15
ATOM     15  C   UNL A   1      27.730  30.288  22.651  1.00  0.00     0.009 A 
ATOM     16  C   UNL A   1      27.837  31.258  23.630  1.00  0.00     0.016 A 
ATOM     17  S   UNL A   1      28.134  30.915  21.107  1.00  0.00    -0.149 S 
ATOM     18  C   UNL A   1      28.262  32.513  23.110  1.00  0.00     0.012 A 
ATOM     19  C   UNL A   1      28.475  32.461  21.752  1.00  0.00     0.065 A 
ENDBRANCH  14  15
ENDBRANCH  13  14
ENDBRANCH   5   7
ENDBRANCH   3   5
ENDBRANCH   2   3
ENDBRANCH   1   2
BRANCH   1  20
ATOM     20  C   UNL A   1      31.554  29.342  26.582  1.00  0.00     0.275 C 
BRANCH  20  21
ATOM     21  O   UNL A   1      32.802  29.959  26.227  1.00  0.00    -0.458 OA
BRANCH  21  22
ATOM     22  C   UNL A   1      33.160  31.048  26.945  1.00  0.00     0.338 C 
ATOM     23  O   UNL A   1      32.518  32.069  27.114  1.00  0.00    -0.246 OA
BRANCH  22  24
ATOM     24  C   UNL A   1      34.506  30.829  27.514  1.00  0.00     0.060 A 
ATOM     25  C   UNL A   1      34.986  29.538  27.716  1.00  0.00     0.016 A 
ATOM     26  C   UNL A   1      35.267  31.924  27.928  1.00  0.00     0.016 A 
ATOM     27  C   UNL A   1      36.183  29.341  28.401  1.00  0.00     0.010 A 
ATOM     28  C   UNL A   1      36.508  31.719  28.545  1.00  0.00     0.010 A 
ATOM     29  C   UNL A   1      36.964  30.421  28.837  1.00  0.00    -0.014 A 
BRANCH  29  30
ATOM     30  C   UNL A   1      38.197  30.196  29.651  1.00  0.00     0.031 A 
ATOM     31  C   UNL A   1      39.365  29.439  29.067  1.00  0.00     0.074 A 
ATOM     32  C   UNL A   1      38.321  30.699  30.898  1.00  0.00     0.049 A 
ATOM     33  N   UNL A   1      40.423  28.952  29.668  1.00  0.00    -0.248 NA
ATOM     34  C   UNL A   1      39.335  29.182  27.618  1.00  0.00     0.031 C 
ATOM     35  C   UNL A   1      37.323  31.510  31.595  1.00  0.00     0.029 A 
ATOM     36  N   UNL A   1      39.361  30.618  31.794  1.00  0.00    -0.354 N 
ATOM     37  C   UNL A   1      41.132  28.259  28.693  1.00  0.00     0.074 A 
ATOM     38  C   UNL A   1      40.397  28.408  27.455  1.00  0.00     0.031 C 
ATOM     39  C   UNL A   1      37.822  31.907  32.775  1.00  0.00     0.029 A 
ATOM     40  C   UNL A   1      39.130  31.291  32.970  1.00  0.00     0.049 A 
ATOM     41  H   UNL A   1      40.193  30.125  31.612  1.00  0.00     0.167 HD
ATOM     42  C   UNL A   1      42.282  27.554  28.820  1.00  0.00     0.037 A 
ATOM     43  C   UNL A   1      39.858  31.370  34.101  1.00  0.00     0.037 A 
ATOM     44  C   UNL A   1      43.066  27.477  30.025  1.00  0.00     0.049 A 
ATOM     45  C   UNL A   1      41.135  30.589  34.220  1.00  0.00     0.074 A 
ATOM     46  C   UNL A   1      44.243  26.780  30.247  1.00  0.00     0.029 A 
ATOM     47  N   UNL A   1      42.773  28.148  31.200  1.00  0.00    -0.354 N 
ATOM     48  N   UNL A   1      41.724  29.831  33.330  1.00  0.00    -0.248 NA
ATOM     49  C   UNL A   1      41.825  30.643  35.518  1.00  0.00     0.031 C 
ATOM     50  C   UNL A   1      44.654  27.018  31.563  1.00  0.00     0.029 A 
ATOM     51  C   UNL A   1      43.747  27.885  32.150  1.00  0.00     0.049 A 
ATOM     52  H   UNL A   1      41.990  28.727  31.340  1.00  0.00     0.167 HD
ATOM     53  C   UNL A   1      42.848  29.312  33.960  1.00  0.00     0.074 A 
ATOM     54  C   UNL A   1      42.876  29.865  35.297  1.00  0.00     0.031 C 
ATOM     55  C   UNL A   1      43.764  28.439  33.478  1.00  0.00     0.037 A 
BRANCH  42  56
ATOM     56  C   UNL A   1      42.750  26.770  27.630  1.00  0.00     0.057 A 
ATOM     57  C   UNL A   1      42.367  25.443  27.409  1.00  0.00     0.134 A 
ATOM     58  C   UNL A   1      43.565  27.378  26.664  1.00  0.00     0.134 A 
ATOM     59  F   UNL A   1      41.601  24.799  28.303  1.00  0.00    -0.206 F 
ATOM     60  C   UNL A   1      42.790  24.741  26.277  1.00  0.00     0.040 A 
ATOM     61  C   UNL A   1      43.976  26.695  25.519  1.00  0.00     0.040 A 
ATOM     62  F   UNL A   1      43.961  28.651  26.812  1.00  0.00    -0.206 F 
ATOM     63  C   UNL A   1      43.592  25.371  25.325  1.00  0.00     0.006 A 
ENDBRANCH  42  56
BRANCH  43  64
ATOM     64  C   UNL A   1      39.366  32.184  35.242  1.00  0.00     0.057 A 
ATOM     65  C   UNL A   1      38.535  31.626  36.219  1.00  0.00     0.134 A 
ATOM     66  C   UNL A   1      39.714  33.533  35.382  1.00  0.00     0.134 A 
ATOM     67  F   UNL A   1      38.145  30.346  36.123  1.00  0.00    -0.206 F 
ATOM     68  C   UNL A   1      38.065  32.381  37.294  1.00  0.00     0.040 A 
ATOM     69  C   UNL A   1      39.274  34.292  36.466  1.00  0.00     0.040 A 
ATOM     70  F   UNL A   1      40.505  34.125  34.476  1.00  0.00    -0.206 F 
ATOM     71  C   UNL A   1      38.442  33.715  37.425  1.00  0.00     0.006 A 
ENDBRANCH  43  64
BRANCH  55  72
ATOM     72  C   UNL A   1      44.874  28.036  34.398  1.00  0.00     0.057 A 
ATOM     73  C   UNL A   1      44.775  26.902  35.214  1.00  0.00     0.134 A 
ATOM     74  C   UNL A   1      46.065  28.771  34.452  1.00  0.00     0.134 A 
ATOM     75  F   UNL A   1      43.653  26.165  35.217  1.00  0.00    -0.206 F 
ATOM     76  C   UNL A   1      45.813  26.523  36.066  1.00  0.00     0.040 A 
ATOM     77  C   UNL A   1      47.118  28.392  35.285  1.00  0.00     0.040 A 
ATOM     78  F   UNL A   1      46.224  29.864  33.692  1.00  0.00    -0.206 F 
ATOM     79  C   UNL A   1      46.991  27.267  36.099  1.00  0.00     0.006 A 
ENDBRANCH  55  72
ENDBRANCH  29  30
ENDBRANCH  22  24
ENDBRANCH  21  22
ENDBRANCH  20  21
ENDBRANCH   1  20
TORSDOF 14
ENDMDL
MODEL 2
REMARK VINA RESULT:     -11.2      2.351      4.254
REMARK SMILES C[C@@H](C(=O)OCCOC(=O)c1ccc(-c2c3nc(c(-c4c(F)cccc4F)c4ccc([nH]4)c(-c4c(F)cccc4F)c4nc(c(-c5c(F)cccc5F)c5ccc2[nH]5)C=C4)C=C3)cc1)c1ccc(Cc2cccs2)cc1F
REMARK SMILES IDX 6 1 5 2 3 3 4 4 2 5 1 6 65 7 66 8 76 9 67 10 75 11 77 12
REMARK SMILES IDX 68 13 69 14 70 15 71 16 74 17 72 18 73 19 7 20 8 21 9 22
REMARK SMILES IDX 10 23 11 24 12 25 64 26 13 27 63 28 14 29 15 30 16 31 57 32
REMARK SMILES IDX 17 33 62 34 56 35 58 36 18 37 61 38 55 39 54 40 19 42 45 43
REMARK SMILES IDX 28 44 44 45 29 46 32 47 43 48 59 49 30 50 31 51 42 53 60 54
REMARK SMILES IDX 33 55 20 56 21 57 26 58 22 59 23 60 25 61 27 62 24 63 46 64
REMARK SMILES IDX 47 65 52 66 48 67 49 68 51 69 53 70 50 71 34 72 35 73 40 74
REMARK SMILES IDX 36 75 37 76 39 77 41 78 38 79
REMARK H PARENT 58 41 32 52
REMARK Flexibility Score: inf
ROOT
ATOM      1  C   UNL A   1      31.123  29.064  24.975  1.00  0.00     0.274 C 
ENDROOT
BRANCH   1   2
ATOM      2  O   UNL A   1      31.025  28.976  23.536  1.00  0.00    -0.462 OA
BRANCH   2   3
ATOM      3  C   UNL A   1      31.685  27.948  22.935  1.00  0.00     0.313 C 
ATOM      4  O   UNL A   1      31.145  27.132  22.194  1.00  0.00    -0.252 OA
BRANCH   3   5
ATOM      5  C   UNL A   1      33.169  27.877  23.334  1.00  0.00     0.129 C 
ATOM      6  C   UNL A   1      34.103  28.372  22.224  1.00  0.00     0.025 C 
BRANCH   5   7
ATOM      7  C   UNL A   1      33.530  26.510  23.922  1.00  0.00     0.002 A 
ATOM      8  C   UNL A   1      33.814  25.448  23.044  1.00  0.00     0.008 A 
ATOM      9  C   UNL A   1      33.645  26.248  25.292  1.00  0.00     0.127 A 
ATOM     10  C   UNL A   1      34.236  24.200  23.519  1.00  0.00     0.004 A 
ATOM     11  C   UNL A   1      34.039  24.996  25.776  1.00  0.00     0.043 A 
ATOM     12  F   UNL A   1      33.421  27.213  26.195  1.00  0.00    -0.207 F 
ATOM     13  C   UNL A   1      34.367  23.961  24.893  1.00  0.00    -0.040 A 
BRANCH  13  14
ATOM     14  C   UNL A   1      34.960  22.664  25.408  1.00  0.00     0.082 C 
BRANCH  14  15
ATOM     15  C   UNL A   1      36.448  22.686  25.603  1.00  0.00     0.009 A 
ATOM     16  C   UNL A   1      37.228  23.671  26.178  1.00  0.00     0.016 A 
ATOM     17  S   UNL A   1      37.389  21.320  25.170  1.00  0.00    -0.149 S 
ATOM     18  C   UNL A   1      38.599  23.297  26.270  1.00  0.00     0.012 A 
ATOM     19  C   UNL A   1      38.821  22.034  25.773  1.00  0.00     0.065 A 
ENDBRANCH  14  15
ENDBRANCH  13  14
ENDBRANCH   5   7
ENDBRANCH   3   5
ENDBRANCH   2   3
ENDBRANCH   1   2
BRANCH   1  20
ATOM     20  C   UNL A   1      31.389  30.509  25.388  1.00  0.00     0.275 C 
BRANCH  20  21
ATOM     21  O   UNL A   1      31.937  30.512  26.717  1.00  0.00    -0.458 OA
BRANCH  21  22
ATOM     22  C   UNL A   1      32.521  31.662  27.123  1.00  0.00     0.338 C 
ATOM     23  O   UNL A   1      32.058  32.787  27.070  1.00  0.00    -0.246 OA
BRANCH  22  24
ATOM     24  C   UNL A   1      33.866  31.359  27.652  1.00  0.00     0.060 A 
ATOM     25  C   UNL A   1      34.287  30.040  27.800  1.00  0.00     0.016 A 
ATOM     26  C   UNL A   1      34.689  32.400  28.085  1.00  0.00     0.016 A 
ATOM     27  C   UNL A   1      35.487  29.761  28.449  1.00  0.00     0.010 A 
ATOM     28  C   UNL A   1      35.932  32.114  28.665  1.00  0.00     0.010 A 
ATOM     29  C   UNL A   1      36.330  30.787  28.902  1.00  0.00    -0.014 A 
BRANCH  29  30
ATOM     30  C   UNL A   1      37.568  30.474  29.680  1.00  0.00     0.031 A 
ATOM     31  C   UNL A   1      38.698  29.709  29.032  1.00  0.00     0.074 A 
ATOM     32  C   UNL A   1      37.732  30.902  30.949  1.00  0.00     0.049 A 
ATOM     33  N   UNL A   1      39.747  29.153  29.586  1.00  0.00    -0.248 NA
ATOM     34  C   UNL A   1      38.633  29.534  27.573  1.00  0.00     0.031 C 
ATOM     35  C   UNL A   1      36.776  31.709  31.708  1.00  0.00     0.029 A 
ATOM     36  N   UNL A   1      38.783  30.736  31.820  1.00  0.00    -0.354 N 
ATOM     37  C   UNL A   1      40.414  28.491  28.561  1.00  0.00     0.074 A 
ATOM     38  C   UNL A   1      39.664  28.734  27.347  1.00  0.00     0.031 C 
ATOM     39  C   UNL A   1      37.308  32.022  32.899  1.00  0.00     0.029 A 
ATOM     40  C   UNL A   1      38.597  31.351  33.034  1.00  0.00     0.049 A 
ATOM     41  H   UNL A   1      39.593  30.225  31.594  1.00  0.00     0.167 HD
ATOM     42  C   UNL A   1      41.540  27.740  28.627  1.00  0.00     0.037 A 
ATOM     43  C   UNL A   1      39.347  31.342  34.154  1.00  0.00     0.037 A 
ATOM     44  C   UNL A   1      42.341  27.570  29.810  1.00  0.00     0.049 A 
ATOM     45  C   UNL A   1      40.597  30.512  34.205  1.00  0.00     0.074 A 
ATOM     46  C   UNL A   1      43.497  26.821  29.972  1.00  0.00     0.029 A 
ATOM     47  N   UNL A   1      42.094  28.185  31.026  1.00  0.00    -0.354 N 
ATOM     48  N   UNL A   1      41.143  29.783  33.265  1.00  0.00    -0.248 NA
ATOM     49  C   UNL A   1      41.310  30.469  35.491  1.00  0.00     0.031 C 
ATOM     50  C   UNL A   1      43.938  26.971  31.291  1.00  0.00     0.029 A 
ATOM     51  C   UNL A   1      43.074  27.836  31.941  1.00  0.00     0.049 A 
ATOM     52  H   UNL A   1      41.334  28.782  31.212  1.00  0.00     0.167 HD
ATOM     53  C   UNL A   1      42.257  29.192  33.843  1.00  0.00     0.074 A 
ATOM     54  C   UNL A   1      42.329  29.669  35.208  1.00  0.00     0.031 C 
ATOM     55  C   UNL A   1      43.133  28.314  33.297  1.00  0.00     0.037 A 
BRANCH  42  56
ATOM     56  C   UNL A   1      41.959  27.007  27.387  1.00  0.00     0.057 A 
ATOM     57  C   UNL A   1      42.791  27.583  26.421  1.00  0.00     0.134 A 
ATOM     58  C   UNL A   1      41.554  25.680  27.185  1.00  0.00     0.134 A 
ATOM     59  F   UNL A   1      43.200  28.854  26.547  1.00  0.00    -0.206 F 
ATOM     60  C   UNL A   1      43.193  26.871  25.288  1.00  0.00     0.040 A 
ATOM     61  C   UNL A   1      41.967  24.951  26.070  1.00  0.00     0.040 A 
ATOM     62  F   UNL A   1      40.762  25.068  28.078  1.00  0.00    -0.206 F 
ATOM     63  C   UNL A   1      42.785  25.548  25.114  1.00  0.00     0.006 A 
ENDBRANCH  42  56
BRANCH  43  64
ATOM     64  C   UNL A   1      38.904  32.108  35.347  1.00  0.00     0.057 A 
ATOM     65  C   UNL A   1      38.208  31.483  36.386  1.00  0.00     0.134 A 
ATOM     66  C   UNL A   1      39.165  33.478  35.474  1.00  0.00     0.134 A 
ATOM     67  F   UNL A   1      37.903  30.179  36.307  1.00  0.00    -0.206 F 
ATOM     68  C   UNL A   1      37.785  32.193  37.511  1.00  0.00     0.040 A 
ATOM     69  C   UNL A   1      38.773  34.194  36.605  1.00  0.00     0.040 A 
ATOM     70  F   UNL A   1      39.826  34.134  34.510  1.00  0.00    -0.206 F 
ATOM     71  C   UNL A   1      38.076  33.550  37.627  1.00  0.00     0.006 A 
ENDBRANCH  43  64
BRANCH  55  72
ATOM     72  C   UNL A   1      44.244  27.823  34.172  1.00  0.00     0.057 A 
ATOM     73  C   UNL A   1      44.131  26.632  34.899  1.00  0.00     0.134 A 
ATOM     74  C   UNL A   1      45.448  28.531  34.270  1.00  0.00     0.134 A 
ATOM     75  F   UNL A   1      42.997  25.915  34.857  1.00  0.00    -0.206 F 
ATOM     76  C   UNL A   1      45.171  26.170  35.709  1.00  0.00     0.040 A 
ATOM     77  C   UNL A   1      46.501  28.071  35.062  1.00  0.00     0.040 A 
ATOM     78  F   UNL A   1      45.620  29.677  33.595  1.00  0.00    -0.206 F 
ATOM     79  C   UNL A   1      46.362  26.889  35.788  1.00  0.00     0.006 A 
ENDBRANCH  55  72
ENDBRANCH  29  30
ENDBRANCH  22  24
ENDBRANCH  21  22
ENDBRANCH  20  21
ENDBRANCH   1  20
TORSDOF 14
ENDMDL
MODEL 3
REMARK VINA RESULT:     -11.1      4.362      8.638
REMARK SMILES C[C@@H](C(=O)OCCOC(=O)c1ccc(-c2c3nc(c(-c4c(F)cccc4F)c4ccc([nH]4)c(-c4c(F)cccc4F)c4nc(c(-c5c(F)cccc5F)c5ccc2[nH]5)C=C4)C=C3)cc1)c1ccc(Cc2cccs2)cc1F
REMARK SMILES IDX 6 1 5 2 3 3 4 4 2 5 1 6 65 7 66 8 76 9 67 10 75 11 77 12
REMARK SMILES IDX 68 13 69 14 70 15 71 16 74 17 72 18 73 19 7 20 8 21 9 22
REMARK SMILES IDX 10 23 11 24 12 25 64 26 13 27 63 28 14 29 15 30 16 31 57 32
REMARK SMILES IDX 17 33 62 34 56 35 58 36 18 37 61 38 55 39 54 40 19 42 45 43
REMARK SMILES IDX 28 44 44 45 29 46 32 47 43 48 59 49 30 50 31 51 42 53 60 54
REMARK SMILES IDX 33 55 20 56 21 57 26 58 22 59 23 60 25 61 27 62 24 63 46 64
REMARK SMILES IDX 47 65 52 66 48 67 49 68 51 69 53 70 50 71 34 72 35 73 40 74
REMARK SMILES IDX 36 75 37 76 39 77 41 78 38 79
REMARK H PARENT 58 41 32 52
REMARK Flexibility Score: inf
ROOT
ATOM      1  C   UNL A   1      34.897  20.296  25.001  1.00  0.00     0.274 C 
ENDROOT
BRANCH   1   2
ATOM      2  O   UNL A   1      33.718  21.008  24.566  1.00  0.00    -0.462 OA
BRANCH   2   3
ATOM      3  C   UNL A   1      32.877  21.461  25.536  1.00  0.00     0.313 C 
ATOM      4  O   UNL A   1      31.685  21.172  25.595  1.00  0.00    -0.252 OA
BRANCH   3   5
ATOM      5  C   UNL A   1      33.564  22.427  26.518  1.00  0.00     0.129 C 
ATOM      6  C   UNL A   1      33.190  22.147  27.978  1.00  0.00     0.025 C 
BRANCH   5   7
ATOM      7  C   UNL A   1      33.408  23.884  26.077  1.00  0.00     0.002 A 
ATOM      8  C   UNL A   1      34.501  24.530  25.471  1.00  0.00     0.008 A 
ATOM      9  C   UNL A   1      32.223  24.619  26.195  1.00  0.00     0.127 A 
ATOM     10  C   UNL A   1      34.393  25.832  24.966  1.00  0.00     0.004 A 
ATOM     11  C   UNL A   1      32.115  25.931  25.718  1.00  0.00     0.043 A 
ATOM     12  F   UNL A   1      31.125  24.070  26.733  1.00  0.00    -0.207 F 
ATOM     13  C   UNL A   1      33.193  26.546  25.072  1.00  0.00    -0.040 A 
BRANCH  13  14
ATOM     14  C   UNL A   1      33.025  27.896  24.403  1.00  0.00     0.082 C 
BRANCH  14  15
ATOM     15  C   UNL A   1      32.788  29.041  25.344  1.00  0.00     0.009 A 
ATOM     16  C   UNL A   1      31.723  29.921  25.381  1.00  0.00     0.016 A 
ATOM     17  S   UNL A   1      33.878  29.329  26.635  1.00  0.00    -0.149 S 
ATOM     18  C   UNL A   1      31.800  30.825  26.478  1.00  0.00     0.012 A 
ATOM     19  C   UNL A   1      32.916  30.600  27.251  1.00  0.00     0.065 A 
ENDBRANCH  14  15
ENDBRANCH  13  14
ENDBRANCH   5   7
ENDBRANCH   3   5
ENDBRANCH   2   3
ENDBRANCH   1   2
BRANCH   1  20
ATOM     20  C   UNL A   1      36.149  21.054  24.569  1.00  0.00     0.275 C 
BRANCH  20  21
ATOM     21  O   UNL A   1      36.853  21.484  25.746  1.00  0.00    -0.458 OA
BRANCH  21  22
ATOM     22  C   UNL A   1      38.189  21.275  25.756  1.00  0.00     0.338 C 
ATOM     23  O   UNL A   1      38.787  20.285  25.372  1.00  0.00    -0.246 OA
BRANCH  22  24
ATOM     24  C   UNL A   1      38.859  22.456  26.336  1.00  0.00     0.060 A 
ATOM     25  C   UNL A   1      38.357  23.735  26.108  1.00  0.00     0.016 A 
ATOM     26  C   UNL A   1      40.048  22.297  27.048  1.00  0.00     0.016 A 
ATOM     27  C   UNL A   1      39.083  24.851  26.519  1.00  0.00     0.010 A 
ATOM     28  C   UNL A   1      40.732  23.421  27.528  1.00  0.00     0.010 A 
ATOM     29  C   UNL A   1      40.286  24.720  27.228  1.00  0.00    -0.014 A 
BRANCH  29  30
ATOM     30  C   UNL A   1      41.101  25.923  27.581  1.00  0.00     0.031 A 
ATOM     31  C   UNL A   1      40.529  26.989  28.485  1.00  0.00     0.074 A 
ATOM     32  C   UNL A   1      42.372  26.065  27.151  1.00  0.00     0.049 A 
ATOM     33  N   UNL A   1      40.978  28.195  28.732  1.00  0.00    -0.248 NA
ATOM     34  C   UNL A   1      39.280  26.664  29.191  1.00  0.00     0.031 C 
ATOM     35  C   UNL A   1      43.108  25.104  26.329  1.00  0.00     0.029 A 
ATOM     36  N   UNL A   1      43.283  27.072  27.370  1.00  0.00    -0.354 N 
ATOM     37  C   UNL A   1      40.026  28.798  29.546  1.00  0.00     0.074 A 
ATOM     38  C   UNL A   1      38.984  27.818  29.770  1.00  0.00     0.031 C 
ATOM     39  C   UNL A   1      44.369  25.533  26.170  1.00  0.00     0.029 A 
ATOM     40  C   UNL A   1      44.505  26.849  26.784  1.00  0.00     0.049 A 
ATOM     41  H   UNL A   1      43.078  27.878  27.897  1.00  0.00     0.167 HD
ATOM     42  C   UNL A   1      40.013  30.056  30.051  1.00  0.00     0.037 A 
ATOM     43  C   UNL A   1      45.602  27.628  26.702  1.00  0.00     0.037 A 
ATOM     44  C   UNL A   1      41.087  31.005  29.908  1.00  0.00     0.049 A 
ATOM     45  C   UNL A   1      45.573  29.015  27.275  1.00  0.00     0.074 A 
ATOM     46  C   UNL A   1      41.159  32.305  30.381  1.00  0.00     0.029 A 
ATOM     47  N   UNL A   1      42.292  30.744  29.277  1.00  0.00    -0.354 N 
ATOM     48  N   UNL A   1      44.612  29.619  27.928  1.00  0.00    -0.248 NA
ATOM     49  C   UNL A   1      46.769  29.845  27.060  1.00  0.00     0.031 C 
ATOM     50  C   UNL A   1      42.402  32.837  30.021  1.00  0.00     0.029 A 
ATOM     51  C   UNL A   1      43.113  31.857  29.349  1.00  0.00     0.049 A 
ATOM     52  H   UNL A   1      42.529  29.894  28.841  1.00  0.00     0.167 HD
ATOM     53  C   UNL A   1      45.082  30.898  28.196  1.00  0.00     0.074 A 
ATOM     54  C   UNL A   1      46.425  30.975  27.663  1.00  0.00     0.031 C 
ATOM     55  C   UNL A   1      44.447  31.923  28.813  1.00  0.00     0.037 A 
BRANCH  42  56
ATOM     56  C   UNL A   1      38.779  30.500  30.776  1.00  0.00     0.057 A 
ATOM     57  C   UNL A   1      38.629  30.356  32.160  1.00  0.00     0.134 A 
ATOM     58  C   UNL A   1      37.739  31.127  30.074  1.00  0.00     0.134 A 
ATOM     59  F   UNL A   1      39.581  29.751  32.886  1.00  0.00    -0.206 F 
ATOM     60  C   UNL A   1      37.482  30.805  32.819  1.00  0.00     0.040 A 
ATOM     61  C   UNL A   1      36.599  31.600  30.725  1.00  0.00     0.040 A 
ATOM     62  F   UNL A   1      37.824  31.303  28.747  1.00  0.00    -0.206 F 
ATOM     63  C   UNL A   1      36.466  31.435  32.101  1.00  0.00     0.006 A 
ENDBRANCH  42  56
BRANCH  43  64
ATOM     64  C   UNL A   1      46.811  27.131  25.998  1.00  0.00     0.057 A 
ATOM     65  C   UNL A   1      46.986  27.346  24.627  1.00  0.00     0.134 A 
ATOM     66  C   UNL A   1      47.817  26.431  26.676  1.00  0.00     0.134 A 
ATOM     67  F   UNL A   1      46.042  27.985  23.918  1.00  0.00    -0.206 F 
ATOM     68  C   UNL A   1      48.117  26.882  23.954  1.00  0.00     0.040 A 
ATOM     69  C   UNL A   1      48.965  25.986  26.022  1.00  0.00     0.040 A 
ATOM     70  F   UNL A   1      47.706  26.191  27.990  1.00  0.00    -0.206 F 
ATOM     71  C   UNL A   1      49.115  26.208  24.654  1.00  0.00     0.006 A 
ENDBRANCH  43  64
BRANCH  55  72
ATOM     72  C   UNL A   1      45.201  33.210  28.949  1.00  0.00     0.057 A 
ATOM     73  C   UNL A   1      46.039  33.455  30.044  1.00  0.00     0.134 A 
ATOM     74  C   UNL A   1      45.110  34.203  27.966  1.00  0.00     0.134 A 
ATOM     75  F   UNL A   1      46.156  32.548  31.026  1.00  0.00    -0.206 F 
ATOM     76  C   UNL A   1      46.747  34.652  30.166  1.00  0.00     0.040 A 
ATOM     77  C   UNL A   1      45.827  35.396  28.067  1.00  0.00     0.040 A 
ATOM     78  F   UNL A   1      44.329  34.027  26.891  1.00  0.00    -0.206 F 
ATOM     79  C   UNL A   1      46.645  35.624  29.173  1.00  0.00     0.006 A 
ENDBRANCH  55  72
ENDBRANCH  29  30
ENDBRANCH  22  24
ENDBRANCH  21  22
ENDBRANCH  20  21
ENDBRANCH   1  20
TORSDOF 14
ENDMDL
