MODEL 1
REMARK VINA RESULT:     -12.0      0.000      0.000
REMARK SMILES Cc1cc(OC(F)(F)F)cc2c1O[C@H](C(F)(F)F)C(C(=O)OCCOC(=O)c1ccc(-c3c4nc(c(-c5c(F)cccc5F)c5ccc([nH]5)c(-c5c(F)cccc5F)c5nc(c(-c6c(F)cccc6F)c6ccc3[nH]6)C=C5)C=C4)cc1)=C2
REMARK SMILES IDX 23 1 22 2 20 3 21 4 19 5 1 6 2 7 3 8 12 9 4 10 11 11 13 12
REMARK SMILES IDX 10 13 82 14 14 15 5 16 6 17 7 18 8 19 9 20 15 21 16 22 17 23
REMARK SMILES IDX 18 24 24 25 25 26 26 27 27 28 28 29 29 30 81 31 30 32 80 33
REMARK SMILES IDX 31 34 32 35 33 36 74 37 34 38 79 39 73 40 75 41 35 42 78 43
REMARK SMILES IDX 72 44 71 45 36 47 62 48 45 49 61 50 46 51 49 52 60 53 76 54
REMARK SMILES IDX 47 55 48 56 59 58 77 59 50 60 37 61 38 62 43 63 39 64 40 65
REMARK SMILES IDX 42 66 44 67 41 68 63 69 64 70 69 71 65 72 66 73 68 74 70 75
REMARK SMILES IDX 67 76 51 77 52 78 57 79 53 80 54 81 56 82 58 83 55 84
REMARK H PARENT 75 46 49 57
REMARK Flexibility Score: inf
ROOT
ATOM      1  C   UNL A   1      35.264  21.169  24.937  1.00  0.00     0.275 C 
ENDROOT
BRANCH   1   2
ATOM      2  O   UNL A   1      35.507  22.592  24.912  1.00  0.00    -0.459 OA
BRANCH   2   3
ATOM      3  C   UNL A   1      35.264  23.207  23.730  1.00  0.00     0.338 C 
ATOM      4  O   UNL A   1      35.773  22.953  22.655  1.00  0.00    -0.246 OA
BRANCH   3   5
ATOM      5  C   UNL A   1      34.230  24.249  23.907  1.00  0.00     0.087 C 
ATOM      6  C   UNL A   1      29.877  26.971  23.879  1.00  0.00     0.048 C 
ATOM      7  C   UNL A   1      31.182  27.024  24.625  1.00  0.00    -0.005 A 
ATOM      8  C   UNL A   1      31.340  27.953  25.673  1.00  0.00     0.054 A 
ATOM      9  C   UNL A   1      32.211  26.111  24.350  1.00  0.00     0.131 A 
ATOM     10  C   UNL A   1      32.518  27.997  26.417  1.00  0.00     0.130 A 
ATOM     11  C   UNL A   1      33.381  26.139  25.108  1.00  0.00     0.021 A 
ATOM     12  O   UNL A   1      32.013  25.231  23.321  1.00  0.00    -0.475 OA
ATOM     13  C   UNL A   1      33.537  27.089  26.124  1.00  0.00     0.058 A 
ATOM     14  C   UNL A   1      34.424  25.160  24.865  1.00  0.00     0.027 C 
ATOM     15  C   UNL A   1      32.977  24.171  23.084  1.00  0.00     0.316 C 
BRANCH  10  16
ATOM     16  O   UNL A   1      32.805  28.850  27.445  1.00  0.00    -0.406 OA
BRANCH  16  17
ATOM     17  C   UNL A   1      32.940  30.229  27.147  1.00  0.00     0.573 C 
ATOM     18  F   UNL A   1      33.761  30.838  28.029  1.00  0.00    -0.132 F 
ATOM     19  F   UNL A   1      33.411  30.410  25.895  1.00  0.00    -0.132 F 
ATOM     20  F   UNL A   1      31.726  30.813  27.228  1.00  0.00    -0.132 F 
ENDBRANCH  16  17
ENDBRANCH  10  16
BRANCH  15  21
ATOM     21  C   UNL A   1      32.269  22.820  23.274  1.00  0.00     0.430 C 
ATOM     22  F   UNL A   1      30.971  22.886  22.896  1.00  0.00    -0.167 F 
ATOM     23  F   UNL A   1      32.840  21.845  22.526  1.00  0.00    -0.167 F 
ATOM     24  F   UNL A   1      32.298  22.408  24.562  1.00  0.00    -0.167 F 
ENDBRANCH  15  21
ENDBRANCH   3   5
ENDBRANCH   2   3
ENDBRANCH   1   2
BRANCH   1  25
ATOM     25  C   UNL A   1      36.576  20.390  25.007  1.00  0.00     0.275 C 
BRANCH  25  26
ATOM     26  O   UNL A   1      37.693  21.295  24.924  1.00  0.00    -0.458 OA
BRANCH  26  27
ATOM     27  C   UNL A   1      38.755  20.969  25.691  1.00  0.00     0.338 C 
ATOM     28  O   UNL A   1      39.303  19.882  25.783  1.00  0.00    -0.246 OA
BRANCH  27  29
ATOM     29  C   UNL A   1      39.244  22.155  26.408  1.00  0.00     0.060 A 
ATOM     30  C   UNL A   1      38.694  23.401  26.116  1.00  0.00     0.016 A 
ATOM     31  C   UNL A   1      40.374  22.057  27.217  1.00  0.00     0.016 A 
ATOM     32  C   UNL A   1      39.362  24.561  26.499  1.00  0.00     0.010 A 
ATOM     33  C   UNL A   1      40.968  23.224  27.707  1.00  0.00     0.010 A 
ATOM     34  C   UNL A   1      40.508  24.490  27.301  1.00  0.00    -0.014 A 
BRANCH  34  35
ATOM     35  C   UNL A   1      41.264  25.720  27.662  1.00  0.00     0.031 A 
ATOM     36  C   UNL A   1      40.600  26.795  28.484  1.00  0.00     0.074 A 
ATOM     37  C   UNL A   1      42.545  25.879  27.273  1.00  0.00     0.049 A 
ATOM     38  N   UNL A   1      41.000  28.016  28.739  1.00  0.00    -0.248 NA
ATOM     39  C   UNL A   1      39.305  26.451  29.093  1.00  0.00     0.031 C 
ATOM     40  C   UNL A   1      43.340  24.894  26.536  1.00  0.00     0.029 A 
ATOM     41  N   UNL A   1      43.404  26.936  27.443  1.00  0.00    -0.354 N 
ATOM     42  C   UNL A   1      39.986  28.599  29.490  1.00  0.00     0.074 A 
ATOM     43  C   UNL A   1      38.944  27.605  29.636  1.00  0.00     0.031 C 
ATOM     44  C   UNL A   1      44.575  25.381  26.343  1.00  0.00     0.029 A 
ATOM     45  C   UNL A   1      44.631  26.745  26.855  1.00  0.00     0.049 A 
ATOM     46  H   UNL A   1      43.164  27.753  27.938  1.00  0.00     0.167 HD
ATOM     47  C   UNL A   1      39.930  29.848  30.014  1.00  0.00     0.037 A 
ATOM     48  C   UNL A   1      45.667  27.589  26.698  1.00  0.00     0.037 A 
ATOM     49  C   UNL A   1      40.984  30.822  29.895  1.00  0.00     0.049 A 
ATOM     50  C   UNL A   1      45.546  28.997  27.207  1.00  0.00     0.074 A 
ATOM     51  C   UNL A   1      41.027  32.116  30.384  1.00  0.00     0.029 A 
ATOM     52  N   UNL A   1      42.189  30.602  29.243  1.00  0.00    -0.354 N 
ATOM     53  N   UNL A   1      44.561  29.558  27.864  1.00  0.00    -0.248 NA
ATOM     54  C   UNL A   1      46.676  29.894  26.932  1.00  0.00     0.031 C 
ATOM     55  C   UNL A   1      42.240  32.693  29.992  1.00  0.00     0.029 A 
ATOM     56  C   UNL A   1      42.975  31.742  29.302  1.00  0.00     0.049 A 
ATOM     57  H   UNL A   1      42.448  29.760  28.805  1.00  0.00     0.167 HD
ATOM     58  C   UNL A   1      44.962  30.867  28.103  1.00  0.00     0.074 A 
ATOM     59  C   UNL A   1      46.286  31.008  27.534  1.00  0.00     0.031 C 
ATOM     60  C   UNL A   1      44.294  31.863  28.735  1.00  0.00     0.037 A 
BRANCH  47  61
ATOM     61  C   UNL A   1      38.667  30.240  30.729  1.00  0.00     0.057 A 
ATOM     62  C   UNL A   1      38.523  29.991  32.102  1.00  0.00     0.134 A 
ATOM     63  C   UNL A   1      37.595  30.856  30.072  1.00  0.00     0.134 A 
ATOM     64  F   UNL A   1      39.506  29.397  32.794  1.00  0.00    -0.206 F 
ATOM     65  C   UNL A   1      37.363  30.348  32.793  1.00  0.00     0.040 A 
ATOM     66  C   UNL A   1      36.441  31.245  30.759  1.00  0.00     0.040 A 
ATOM     67  F   UNL A   1      37.670  31.137  28.763  1.00  0.00    -0.206 F 
ATOM     68  C   UNL A   1      36.322  30.987  32.123  1.00  0.00     0.006 A 
ENDBRANCH  47  61
BRANCH  48  69
ATOM     69  C   UNL A   1      46.893  27.144  25.987  1.00  0.00     0.057 A 
ATOM     70  C   UNL A   1      47.032  27.295  24.601  1.00  0.00     0.134 A 
ATOM     71  C   UNL A   1      47.966  26.578  26.683  1.00  0.00     0.134 A 
ATOM     72  F   UNL A   1      46.040  27.829  23.874  1.00  0.00    -0.206 F 
ATOM     73  C   UNL A   1      48.187  26.889  23.933  1.00  0.00     0.040 A 
ATOM     74  C   UNL A   1      49.140  26.195  26.033  1.00  0.00     0.040 A 
ATOM     75  F   UNL A   1      47.903  26.430  28.014  1.00  0.00    -0.206 F 
ATOM     76  C   UNL A   1      49.250  26.346  24.651  1.00  0.00     0.006 A 
ENDBRANCH  48  69
BRANCH  60  77
ATOM     77  C   UNL A   1      45.010  33.174  28.881  1.00  0.00     0.057 A 
ATOM     78  C   UNL A   1      45.872  33.395  29.962  1.00  0.00     0.134 A 
ATOM     79  C   UNL A   1      44.844  34.216  27.961  1.00  0.00     0.134 A 
ATOM     80  F   UNL A   1      46.071  32.439  30.883  1.00  0.00    -0.206 F 
ATOM     81  C   UNL A   1      46.543  34.607  30.123  1.00  0.00     0.040 A 
ATOM     82  C   UNL A   1      45.532  35.424  28.095  1.00  0.00     0.040 A 
ATOM     83  F   UNL A   1      44.046  34.061  26.894  1.00  0.00    -0.206 F 
ATOM     84  C   UNL A   1      46.381  35.623  29.182  1.00  0.00     0.006 A 
ENDBRANCH  60  77
ENDBRANCH  34  35
ENDBRANCH  27  29
ENDBRANCH  26  27
ENDBRANCH  25  26
ENDBRANCH   1  25
TORSDOF 14
ENDMDL
MODEL 2
REMARK VINA RESULT:     -11.9      3.760      8.883
REMARK SMILES Cc1cc(OC(F)(F)F)cc2c1O[C@H](C(F)(F)F)C(C(=O)OCCOC(=O)c1ccc(-c3c4nc(c(-c5c(F)cccc5F)c5ccc([nH]5)c(-c5c(F)cccc5F)c5nc(c(-c6c(F)cccc6F)c6ccc3[nH]6)C=C5)C=C4)cc1)=C2
REMARK SMILES IDX 23 1 22 2 20 3 21 4 19 5 1 6 2 7 3 8 12 9 4 10 11 11 13 12
REMARK SMILES IDX 10 13 82 14 14 15 5 16 6 17 7 18 8 19 9 20 15 21 16 22 17 23
REMARK SMILES IDX 18 24 24 25 25 26 26 27 27 28 28 29 29 30 81 31 30 32 80 33
REMARK SMILES IDX 31 34 32 35 33 36 74 37 34 38 79 39 73 40 75 41 35 42 78 43
REMARK SMILES IDX 72 44 71 45 36 47 62 48 45 49 61 50 46 51 49 52 60 53 76 54
REMARK SMILES IDX 47 55 48 56 59 58 77 59 50 60 37 61 38 62 43 63 39 64 40 65
REMARK SMILES IDX 42 66 44 67 41 68 63 69 64 70 69 71 65 72 66 73 68 74 70 75
REMARK SMILES IDX 67 76 51 77 52 78 57 79 53 80 54 81 56 82 58 83 55 84
REMARK H PARENT 75 46 49 57
REMARK Flexibility Score: inf
ROOT
ATOM      1  C   UNL A   1      31.403  29.588  24.882  1.00  0.00     0.275 C 
ENDROOT
BRANCH   1   2
ATOM      2  O   UNL A   1      32.062  28.435  25.447  1.00  0.00    -0.459 OA
BRANCH   2   3
ATOM      3  C   UNL A   1      33.169  28.012  24.789  1.00  0.00     0.338 C 
ATOM      4  O   UNL A   1      34.097  28.697  24.406  1.00  0.00    -0.246 OA
BRANCH   3   5
ATOM      5  C   UNL A   1      33.124  26.545  24.619  1.00  0.00     0.087 C 
ATOM      6  C   UNL A   1      32.211  21.770  22.968  1.00  0.00     0.048 C 
ATOM      7  C   UNL A   1      33.190  22.423  23.905  1.00  0.00    -0.005 A 
ATOM      8  C   UNL A   1      34.227  21.651  24.465  1.00  0.00     0.054 A 
ATOM      9  C   UNL A   1      33.134  23.800  24.166  1.00  0.00     0.131 A 
ATOM     10  C   UNL A   1      35.181  22.234  25.300  1.00  0.00     0.130 A 
ATOM     11  C   UNL A   1      34.100  24.388  24.981  1.00  0.00     0.021 A 
ATOM     12  O   UNL A   1      32.107  24.506  23.603  1.00  0.00    -0.475 OA
ATOM     13  C   UNL A   1      35.107  23.603  25.557  1.00  0.00     0.058 A 
ATOM     14  C   UNL A   1      34.081  25.821  25.207  1.00  0.00     0.027 C 
ATOM     15  C   UNL A   1      32.080  25.954  23.717  1.00  0.00     0.316 C 
BRANCH  10  16
ATOM     16  O   UNL A   1      36.225  21.603  25.914  1.00  0.00    -0.406 OA
BRANCH  16  17
ATOM     17  C   UNL A   1      37.308  21.170  25.108  1.00  0.00     0.573 C 
ATOM     18  F   UNL A   1      37.365  21.868  23.954  1.00  0.00    -0.132 F 
ATOM     19  F   UNL A   1      38.481  21.293  25.766  1.00  0.00    -0.132 F 
ATOM     20  F   UNL A   1      37.131  19.866  24.804  1.00  0.00    -0.132 F 
ENDBRANCH  16  17
ENDBRANCH  10  16
BRANCH  15  21
ATOM     21  C   UNL A   1      32.162  26.552  22.304  1.00  0.00     0.430 C 
ATOM     22  F   UNL A   1      33.440  26.842  21.962  1.00  0.00    -0.167 F 
ATOM     23  F   UNL A   1      31.698  25.691  21.366  1.00  0.00    -0.167 F 
ATOM     24  F   UNL A   1      31.443  27.692  22.192  1.00  0.00    -0.167 F 
ENDBRANCH  15  21
ENDBRANCH   3   5
ENDBRANCH   2   3
ENDBRANCH   1   2
BRANCH   1  25
ATOM     25  C   UNL A   1      31.399  30.755  25.869  1.00  0.00     0.275 C 
BRANCH  25  26
ATOM     26  O   UNL A   1      32.415  30.559  26.869  1.00  0.00    -0.458 OA
BRANCH  26  27
ATOM     27  C   UNL A   1      33.085  31.673  27.234  1.00  0.00     0.338 C 
ATOM     28  O   UNL A   1      32.655  32.813  27.301  1.00  0.00    -0.246 OA
BRANCH  27  29
ATOM     29  C   UNL A   1      34.462  31.332  27.617  1.00  0.00     0.060 A 
ATOM     30  C   UNL A   1      34.797  29.998  27.836  1.00  0.00     0.016 A 
ATOM     31  C   UNL A   1      35.359  32.345  27.949  1.00  0.00     0.016 A 
ATOM     32  C   UNL A   1      35.960  29.680  28.531  1.00  0.00     0.010 A 
ATOM     33  C   UNL A   1      36.585  32.012  28.531  1.00  0.00     0.010 A 
ATOM     34  C   UNL A   1      36.871  30.681  28.888  1.00  0.00    -0.014 A 
BRANCH  34  35
ATOM     35  C   UNL A   1      38.085  30.358  29.688  1.00  0.00     0.031 A 
ATOM     36  C   UNL A   1      39.158  29.477  29.100  1.00  0.00     0.074 A 
ATOM     37  C   UNL A   1      38.244  30.858  30.929  1.00  0.00     0.049 A 
ATOM     38  N   UNL A   1      40.186  28.914  29.684  1.00  0.00    -0.248 NA
ATOM     39  C   UNL A   1      39.051  29.182  27.662  1.00  0.00     0.031 C 
ATOM     40  C   UNL A   1      37.326  31.781  31.600  1.00  0.00     0.029 A 
ATOM     41  N   UNL A   1      39.240  30.654  31.852  1.00  0.00    -0.354 N 
ATOM     42  C   UNL A   1      40.816  28.160  28.700  1.00  0.00     0.074 A 
ATOM     43  C   UNL A   1      40.045  28.323  27.486  1.00  0.00     0.031 C 
ATOM     44  C   UNL A   1      37.814  32.084  32.813  1.00  0.00     0.029 A 
ATOM     45  C   UNL A   1      39.025  31.306  33.042  1.00  0.00     0.049 A 
ATOM     46  H   UNL A   1      40.031  30.094  31.678  1.00  0.00     0.167 HD
ATOM     47  C   UNL A   1      41.938  27.404  28.799  1.00  0.00     0.037 A 
ATOM     48  C   UNL A   1      39.697  31.246  34.206  1.00  0.00     0.037 A 
ATOM     49  C   UNL A   1      42.720  27.273  30.001  1.00  0.00     0.049 A 
ATOM     50  C   UNL A   1      40.883  30.331  34.319  1.00  0.00     0.074 A 
ATOM     51  C   UNL A   1      43.869  26.530  30.209  1.00  0.00     0.029 A 
ATOM     52  N   UNL A   1      42.434  27.911  31.200  1.00  0.00    -0.354 N 
ATOM     53  N   UNL A   1      41.437  29.576  33.402  1.00  0.00    -0.248 NA
ATOM     54  C   UNL A   1      41.524  30.245  35.638  1.00  0.00     0.031 C 
ATOM     55  C   UNL A   1      44.254  26.685  31.546  1.00  0.00     0.029 A 
ATOM     56  C   UNL A   1      43.375  27.564  32.157  1.00  0.00     0.049 A 
ATOM     57  H   UNL A   1      41.676  28.521  31.348  1.00  0.00     0.167 HD
ATOM     58  C   UNL A   1      42.506  28.944  34.025  1.00  0.00     0.074 A 
ATOM     59  C   UNL A   1      42.530  29.418  35.394  1.00  0.00     0.031 C 
ATOM     60  C   UNL A   1      43.387  28.051  33.513  1.00  0.00     0.037 A 
BRANCH  47  61
ATOM     61  C   UNL A   1      42.356  26.630  27.580  1.00  0.00     0.057 A 
ATOM     62  C   UNL A   1      41.915  25.314  27.389  1.00  0.00     0.134 A 
ATOM     63  C   UNL A   1      43.193  27.176  26.598  1.00  0.00     0.134 A 
ATOM     64  F   UNL A   1      41.117  24.724  28.292  1.00  0.00    -0.206 F 
ATOM     65  C   UNL A   1      42.285  24.573  26.265  1.00  0.00     0.040 A 
ATOM     66  C   UNL A   1      43.546  26.455  25.453  1.00  0.00     0.040 A 
ATOM     67  F   UNL A   1      43.640  28.436  26.709  1.00  0.00    -0.206 F 
ATOM     68  C   UNL A   1      43.093  25.148  25.287  1.00  0.00     0.006 A 
ENDBRANCH  47  61
BRANCH  48  69
ATOM     69  C   UNL A   1      39.239  32.038  35.376  1.00  0.00     0.057 A 
ATOM     70  C   UNL A   1      38.383  31.492  36.342  1.00  0.00     0.134 A 
ATOM     71  C   UNL A   1      39.668  33.355  35.568  1.00  0.00     0.134 A 
ATOM     72  F   UNL A   1      37.934  30.235  36.217  1.00  0.00    -0.206 F 
ATOM     73  C   UNL A   1      37.961  32.231  37.447  1.00  0.00     0.040 A 
ATOM     74  C   UNL A   1      39.279  34.097  36.685  1.00  0.00     0.040 A 
ATOM     75  F   UNL A   1      40.507  33.926  34.692  1.00  0.00    -0.206 F 
ATOM     76  C   UNL A   1      38.418  33.535  37.627  1.00  0.00     0.006 A 
ENDBRANCH  48  69
BRANCH  60  77
ATOM     77  C   UNL A   1      44.475  27.570  34.427  1.00  0.00     0.057 A 
ATOM     78  C   UNL A   1      45.681  28.275  34.528  1.00  0.00     0.134 A 
ATOM     79  C   UNL A   1      44.336  26.411  35.201  1.00  0.00     0.134 A 
ATOM     80  F   UNL A   1      45.882  29.390  33.809  1.00  0.00    -0.206 F 
ATOM     81  C   UNL A   1      46.710  27.844  35.366  1.00  0.00     0.040 A 
ATOM     82  C   UNL A   1      45.346  25.985  36.065  1.00  0.00     0.040 A 
ATOM     83  F   UNL A   1      43.198  25.701  35.164  1.00  0.00    -0.206 F 
ATOM     84  C   UNL A   1      46.540  26.701  36.145  1.00  0.00     0.006 A 
ENDBRANCH  60  77
ENDBRANCH  34  35
ENDBRANCH  27  29
ENDBRANCH  26  27
ENDBRANCH  25  26
ENDBRANCH   1  25
TORSDOF 14
ENDMDL
MODEL 3
REMARK VINA RESULT:     -11.7      3.792      8.840
REMARK SMILES Cc1cc(OC(F)(F)F)cc2c1O[C@H](C(F)(F)F)C(C(=O)OCCOC(=O)c1ccc(-c3c4nc(c(-c5c(F)cccc5F)c5ccc([nH]5)c(-c5c(F)cccc5F)c5nc(c(-c6c(F)cccc6F)c6ccc3[nH]6)C=C5)C=C4)cc1)=C2
REMARK SMILES IDX 23 1 22 2 20 3 21 4 19 5 1 6 2 7 3 8 12 9 4 10 11 11 13 12
REMARK SMILES IDX 10 13 82 14 14 15 5 16 6 17 7 18 8 19 9 20 15 21 16 22 17 23
REMARK SMILES IDX 18 24 24 25 25 26 26 27 27 28 28 29 29 30 81 31 30 32 80 33
REMARK SMILES IDX 31 34 32 35 33 36 74 37 34 38 79 39 73 40 75 41 35 42 78 43
REMARK SMILES IDX 72 44 71 45 36 47 62 48 45 49 61 50 46 51 49 52 60 53 76 54
REMARK SMILES IDX 47 55 48 56 59 58 77 59 50 60 37 61 38 62 43 63 39 64 40 65
REMARK SMILES IDX 42 66 44 67 41 68 63 69 64 70 69 71 65 72 66 73 68 74 70 75
REMARK SMILES IDX 67 76 51 77 52 78 57 79 53 80 54 81 56 82 58 83 55 84
REMARK H PARENT 75 46 49 57
REMARK Flexibility Score: inf
ROOT
ATOM      1  C   UNL A   1      31.746  28.531  25.083  1.00  0.00     0.275 C 
ENDROOT
BRANCH   1   2
ATOM      2  O   UNL A   1      32.362  27.266  25.406  1.00  0.00    -0.459 OA
BRANCH   2   3
ATOM      3  C   UNL A   1      31.610  26.424  26.156  1.00  0.00     0.338 C 
ATOM      4  O   UNL A   1      30.739  26.730  26.947  1.00  0.00    -0.246 OA
BRANCH   3   5
ATOM      5  C   UNL A   1      31.971  25.023  25.855  1.00  0.00     0.087 C 
ATOM      6  C   UNL A   1      32.189  20.257  23.957  1.00  0.00     0.048 C 
ATOM      7  C   UNL A   1      33.109  21.154  24.739  1.00  0.00    -0.005 A 
ATOM      8  C   UNL A   1      34.428  20.730  25.000  1.00  0.00     0.054 A 
ATOM      9  C   UNL A   1      32.703  22.436  25.140  1.00  0.00     0.131 A 
ATOM     10  C   UNL A   1      35.323  21.557  25.679  1.00  0.00     0.130 A 
ATOM     11  C   UNL A   1      33.603  23.271  25.799  1.00  0.00     0.021 A 
ATOM     12  O   UNL A   1      31.413  22.800  24.868  1.00  0.00    -0.475 OA
ATOM     13  C   UNL A   1      34.900  22.825  26.080  1.00  0.00     0.058 A 
ATOM     14  C   UNL A   1      33.206  24.618  26.164  1.00  0.00     0.027 C 
ATOM     15  C   UNL A   1      30.980  24.162  25.126  1.00  0.00     0.316 C 
BRANCH  10  16
ATOM     16  O   UNL A   1      36.617  21.267  26.006  1.00  0.00    -0.406 OA
BRANCH  16  17
ATOM     17  C   UNL A   1      37.586  21.294  24.972  1.00  0.00     0.573 C 
ATOM     18  F   UNL A   1      37.987  20.046  24.650  1.00  0.00    -0.132 F 
ATOM     19  F   UNL A   1      37.104  21.909  23.871  1.00  0.00    -0.132 F 
ATOM     20  F   UNL A   1      38.663  21.986  25.401  1.00  0.00    -0.132 F 
ENDBRANCH  16  17
ENDBRANCH  10  16
BRANCH  15  21
ATOM     21  C   UNL A   1      30.563  24.800  23.792  1.00  0.00     0.430 C 
ATOM     22  F   UNL A   1      31.636  25.268  23.111  1.00  0.00    -0.167 F 
ATOM     23  F   UNL A   1      29.950  23.906  22.978  1.00  0.00    -0.167 F 
ATOM     24  F   UNL A   1      29.709  25.835  23.967  1.00  0.00    -0.167 F 
ENDBRANCH  15  21
ENDBRANCH   3   5
ENDBRANCH   2   3
ENDBRANCH   1   2
BRANCH   1  25
ATOM     25  C   UNL A   1      32.662  29.697  25.453  1.00  0.00     0.275 C 
BRANCH  25  26
ATOM     26  O   UNL A   1      32.383  30.138  26.794  1.00  0.00    -0.458 OA
BRANCH  26  27
ATOM     27  C   UNL A   1      33.037  31.254  27.180  1.00  0.00     0.338 C 
ATOM     28  O   UNL A   1      32.594  32.389  27.257  1.00  0.00    -0.246 OA
BRANCH  27  29
ATOM     29  C   UNL A   1      34.414  30.923  27.572  1.00  0.00     0.060 A 
ATOM     30  C   UNL A   1      34.731  29.607  27.899  1.00  0.00     0.016 A 
ATOM     31  C   UNL A   1      35.332  31.945  27.804  1.00  0.00     0.016 A 
ATOM     32  C   UNL A   1      35.898  29.328  28.603  1.00  0.00     0.010 A 
ATOM     33  C   UNL A   1      36.561  31.640  28.396  1.00  0.00     0.010 A 
ATOM     34  C   UNL A   1      36.831  30.340  28.861  1.00  0.00    -0.014 A 
BRANCH  34  35
ATOM     35  C   UNL A   1      38.051  30.065  29.669  1.00  0.00     0.031 A 
ATOM     36  C   UNL A   1      39.149  29.201  29.100  1.00  0.00     0.074 A 
ATOM     37  C   UNL A   1      38.194  30.592  30.901  1.00  0.00     0.049 A 
ATOM     38  N   UNL A   1      40.190  28.677  29.696  1.00  0.00    -0.248 NA
ATOM     39  C   UNL A   1      39.053  28.875  27.668  1.00  0.00     0.031 C 
ATOM     40  C   UNL A   1      37.251  31.503  31.552  1.00  0.00     0.029 A 
ATOM     41  N   UNL A   1      39.193  30.433  31.829  1.00  0.00    -0.354 N 
ATOM     42  C   UNL A   1      40.842  27.921  28.729  1.00  0.00     0.074 A 
ATOM     43  C   UNL A   1      40.069  28.040  27.511  1.00  0.00     0.031 C 
ATOM     44  C   UNL A   1      37.728  31.843  32.759  1.00  0.00     0.029 A 
ATOM     45  C   UNL A   1      38.959  31.102  33.006  1.00  0.00     0.049 A 
ATOM     46  H   UNL A   1      39.999  29.891  31.667  1.00  0.00     0.167 HD
ATOM     47  C   UNL A   1      41.983  27.197  28.844  1.00  0.00     0.037 A 
ATOM     48  C   UNL A   1      39.630  31.082  34.172  1.00  0.00     0.037 A 
ATOM     49  C   UNL A   1      42.766  27.110  30.050  1.00  0.00     0.049 A 
ATOM     50  C   UNL A   1      40.839  30.201  34.305  1.00  0.00     0.074 A 
ATOM     51  C   UNL A   1      43.933  26.403  30.274  1.00  0.00     0.029 A 
ATOM     52  N   UNL A   1      42.461  27.763  31.235  1.00  0.00    -0.354 N 
ATOM     53  N   UNL A   1      41.414  29.443  33.403  1.00  0.00    -0.248 NA
ATOM     54  C   UNL A   1      41.479  30.157  35.626  1.00  0.00     0.031 C 
ATOM     55  C   UNL A   1      44.311  26.593  31.608  1.00  0.00     0.029 A 
ATOM     56  C   UNL A   1      43.408  27.460  32.200  1.00  0.00     0.049 A 
ATOM     57  H   UNL A   1      41.686  28.355  31.371  1.00  0.00     0.167 HD
ATOM     58  C   UNL A   1      42.499  28.853  34.040  1.00  0.00     0.074 A 
ATOM     59  C   UNL A   1      42.507  29.353  35.400  1.00  0.00     0.031 C 
ATOM     60  C   UNL A   1      43.404  27.973  33.547  1.00  0.00     0.037 A 
BRANCH  47  61
ATOM     61  C   UNL A   1      42.424  26.412  27.641  1.00  0.00     0.057 A 
ATOM     62  C   UNL A   1      43.286  26.986  26.696  1.00  0.00     0.134 A 
ATOM     63  C   UNL A   1      42.004  25.095  27.411  1.00  0.00     0.134 A 
ATOM     64  F   UNL A   1      43.723  28.245  26.848  1.00  0.00    -0.206 F 
ATOM     65  C   UNL A   1      43.716  26.279  25.571  1.00  0.00     0.040 A 
ATOM     66  C   UNL A   1      42.452  24.367  26.305  1.00  0.00     0.040 A 
ATOM     67  F   UNL A   1      41.192  24.479  28.282  1.00  0.00    -0.206 F 
ATOM     68  C   UNL A   1      43.308  24.961  25.380  1.00  0.00     0.006 A 
ENDBRANCH  47  61
BRANCH  48  69
ATOM     69  C   UNL A   1      39.148  31.884  35.326  1.00  0.00     0.057 A 
ATOM     70  C   UNL A   1      39.551  33.213  35.515  1.00  0.00     0.134 A 
ATOM     71  C   UNL A   1      38.253  31.344  36.256  1.00  0.00     0.134 A 
ATOM     72  F   UNL A   1      40.409  33.789  34.661  1.00  0.00    -0.206 F 
ATOM     73  C   UNL A   1      39.090  33.971  36.592  1.00  0.00     0.040 A 
ATOM     74  C   UNL A   1      37.760  32.100  37.321  1.00  0.00     0.040 A 
ATOM     75  F   UNL A   1      37.812  30.086  36.116  1.00  0.00    -0.206 F 
ATOM     76  C   UNL A   1      38.184  33.417  37.494  1.00  0.00     0.006 A 
ENDBRANCH  48  69
BRANCH  60  77
ATOM     77  C   UNL A   1      44.502  27.539  34.472  1.00  0.00     0.057 A 
ATOM     78  C   UNL A   1      44.353  26.393  35.263  1.00  0.00     0.134 A 
ATOM     79  C   UNL A   1      45.701  28.253  34.588  1.00  0.00     0.134 A 
ATOM     80  F   UNL A   1      43.226  25.666  35.205  1.00  0.00    -0.206 F 
ATOM     81  C   UNL A   1      45.357  25.973  36.136  1.00  0.00     0.040 A 
ATOM     82  C   UNL A   1      46.725  27.827  35.436  1.00  0.00     0.040 A 
ATOM     83  F   UNL A   1      45.914  29.350  33.844  1.00  0.00    -0.206 F 
ATOM     84  C   UNL A   1      46.552  26.686  36.217  1.00  0.00     0.006 A 
ENDBRANCH  60  77
ENDBRANCH  34  35
ENDBRANCH  27  29
ENDBRANCH  26  27
ENDBRANCH  25  26
ENDBRANCH   1  25
TORSDOF 14
ENDMDL
