MODEL 1
REMARK VINA RESULT:     -13.0      0.000      0.000
REMARK SMILES Cc1cccc(-c2ncc(C[NH+]3CCC4(CC3)NC(=O)C[C@H]4C(=O)OCCOC(=O)c3ccc(-c4c5nc(c(-c6c(F)cccc6F)c6ccc([nH]6)c(-c6c(F)cccc6F)c6nc(c(-c7c(F)cccc7F)c7ccc4[nH]7)C=C6)C=C5)cc3)cn2)c1
REMARK SMILES IDX 26 1 25 2 23 3 24 4 22 5 12 6 13 7 17 8 14 10 16 11 15 12
REMARK SMILES IDX 18 13 19 14 21 16 20 17 11 18 10 19 7 20 8 21 86 22 9 23
REMARK SMILES IDX 85 24 6 25 1 26 2 27 3 28 87 29 4 30 5 31 27 32 28 33 29 34
REMARK SMILES IDX 30 35 31 36 32 37 84 38 33 39 83 40 34 41 35 42 36 43 77 44
REMARK SMILES IDX 37 45 82 46 76 47 78 48 38 49 81 50 75 51 74 52 39 54 65 55
REMARK SMILES IDX 48 56 64 57 49 58 52 59 63 60 79 61 50 62 51 63 62 65 80 66
REMARK SMILES IDX 53 67 40 68 41 69 46 70 42 71 43 72 45 73 47 74 44 75 66 76
REMARK SMILES IDX 67 77 72 78 68 79 69 80 71 81 73 82 70 83 54 84 55 85 60 86
REMARK SMILES IDX 56 87 57 88 59 89 61 90 58 91
REMARK H PARENT 12 9 18 15 78 53 52 64
REMARK Flexibility Score: inf
ROOT
ATOM      1  C   UNL A   1      31.669  29.134  25.965  1.00  0.00     0.274 C 
ENDROOT
BRANCH   1   2
ATOM      2  O   UNL A   1      32.542  28.211  25.214  1.00  0.00    -0.462 OA
BRANCH   2   3
ATOM      3  C   UNL A   1      32.846  28.579  23.970  1.00  0.00     0.311 C 
ATOM      4  O   UNL A   1      33.959  29.032  23.759  1.00  0.00    -0.252 OA
BRANCH   3   5
ATOM      5  C   UNL A   1      31.950  28.371  22.758  1.00  0.00     0.134 C 
ATOM      6  N   UNL A   1      33.544  24.577  22.390  1.00  0.00    -0.331 N 
ATOM      7  C   UNL A   1      32.802  25.011  21.204  1.00  0.00     0.264 C 
ATOM      8  C   UNL A   1      33.640  25.674  23.309  1.00  0.00     0.264 C 
ATOM      9  H   UNL A   1      34.415  24.297  21.938  1.00  0.00     0.348 HD
ATOM     10  C   UNL A   1      31.686  26.123  21.318  1.00  0.00     0.091 C 
ATOM     11  C   UNL A   1      32.214  26.088  23.728  1.00  0.00     0.091 C 
ATOM     12  C   UNL A   1      31.518  26.894  22.665  1.00  0.00     0.064 C 
ATOM     13  N   UNL A   1      30.096  26.994  22.948  1.00  0.00    -0.349 N 
ATOM     14  C   UNL A   1      29.600  28.264  22.964  1.00  0.00     0.221 C 
ATOM     15  H   UNL A   1      29.533  26.203  23.116  1.00  0.00     0.164 HD
ATOM     16  C   UNL A   1      30.694  29.216  22.646  1.00  0.00     0.117 C 
ATOM     17  O   UNL A   1      28.420  28.560  23.158  1.00  0.00    -0.275 OA
BRANCH   6  18
ATOM     18  C   UNL A   1      33.392  23.268  23.054  1.00  0.00     0.302 C 
BRANCH  18  19
ATOM     19  C   UNL A   1      34.633  22.701  23.726  1.00  0.00     0.043 A 
ATOM     20  C   UNL A   1      36.919  22.715  25.228  1.00  0.00     0.159 A 
ATOM     21  N   UNL A   1      35.746  22.480  25.854  1.00  0.00    -0.236 NA
ATOM     22  N   UNL A   1      37.057  22.794  23.886  1.00  0.00    -0.236 NA
ATOM     23  C   UNL A   1      34.632  22.445  25.083  1.00  0.00     0.124 A 
ATOM     24  C   UNL A   1      35.907  22.771  23.161  1.00  0.00     0.124 A 
BRANCH  20  25
ATOM     25  C   UNL A   1      38.096  22.983  26.081  1.00  0.00     0.019 A 
ATOM     26  C   UNL A   1      41.430  21.368  27.186  1.00  0.00     0.044 C 
ATOM     27  C   UNL A   1      40.307  22.353  27.003  1.00  0.00    -0.050 A 
ATOM     28  C   UNL A   1      40.435  23.631  27.545  1.00  0.00     0.003 A 
ATOM     29  C   UNL A   1      39.134  22.041  26.287  1.00  0.00     0.015 A 
ATOM     30  C   UNL A   1      39.408  24.561  27.396  1.00  0.00     0.001 A 
ATOM     31  C   UNL A   1      38.250  24.237  26.682  1.00  0.00     0.012 A 
ENDBRANCH  20  25
ENDBRANCH  18  19
ENDBRANCH   6  18
ENDBRANCH   3   5
ENDBRANCH   2   3
ENDBRANCH   1   2
BRANCH   1  32
ATOM     32  C   UNL A   1      32.139  30.350  26.907  1.00  0.00     0.275 C 
BRANCH  32  33
ATOM     33  O   UNL A   1      33.450  30.662  27.586  1.00  0.00    -0.458 OA
BRANCH  33  34
ATOM     34  C   UNL A   1      34.119  31.799  27.959  1.00  0.00     0.338 C 
ATOM     35  O   UNL A   1      33.606  32.905  28.050  1.00  0.00    -0.246 OA
BRANCH  34  36
ATOM     36  C   UNL A   1      35.549  31.605  28.208  1.00  0.00     0.060 A 
ATOM     37  C   UNL A   1      36.484  32.664  28.257  1.00  0.00     0.016 A 
ATOM     38  C   UNL A   1      35.842  30.348  28.682  1.00  0.00     0.016 A 
ATOM     39  C   UNL A   1      37.711  32.454  28.891  1.00  0.00     0.010 A 
ATOM     40  C   UNL A   1      36.890  30.240  29.540  1.00  0.00     0.010 A 
ATOM     41  C   UNL A   1      37.874  31.243  29.565  1.00  0.00    -0.014 A 
BRANCH  41  42
ATOM     42  C   UNL A   1      39.138  30.602  29.880  1.00  0.00     0.031 A 
ATOM     43  C   UNL A   1      39.628  29.469  29.078  1.00  0.00     0.074 A 
ATOM     44  C   UNL A   1      39.835  31.495  30.628  1.00  0.00     0.049 A 
ATOM     45  N   UNL A   1      40.127  28.381  29.561  1.00  0.00    -0.248 NA
ATOM     46  C   UNL A   1      39.503  29.432  27.611  1.00  0.00     0.031 C 
ATOM     47  C   UNL A   1      41.238  31.767  30.824  1.00  0.00     0.029 A 
ATOM     48  N   UNL A   1      39.226  32.514  31.381  1.00  0.00    -0.354 N 
ATOM     49  C   UNL A   1      40.774  27.783  28.490  1.00  0.00     0.074 A 
ATOM     50  C   UNL A   1      40.111  28.277  27.307  1.00  0.00     0.031 C 
ATOM     51  C   UNL A   1      41.365  32.602  31.882  1.00  0.00     0.029 A 
ATOM     52  C   UNL A   1      40.035  32.867  32.437  1.00  0.00     0.049 A 
ATOM     53  H   UNL A   1      38.349  32.916  31.183  1.00  0.00     0.167 HD
ATOM     54  C   UNL A   1      42.093  27.434  28.597  1.00  0.00     0.037 A 
ATOM     55  C   UNL A   1      39.516  32.520  33.649  1.00  0.00     0.037 A 
ATOM     56  C   UNL A   1      42.653  28.059  29.791  1.00  0.00     0.049 A 
ATOM     57  C   UNL A   1      40.223  31.265  34.087  1.00  0.00     0.074 A 
ATOM     58  C   UNL A   1      43.422  29.201  29.938  1.00  0.00     0.029 A 
ATOM     59  N   UNL A   1      42.157  27.749  31.048  1.00  0.00    -0.354 N 
ATOM     60  N   UNL A   1      40.671  30.348  33.271  1.00  0.00    -0.248 NA
ATOM     61  C   UNL A   1      40.603  31.041  35.470  1.00  0.00     0.031 C 
ATOM     62  C   UNL A   1      43.393  29.572  31.305  1.00  0.00     0.029 A 
ATOM     63  C   UNL A   1      42.557  28.692  31.973  1.00  0.00     0.049 A 
ATOM     64  H   UNL A   1      41.597  26.965  31.252  1.00  0.00     0.167 HD
ATOM     65  C   UNL A   1      41.485  29.500  33.968  1.00  0.00     0.074 A 
ATOM     66  C   UNL A   1      41.382  29.955  35.345  1.00  0.00     0.031 C 
ATOM     67  C   UNL A   1      42.235  28.524  33.377  1.00  0.00     0.037 A 
BRANCH  54  68
ATOM     68  C   UNL A   1      42.969  26.902  27.477  1.00  0.00     0.057 A 
ATOM     69  C   UNL A   1      43.404  27.739  26.426  1.00  0.00     0.134 A 
ATOM     70  C   UNL A   1      43.491  25.596  27.428  1.00  0.00     0.134 A 
ATOM     71  F   UNL A   1      43.080  29.038  26.374  1.00  0.00    -0.206 F 
ATOM     72  C   UNL A   1      44.223  27.299  25.378  1.00  0.00     0.040 A 
ATOM     73  C   UNL A   1      44.299  25.137  26.374  1.00  0.00     0.040 A 
ATOM     74  F   UNL A   1      43.275  24.723  28.422  1.00  0.00    -0.206 F 
ATOM     75  C   UNL A   1      44.665  25.988  25.340  1.00  0.00     0.006 A 
ENDBRANCH  54  68
BRANCH  55  76
ATOM     76  C   UNL A   1      38.026  32.788  33.754  1.00  0.00     0.057 A 
ATOM     77  C   UNL A   1      37.595  34.109  34.031  1.00  0.00     0.134 A 
ATOM     78  C   UNL A   1      37.029  31.909  33.312  1.00  0.00     0.134 A 
ATOM     79  F   UNL A   1      38.481  35.032  34.441  1.00  0.00    -0.206 F 
ATOM     80  C   UNL A   1      36.284  34.550  33.799  1.00  0.00     0.040 A 
ATOM     81  C   UNL A   1      35.701  32.334  33.104  1.00  0.00     0.040 A 
ATOM     82  F   UNL A   1      37.326  30.644  32.986  1.00  0.00    -0.206 F 
ATOM     83  C   UNL A   1      35.332  33.662  33.319  1.00  0.00     0.006 A 
ENDBRANCH  55  76
BRANCH  67  84
ATOM     84  C   UNL A   1      42.843  27.356  34.100  1.00  0.00     0.057 A 
ATOM     85  C   UNL A   1      44.216  27.237  34.347  1.00  0.00     0.134 A 
ATOM     86  C   UNL A   1      42.029  26.390  34.738  1.00  0.00     0.134 A 
ATOM     87  F   UNL A   1      45.091  28.162  33.932  1.00  0.00    -0.206 F 
ATOM     88  C   UNL A   1      44.750  26.186  35.094  1.00  0.00     0.040 A 
ATOM     89  C   UNL A   1      42.545  25.387  35.554  1.00  0.00     0.040 A 
ATOM     90  F   UNL A   1      40.692  26.395  34.631  1.00  0.00    -0.206 F 
ATOM     91  C   UNL A   1      43.915  25.265  35.712  1.00  0.00     0.006 A 
ENDBRANCH  67  84
ENDBRANCH  41  42
ENDBRANCH  34  36
ENDBRANCH  33  34
ENDBRANCH  32  33
ENDBRANCH   1  32
TORSDOF 14
ENDMDL
MODEL 2
REMARK VINA RESULT:     -12.7      3.442      9.075
REMARK SMILES Cc1cccc(-c2ncc(C[NH+]3CCC4(CC3)NC(=O)C[C@H]4C(=O)OCCOC(=O)c3ccc(-c4c5nc(c(-c6c(F)cccc6F)c6ccc([nH]6)c(-c6c(F)cccc6F)c6nc(c(-c7c(F)cccc7F)c7ccc4[nH]7)C=C6)C=C5)cc3)cn2)c1
REMARK SMILES IDX 26 1 25 2 23 3 24 4 22 5 12 6 13 7 17 8 14 10 16 11 15 12
REMARK SMILES IDX 18 13 19 14 21 16 20 17 11 18 10 19 7 20 8 21 86 22 9 23
REMARK SMILES IDX 85 24 6 25 1 26 2 27 3 28 87 29 4 30 5 31 27 32 28 33 29 34
REMARK SMILES IDX 30 35 31 36 32 37 84 38 33 39 83 40 34 41 35 42 36 43 77 44
REMARK SMILES IDX 37 45 82 46 76 47 78 48 38 49 81 50 75 51 74 52 39 54 65 55
REMARK SMILES IDX 48 56 64 57 49 58 52 59 63 60 79 61 50 62 51 63 62 65 80 66
REMARK SMILES IDX 53 67 40 68 41 69 46 70 42 71 43 72 45 73 47 74 44 75 66 76
REMARK SMILES IDX 67 77 72 78 68 79 69 80 71 81 73 82 70 83 54 84 55 85 60 86
REMARK SMILES IDX 56 87 57 88 59 89 61 90 58 91
REMARK H PARENT 12 9 18 15 78 53 52 64
REMARK Flexibility Score: inf
ROOT
ATOM      1  C   UNL A   1      36.180  21.220  24.996  1.00  0.00     0.274 C 
ENDROOT
BRANCH   1   2
ATOM      2  O   UNL A   1      35.184  22.252  25.346  1.00  0.00    -0.462 OA
BRANCH   2   3
ATOM      3  C   UNL A   1      34.402  21.976  26.389  1.00  0.00     0.311 C 
ATOM      4  O   UNL A   1      34.705  22.441  27.475  1.00  0.00    -0.252 OA
BRANCH   3   5
ATOM      5  C   UNL A   1      33.086  21.216  26.312  1.00  0.00     0.134 C 
ATOM      6  N   UNL A   1      31.128  24.853  26.396  1.00  0.00    -0.331 N 
ATOM      7  C   UNL A   1      30.243  23.713  26.644  1.00  0.00     0.264 C 
ATOM      8  C   UNL A   1      32.485  24.389  26.341  1.00  0.00     0.264 C 
ATOM      9  H   UNL A   1      30.884  25.422  27.206  1.00  0.00     0.348 HD
ATOM     10  C   UNL A   1      30.627  22.271  26.127  1.00  0.00     0.091 C 
ATOM     11  C   UNL A   1      32.612  23.385  25.176  1.00  0.00     0.091 C 
ATOM     12  C   UNL A   1      32.047  22.035  25.522  1.00  0.00     0.064 C 
ATOM     13  N   UNL A   1      31.893  21.224  24.326  1.00  0.00    -0.349 N 
ATOM     14  C   UNL A   1      32.478  19.994  24.386  1.00  0.00     0.221 C 
ATOM     15  H   UNL A   1      31.404  21.539  23.532  1.00  0.00     0.164 HD
ATOM     16  C   UNL A   1      33.103  19.818  25.721  1.00  0.00     0.117 C 
ATOM     17  O   UNL A   1      32.440  19.147  23.491  1.00  0.00    -0.275 OA
BRANCH   6  18
ATOM     18  C   UNL A   1      30.848  25.956  25.455  1.00  0.00     0.302 C 
BRANCH  18  19
ATOM     19  C   UNL A   1      31.394  27.324  25.832  1.00  0.00     0.043 A 
ATOM     20  C   UNL A   1      33.222  29.153  26.724  1.00  0.00     0.159 A 
ATOM     21  N   UNL A   1      33.196  28.868  25.403  1.00  0.00    -0.236 NA
ATOM     22  N   UNL A   1      32.306  28.707  27.612  1.00  0.00    -0.236 NA
ATOM     23  C   UNL A   1      32.259  27.984  24.982  1.00  0.00     0.124 A 
ATOM     24  C   UNL A   1      31.400  27.809  27.141  1.00  0.00     0.124 A 
BRANCH  20  25
ATOM     25  C   UNL A   1      34.377  29.929  27.222  1.00  0.00     0.019 A 
ATOM     26  C   UNL A   1      35.222  33.317  28.883  1.00  0.00     0.044 C 
ATOM     27  C   UNL A   1      35.350  31.931  28.309  1.00  0.00    -0.050 A 
ATOM     28  C   UNL A   1      36.585  31.286  28.371  1.00  0.00     0.003 A 
ATOM     29  C   UNL A   1      34.264  31.249  27.725  1.00  0.00     0.015 A 
ATOM     30  C   UNL A   1      36.734  30.006  27.841  1.00  0.00     0.001 A 
ATOM     31  C   UNL A   1      35.646  29.341  27.265  1.00  0.00     0.012 A 
ENDBRANCH  20  25
ENDBRANCH  18  19
ENDBRANCH   6  18
ENDBRANCH   3   5
ENDBRANCH   2   3
ENDBRANCH   1   2
BRANCH   1  32
ATOM     32  C   UNL A   1      37.777  21.404  24.943  1.00  0.00     0.275 C 
BRANCH  32  33
ATOM     33  O   UNL A   1      38.738  22.198  25.792  1.00  0.00    -0.458 OA
BRANCH  33  34
ATOM     34  C   UNL A   1      39.879  21.927  26.503  1.00  0.00     0.338 C 
ATOM     35  O   UNL A   1      40.439  20.840  26.526  1.00  0.00    -0.246 OA
BRANCH  34  36
ATOM     36  C   UNL A   1      40.376  23.051  27.300  1.00  0.00     0.060 A 
ATOM     37  C   UNL A   1      41.343  22.917  28.322  1.00  0.00     0.016 A 
ATOM     38  C   UNL A   1      40.043  24.273  26.764  1.00  0.00     0.016 A 
ATOM     39  C   UNL A   1      42.050  24.048  28.736  1.00  0.00     0.010 A 
ATOM     40  C   UNL A   1      40.922  25.291  26.953  1.00  0.00     0.010 A 
ATOM     41  C   UNL A   1      41.852  25.220  28.004  1.00  0.00    -0.014 A 
BRANCH  41  42
ATOM     42  C   UNL A   1      42.074  26.573  28.480  1.00  0.00     0.031 A 
ATOM     43  C   UNL A   1      40.948  27.409  28.926  1.00  0.00     0.074 A 
ATOM     44  C   UNL A   1      43.386  26.640  28.821  1.00  0.00     0.049 A 
ATOM     45  N   UNL A   1      40.769  28.646  28.601  1.00  0.00    -0.248 NA
ATOM     46  C   UNL A   1      39.838  26.869  29.729  1.00  0.00     0.031 C 
ATOM     47  C   UNL A   1      44.138  27.406  29.785  1.00  0.00     0.029 A 
ATOM     48  N   UNL A   1      44.369  25.793  28.281  1.00  0.00    -0.354 N 
ATOM     49  C   UNL A   1      39.834  29.118  29.510  1.00  0.00     0.074 A 
ATOM     50  C   UNL A   1      39.090  27.959  29.944  1.00  0.00     0.031 C 
ATOM     51  C   UNL A   1      45.455  27.255  29.512  1.00  0.00     0.029 A 
ATOM     52  C   UNL A   1      45.599  26.410  28.324  1.00  0.00     0.049 A 
ATOM     53  H   UNL A   1      44.203  24.890  27.924  1.00  0.00     0.167 HD
ATOM     54  C   UNL A   1      40.107  30.234  30.254  1.00  0.00     0.037 A 
ATOM     55  C   UNL A   1      46.083  26.726  27.089  1.00  0.00     0.037 A 
ATOM     56  C   UNL A   1      41.527  30.549  30.131  1.00  0.00     0.049 A 
ATOM     57  C   UNL A   1      45.833  28.195  26.882  1.00  0.00     0.074 A 
ATOM     58  C   UNL A   1      42.589  30.288  30.980  1.00  0.00     0.029 A 
ATOM     59  N   UNL A   1      42.074  30.868  28.897  1.00  0.00    -0.354 N 
ATOM     60  N   UNL A   1      44.818  28.849  27.381  1.00  0.00    -0.248 NA
ATOM     61  C   UNL A   1      46.800  29.053  26.218  1.00  0.00     0.031 C 
ATOM     62  C   UNL A   1      43.787  30.464  30.246  1.00  0.00     0.029 A 
ATOM     63  C   UNL A   1      43.450  30.770  28.937  1.00  0.00     0.049 A 
ATOM     64  H   UNL A   1      41.553  31.128  28.103  1.00  0.00     0.167 HD
ATOM     65  C   UNL A   1      45.041  30.189  27.231  1.00  0.00     0.074 A 
ATOM     66  C   UNL A   1      46.276  30.263  26.467  1.00  0.00     0.031 C 
ATOM     67  C   UNL A   1      44.246  31.150  27.785  1.00  0.00     0.037 A 
BRANCH  54  68
ATOM     68  C   UNL A   1      39.251  30.789  31.378  1.00  0.00     0.057 A 
ATOM     69  C   UNL A   1      39.182  30.146  32.633  1.00  0.00     0.134 A 
ATOM     70  C   UNL A   1      38.544  32.003  31.313  1.00  0.00     0.134 A 
ATOM     71  F   UNL A   1      39.876  29.030  32.897  1.00  0.00    -0.206 F 
ATOM     72  C   UNL A   1      38.419  30.625  33.705  1.00  0.00     0.040 A 
ATOM     73  C   UNL A   1      37.759  32.487  32.374  1.00  0.00     0.040 A 
ATOM     74  F   UNL A   1      38.617  32.794  30.233  1.00  0.00    -0.206 F 
ATOM     75  C   UNL A   1      37.690  31.795  33.575  1.00  0.00     0.006 A 
ENDBRANCH  54  68
BRANCH  55  76
ATOM     76  C   UNL A   1      45.856  25.628  26.066  1.00  0.00     0.057 A 
ATOM     77  C   UNL A   1      46.717  24.503  26.079  1.00  0.00     0.134 A 
ATOM     78  C   UNL A   1      44.692  25.488  25.299  1.00  0.00     0.134 A 
ATOM     79  F   UNL A   1      47.849  24.533  26.803  1.00  0.00    -0.206 F 
ATOM     80  C   UNL A   1      46.402  23.291  25.449  1.00  0.00     0.040 A 
ATOM     81  C   UNL A   1      44.380  24.283  24.636  1.00  0.00     0.040 A 
ATOM     82  F   UNL A   1      43.787  26.473  25.239  1.00  0.00    -0.206 F 
ATOM     83  C   UNL A   1      45.219  23.173  24.733  1.00  0.00     0.006 A 
ENDBRANCH  55  76
BRANCH  67  84
ATOM     84  C   UNL A   1      44.222  32.591  27.362  1.00  0.00     0.057 A 
ATOM     85  C   UNL A   1      43.802  33.012  26.095  1.00  0.00     0.134 A 
ATOM     86  C   UNL A   1      44.455  33.629  28.296  1.00  0.00     0.134 A 
ATOM     87  F   UNL A   1      43.405  32.142  25.157  1.00  0.00    -0.206 F 
ATOM     88  C   UNL A   1      43.708  34.361  25.751  1.00  0.00     0.040 A 
ATOM     89  C   UNL A   1      44.283  34.975  27.987  1.00  0.00     0.040 A 
ATOM     90  F   UNL A   1      44.824  33.384  29.562  1.00  0.00    -0.206 F 
ATOM     91  C   UNL A   1      43.935  35.347  26.700  1.00  0.00     0.006 A 
ENDBRANCH  67  84
ENDBRANCH  41  42
ENDBRANCH  34  36
ENDBRANCH  33  34
ENDBRANCH  32  33
ENDBRANCH   1  32
TORSDOF 14
ENDMDL
MODEL 3
REMARK VINA RESULT:     -12.5      2.390      3.873
REMARK SMILES Cc1cccc(-c2ncc(C[NH+]3CCC4(CC3)NC(=O)C[C@H]4C(=O)OCCOC(=O)c3ccc(-c4c5nc(c(-c6c(F)cccc6F)c6ccc([nH]6)c(-c6c(F)cccc6F)c6nc(c(-c7c(F)cccc7F)c7ccc4[nH]7)C=C6)C=C5)cc3)cn2)c1
REMARK SMILES IDX 26 1 25 2 23 3 24 4 22 5 12 6 13 7 17 8 14 10 16 11 15 12
REMARK SMILES IDX 18 13 19 14 21 16 20 17 11 18 10 19 7 20 8 21 86 22 9 23
REMARK SMILES IDX 85 24 6 25 1 26 2 27 3 28 87 29 4 30 5 31 27 32 28 33 29 34
REMARK SMILES IDX 30 35 31 36 32 37 84 38 33 39 83 40 34 41 35 42 36 43 77 44
REMARK SMILES IDX 37 45 82 46 76 47 78 48 38 49 81 50 75 51 74 52 39 54 65 55
REMARK SMILES IDX 48 56 64 57 49 58 52 59 63 60 79 61 50 62 51 63 62 65 80 66
REMARK SMILES IDX 53 67 40 68 41 69 46 70 42 71 43 72 45 73 47 74 44 75 66 76
REMARK SMILES IDX 67 77 72 78 68 79 69 80 71 81 73 82 70 83 54 84 55 85 60 86
REMARK SMILES IDX 56 87 57 88 59 89 61 90 58 91
REMARK H PARENT 12 9 18 15 78 53 52 64
REMARK Flexibility Score: inf
ROOT
ATOM      1  C   UNL A   1      31.931  30.756  26.012  1.00  0.00     0.274 C 
ENDROOT
BRANCH   1   2
ATOM      2  O   UNL A   1      31.038  30.069  25.059  1.00  0.00    -0.462 OA
BRANCH   2   3
ATOM      3  C   UNL A   1      31.640  29.366  24.100  1.00  0.00     0.311 C 
ATOM      4  O   UNL A   1      32.859  29.384  24.052  1.00  0.00    -0.252 OA
BRANCH   3   5
ATOM      5  C   UNL A   1      30.929  28.443  23.122  1.00  0.00     0.134 C 
ATOM      6  N   UNL A   1      32.471  25.238  25.224  1.00  0.00    -0.331 N 
ATOM      7  C   UNL A   1      31.923  24.864  23.919  1.00  0.00     0.264 C 
ATOM      8  C   UNL A   1      32.455  26.668  25.347  1.00  0.00     0.264 C 
ATOM      9  H   UNL A   1      33.392  24.809  25.138  1.00  0.00     0.348 HD
ATOM     10  C   UNL A   1      30.829  25.764  23.220  1.00  0.00     0.091 C 
ATOM     11  C   UNL A   1      30.993  27.151  25.254  1.00  0.00     0.091 C 
ATOM     12  C   UNL A   1      30.482  27.154  23.839  1.00  0.00     0.064 C 
ATOM     13  N   UNL A   1      29.036  27.303  23.819  1.00  0.00    -0.349 N 
ATOM     14  C   UNL A   1      28.573  28.317  23.033  1.00  0.00     0.221 C 
ATOM     15  H   UNL A   1      28.436  26.715  24.334  1.00  0.00     0.164 HD
ATOM     16  C   UNL A   1      29.723  28.986  22.375  1.00  0.00     0.117 C 
ATOM     17  O   UNL A   1      27.384  28.591  22.860  1.00  0.00    -0.275 OA
BRANCH   6  18
ATOM     18  C   UNL A   1      32.192  24.539  26.494  1.00  0.00     0.302 C 
BRANCH  18  19
ATOM     19  C   UNL A   1      32.257  23.020  26.460  1.00  0.00     0.043 A 
ATOM     20  C   UNL A   1      32.738  20.537  25.418  1.00  0.00     0.159 A 
ATOM     21  N   UNL A   1      33.742  21.159  26.074  1.00  0.00    -0.236 NA
ATOM     22  N   UNL A   1      31.468  20.994  25.371  1.00  0.00    -0.236 NA
ATOM     23  C   UNL A   1      33.468  22.374  26.610  1.00  0.00     0.124 A 
ATOM     24  C   UNL A   1      31.252  22.225  25.908  1.00  0.00     0.124 A 
BRANCH  20  25
ATOM     25  C   UNL A   1      33.090  19.331  24.639  1.00  0.00     0.019 A 
ATOM     26  C   UNL A   1      35.033  16.005  24.976  1.00  0.00     0.044 C 
ATOM     27  C   UNL A   1      34.166  17.109  24.432  1.00  0.00    -0.050 A 
ATOM     28  C   UNL A   1      33.549  16.936  23.194  1.00  0.00     0.003 A 
ATOM     29  C   UNL A   1      33.938  18.310  25.135  1.00  0.00     0.015 A 
ATOM     30  C   UNL A   1      32.748  17.945  22.663  1.00  0.00     0.001 A 
ATOM     31  C   UNL A   1      32.529  19.131  23.373  1.00  0.00     0.012 A 
ENDBRANCH  20  25
ENDBRANCH  18  19
ENDBRANCH   6  18
ENDBRANCH   3   5
ENDBRANCH   2   3
ENDBRANCH   1   2
BRANCH   1  32
ATOM     32  C   UNL A   1      32.665  30.102  27.285  1.00  0.00     0.275 C 
BRANCH  32  33
ATOM     33  O   UNL A   1      34.114  30.035  27.701  1.00  0.00    -0.458 OA
BRANCH  33  34
ATOM     34  C   UNL A   1      35.122  30.942  27.905  1.00  0.00     0.338 C 
ATOM     35  O   UNL A   1      35.044  32.134  27.644  1.00  0.00    -0.246 OA
BRANCH  34  36
ATOM     36  C   UNL A   1      36.359  30.362  28.434  1.00  0.00     0.060 A 
ATOM     37  C   UNL A   1      36.478  29.837  29.741  1.00  0.00     0.016 A 
ATOM     38  C   UNL A   1      37.288  30.105  27.455  1.00  0.00     0.016 A 
ATOM     39  C   UNL A   1      37.524  28.954  30.021  1.00  0.00     0.010 A 
ATOM     40  C   UNL A   1      38.109  29.040  27.645  1.00  0.00     0.010 A 
ATOM     41  C   UNL A   1      38.303  28.536  28.942  1.00  0.00    -0.014 A 
BRANCH  41  42
ATOM     42  C   UNL A   1      39.664  28.034  29.013  1.00  0.00     0.031 A 
ATOM     43  C   UNL A   1      40.001  26.696  28.502  1.00  0.00     0.074 A 
ATOM     44  C   UNL A   1      40.458  29.125  29.167  1.00  0.00     0.049 A 
ATOM     45  N   UNL A   1      40.738  25.832  29.116  1.00  0.00    -0.248 NA
ATOM     46  C   UNL A   1      39.435  26.168  27.249  1.00  0.00     0.031 C 
ATOM     47  C   UNL A   1      41.815  29.442  28.797  1.00  0.00     0.029 A 
ATOM     48  N   UNL A   1      40.006  30.339  29.711  1.00  0.00    -0.354 N 
ATOM     49  C   UNL A   1      41.083  24.906  28.142  1.00  0.00     0.074 A 
ATOM     50  C   UNL A   1      40.038  24.976  27.148  1.00  0.00     0.031 C 
ATOM     51  C   UNL A   1      42.172  30.584  29.431  1.00  0.00     0.029 A 
ATOM     52  C   UNL A   1      41.058  31.025  30.273  1.00  0.00     0.049 A 
ATOM     53  H   UNL A   1      39.073  30.654  29.693  1.00  0.00     0.167 HD
ATOM     54  C   UNL A   1      42.400  24.609  27.918  1.00  0.00     0.037 A 
ATOM     55  C   UNL A   1      40.979  31.107  31.633  1.00  0.00     0.037 A 
ATOM     56  C   UNL A   1      43.231  25.598  28.598  1.00  0.00     0.049 A 
ATOM     57  C   UNL A   1      41.916  30.070  32.191  1.00  0.00     0.074 A 
ATOM     58  C   UNL A   1      43.881  26.721  28.114  1.00  0.00     0.029 A 
ATOM     59  N   UNL A   1      43.183  25.731  29.978  1.00  0.00    -0.354 N 
ATOM     60  N   UNL A   1      42.186  28.930  31.612  1.00  0.00    -0.248 NA
ATOM     61  C   UNL A   1      42.726  30.323  33.370  1.00  0.00     0.031 C 
ATOM     62  C   UNL A   1      44.235  27.530  29.221  1.00  0.00     0.029 A 
ATOM     63  C   UNL A   1      43.745  26.929  30.369  1.00  0.00     0.049 A 
ATOM     64  H   UNL A   1      42.801  25.063  30.592  1.00  0.00     0.167 HD
ATOM     65  C   UNL A   1      43.261  28.363  32.236  1.00  0.00     0.074 A 
ATOM     66  C   UNL A   1      43.539  29.256  33.350  1.00  0.00     0.031 C 
ATOM     67  C   UNL A   1      43.892  27.244  31.777  1.00  0.00     0.037 A 
BRANCH  54  68
ATOM     68  C   UNL A   1      42.939  23.729  26.805  1.00  0.00     0.057 A 
ATOM     69  C   UNL A   1      43.038  22.329  26.960  1.00  0.00     0.134 A 
ATOM     70  C   UNL A   1      43.291  24.194  25.524  1.00  0.00     0.134 A 
ATOM     71  F   UNL A   1      42.651  21.712  28.084  1.00  0.00    -0.206 F 
ATOM     72  C   UNL A   1      43.516  21.474  25.959  1.00  0.00     0.040 A 
ATOM     73  C   UNL A   1      43.787  23.350  24.516  1.00  0.00     0.040 A 
ATOM     74  F   UNL A   1      43.126  25.480  25.181  1.00  0.00    -0.206 F 
ATOM     75  C   UNL A   1      43.907  21.984  24.733  1.00  0.00     0.006 A 
ENDBRANCH  54  68
BRANCH  55  76
ATOM     76  C   UNL A   1      39.574  31.399  32.126  1.00  0.00     0.057 A 
ATOM     77  C   UNL A   1      38.897  30.401  32.871  1.00  0.00     0.134 A 
ATOM     78  C   UNL A   1      38.996  32.675  32.164  1.00  0.00     0.134 A 
ATOM     79  F   UNL A   1      39.385  29.150  32.915  1.00  0.00    -0.206 F 
ATOM     80  C   UNL A   1      37.777  30.671  33.670  1.00  0.00     0.040 A 
ATOM     81  C   UNL A   1      37.852  32.950  32.940  1.00  0.00     0.040 A 
ATOM     82  F   UNL A   1      39.566  33.705  31.526  1.00  0.00    -0.206 F 
ATOM     83  C   UNL A   1      37.257  31.957  33.718  1.00  0.00     0.006 A 
ENDBRANCH  55  76
BRANCH  67  84
ATOM     84  C   UNL A   1      44.815  26.385  32.595  1.00  0.00     0.057 A 
ATOM     85  C   UNL A   1      46.204  26.375  32.426  1.00  0.00     0.134 A 
ATOM     86  C   UNL A   1      44.338  25.667  33.717  1.00  0.00     0.134 A 
ATOM     87  F   UNL A   1      46.808  27.128  31.498  1.00  0.00    -0.206 F 
ATOM     88  C   UNL A   1      47.050  25.634  33.252  1.00  0.00     0.040 A 
ATOM     89  C   UNL A   1      45.181  24.992  34.596  1.00  0.00     0.040 A 
ATOM     90  F   UNL A   1      43.036  25.615  34.035  1.00  0.00    -0.206 F 
ATOM     91  C   UNL A   1      46.542  24.951  34.349  1.00  0.00     0.006 A 
ENDBRANCH  67  84
ENDBRANCH  41  42
ENDBRANCH  34  36
ENDBRANCH  33  34
ENDBRANCH  32  33
ENDBRANCH   1  32
TORSDOF 14
ENDMDL
