MODEL 1
REMARK VINA RESULT:     -11.6      0.000      0.000
REMARK SMILES NC(=O)c1cc(NC(=O)/C=C\C(=O)OCCOC(=O)c2ccc(-c3c4nc(c(-c5c(F)cccc5F)c5ccc([nH]5)c(-c5c(F)cccc5F)c5nc(c(-c6c(F)cccc6F)c6ccc3[nH]6)C=C5)C=C4)cc2)ccc1N1CCOCC1
REMARK SMILES IDX 15 1 14 2 12 3 13 4 11 5 10 6 8 7 7 8 9 10 6 11 4 12 5 13
REMARK SMILES IDX 76 14 75 15 74 16 2 17 1 18 3 21 77 22 78 23 82 24 79 25
REMARK SMILES IDX 81 26 80 27 16 28 17 29 18 30 19 31 20 32 21 33 73 34 22 35
REMARK SMILES IDX 72 36 23 37 24 38 25 39 66 40 26 41 71 42 65 43 67 44 27 45
REMARK SMILES IDX 70 46 64 47 63 48 28 50 54 51 37 52 53 53 38 54 41 55 52 56
REMARK SMILES IDX 68 57 39 58 40 59 51 61 69 62 42 63 29 64 30 65 35 66 31 67
REMARK SMILES IDX 32 68 34 69 36 70 33 71 55 72 56 73 61 74 57 75 58 76 60 77
REMARK SMILES IDX 62 78 59 79 43 80 44 81 49 82 45 83 46 84 48 85 50 86 47 87
REMARK H PARENT 7 9 1 19 1 20 67 49 41 60
REMARK Flexibility Score: inf
ROOT
ATOM      1  C   UNL A   1      38.327  20.989  25.361  1.00  0.00     0.275 C 
ENDROOT
BRANCH   1   2
ATOM      2  O   UNL A   1      37.405  21.116  24.261  1.00  0.00    -0.459 OA
BRANCH   2   3
ATOM      3  C   UNL A   1      36.720  22.277  24.241  1.00  0.00     0.331 C 
ATOM      4  O   UNL A   1      36.772  23.124  23.361  1.00  0.00    -0.247 OA
BRANCH   3   5
ATOM      5  C   UNL A   1      35.834  22.458  25.389  1.00  0.00     0.099 C 
ATOM      6  C   UNL A   1      34.706  21.771  25.621  1.00  0.00     0.079 C 
BRANCH   6   7
ATOM      7  C   UNL A   1      33.986  20.840  24.721  1.00  0.00     0.248 C 
ATOM      8  N   UNL A   1      32.875  21.177  24.007  1.00  0.00    -0.322 N 
ATOM      9  H   UNL A   1      32.422  20.410  23.590  1.00  0.00     0.170 HD
ATOM     10  O   UNL A   1      34.408  19.684  24.657  1.00  0.00    -0.270 OA
BRANCH   8  11
ATOM     11  C   UNL A   1      32.253  22.409  23.754  1.00  0.00     0.042 A 
ATOM     12  C   UNL A   1      32.196  24.575  22.682  1.00  0.00     0.064 A 
ATOM     13  C   UNL A   1      32.556  23.213  22.666  1.00  0.00     0.042 A 
ATOM     14  C   UNL A   1      31.488  25.139  23.770  1.00  0.00     0.050 A 
ATOM     15  C   UNL A   1      31.007  24.238  24.734  1.00  0.00     0.029 A 
ATOM     16  C   UNL A   1      31.366  22.884  24.718  1.00  0.00     0.028 A 
BRANCH  12  17
ATOM     17  C   UNL A   1      32.876  25.374  21.635  1.00  0.00     0.250 C 
ATOM     18  N   UNL A   1      32.158  25.592  20.501  1.00  0.00    -0.366 N 
ATOM     19  H   UNL A   1      32.547  26.116  19.764  1.00  0.00     0.159 HD
ATOM     20  H   UNL A   1      31.247  25.228  20.418  1.00  0.00     0.159 HD
ATOM     21  O   UNL A   1      33.963  25.903  21.821  1.00  0.00    -0.269 OA
ENDBRANCH  12  17
BRANCH  14  22
ATOM     22  N   UNL A   1      31.351  26.506  23.965  1.00  0.00    -0.366 N 
ATOM     23  C   UNL A   1      30.117  27.197  23.566  1.00  0.00     0.145 C 
ATOM     24  C   UNL A   1      32.166  27.214  24.964  1.00  0.00     0.145 C 
ATOM     25  C   UNL A   1      30.435  28.657  23.192  1.00  0.00     0.181 C 
ATOM     26  C   UNL A   1      32.388  28.664  24.505  1.00  0.00     0.181 C 
ATOM     27  O   UNL A   1      31.145  29.333  24.246  1.00  0.00    -0.378 OA
ENDBRANCH  14  22
ENDBRANCH   8  11
ENDBRANCH   6   7
ENDBRANCH   3   5
ENDBRANCH   2   3
ENDBRANCH   1   2
BRANCH   1  28
ATOM     28  C   UNL A   1      39.113  19.669  25.448  1.00  0.00     0.275 C 
BRANCH  28  29
ATOM     29  O   UNL A   1      40.007  19.598  26.574  1.00  0.00    -0.458 OA
BRANCH  29  30
ATOM     30  C   UNL A   1      41.328  19.578  26.255  1.00  0.00     0.338 C 
ATOM     31  O   UNL A   1      41.943  18.657  25.753  1.00  0.00    -0.246 OA
BRANCH  30  32
ATOM     32  C   UNL A   1      41.909  20.927  26.449  1.00  0.00     0.060 A 
ATOM     33  C   UNL A   1      42.173  21.351  27.759  1.00  0.00     0.016 A 
ATOM     34  C   UNL A   1      42.165  21.775  25.371  1.00  0.00     0.016 A 
ATOM     35  C   UNL A   1      42.686  22.625  28.000  1.00  0.00     0.010 A 
ATOM     36  C   UNL A   1      42.667  23.058  25.610  1.00  0.00     0.010 A 
ATOM     37  C   UNL A   1      42.905  23.495  26.926  1.00  0.00    -0.014 A 
BRANCH  37  38
ATOM     38  C   UNL A   1      43.087  24.942  27.186  1.00  0.00     0.031 A 
ATOM     39  C   UNL A   1      44.416  25.536  26.815  1.00  0.00     0.074 A 
ATOM     40  C   UNL A   1      42.123  25.707  27.726  1.00  0.00     0.049 A 
ATOM     41  N   UNL A   1      44.870  26.746  27.000  1.00  0.00    -0.248 NA
ATOM     42  C   UNL A   1      45.367  24.626  26.153  1.00  0.00     0.031 C 
ATOM     43  C   UNL A   1      40.783  25.256  28.085  1.00  0.00     0.029 A 
ATOM     44  N   UNL A   1      42.130  27.035  28.072  1.00  0.00    -0.354 N 
ATOM     45  C   UNL A   1      46.158  26.741  26.481  1.00  0.00     0.074 A 
ATOM     46  C   UNL A   1      46.430  25.400  26.014  1.00  0.00     0.031 C 
ATOM     47  C   UNL A   1      40.089  26.289  28.592  1.00  0.00     0.029 A 
ATOM     48  C   UNL A   1      40.957  27.461  28.646  1.00  0.00     0.049 A 
ATOM     49  H   UNL A   1      42.904  27.626  27.923  1.00  0.00     0.167 HD
ATOM     50  C   UNL A   1      47.035  27.766  26.391  1.00  0.00     0.037 A 
ATOM     51  C   UNL A   1      40.637  28.656  29.181  1.00  0.00     0.037 A 
ATOM     52  C   UNL A   1      46.770  29.086  26.892  1.00  0.00     0.049 A 
ATOM     53  C   UNL A   1      41.671  29.752  29.177  1.00  0.00     0.074 A 
ATOM     54  C   UNL A   1      47.592  30.197  26.879  1.00  0.00     0.029 A 
ATOM     55  N   UNL A   1      45.588  29.466  27.513  1.00  0.00    -0.354 N 
ATOM     56  N   UNL A   1      42.884  29.746  28.676  1.00  0.00    -0.248 NA
ATOM     57  C   UNL A   1      41.295  31.019  29.819  1.00  0.00     0.031 C 
ATOM     58  C   UNL A   1      46.927  31.235  27.542  1.00  0.00     0.029 A 
ATOM     59  C   UNL A   1      45.667  30.789  27.911  1.00  0.00     0.049 A 
ATOM     60  H   UNL A   1      44.808  28.880  27.651  1.00  0.00     0.167 HD
ATOM     61  C   UNL A   1      43.400  31.015  28.906  1.00  0.00     0.074 A 
ATOM     62  C   UNL A   1      42.365  31.766  29.586  1.00  0.00     0.031 C 
ATOM     63  C   UNL A   1      44.617  31.517  28.580  1.00  0.00     0.037 A 
BRANCH  50  64
ATOM     64  C   UNL A   1      48.367  27.463  25.771  1.00  0.00     0.057 A 
ATOM     65  C   UNL A   1      48.550  27.450  24.380  1.00  0.00     0.134 A 
ATOM     66  C   UNL A   1      49.468  27.131  26.569  1.00  0.00     0.134 A 
ATOM     67  F   UNL A   1      47.529  27.731  23.558  1.00  0.00    -0.206 F 
ATOM     68  C   UNL A   1      49.769  27.080  23.807  1.00  0.00     0.040 A 
ATOM     69  C   UNL A   1      50.700  26.790  26.008  1.00  0.00     0.040 A 
ATOM     70  F   UNL A   1      49.362  27.118  27.906  1.00  0.00    -0.206 F 
ATOM     71  C   UNL A   1      50.848  26.751  24.623  1.00  0.00     0.006 A 
ENDBRANCH  50  64
BRANCH  51  72
ATOM     72  C   UNL A   1      39.291  28.884  29.768  1.00  0.00     0.057 A 
ATOM     73  C   UNL A   1      38.243  29.398  28.994  1.00  0.00     0.134 A 
ATOM     74  C   UNL A   1      39.020  28.621  31.116  1.00  0.00     0.134 A 
ATOM     75  F   UNL A   1      38.444  29.697  27.701  1.00  0.00    -0.206 F 
ATOM     76  C   UNL A   1      36.984  29.657  29.540  1.00  0.00     0.040 A 
ATOM     77  C   UNL A   1      37.759  28.850  31.671  1.00  0.00     0.040 A 
ATOM     78  F   UNL A   1      39.977  28.128  31.917  1.00  0.00    -0.206 F 
ATOM     79  C   UNL A   1      36.738  29.377  30.883  1.00  0.00     0.006 A 
ENDBRANCH  51  72
BRANCH  63  80
ATOM     80  C   UNL A   1      44.876  32.958  28.909  1.00  0.00     0.057 A 
ATOM     81  C   UNL A   1      45.507  33.349  30.096  1.00  0.00     0.134 A 
ATOM     82  C   UNL A   1      44.527  33.965  27.999  1.00  0.00     0.134 A 
ATOM     83  F   UNL A   1      45.855  32.436  31.015  1.00  0.00    -0.206 F 
ATOM     84  C   UNL A   1      45.761  34.693  30.377  1.00  0.00     0.040 A 
ATOM     85  C   UNL A   1      44.804  35.308  28.253  1.00  0.00     0.040 A 
ATOM     86  F   UNL A   1      43.929  33.657  26.838  1.00  0.00    -0.206 F 
ATOM     87  C   UNL A   1      45.416  35.675  29.449  1.00  0.00     0.006 A 
ENDBRANCH  63  80
ENDBRANCH  37  38
ENDBRANCH  30  32
ENDBRANCH  29  30
ENDBRANCH  28  29
ENDBRANCH   1  28
TORSDOF 15
ENDMDL
MODEL 2
REMARK VINA RESULT:     -11.5      1.648      2.291
REMARK SMILES NC(=O)c1cc(NC(=O)/C=C\C(=O)OCCOC(=O)c2ccc(-c3c4nc(c(-c5c(F)cccc5F)c5ccc([nH]5)c(-c5c(F)cccc5F)c5nc(c(-c6c(F)cccc6F)c6ccc3[nH]6)C=C5)C=C4)cc2)ccc1N1CCOCC1
REMARK SMILES IDX 15 1 14 2 12 3 13 4 11 5 10 6 8 7 7 8 9 10 6 11 4 12 5 13
REMARK SMILES IDX 76 14 75 15 74 16 2 17 1 18 3 21 77 22 78 23 82 24 79 25
REMARK SMILES IDX 81 26 80 27 16 28 17 29 18 30 19 31 20 32 21 33 73 34 22 35
REMARK SMILES IDX 72 36 23 37 24 38 25 39 66 40 26 41 71 42 65 43 67 44 27 45
REMARK SMILES IDX 70 46 64 47 63 48 28 50 54 51 37 52 53 53 38 54 41 55 52 56
REMARK SMILES IDX 68 57 39 58 40 59 51 61 69 62 42 63 29 64 30 65 35 66 31 67
REMARK SMILES IDX 32 68 34 69 36 70 33 71 55 72 56 73 61 74 57 75 58 76 60 77
REMARK SMILES IDX 62 78 59 79 43 80 44 81 49 82 45 83 46 84 48 85 50 86 47 87
REMARK H PARENT 7 9 1 19 1 20 67 49 41 60
REMARK Flexibility Score: inf
ROOT
ATOM      1  C   UNL A   1      37.656  20.428  24.968  1.00  0.00     0.275 C 
ENDROOT
BRANCH   1   2
ATOM      2  O   UNL A   1      37.780  21.858  25.095  1.00  0.00    -0.459 OA
BRANCH   2   3
ATOM      3  C   UNL A   1      36.762  22.555  24.550  1.00  0.00     0.331 C 
ATOM      4  O   UNL A   1      36.634  22.827  23.366  1.00  0.00    -0.247 OA
BRANCH   3   5
ATOM      5  C   UNL A   1      35.743  22.961  25.517  1.00  0.00     0.099 C 
ATOM      6  C   UNL A   1      34.545  22.381  25.679  1.00  0.00     0.079 C 
BRANCH   6   7
ATOM      7  C   UNL A   1      33.888  21.359  24.832  1.00  0.00     0.248 C 
ATOM      8  N   UNL A   1      32.781  21.596  24.072  1.00  0.00    -0.322 N 
ATOM      9  H   UNL A   1      32.371  20.782  23.701  1.00  0.00     0.170 HD
ATOM     10  O   UNL A   1      34.360  20.220  24.859  1.00  0.00    -0.270 OA
BRANCH   8  11
ATOM     11  C   UNL A   1      32.114  22.778  23.719  1.00  0.00     0.042 A 
ATOM     12  C   UNL A   1      32.014  24.886  22.539  1.00  0.00     0.064 A 
ATOM     13  C   UNL A   1      32.445  23.546  22.613  1.00  0.00     0.042 A 
ATOM     14  C   UNL A   1      31.209  25.461  23.551  1.00  0.00     0.050 A 
ATOM     15  C   UNL A   1      30.715  24.581  24.528  1.00  0.00     0.029 A 
ATOM     16  C   UNL A   1      31.144  23.249  24.603  1.00  0.00     0.028 A 
BRANCH  12  17
ATOM     17  C   UNL A   1      32.718  25.671  21.497  1.00  0.00     0.250 C 
ATOM     18  N   UNL A   1      32.067  25.789  20.309  1.00  0.00    -0.366 N 
ATOM     19  H   UNL A   1      32.476  26.297  19.572  1.00  0.00     0.159 HD
ATOM     20  H   UNL A   1      31.186  25.367  20.186  1.00  0.00     0.159 HD
ATOM     21  O   UNL A   1      33.758  26.272  21.724  1.00  0.00    -0.269 OA
ENDBRANCH  12  17
BRANCH  14  22
ATOM     22  N   UNL A   1      30.990  26.825  23.669  1.00  0.00    -0.366 N 
ATOM     23  C   UNL A   1      29.946  27.485  22.873  1.00  0.00     0.145 C 
ATOM     24  C   UNL A   1      31.414  27.561  24.870  1.00  0.00     0.145 C 
ATOM     25  C   UNL A   1      30.343  28.949  22.602  1.00  0.00     0.181 C 
ATOM     26  C   UNL A   1      31.749  29.012  24.489  1.00  0.00     0.181 C 
ATOM     27  O   UNL A   1      30.649  29.650  23.821  1.00  0.00    -0.378 OA
ENDBRANCH  14  22
ENDBRANCH   8  11
ENDBRANCH   6   7
ENDBRANCH   3   5
ENDBRANCH   2   3
ENDBRANCH   1   2
BRANCH   1  28
ATOM     28  C   UNL A   1      38.964  19.620  25.015  1.00  0.00     0.275 C 
BRANCH  28  29
ATOM     29  O   UNL A   1      39.667  19.724  26.268  1.00  0.00    -0.458 OA
BRANCH  29  30
ATOM     30  C   UNL A   1      41.022  19.664  26.170  1.00  0.00     0.338 C 
ATOM     31  O   UNL A   1      41.677  18.777  25.658  1.00  0.00    -0.246 OA
BRANCH  30  32
ATOM     32  C   UNL A   1      41.613  20.942  26.631  1.00  0.00     0.060 A 
ATOM     33  C   UNL A   1      41.552  21.241  27.999  1.00  0.00     0.016 A 
ATOM     34  C   UNL A   1      42.191  21.845  25.739  1.00  0.00     0.016 A 
ATOM     35  C   UNL A   1      42.061  22.447  28.482  1.00  0.00     0.010 A 
ATOM     36  C   UNL A   1      42.690  23.060  26.218  1.00  0.00     0.010 A 
ATOM     37  C   UNL A   1      42.603  23.375  27.587  1.00  0.00    -0.014 A 
BRANCH  37  38
ATOM     38  C   UNL A   1      42.798  24.778  28.021  1.00  0.00     0.031 A 
ATOM     39  C   UNL A   1      44.205  25.203  28.331  1.00  0.00     0.074 A 
ATOM     40  C   UNL A   1      41.780  25.647  28.136  1.00  0.00     0.049 A 
ATOM     41  N   UNL A   1      44.650  26.337  28.799  1.00  0.00    -0.248 NA
ATOM     42  C   UNL A   1      45.252  24.194  28.088  1.00  0.00     0.031 C 
ATOM     43  C   UNL A   1      40.384  25.367  27.822  1.00  0.00     0.029 A 
ATOM     44  N   UNL A   1      41.769  26.953  28.559  1.00  0.00    -0.354 N 
ATOM     45  C   UNL A   1      46.025  26.177  28.909  1.00  0.00     0.074 A 
ATOM     46  C   UNL A   1      46.337  24.825  28.502  1.00  0.00     0.031 C 
ATOM     47  C   UNL A   1      39.648  26.467  28.052  1.00  0.00     0.029 A 
ATOM     48  C   UNL A   1      40.515  27.514  28.584  1.00  0.00     0.049 A 
ATOM     49  H   UNL A   1      42.584  27.442  28.820  1.00  0.00     0.167 HD
ATOM     50  C   UNL A   1      46.951  27.080  29.306  1.00  0.00     0.037 A 
ATOM     51  C   UNL A   1      40.115  28.725  29.019  1.00  0.00     0.037 A 
ATOM     52  C   UNL A   1      46.627  28.409  29.745  1.00  0.00     0.049 A 
ATOM     53  C   UNL A   1      41.147  29.675  29.567  1.00  0.00     0.074 A 
ATOM     54  C   UNL A   1      47.478  29.403  30.191  1.00  0.00     0.029 A 
ATOM     55  N   UNL A   1      45.339  28.924  29.804  1.00  0.00    -0.354 N 
ATOM     56  N   UNL A   1      42.448  29.524  29.659  1.00  0.00    -0.248 NA
ATOM     57  C   UNL A   1      40.656  30.963  30.078  1.00  0.00     0.031 C 
ATOM     58  C   UNL A   1      46.698  30.501  30.573  1.00  0.00     0.029 A 
ATOM     59  C   UNL A   1      45.368  30.214  30.304  1.00  0.00     0.049 A 
ATOM     60  H   UNL A   1      44.525  28.442  29.530  1.00  0.00     0.167 HD
ATOM     61  C   UNL A   1      42.934  30.708  30.200  1.00  0.00     0.074 A 
ATOM     62  C   UNL A   1      41.788  31.569  30.409  1.00  0.00     0.031 C 
ATOM     63  C   UNL A   1      44.212  31.055  30.493  1.00  0.00     0.037 A 
BRANCH  50  64
ATOM     64  C   UNL A   1      48.379  26.622  29.320  1.00  0.00     0.057 A 
ATOM     65  C   UNL A   1      48.938  25.976  30.434  1.00  0.00     0.134 A 
ATOM     66  C   UNL A   1      49.221  26.872  28.230  1.00  0.00     0.134 A 
ATOM     67  F   UNL A   1      48.194  25.732  31.522  1.00  0.00    -0.206 F 
ATOM     68  C   UNL A   1      50.291  25.633  30.476  1.00  0.00     0.040 A 
ATOM     69  C   UNL A   1      50.568  26.504  28.249  1.00  0.00     0.040 A 
ATOM     70  F   UNL A   1      48.754  27.490  27.136  1.00  0.00    -0.206 F 
ATOM     71  C   UNL A   1      51.108  25.894  29.379  1.00  0.00     0.006 A 
ENDBRANCH  50  64
BRANCH  51  72
ATOM     72  C   UNL A   1      38.681  29.111  28.962  1.00  0.00     0.057 A 
ATOM     73  C   UNL A   1      38.119  29.629  27.788  1.00  0.00     0.134 A 
ATOM     74  C   UNL A   1      37.842  29.000  30.078  1.00  0.00     0.134 A 
ATOM     75  F   UNL A   1      38.875  29.786  26.691  1.00  0.00    -0.206 F 
ATOM     76  C   UNL A   1      36.783  30.035  27.730  1.00  0.00     0.040 A 
ATOM     77  C   UNL A   1      36.499  29.377  30.027  1.00  0.00     0.040 A 
ATOM     78  F   UNL A   1      38.315  28.513  31.235  1.00  0.00    -0.206 F 
ATOM     79  C   UNL A   1      35.968  29.905  28.852  1.00  0.00     0.006 A 
ENDBRANCH  51  72
BRANCH  63  80
ATOM     80  C   UNL A   1      44.443  32.440  31.023  1.00  0.00     0.057 A 
ATOM     81  C   UNL A   1      44.648  33.537  30.177  1.00  0.00     0.134 A 
ATOM     82  C   UNL A   1      44.415  32.682  32.403  1.00  0.00     0.134 A 
ATOM     83  F   UNL A   1      44.699  33.370  28.847  1.00  0.00    -0.206 F 
ATOM     84  C   UNL A   1      44.840  34.823  30.686  1.00  0.00     0.040 A 
ATOM     85  C   UNL A   1      44.572  33.967  32.922  1.00  0.00     0.040 A 
ATOM     86  F   UNL A   1      44.212  31.677  33.268  1.00  0.00    -0.206 F 
ATOM     87  C   UNL A   1      44.793  35.041  32.062  1.00  0.00     0.006 A 
ENDBRANCH  63  80
ENDBRANCH  37  38
ENDBRANCH  30  32
ENDBRANCH  29  30
ENDBRANCH  28  29
ENDBRANCH   1  28
TORSDOF 15
ENDMDL
MODEL 3
REMARK VINA RESULT:     -11.4      3.964      8.131
REMARK SMILES NC(=O)c1cc(NC(=O)/C=C\C(=O)OCCOC(=O)c2ccc(-c3c4nc(c(-c5c(F)cccc5F)c5ccc([nH]5)c(-c5c(F)cccc5F)c5nc(c(-c6c(F)cccc6F)c6ccc3[nH]6)C=C5)C=C4)cc2)ccc1N1CCOCC1
REMARK SMILES IDX 15 1 14 2 12 3 13 4 11 5 10 6 8 7 7 8 9 10 6 11 4 12 5 13
REMARK SMILES IDX 76 14 75 15 74 16 2 17 1 18 3 21 77 22 78 23 82 24 79 25
REMARK SMILES IDX 81 26 80 27 16 28 17 29 18 30 19 31 20 32 21 33 73 34 22 35
REMARK SMILES IDX 72 36 23 37 24 38 25 39 66 40 26 41 71 42 65 43 67 44 27 45
REMARK SMILES IDX 70 46 64 47 63 48 28 50 54 51 37 52 53 53 38 54 41 55 52 56
REMARK SMILES IDX 68 57 39 58 40 59 51 61 69 62 42 63 29 64 30 65 35 66 31 67
REMARK SMILES IDX 32 68 34 69 36 70 33 71 55 72 56 73 61 74 57 75 58 76 60 77
REMARK SMILES IDX 62 78 59 79 43 80 44 81 49 82 45 83 46 84 48 85 50 86 47 87
REMARK H PARENT 7 9 1 19 1 20 67 49 41 60
REMARK Flexibility Score: inf
ROOT
ATOM      1  C   UNL A   1      32.152  29.150  24.778  1.00  0.00     0.275 C 
ENDROOT
BRANCH   1   2
ATOM      2  O   UNL A   1      32.569  27.942  25.443  1.00  0.00    -0.459 OA
BRANCH   2   3
ATOM      3  C   UNL A   1      32.845  26.916  24.611  1.00  0.00     0.331 C 
ATOM      4  O   UNL A   1      33.929  26.365  24.490  1.00  0.00    -0.247 OA
BRANCH   3   5
ATOM      5  C   UNL A   1      31.691  26.455  23.842  1.00  0.00     0.099 C 
ATOM      6  C   UNL A   1      31.738  25.660  22.763  1.00  0.00     0.079 C 
BRANCH   6   7
ATOM      7  C   UNL A   1      32.920  25.226  21.983  1.00  0.00     0.248 C 
ATOM      8  N   UNL A   1      33.647  24.107  22.262  1.00  0.00    -0.322 N 
ATOM      9  H   UNL A   1      34.491  24.046  21.760  1.00  0.00     0.170 HD
ATOM     10  O   UNL A   1      33.278  25.954  21.055  1.00  0.00    -0.270 OA
BRANCH   8  11
ATOM     11  C   UNL A   1      33.422  23.025  23.127  1.00  0.00     0.042 A 
ATOM     12  C   UNL A   1      34.134  21.543  24.898  1.00  0.00     0.064 A 
ATOM     13  C   UNL A   1      34.134  22.818  24.298  1.00  0.00     0.042 A 
ATOM     14  C   UNL A   1      33.386  20.471  24.357  1.00  0.00     0.050 A 
ATOM     15  C   UNL A   1      32.508  20.792  23.309  1.00  0.00     0.029 A 
ATOM     16  C   UNL A   1      32.508  22.059  22.712  1.00  0.00     0.028 A 
BRANCH  12  17
ATOM     17  C   UNL A   1      35.193  21.378  25.924  1.00  0.00     0.250 C 
ATOM     18  N   UNL A   1      34.777  21.453  27.216  1.00  0.00    -0.366 N 
ATOM     19  H   UNL A   1      35.427  21.351  27.949  1.00  0.00     0.159 HD
ATOM     20  H   UNL A   1      33.827  21.606  27.420  1.00  0.00     0.159 HD
ATOM     21  O   UNL A   1      36.342  21.078  25.632  1.00  0.00    -0.269 OA
ENDBRANCH  12  17
BRANCH  14  22
ATOM     22  N   UNL A   1      33.563  19.148  24.737  1.00  0.00    -0.366 N 
ATOM     23  C   UNL A   1      34.737  18.392  24.279  1.00  0.00     0.145 C 
ATOM     24  C   UNL A   1      32.903  18.608  25.935  1.00  0.00     0.145 C 
ATOM     25  C   UNL A   1      34.387  16.895  24.178  1.00  0.00     0.181 C 
ATOM     26  C   UNL A   1      32.634  17.107  25.736  1.00  0.00     0.181 C 
ATOM     27  O   UNL A   1      33.837  16.394  25.412  1.00  0.00    -0.378 OA
ENDBRANCH  14  22
ENDBRANCH   8  11
ENDBRANCH   6   7
ENDBRANCH   3   5
ENDBRANCH   2   3
ENDBRANCH   1   2
BRANCH   1  28
ATOM     28  C   UNL A   1      31.773  30.334  25.683  1.00  0.00     0.275 C 
BRANCH  28  29
ATOM     29  O   UNL A   1      32.449  30.335  26.954  1.00  0.00    -0.458 OA
BRANCH  29  30
ATOM     30  C   UNL A   1      33.108  31.486  27.251  1.00  0.00     0.338 C 
ATOM     31  O   UNL A   1      32.651  32.612  27.235  1.00  0.00    -0.246 OA
BRANCH  30  32
ATOM     32  C   UNL A   1      34.455  31.168  27.780  1.00  0.00     0.060 A 
ATOM     33  C   UNL A   1      34.760  29.825  28.044  1.00  0.00     0.016 A 
ATOM     34  C   UNL A   1      35.394  32.167  28.040  1.00  0.00     0.016 A 
ATOM     35  C   UNL A   1      36.001  29.474  28.575  1.00  0.00     0.010 A 
ATOM     36  C   UNL A   1      36.634  31.818  28.585  1.00  0.00     0.010 A 
ATOM     37  C   UNL A   1      36.931  30.475  28.878  1.00  0.00    -0.014 A 
BRANCH  37  38
ATOM     38  C   UNL A   1      38.073  30.164  29.768  1.00  0.00     0.031 A 
ATOM     39  C   UNL A   1      39.130  29.247  29.220  1.00  0.00     0.074 A 
ATOM     40  C   UNL A   1      38.180  30.666  31.009  1.00  0.00     0.049 A 
ATOM     41  N   UNL A   1      40.188  28.752  29.802  1.00  0.00    -0.248 NA
ATOM     42  C   UNL A   1      38.953  28.824  27.820  1.00  0.00     0.031 C 
ATOM     43  C   UNL A   1      37.247  31.597  31.633  1.00  0.00     0.029 A 
ATOM     44  N   UNL A   1      39.133  30.456  31.975  1.00  0.00    -0.354 N 
ATOM     45  C   UNL A   1      40.801  27.958  28.842  1.00  0.00     0.074 A 
ATOM     46  C   UNL A   1      39.975  28.001  27.655  1.00  0.00     0.031 C 
ATOM     47  C   UNL A   1      37.673  31.888  32.873  1.00  0.00     0.029 A 
ATOM     48  C   UNL A   1      38.881  31.118  33.152  1.00  0.00     0.049 A 
ATOM     49  H   UNL A   1      39.922  29.883  31.837  1.00  0.00     0.167 HD
ATOM     50  C   UNL A   1      41.955  27.260  28.935  1.00  0.00     0.037 A 
ATOM     51  C   UNL A   1      39.538  31.079  34.327  1.00  0.00     0.037 A 
ATOM     52  C   UNL A   1      42.749  27.193  30.130  1.00  0.00     0.049 A 
ATOM     53  C   UNL A   1      40.758  30.203  34.447  1.00  0.00     0.074 A 
ATOM     54  C   UNL A   1      43.924  26.499  30.350  1.00  0.00     0.029 A 
ATOM     55  N   UNL A   1      42.434  27.838  31.318  1.00  0.00    -0.354 N 
ATOM     56  N   UNL A   1      41.339  29.462  33.533  1.00  0.00    -0.248 NA
ATOM     57  C   UNL A   1      41.409  30.152  35.763  1.00  0.00     0.031 C 
ATOM     58  C   UNL A   1      44.290  26.680  31.688  1.00  0.00     0.029 A 
ATOM     59  C   UNL A   1      43.378  27.538  32.284  1.00  0.00     0.049 A 
ATOM     60  H   UNL A   1      41.652  28.422  31.454  1.00  0.00     0.167 HD
ATOM     61  C   UNL A   1      42.444  28.890  34.150  1.00  0.00     0.074 A 
ATOM     62  C   UNL A   1      42.455  29.375  35.515  1.00  0.00     0.031 C 
ATOM     63  C   UNL A   1      43.371  28.043  33.635  1.00  0.00     0.037 A 
BRANCH  50  64
ATOM     64  C   UNL A   1      42.378  26.488  27.720  1.00  0.00     0.057 A 
ATOM     65  C   UNL A   1      43.178  27.061  26.720  1.00  0.00     0.134 A 
ATOM     66  C   UNL A   1      41.942  25.173  27.521  1.00  0.00     0.134 A 
ATOM     67  F   UNL A   1      43.607  28.327  26.835  1.00  0.00    -0.206 F 
ATOM     68  C   UNL A   1      43.494  26.367  25.550  1.00  0.00     0.040 A 
ATOM     69  C   UNL A   1      42.277  24.459  26.369  1.00  0.00     0.040 A 
ATOM     70  F   UNL A   1      41.170  24.565  28.434  1.00  0.00    -0.206 F 
ATOM     71  C   UNL A   1      43.045  25.061  25.375  1.00  0.00     0.006 A 
ENDBRANCH  50  64
BRANCH  51  72
ATOM     72  C   UNL A   1      39.064  31.882  35.485  1.00  0.00     0.057 A 
ATOM     73  C   UNL A   1      39.475  33.210  35.660  1.00  0.00     0.134 A 
ATOM     74  C   UNL A   1      38.211  31.344  36.456  1.00  0.00     0.134 A 
ATOM     75  F   UNL A   1      40.313  33.777  34.779  1.00  0.00    -0.206 F 
ATOM     76  C   UNL A   1      39.071  33.965  36.763  1.00  0.00     0.040 A 
ATOM     77  C   UNL A   1      37.778  32.094  37.551  1.00  0.00     0.040 A 
ATOM     78  F   UNL A   1      37.778  30.078  36.352  1.00  0.00    -0.206 F 
ATOM     79  C   UNL A   1      38.215  33.408  37.711  1.00  0.00     0.006 A 
ENDBRANCH  51  72
BRANCH  63  80
ATOM     80  C   UNL A   1      44.499  27.629  34.535  1.00  0.00     0.057 A 
ATOM     81  C   UNL A   1      44.443  26.466  35.311  1.00  0.00     0.134 A 
ATOM     82  C   UNL A   1      45.676  28.388  34.586  1.00  0.00     0.134 A 
ATOM     83  F   UNL A   1      43.340  25.703  35.317  1.00  0.00    -0.206 F 
ATOM     84  C   UNL A   1      45.510  26.083  36.126  1.00  0.00     0.040 A 
ATOM     85  C   UNL A   1      46.761  27.998  35.371  1.00  0.00     0.040 A 
ATOM     86  F   UNL A   1      45.799  29.507  33.858  1.00  0.00    -0.206 F 
ATOM     87  C   UNL A   1      46.677  26.846  36.150  1.00  0.00     0.006 A 
ENDBRANCH  63  80
ENDBRANCH  37  38
ENDBRANCH  30  32
ENDBRANCH  29  30
ENDBRANCH  28  29
ENDBRANCH   1  28
TORSDOF 15
ENDMDL
