MODEL 1
REMARK VINA RESULT:      -9.1      0.000      0.000
REMARK SMILES C[C@H](Oc1ccc(-c2ccccc2)cc1)C(=O)N[C@H](C)C(=O)OCCOC(=O)c1ccc(-c2c3nc(c(-c4c(F)cccc4F)c4ccc([nH]4)c(-c4c(F)cccc4F)c4nc(c(-c5c(F)cccc5F)c5ccc2[nH]5)C=C4)C=C3)cc1
REMARK SMILES IDX 23 1 21 2 22 3 19 4 20 5 18 6 16 7 17 8 2 10 1 11 3 12 4 13
REMARK SMILES IDX 5 14 15 15 6 16 14 17 7 18 8 19 9 20 13 21 10 22 12 23 11 24
REMARK SMILES IDX 24 25 25 26 26 27 27 28 28 29 29 30 30 31 82 32 31 33 81 34
REMARK SMILES IDX 32 35 33 36 34 37 75 38 35 39 80 40 74 41 76 42 36 43 79 44
REMARK SMILES IDX 73 45 72 46 37 48 63 49 46 50 62 51 47 52 50 53 61 54 77 55
REMARK SMILES IDX 48 56 49 57 60 59 78 60 51 61 38 62 39 63 44 64 40 65 41 66
REMARK SMILES IDX 43 67 45 68 42 69 64 70 65 71 70 72 66 73 67 74 69 75 71 76
REMARK SMILES IDX 68 77 52 78 53 79 58 80 54 81 55 82 57 83 59 84 56 85
REMARK H PARENT 18 9 76 47 50 58
REMARK Flexibility Score: inf
ROOT
ATOM      1  O   UNL A   1      33.601  36.465  30.938  1.00  0.00    -0.461 OA
ENDROOT
BRANCH   1   2
ATOM      2  C   UNL A   1      33.339  36.976  32.165  1.00  0.00     0.328 C 
ATOM      3  O   UNL A   1      33.845  38.002  32.608  1.00  0.00    -0.250 OA
BRANCH   2   4
ATOM      4  C   UNL A   1      32.390  36.093  33.004  1.00  0.00     0.189 C 
ATOM      5  C   UNL A   1      30.896  36.408  33.006  1.00  0.00     0.043 C 
BRANCH   4   6
ATOM      6  N   UNL A   1      32.665  34.651  32.917  1.00  0.00    -0.340 N 
ATOM      7  C   UNL A   1      33.821  33.944  33.115  1.00  0.00     0.261 C 
ATOM      8  O   UNL A   1      33.824  32.760  32.763  1.00  0.00    -0.271 OA
ATOM      9  H   UNL A   1      31.885  34.100  32.676  1.00  0.00     0.164 HD
BRANCH   7  10
ATOM     10  C   UNL A   1      35.031  34.542  33.865  1.00  0.00     0.258 C 
ATOM     11  C   UNL A   1      35.988  35.112  32.819  1.00  0.00     0.064 C 
BRANCH  10  12
ATOM     12  O   UNL A   1      35.510  33.518  34.724  1.00  0.00    -0.481 OA
BRANCH  12  13
ATOM     13  C   UNL A   1      36.640  32.794  34.530  1.00  0.00     0.120 A 
ATOM     14  C   UNL A   1      36.795  31.679  33.724  1.00  0.00     0.047 A 
ATOM     15  C   UNL A   1      37.709  33.190  35.342  1.00  0.00     0.047 A 
ATOM     16  C   UNL A   1      37.977  30.923  33.798  1.00  0.00     0.012 A 
ATOM     17  C   UNL A   1      38.896  32.456  35.393  1.00  0.00     0.012 A 
ATOM     18  C   UNL A   1      39.046  31.286  34.640  1.00  0.00    -0.018 A 
BRANCH  18  19
ATOM     19  C   UNL A   1      40.271  30.465  34.731  1.00  0.00    -0.018 A 
ATOM     20  C   UNL A   1      40.558  29.486  33.763  1.00  0.00     0.009 A 
ATOM     21  C   UNL A   1      41.190  30.621  35.786  1.00  0.00     0.009 A 
ATOM     22  C   UNL A   1      41.701  28.687  33.852  1.00  0.00     0.001 A 
ATOM     23  C   UNL A   1      42.337  29.827  35.874  1.00  0.00     0.001 A 
ATOM     24  C   UNL A   1      42.590  28.857  34.909  1.00  0.00     0.000 A 
ENDBRANCH  18  19
ENDBRANCH  12  13
ENDBRANCH  10  12
ENDBRANCH   7  10
ENDBRANCH   4   6
ENDBRANCH   2   4
ENDBRANCH   1   2
BRANCH   1  25
ATOM     25  C   UNL A   1      33.012  37.118  29.790  1.00  0.00     0.274 C 
BRANCH  25  26
ATOM     26  C   UNL A   1      32.549  36.072  28.780  1.00  0.00     0.275 C 
BRANCH  26  27
ATOM     27  O   UNL A   1      33.710  35.456  28.207  1.00  0.00    -0.458 OA
BRANCH  27  28
ATOM     28  C   UNL A   1      33.661  34.106  28.168  1.00  0.00     0.338 C 
ATOM     29  O   UNL A   1      32.865  33.398  27.575  1.00  0.00    -0.246 OA
BRANCH  28  30
ATOM     30  C   UNL A   1      34.899  33.606  28.775  1.00  0.00     0.060 A 
ATOM     31  C   UNL A   1      36.118  34.037  28.237  1.00  0.00     0.016 A 
ATOM     32  C   UNL A   1      34.856  32.725  29.854  1.00  0.00     0.016 A 
ATOM     33  C   UNL A   1      37.311  33.556  28.758  1.00  0.00     0.010 A 
ATOM     34  C   UNL A   1      36.048  32.234  30.368  1.00  0.00     0.010 A 
ATOM     35  C   UNL A   1      37.274  32.623  29.800  1.00  0.00    -0.014 A 
BRANCH  35  36
ATOM     36  C   UNL A   1      38.500  31.907  30.193  1.00  0.00     0.031 A 
ATOM     37  C   UNL A   1      39.458  32.608  31.110  1.00  0.00     0.074 A 
ATOM     38  C   UNL A   1      38.751  30.678  29.717  1.00  0.00     0.049 A 
ATOM     39  N   UNL A   1      40.667  32.267  31.465  1.00  0.00    -0.248 NA
ATOM     40  C   UNL A   1      38.992  33.878  31.694  1.00  0.00     0.031 C 
ATOM     41  C   UNL A   1      37.852  29.902  28.862  1.00  0.00     0.029 A 
ATOM     42  N   UNL A   1      39.852  29.878  29.868  1.00  0.00    -0.354 N 
ATOM     43  C   UNL A   1      41.115  33.290  32.291  1.00  0.00     0.074 A 
ATOM     44  C   UNL A   1      40.060  34.274  32.368  1.00  0.00     0.031 C 
ATOM     45  C   UNL A   1      38.451  28.742  28.545  1.00  0.00     0.029 A 
ATOM     46  C   UNL A   1      39.787  28.721  29.133  1.00  0.00     0.049 A 
ATOM     47  H   UNL A   1      40.614  30.111  30.446  1.00  0.00     0.167 HD
ATOM     48  C   UNL A   1      42.305  33.389  32.925  1.00  0.00     0.037 A 
ATOM     49  C   UNL A   1      40.725  27.776  28.935  1.00  0.00     0.037 A 
ATOM     50  C   UNL A   1      43.338  32.393  32.832  1.00  0.00     0.049 A 
ATOM     51  C   UNL A   1      42.065  27.942  29.601  1.00  0.00     0.074 A 
ATOM     52  C   UNL A   1      44.581  32.377  33.436  1.00  0.00     0.029 A 
ATOM     53  N   UNL A   1      43.240  31.232  32.077  1.00  0.00    -0.354 N 
ATOM     54  N   UNL A   1      42.487  28.907  30.384  1.00  0.00    -0.248 NA
ATOM     55  C   UNL A   1      43.060  26.891  29.355  1.00  0.00     0.031 C 
ATOM     56  C   UNL A   1      45.256  31.229  33.008  1.00  0.00     0.029 A 
ATOM     57  C   UNL A   1      44.410  30.501  32.183  1.00  0.00     0.049 A 
ATOM     58  H   UNL A   1      42.455  30.967  31.544  1.00  0.00     0.167 HD
ATOM     59  C   UNL A   1      43.783  28.565  30.749  1.00  0.00     0.074 A 
ATOM     60  C   UNL A   1      44.071  27.297  30.109  1.00  0.00     0.031 C 
ATOM     61  C   UNL A   1      44.659  29.235  31.540  1.00  0.00     0.037 A 
BRANCH  48  62
ATOM     62  C   UNL A   1      42.558  34.626  33.737  1.00  0.00     0.057 A 
ATOM     63  C   UNL A   1      42.350  34.664  35.122  1.00  0.00     0.134 A 
ATOM     64  C   UNL A   1      43.031  35.794  33.125  1.00  0.00     0.134 A 
ATOM     65  F   UNL A   1      41.878  33.586  35.768  1.00  0.00    -0.206 F 
ATOM     66  C   UNL A   1      42.583  35.823  35.865  1.00  0.00     0.040 A 
ATOM     67  C   UNL A   1      43.293  36.951  33.860  1.00  0.00     0.040 A 
ATOM     68  F   UNL A   1      43.248  35.829  31.801  1.00  0.00    -0.206 F 
ATOM     69  C   UNL A   1      43.063  36.968  35.234  1.00  0.00     0.006 A 
ENDBRANCH  48  62
BRANCH  49  70
ATOM     70  C   UNL A   1      40.441  26.614  28.059  1.00  0.00     0.057 A 
ATOM     71  C   UNL A   1      41.004  26.514  26.782  1.00  0.00     0.134 A 
ATOM     72  C   UNL A   1      39.590  25.578  28.469  1.00  0.00     0.134 A 
ATOM     73  F   UNL A   1      41.812  27.482  26.324  1.00  0.00    -0.206 F 
ATOM     74  C   UNL A   1      40.719  25.439  25.937  1.00  0.00     0.040 A 
ATOM     75  C   UNL A   1      39.318  24.485  27.645  1.00  0.00     0.040 A 
ATOM     76  F   UNL A   1      39.020  25.610  29.682  1.00  0.00    -0.206 F 
ATOM     77  C   UNL A   1      39.877  24.418  26.371  1.00  0.00     0.006 A 
ENDBRANCH  49  70
BRANCH  61  78
ATOM     78  C   UNL A   1      45.985  28.581  31.792  1.00  0.00     0.057 A 
ATOM     79  C   UNL A   1      46.173  27.661  32.830  1.00  0.00     0.134 A 
ATOM     80  C   UNL A   1      47.075  28.845  30.954  1.00  0.00     0.134 A 
ATOM     81  F   UNL A   1      45.170  27.375  33.675  1.00  0.00    -0.206 F 
ATOM     82  C   UNL A   1      47.407  27.047  33.043  1.00  0.00     0.040 A 
ATOM     83  C   UNL A   1      48.306  28.215  31.137  1.00  0.00     0.040 A 
ATOM     84  F   UNL A   1      46.958  29.708  29.933  1.00  0.00    -0.206 F 
ATOM     85  C   UNL A   1      48.476  27.317  32.189  1.00  0.00     0.006 A 
ENDBRANCH  61  78
ENDBRANCH  35  36
ENDBRANCH  28  30
ENDBRANCH  27  28
ENDBRANCH  26  27
ENDBRANCH  25  26
ENDBRANCH   1  25
TORSDOF 16
ENDMDL
MODEL 2
REMARK VINA RESULT:      -9.0      4.560      7.649
REMARK SMILES C[C@H](Oc1ccc(-c2ccccc2)cc1)C(=O)N[C@H](C)C(=O)OCCOC(=O)c1ccc(-c2c3nc(c(-c4c(F)cccc4F)c4ccc([nH]4)c(-c4c(F)cccc4F)c4nc(c(-c5c(F)cccc5F)c5ccc2[nH]5)C=C4)C=C3)cc1
REMARK SMILES IDX 23 1 21 2 22 3 19 4 20 5 18 6 16 7 17 8 2 10 1 11 3 12 4 13
REMARK SMILES IDX 5 14 15 15 6 16 14 17 7 18 8 19 9 20 13 21 10 22 12 23 11 24
REMARK SMILES IDX 24 25 25 26 26 27 27 28 28 29 29 30 30 31 82 32 31 33 81 34
REMARK SMILES IDX 32 35 33 36 34 37 75 38 35 39 80 40 74 41 76 42 36 43 79 44
REMARK SMILES IDX 73 45 72 46 37 48 63 49 46 50 62 51 47 52 50 53 61 54 77 55
REMARK SMILES IDX 48 56 49 57 60 59 78 60 51 61 38 62 39 63 44 64 40 65 41 66
REMARK SMILES IDX 43 67 45 68 42 69 64 70 65 71 70 72 66 73 67 74 69 75 71 76
REMARK SMILES IDX 68 77 52 78 53 79 58 80 54 81 55 82 57 83 59 84 56 85
REMARK H PARENT 18 9 76 47 50 58
REMARK Flexibility Score: inf
ROOT
ATOM      1  O   UNL A   1      34.061  32.744  29.251  1.00  0.00    -0.461 OA
ENDROOT
BRANCH   1   2
ATOM      2  C   UNL A   1      34.830  32.505  28.161  1.00  0.00     0.328 C 
ATOM      3  O   UNL A   1      35.524  33.352  27.607  1.00  0.00    -0.250 OA
BRANCH   2   4
ATOM      4  C   UNL A   1      34.692  31.065  27.620  1.00  0.00     0.189 C 
ATOM      5  C   UNL A   1      35.813  30.065  27.886  1.00  0.00     0.043 C 
BRANCH   4   6
ATOM      6  N   UNL A   1      33.355  30.477  27.791  1.00  0.00    -0.340 N 
ATOM      7  C   UNL A   1      32.542  29.822  26.905  1.00  0.00     0.261 C 
ATOM      8  O   UNL A   1      31.374  29.621  27.255  1.00  0.00    -0.271 OA
ATOM      9  H   UNL A   1      32.981  30.571  28.697  1.00  0.00     0.164 HD
BRANCH   7  10
ATOM     10  C   UNL A   1      33.077  29.231  25.583  1.00  0.00     0.258 C 
ATOM     11  C   UNL A   1      31.911  29.179  24.595  1.00  0.00     0.064 C 
BRANCH  10  12
ATOM     12  O   UNL A   1      33.720  28.012  25.924  1.00  0.00    -0.481 OA
BRANCH  12  13
ATOM     13  C   UNL A   1      33.306  26.774  25.556  1.00  0.00     0.120 A 
ATOM     14  C   UNL A   1      32.351  25.989  26.178  1.00  0.00     0.047 A 
ATOM     15  C   UNL A   1      34.032  26.232  24.490  1.00  0.00     0.047 A 
ATOM     16  C   UNL A   1      32.191  24.647  25.791  1.00  0.00     0.012 A 
ATOM     17  C   UNL A   1      33.852  24.908  24.084  1.00  0.00     0.012 A 
ATOM     18  C   UNL A   1      32.943  24.075  24.746  1.00  0.00    -0.018 A 
BRANCH  18  19
ATOM     19  C   UNL A   1      32.786  22.655  24.370  1.00  0.00    -0.018 A 
ATOM     20  C   UNL A   1      33.149  21.627  25.258  1.00  0.00     0.009 A 
ATOM     21  C   UNL A   1      32.279  22.275  23.112  1.00  0.00     0.009 A 
ATOM     22  C   UNL A   1      33.028  20.281  24.903  1.00  0.00     0.001 A 
ATOM     23  C   UNL A   1      32.151  20.928  22.758  1.00  0.00     0.001 A 
ATOM     24  C   UNL A   1      32.530  19.932  23.652  1.00  0.00     0.000 A 
ENDBRANCH  18  19
ENDBRANCH  12  13
ENDBRANCH  10  12
ENDBRANCH   7  10
ENDBRANCH   4   6
ENDBRANCH   2   4
ENDBRANCH   1   2
BRANCH   1  25
ATOM     25  C   UNL A   1      34.107  34.064  29.838  1.00  0.00     0.274 C 
BRANCH  25  26
ATOM     26  C   UNL A   1      34.452  33.960  31.322  1.00  0.00     0.275 C 
BRANCH  26  27
ATOM     27  O   UNL A   1      35.866  33.749  31.440  1.00  0.00    -0.458 OA
BRANCH  27  28
ATOM     28  C   UNL A   1      36.210  32.750  32.283  1.00  0.00     0.338 C 
ATOM     29  O   UNL A   1      35.655  32.411  33.314  1.00  0.00    -0.246 OA
BRANCH  28  30
ATOM     30  C   UNL A   1      37.246  31.954  31.617  1.00  0.00     0.060 A 
ATOM     31  C   UNL A   1      38.004  31.072  32.398  1.00  0.00     0.016 A 
ATOM     32  C   UNL A   1      37.466  32.079  30.246  1.00  0.00     0.016 A 
ATOM     33  C   UNL A   1      39.020  30.331  31.811  1.00  0.00     0.010 A 
ATOM     34  C   UNL A   1      38.490  31.346  29.661  1.00  0.00     0.010 A 
ATOM     35  C   UNL A   1      39.288  30.498  30.449  1.00  0.00    -0.014 A 
BRANCH  35  36
ATOM     36  C   UNL A   1      40.513  29.926  29.862  1.00  0.00     0.031 A 
ATOM     37  C   UNL A   1      41.686  30.839  29.661  1.00  0.00     0.074 A 
ATOM     38  C   UNL A   1      40.554  28.635  29.499  1.00  0.00     0.049 A 
ATOM     39  N   UNL A   1      42.803  30.626  29.021  1.00  0.00    -0.248 NA
ATOM     40  C   UNL A   1      41.575  32.185  30.251  1.00  0.00     0.031 C 
ATOM     41  C   UNL A   1      39.479  27.665  29.705  1.00  0.00     0.029 A 
ATOM     42  N   UNL A   1      41.535  27.927  28.859  1.00  0.00    -0.354 N 
ATOM     43  C   UNL A   1      43.515  31.815  29.108  1.00  0.00     0.074 A 
ATOM     44  C   UNL A   1      42.698  32.753  29.843  1.00  0.00     0.031 C 
ATOM     45  C   UNL A   1      39.853  26.487  29.176  1.00  0.00     0.029 A 
ATOM     46  C   UNL A   1      41.166  26.640  28.557  1.00  0.00     0.049 A 
ATOM     47  H   UNL A   1      42.416  28.304  28.636  1.00  0.00     0.167 HD
ATOM     48  C   UNL A   1      44.744  32.090  28.615  1.00  0.00     0.037 A 
ATOM     49  C   UNL A   1      41.811  25.711  27.827  1.00  0.00     0.037 A 
ATOM     50  C   UNL A   1      45.538  31.136  27.889  1.00  0.00     0.049 A 
ATOM     51  C   UNL A   1      43.150  26.063  27.235  1.00  0.00     0.074 A 
ATOM     52  C   UNL A   1      46.801  31.293  27.348  1.00  0.00     0.029 A 
ATOM     53  N   UNL A   1      45.133  29.839  27.599  1.00  0.00    -0.354 N 
ATOM     54  N   UNL A   1      43.824  27.185  27.320  1.00  0.00    -0.248 NA
ATOM     55  C   UNL A   1      43.816  25.021  26.443  1.00  0.00     0.031 C 
ATOM     56  C   UNL A   1      47.140  30.107  26.690  1.00  0.00     0.029 A 
ATOM     57  C   UNL A   1      46.113  29.192  26.869  1.00  0.00     0.049 A 
ATOM     58  H   UNL A   1      44.275  29.440  27.871  1.00  0.00     0.167 HD
ATOM     59  C   UNL A   1      45.005  26.976  26.621  1.00  0.00     0.074 A 
ATOM     60  C   UNL A   1      44.959  25.614  26.129  1.00  0.00     0.031 C 
ATOM     61  C   UNL A   1      46.038  27.829  26.404  1.00  0.00     0.037 A 
BRANCH  48  62
ATOM     62  C   UNL A   1      45.279  33.478  28.817  1.00  0.00     0.057 A 
ATOM     63  C   UNL A   1      46.072  33.818  29.920  1.00  0.00     0.134 A 
ATOM     64  C   UNL A   1      45.008  34.487  27.883  1.00  0.00     0.134 A 
ATOM     65  F   UNL A   1      46.353  32.905  30.863  1.00  0.00    -0.206 F 
ATOM     66  C   UNL A   1      46.558  35.115  30.099  1.00  0.00     0.040 A 
ATOM     67  C   UNL A   1      45.509  35.780  28.036  1.00  0.00     0.040 A 
ATOM     68  F   UNL A   1      44.251  34.231  26.804  1.00  0.00    -0.206 F 
ATOM     69  C   UNL A   1      46.283  36.098  29.151  1.00  0.00     0.006 A 
ENDBRANCH  48  62
BRANCH  49  70
ATOM     70  C   UNL A   1      41.195  24.381  27.599  1.00  0.00     0.057 A 
ATOM     71  C   UNL A   1      41.660  23.243  28.267  1.00  0.00     0.134 A 
ATOM     72  C   UNL A   1      40.134  24.209  26.701  1.00  0.00     0.134 A 
ATOM     73  F   UNL A   1      42.686  23.338  29.126  1.00  0.00    -0.206 F 
ATOM     74  C   UNL A   1      41.109  21.981  28.038  1.00  0.00     0.040 A 
ATOM     75  C   UNL A   1      39.554  22.958  26.482  1.00  0.00     0.040 A 
ATOM     76  F   UNL A   1      39.636  25.258  26.029  1.00  0.00    -0.206 F 
ATOM     77  C   UNL A   1      40.048  21.838  27.146  1.00  0.00     0.006 A 
ENDBRANCH  49  70
BRANCH  61  78
ATOM     78  C   UNL A   1      47.214  27.293  25.643  1.00  0.00     0.057 A 
ATOM     79  C   UNL A   1      47.356  27.487  24.264  1.00  0.00     0.134 A 
ATOM     80  C   UNL A   1      48.239  26.612  26.311  1.00  0.00     0.134 A 
ATOM     81  F   UNL A   1      46.402  28.121  23.564  1.00  0.00    -0.206 F 
ATOM     82  C   UNL A   1      48.464  26.998  23.571  1.00  0.00     0.040 A 
ATOM     83  C   UNL A   1      49.366  26.145  25.635  1.00  0.00     0.040 A 
ATOM     84  F   UNL A   1      48.170  26.404  27.635  1.00  0.00    -0.206 F 
ATOM     85  C   UNL A   1      49.477  26.332  24.259  1.00  0.00     0.006 A 
ENDBRANCH  61  78
ENDBRANCH  35  36
ENDBRANCH  28  30
ENDBRANCH  27  28
ENDBRANCH  26  27
ENDBRANCH  25  26
ENDBRANCH   1  25
TORSDOF 16
ENDMDL
MODEL 3
REMARK VINA RESULT:      -9.0      5.920     10.768
REMARK SMILES C[C@H](Oc1ccc(-c2ccccc2)cc1)C(=O)N[C@H](C)C(=O)OCCOC(=O)c1ccc(-c2c3nc(c(-c4c(F)cccc4F)c4ccc([nH]4)c(-c4c(F)cccc4F)c4nc(c(-c5c(F)cccc5F)c5ccc2[nH]5)C=C4)C=C3)cc1
REMARK SMILES IDX 23 1 21 2 22 3 19 4 20 5 18 6 16 7 17 8 2 10 1 11 3 12 4 13
REMARK SMILES IDX 5 14 15 15 6 16 14 17 7 18 8 19 9 20 13 21 10 22 12 23 11 24
REMARK SMILES IDX 24 25 25 26 26 27 27 28 28 29 29 30 30 31 82 32 31 33 81 34
REMARK SMILES IDX 32 35 33 36 34 37 75 38 35 39 80 40 74 41 76 42 36 43 79 44
REMARK SMILES IDX 73 45 72 46 37 48 63 49 46 50 62 51 47 52 50 53 61 54 77 55
REMARK SMILES IDX 48 56 49 57 60 59 78 60 51 61 38 62 39 63 44 64 40 65 41 66
REMARK SMILES IDX 43 67 45 68 42 69 64 70 65 71 70 72 66 73 67 74 69 75 71 76
REMARK SMILES IDX 68 77 52 78 53 79 58 80 54 81 55 82 57 83 59 84 56 85
REMARK H PARENT 18 9 76 47 50 58
REMARK Flexibility Score: inf
ROOT
ATOM      1  O   UNL A   1      35.048  21.360  24.355  1.00  0.00    -0.461 OA
ENDROOT
BRANCH   1   2
ATOM      2  C   UNL A   1      33.756  21.032  24.599  1.00  0.00     0.328 C 
ATOM      3  O   UNL A   1      33.382  19.920  24.959  1.00  0.00    -0.250 OA
BRANCH   2   4
ATOM      4  C   UNL A   1      32.768  22.180  24.299  1.00  0.00     0.189 C 
ATOM      5  C   UNL A   1      31.844  22.062  23.090  1.00  0.00     0.043 C 
BRANCH   4   6
ATOM      6  N   UNL A   1      32.085  22.719  25.484  1.00  0.00    -0.340 N 
ATOM      7  C   UNL A   1      32.217  23.921  26.128  1.00  0.00     0.261 C 
ATOM      8  O   UNL A   1      31.674  24.031  27.232  1.00  0.00    -0.271 OA
ATOM      9  H   UNL A   1      31.418  22.114  25.882  1.00  0.00     0.164 HD
BRANCH   7  10
ATOM     10  C   UNL A   1      32.894  25.139  25.462  1.00  0.00     0.258 C 
ATOM     11  C   UNL A   1      34.405  24.960  25.599  1.00  0.00     0.064 C 
BRANCH  10  12
ATOM     12  O   UNL A   1      32.300  26.289  26.044  1.00  0.00    -0.481 OA
BRANCH  12  13
ATOM     13  C   UNL A   1      31.455  27.142  25.414  1.00  0.00     0.120 A 
ATOM     14  C   UNL A   1      30.374  26.815  24.613  1.00  0.00     0.047 A 
ATOM     15  C   UNL A   1      31.823  28.487  25.529  1.00  0.00     0.047 A 
ATOM     16  C   UNL A   1      29.729  27.817  23.868  1.00  0.00     0.012 A 
ATOM     17  C   UNL A   1      31.163  29.488  24.812  1.00  0.00     0.012 A 
ATOM     18  C   UNL A   1      30.115  29.170  23.941  1.00  0.00    -0.018 A 
BRANCH  18  19
ATOM     19  C   UNL A   1      29.447  30.209  23.130  1.00  0.00    -0.018 A 
ATOM     20  C   UNL A   1      29.326  30.069  21.736  1.00  0.00     0.009 A 
ATOM     21  C   UNL A   1      28.918  31.376  23.712  1.00  0.00     0.009 A 
ATOM     22  C   UNL A   1      28.719  31.056  20.955  1.00  0.00     0.001 A 
ATOM     23  C   UNL A   1      28.305  32.362  22.934  1.00  0.00     0.001 A 
ATOM     24  C   UNL A   1      28.209  32.204  21.554  1.00  0.00     0.000 A 
ENDBRANCH  18  19
ENDBRANCH  12  13
ENDBRANCH  10  12
ENDBRANCH   7  10
ENDBRANCH   4   6
ENDBRANCH   2   4
ENDBRANCH   1   2
BRANCH   1  25
ATOM     25  C   UNL A   1      35.956  21.424  25.478  1.00  0.00     0.274 C 
BRANCH  25  26
ATOM     26  C   UNL A   1      37.176  20.546  25.209  1.00  0.00     0.275 C 
BRANCH  26  27
ATOM     27  O   UNL A   1      38.332  21.391  25.144  1.00  0.00    -0.458 OA
BRANCH  27  28
ATOM     28  C   UNL A   1      39.319  21.049  26.001  1.00  0.00     0.338 C 
ATOM     29  O   UNL A   1      39.846  19.959  26.146  1.00  0.00    -0.246 OA
BRANCH  28  30
ATOM     30  C   UNL A   1      39.846  22.289  26.580  1.00  0.00     0.060 A 
ATOM     31  C   UNL A   1      39.327  23.506  26.118  1.00  0.00     0.016 A 
ATOM     32  C   UNL A   1      40.836  22.252  27.560  1.00  0.00     0.016 A 
ATOM     33  C   UNL A   1      39.828  24.702  26.613  1.00  0.00     0.010 A 
ATOM     34  C   UNL A   1      41.345  23.448  28.047  1.00  0.00     0.010 A 
ATOM     35  C   UNL A   1      40.865  24.672  27.550  1.00  0.00    -0.014 A 
BRANCH  35  36
ATOM     36  C   UNL A   1      41.584  25.911  27.895  1.00  0.00     0.031 A 
ATOM     37  C   UNL A   1      40.841  26.962  28.664  1.00  0.00     0.074 A 
ATOM     38  C   UNL A   1      42.854  26.090  27.503  1.00  0.00     0.049 A 
ATOM     39  N   UNL A   1      41.189  28.190  28.940  1.00  0.00    -0.248 NA
ATOM     40  C   UNL A   1      39.514  26.580  29.178  1.00  0.00     0.031 C 
ATOM     41  C   UNL A   1      43.669  25.101  26.796  1.00  0.00     0.029 A 
ATOM     42  N   UNL A   1      43.673  27.181  27.624  1.00  0.00    -0.354 N 
ATOM     43  C   UNL A   1      40.117  28.733  29.636  1.00  0.00     0.074 A 
ATOM     44  C   UNL A   1      39.098  27.713  29.722  1.00  0.00     0.031 C 
ATOM     45  C   UNL A   1      44.869  25.642  26.526  1.00  0.00     0.029 A 
ATOM     46  C   UNL A   1      44.884  27.023  26.997  1.00  0.00     0.049 A 
ATOM     47  H   UNL A   1      43.418  27.996  28.112  1.00  0.00     0.167 HD
ATOM     48  C   UNL A   1      40.003  29.977  30.155  1.00  0.00     0.037 A 
ATOM     49  C   UNL A   1      45.869  27.918  26.797  1.00  0.00     0.037 A 
ATOM     50  C   UNL A   1      41.035  30.973  30.056  1.00  0.00     0.049 A 
ATOM     51  C   UNL A   1      45.691  29.315  27.330  1.00  0.00     0.074 A 
ATOM     52  C   UNL A   1      41.041  32.265  30.550  1.00  0.00     0.029 A 
ATOM     53  N   UNL A   1      42.250  30.782  29.411  1.00  0.00    -0.354 N 
ATOM     54  N   UNL A   1      44.680  29.828  27.990  1.00  0.00    -0.248 NA
ATOM     55  C   UNL A   1      46.789  30.259  27.087  1.00  0.00     0.031 C 
ATOM     56  C   UNL A   1      42.240  32.871  30.162  1.00  0.00     0.029 A 
ATOM     57  C   UNL A   1      43.005  31.939  29.477  1.00  0.00     0.049 A 
ATOM     58  H   UNL A   1      42.532  29.947  28.972  1.00  0.00     0.167 HD
ATOM     59  C   UNL A   1      45.030  31.142  28.268  1.00  0.00     0.074 A 
ATOM     60  C   UNL A   1      46.355  31.343  27.714  1.00  0.00     0.031 C 
ATOM     61  C   UNL A   1      44.326  32.100  28.923  1.00  0.00     0.037 A 
BRANCH  48  62
ATOM     62  C   UNL A   1      38.713  30.330  30.836  1.00  0.00     0.057 A 
ATOM     63  C   UNL A   1      38.503  30.096  32.201  1.00  0.00     0.134 A 
ATOM     64  C   UNL A   1      37.669  30.926  30.116  1.00  0.00     0.134 A 
ATOM     65  F   UNL A   1      39.454  29.509  32.945  1.00  0.00    -0.206 F 
ATOM     66  C   UNL A   1      37.295  30.423  32.822  1.00  0.00     0.040 A 
ATOM     67  C   UNL A   1      36.468  31.282  30.730  1.00  0.00     0.040 A 
ATOM     68  F   UNL A   1      37.801  31.174  28.804  1.00  0.00    -0.206 F 
ATOM     69  C   UNL A   1      36.277  31.025  32.087  1.00  0.00     0.006 A 
ENDBRANCH  48  62
BRANCH  49  70
ATOM     70  C   UNL A   1      47.090  27.530  26.049  1.00  0.00     0.057 A 
ATOM     71  C   UNL A   1      47.153  27.644  24.656  1.00  0.00     0.134 A 
ATOM     72  C   UNL A   1      48.220  27.024  26.704  1.00  0.00     0.134 A 
ATOM     73  F   UNL A   1      46.096  28.104  23.969  1.00  0.00    -0.206 F 
ATOM     74  C   UNL A   1      48.285  27.253  23.938  1.00  0.00     0.040 A 
ATOM     75  C   UNL A   1      49.369  26.655  26.002  1.00  0.00     0.040 A 
ATOM     76  F   UNL A   1      48.229  26.892  28.039  1.00  0.00    -0.206 F 
ATOM     77  C   UNL A   1      49.400  26.761  24.614  1.00  0.00     0.006 A 
ENDBRANCH  49  70
BRANCH  61  78
ATOM     78  C   UNL A   1      44.998  33.428  29.113  1.00  0.00     0.057 A 
ATOM     79  C   UNL A   1      45.831  33.688  30.207  1.00  0.00     0.134 A 
ATOM     80  C   UNL A   1      44.842  34.443  28.161  1.00  0.00     0.134 A 
ATOM     81  F   UNL A   1      46.012  32.759  31.160  1.00  0.00    -0.206 F 
ATOM     82  C   UNL A   1      46.464  34.921  30.363  1.00  0.00     0.040 A 
ATOM     83  C   UNL A   1      45.493  35.669  28.290  1.00  0.00     0.040 A 
ATOM     84  F   UNL A   1      44.067  34.254  27.082  1.00  0.00    -0.206 F 
ATOM     85  C   UNL A   1      46.302  35.913  29.397  1.00  0.00     0.006 A 
ENDBRANCH  61  78
ENDBRANCH  35  36
ENDBRANCH  28  30
ENDBRANCH  27  28
ENDBRANCH  26  27
ENDBRANCH  25  26
ENDBRANCH   1  25
TORSDOF 16
ENDMDL
