MODEL 1
REMARK VINA RESULT:     -13.8      0.000      0.000
REMARK SMILES Cc1ccc(-c2c(C)sc(NC(=O)[C@H]3CC=CC[C@H]3C(=O)OCCOC(=O)c3ccc(-c4c5nc(c(-c6c(F)cccc6F)c6ccc([nH]6)c(-c6c(F)cccc6F)c6nc(c(-c7c(F)cccc7F)c7ccc4[nH]7)C=C6)C=C5)cc3)c2C(N)=O)cc1
REMARK SMILES IDX 23 1 22 2 20 3 21 4 19 5 14 6 15 7 16 8 18 9 17 10 12 11
REMARK SMILES IDX 11 12 13 14 10 15 6 16 7 17 82 18 8 19 9 20 5 21 1 22 2 23
REMARK SMILES IDX 3 24 87 25 4 26 86 27 83 28 84 29 85 30 24 33 25 34 26 35
REMARK SMILES IDX 27 36 28 37 29 38 81 39 30 40 80 41 31 42 32 43 33 44 74 45
REMARK SMILES IDX 34 46 79 47 73 48 75 49 35 50 78 51 72 52 71 53 36 55 62 56
REMARK SMILES IDX 45 57 61 58 46 59 49 60 60 61 76 62 47 63 48 64 59 66 77 67
REMARK SMILES IDX 50 68 37 69 38 70 43 71 39 72 40 73 42 74 44 75 41 76 63 77
REMARK SMILES IDX 64 78 69 79 65 80 66 81 68 82 70 83 67 84 51 85 52 86 57 87
REMARK SMILES IDX 53 88 54 89 56 90 58 91 55 92
REMARK H PARENT 11 13 84 31 84 32 75 54 49 65
REMARK Flexibility Score: inf
ROOT
ATOM      1  C   UNL A   1      32.717  30.455  27.126  1.00  0.00     0.274 C 
ENDROOT
BRANCH   1   2
ATOM      2  O   UNL A   1      32.129  30.400  25.845  1.00  0.00    -0.462 OA
BRANCH   2   3
ATOM      3  C   UNL A   1      32.692  29.434  25.062  1.00  0.00     0.310 C 
ATOM      4  O   UNL A   1      33.737  28.888  25.375  1.00  0.00    -0.252 OA
BRANCH   3   5
ATOM      5  C   UNL A   1      31.504  29.045  23.997  1.00  0.00     0.116 C 
ATOM      6  C   UNL A   1      30.846  27.314  24.713  1.00  0.00     0.097 C 
ATOM      7  C   UNL A   1      29.221  26.740  24.141  1.00  0.00     0.041 C 
ATOM      8  C   UNL A   1      27.987  27.831  23.498  1.00  0.00    -0.030 C 
ATOM      9  C   UNL A   1      29.895  30.074  22.846  1.00  0.00     0.043 C 
ATOM     10  C   UNL A   1      28.185  29.134  22.925  1.00  0.00    -0.030 C 
BRANCH   6  11
ATOM     11  C   UNL A   1      31.273  26.816  26.110  1.00  0.00     0.229 C 
ATOM     12  N   UNL A   1      31.874  25.653  26.469  1.00  0.00    -0.317 N 
ATOM     13  H   UNL A   1      31.906  25.528  27.445  1.00  0.00     0.170 HD
ATOM     14  O   UNL A   1      31.029  27.548  27.085  1.00  0.00    -0.274 OA
BRANCH  12  15
ATOM     15  C   UNL A   1      32.452  24.608  25.783  1.00  0.00     0.109 A 
ATOM     16  C   UNL A   1      33.172  22.580  24.902  1.00  0.00     0.010 A 
ATOM     17  C   UNL A   1      33.758  23.508  24.056  1.00  0.00     0.012 A 
ATOM     18  C   UNL A   1      32.410  23.228  25.983  1.00  0.00     0.082 A 
ATOM     19  C   UNL A   1      34.433  23.411  22.728  1.00  0.00     0.057 C 
ATOM     20  S   UNL A   1      33.927  24.896  24.995  1.00  0.00    -0.122 S 
BRANCH  16  21
ATOM     21  C   UNL A   1      33.493  21.179  24.724  1.00  0.00    -0.016 A 
ATOM     22  C   UNL A   1      34.389  17.071  23.903  1.00  0.00     0.044 C 
ATOM     23  C   UNL A   1      34.051  18.489  24.240  1.00  0.00    -0.051 A 
ATOM     24  C   UNL A   1      35.020  19.327  24.811  1.00  0.00     0.004 A 
ATOM     25  C   UNL A   1      32.787  18.998  23.939  1.00  0.00     0.004 A 
ATOM     26  C   UNL A   1      34.739  20.668  25.067  1.00  0.00     0.009 A 
ATOM     27  C   UNL A   1      32.516  20.339  24.166  1.00  0.00     0.009 A 
ENDBRANCH  16  21
BRANCH  18  28
ATOM     28  C   UNL A   1      31.760  22.530  27.094  1.00  0.00     0.252 C 
ATOM     29  N   UNL A   1      30.434  22.217  26.976  1.00  0.00    -0.365 N 
ATOM     30  O   UNL A   1      32.329  22.224  28.135  1.00  0.00    -0.269 OA
ATOM     31  H   UNL A   1      29.945  22.447  26.154  1.00  0.00     0.159 HD
ATOM     32  H   UNL A   1      29.968  21.761  27.714  1.00  0.00     0.159 HD
ENDBRANCH  18  28
ENDBRANCH  12  15
ENDBRANCH   6  11
ENDBRANCH   3   5
ENDBRANCH   2   3
ENDBRANCH   1   2
BRANCH   1  33
ATOM     33  C   UNL A   1      33.753  31.602  27.385  1.00  0.00     0.275 C 
BRANCH  33  34
ATOM     34  O   UNL A   1      33.484  32.989  27.920  1.00  0.00    -0.458 OA
BRANCH  34  35
ATOM     35  C   UNL A   1      33.994  33.993  28.715  1.00  0.00     0.338 C 
ATOM     36  O   UNL A   1      33.508  35.114  28.758  1.00  0.00    -0.246 OA
BRANCH  35  37
ATOM     37  C   UNL A   1      35.096  33.696  29.660  1.00  0.00     0.060 A 
ATOM     38  C   UNL A   1      34.760  32.735  31.108  1.00  0.00     0.016 A 
ATOM     39  C   UNL A   1      36.429  33.447  28.859  1.00  0.00     0.016 A 
ATOM     40  C   UNL A   1      36.001  31.291  31.665  1.00  0.00     0.010 A 
ATOM     41  C   UNL A   1      37.444  32.288  29.255  1.00  0.00     0.010 A 
ATOM     42  C   UNL A   1      37.451  31.187  30.616  1.00  0.00    -0.014 A 
BRANCH  42  43
ATOM     43  C   UNL A   1      38.785  30.534  30.596  1.00  0.00     0.031 A 
ATOM     44  C   UNL A   1      39.003  29.300  29.838  1.00  0.00     0.074 A 
ATOM     45  C   UNL A   1      39.825  31.133  31.280  1.00  0.00     0.049 A 
ATOM     46  N   UNL A   1      39.701  28.306  30.274  1.00  0.00    -0.248 NA
ATOM     47  C   UNL A   1      38.368  29.031  28.550  1.00  0.00     0.031 C 
ATOM     48  C   UNL A   1      41.271  31.052  31.085  1.00  0.00     0.029 A 
ATOM     49  N   UNL A   1      39.755  32.041  32.362  1.00  0.00    -0.354 N 
ATOM     50  C   UNL A   1      39.959  27.529  29.166  1.00  0.00     0.074 A 
ATOM     51  C   UNL A   1      38.905  27.847  28.231  1.00  0.00     0.031 C 
ATOM     52  C   UNL A   1      41.915  31.651  32.115  1.00  0.00     0.029 A 
ATOM     53  C   UNL A   1      40.929  32.102  33.079  1.00  0.00     0.049 A 
ATOM     54  H   UNL A   1      38.954  32.572  32.580  1.00  0.00     0.167 HD
ATOM     55  C   UNL A   1      41.211  27.013  28.983  1.00  0.00     0.037 A 
ATOM     56  C   UNL A   1      40.862  32.029  34.432  1.00  0.00     0.037 A 
ATOM     57  C   UNL A   1      42.120  27.535  30.011  1.00  0.00     0.049 A 
ATOM     58  C   UNL A   1      41.488  30.724  34.778  1.00  0.00     0.074 A 
ATOM     59  C   UNL A   1      43.101  28.512  29.960  1.00  0.00     0.029 A 
ATOM     60  N   UNL A   1      41.874  27.311  31.362  1.00  0.00    -0.354 N 
ATOM     61  N   UNL A   1      41.553  29.740  33.926  1.00  0.00    -0.248 NA
ATOM     62  C   UNL A   1      42.213  30.475  36.008  1.00  0.00     0.031 C 
ATOM     63  C   UNL A   1      43.515  28.797  31.286  1.00  0.00     0.029 A 
ATOM     64  C   UNL A   1      42.757  28.022  32.150  1.00  0.00     0.049 A 
ATOM     65  H   UNL A   1      41.166  26.724  31.710  1.00  0.00     0.167 HD
ATOM     66  C   UNL A   1      42.444  28.820  34.381  1.00  0.00     0.074 A 
ATOM     67  C   UNL A   1      42.798  29.302  35.707  1.00  0.00     0.031 C 
ATOM     68  C   UNL A   1      42.841  27.782  33.589  1.00  0.00     0.037 A 
BRANCH  55  69
ATOM     69  C   UNL A   1      41.719  26.373  27.699  1.00  0.00     0.057 A 
ATOM     70  C   UNL A   1      41.906  24.977  27.600  1.00  0.00     0.134 A 
ATOM     71  C   UNL A   1      42.008  27.069  26.511  1.00  0.00     0.134 A 
ATOM     72  F   UNL A   1      41.567  24.141  28.590  1.00  0.00    -0.206 F 
ATOM     73  C   UNL A   1      42.429  24.345  26.464  1.00  0.00     0.040 A 
ATOM     74  C   UNL A   1      42.566  26.454  25.376  1.00  0.00     0.040 A 
ATOM     75  F   UNL A   1      41.707  28.366  26.370  1.00  0.00    -0.206 F 
ATOM     76  C   UNL A   1      42.786  25.085  25.352  1.00  0.00     0.006 A 
ENDBRANCH  55  69
BRANCH  56  77
ATOM     77  C   UNL A   1      39.615  32.646  34.999  1.00  0.00     0.057 A 
ATOM     78  C   UNL A   1      38.613  31.778  35.490  1.00  0.00     0.134 A 
ATOM     79  C   UNL A   1      39.557  33.968  35.454  1.00  0.00     0.134 A 
ATOM     80  F   UNL A   1      38.596  30.490  35.108  1.00  0.00    -0.206 F 
ATOM     81  C   UNL A   1      37.684  32.167  36.466  1.00  0.00     0.040 A 
ATOM     82  C   UNL A   1      38.617  34.374  36.418  1.00  0.00     0.040 A 
ATOM     83  F   UNL A   1      40.482  34.860  35.077  1.00  0.00    -0.206 F 
ATOM     84  C   UNL A   1      37.707  33.466  36.958  1.00  0.00     0.006 A 
ENDBRANCH  56  77
BRANCH  68  85
ATOM     85  C   UNL A   1      43.439  26.481  34.057  1.00  0.00     0.057 A 
ATOM     86  C   UNL A   1      44.779  26.114  33.895  1.00  0.00     0.134 A 
ATOM     87  C   UNL A   1      42.681  25.593  34.861  1.00  0.00     0.134 A 
ATOM     88  F   UNL A   1      45.670  26.890  33.273  1.00  0.00    -0.206 F 
ATOM     89  C   UNL A   1      45.306  24.936  34.432  1.00  0.00     0.040 A 
ATOM     90  C   UNL A   1      43.217  24.461  35.468  1.00  0.00     0.040 A 
ATOM     91  F   UNL A   1      41.384  25.785  35.138  1.00  0.00    -0.206 F 
ATOM     92  C   UNL A   1      44.534  24.115  35.238  1.00  0.00     0.006 A 
ENDBRANCH  68  85
ENDBRANCH  42  43
ENDBRANCH  35  37
ENDBRANCH  34  35
ENDBRANCH  33  34
ENDBRANCH   1  33
TORSDOF 15
ENDMDL
MODEL 2
REMARK VINA RESULT:     -13.4      4.044      9.662
REMARK SMILES Cc1ccc(-c2c(C)sc(NC(=O)[C@H]3CC=CC[C@H]3C(=O)OCCOC(=O)c3ccc(-c4c5nc(c(-c6c(F)cccc6F)c6ccc([nH]6)c(-c6c(F)cccc6F)c6nc(c(-c7c(F)cccc7F)c7ccc4[nH]7)C=C6)C=C5)cc3)c2C(N)=O)cc1
REMARK SMILES IDX 23 1 22 2 20 3 21 4 19 5 14 6 15 7 16 8 18 9 17 10 12 11
REMARK SMILES IDX 11 12 13 14 10 15 6 16 7 17 82 18 8 19 9 20 5 21 1 22 2 23
REMARK SMILES IDX 3 24 87 25 4 26 86 27 83 28 84 29 85 30 24 33 25 34 26 35
REMARK SMILES IDX 27 36 28 37 29 38 81 39 30 40 80 41 31 42 32 43 33 44 74 45
REMARK SMILES IDX 34 46 79 47 73 48 75 49 35 50 78 51 72 52 71 53 36 55 62 56
REMARK SMILES IDX 45 57 61 58 46 59 49 60 60 61 76 62 47 63 48 64 59 66 77 67
REMARK SMILES IDX 50 68 37 69 38 70 43 71 39 72 40 73 42 74 44 75 41 76 63 77
REMARK SMILES IDX 64 78 69 79 65 80 66 81 68 82 70 83 67 84 51 85 52 86 57 87
REMARK SMILES IDX 53 88 54 89 56 90 58 91 55 92
REMARK H PARENT 11 13 84 31 84 32 75 54 49 65
REMARK Flexibility Score: inf
ROOT
ATOM      1  C   UNL A   1      38.908  21.485  25.731  1.00  0.00     0.274 C 
ENDROOT
BRANCH   1   2
ATOM      2  O   UNL A   1      37.829  20.692  25.288  1.00  0.00    -0.462 OA
BRANCH   2   3
ATOM      3  C   UNL A   1      36.933  21.409  24.548  1.00  0.00     0.310 C 
ATOM      4  O   UNL A   1      37.265  21.980  23.522  1.00  0.00    -0.252 OA
BRANCH   3   5
ATOM      5  C   UNL A   1      35.474  20.973  25.161  1.00  0.00     0.116 C 
ATOM      6  C   UNL A   1      34.907  22.619  26.113  1.00  0.00     0.097 C 
ATOM      7  C   UNL A   1      33.148  22.770  26.542  1.00  0.00     0.041 C 
ATOM      8  C   UNL A   1      31.872  21.889  25.692  1.00  0.00    -0.030 C 
ATOM      9  C   UNL A   1      33.695  19.779  24.542  1.00  0.00     0.043 C 
ATOM     10  C   UNL A   1      32.005  20.678  24.930  1.00  0.00    -0.030 C 
BRANCH   6  11
ATOM     11  C   UNL A   1      35.658  23.953  25.917  1.00  0.00     0.229 C 
ATOM     12  N   UNL A   1      35.322  25.035  25.170  1.00  0.00    -0.317 N 
ATOM     13  H   UNL A   1      36.050  25.696  25.110  1.00  0.00     0.170 HD
ATOM     14  O   UNL A   1      36.751  24.093  26.494  1.00  0.00    -0.274 OA
BRANCH  12  15
ATOM     15  C   UNL A   1      34.198  25.424  24.477  1.00  0.00     0.109 A 
ATOM     16  C   UNL A   1      32.203  26.321  23.687  1.00  0.00     0.010 A 
ATOM     17  C   UNL A   1      32.706  25.666  22.574  1.00  0.00     0.012 A 
ATOM     18  C   UNL A   1      33.071  26.149  24.864  1.00  0.00     0.082 A 
ATOM     19  C   UNL A   1      32.360  25.684  21.123  1.00  0.00     0.057 C 
ATOM     20  S   UNL A   1      33.670  24.435  23.202  1.00  0.00    -0.122 S 
BRANCH  16  21
ATOM     21  C   UNL A   1      30.886  26.919  23.602  1.00  0.00    -0.016 A 
ATOM     22  C   UNL A   1      27.048  28.743  23.059  1.00  0.00     0.044 C 
ATOM     23  C   UNL A   1      28.391  28.131  23.303  1.00  0.00    -0.051 A 
ATOM     24  C   UNL A   1      28.491  26.799  23.732  1.00  0.00     0.004 A 
ATOM     25  C   UNL A   1      29.551  28.866  23.052  1.00  0.00     0.004 A 
ATOM     26  C   UNL A   1      29.737  26.196  23.896  1.00  0.00     0.009 A 
ATOM     27  C   UNL A   1      30.790  28.257  23.187  1.00  0.00     0.009 A 
ENDBRANCH  16  21
BRANCH  18  28
ATOM     28  C   UNL A   1      32.768  26.631  26.214  1.00  0.00     0.252 C 
ATOM     29  N   UNL A   1      31.741  26.042  26.897  1.00  0.00    -0.365 N 
ATOM     30  O   UNL A   1      33.371  27.546  26.764  1.00  0.00    -0.269 OA
ATOM     31  H   UNL A   1      31.235  25.304  26.487  1.00  0.00     0.159 HD
ATOM     32  H   UNL A   1      31.506  26.357  27.800  1.00  0.00     0.159 HD
ENDBRANCH  18  28
ENDBRANCH  12  15
ENDBRANCH   6  11
ENDBRANCH   3   5
ENDBRANCH   2   3
ENDBRANCH   1   2
BRANCH   1  33
ATOM     33  C   UNL A   1      40.142  20.734  26.337  1.00  0.00     0.275 C 
BRANCH  33  34
ATOM     34  O   UNL A   1      41.438  20.375  25.649  1.00  0.00    -0.458 OA
BRANCH  34  35
ATOM     35  C   UNL A   1      42.807  20.334  25.806  1.00  0.00     0.338 C 
ATOM     36  O   UNL A   1      43.460  19.313  25.646  1.00  0.00    -0.246 OA
BRANCH  35  37
ATOM     37  C   UNL A   1      43.557  21.587  26.056  1.00  0.00     0.060 A 
ATOM     38  C   UNL A   1      43.891  22.680  24.705  1.00  0.00     0.016 A 
ATOM     39  C   UNL A   1      43.140  22.186  27.451  1.00  0.00     0.016 A 
ATOM     40  C   UNL A   1      43.648  24.638  24.914  1.00  0.00     0.010 A 
ATOM     41  C   UNL A   1      42.913  23.747  27.662  1.00  0.00     0.010 A 
ATOM     42  C   UNL A   1      43.175  25.099  26.581  1.00  0.00    -0.014 A 
BRANCH  42  43
ATOM     43  C   UNL A   1      43.056  26.315  27.424  1.00  0.00     0.031 A 
ATOM     44  C   UNL A   1      41.758  26.963  27.624  1.00  0.00     0.074 A 
ATOM     45  C   UNL A   1      44.189  26.803  28.045  1.00  0.00     0.049 A 
ATOM     46  N   UNL A   1      41.588  28.242  27.618  1.00  0.00    -0.248 NA
ATOM     47  C   UNL A   1      40.506  26.221  27.752  1.00  0.00     0.031 C 
ATOM     48  C   UNL A   1      44.346  27.615  29.250  1.00  0.00     0.029 A 
ATOM     49  N   UNL A   1      45.542  26.606  27.682  1.00  0.00    -0.354 N 
ATOM     50  C   UNL A   1      40.348  28.447  28.183  1.00  0.00     0.074 A 
ATOM     51  C   UNL A   1      39.632  27.211  27.974  1.00  0.00     0.031 C 
ATOM     52  C   UNL A   1      45.632  28.023  29.374  1.00  0.00     0.029 A 
ATOM     53  C   UNL A   1      46.379  27.557  28.221  1.00  0.00     0.049 A 
ATOM     54  H   UNL A   1      45.852  25.869  27.106  1.00  0.00     0.167 HD
ATOM     55  C   UNL A   1      40.182  29.451  29.094  1.00  0.00     0.037 A 
ATOM     56  C   UNL A   1      47.284  28.155  27.406  1.00  0.00     0.037 A 
ATOM     57  C   UNL A   1      41.480  30.066  29.401  1.00  0.00     0.049 A 
ATOM     58  C   UNL A   1      46.829  29.567  27.297  1.00  0.00     0.074 A 
ATOM     59  C   UNL A   1      42.320  29.941  30.496  1.00  0.00     0.029 A 
ATOM     60  N   UNL A   1      42.241  30.662  28.402  1.00  0.00    -0.354 N 
ATOM     61  N   UNL A   1      45.590  29.913  27.507  1.00  0.00    -0.248 NA
ATOM     62  C   UNL A   1      47.722  30.693  27.110  1.00  0.00     0.031 C 
ATOM     63  C   UNL A   1      43.556  30.560  30.182  1.00  0.00     0.029 A 
ATOM     64  C   UNL A   1      43.485  31.027  28.878  1.00  0.00     0.049 A 
ATOM     65  H   UNL A   1      41.935  30.806  27.478  1.00  0.00     0.167 HD
ATOM     66  C   UNL A   1      45.529  31.263  27.664  1.00  0.00     0.074 A 
ATOM     67  C   UNL A   1      46.880  31.711  27.363  1.00  0.00     0.031 C 
ATOM     68  C   UNL A   1      44.378  31.864  28.082  1.00  0.00     0.037 A 
BRANCH  55  69
ATOM     69  C   UNL A   1      38.966  29.631  29.992  1.00  0.00     0.057 A 
ATOM     70  C   UNL A   1      38.812  28.880  31.178  1.00  0.00     0.134 A 
ATOM     71  C   UNL A   1      37.927  30.553  29.767  1.00  0.00     0.134 A 
ATOM     72  F   UNL A   1      39.759  28.042  31.617  1.00  0.00    -0.206 F 
ATOM     73  C   UNL A   1      37.684  28.962  32.006  1.00  0.00     0.040 A 
ATOM     74  C   UNL A   1      36.774  30.623  30.569  1.00  0.00     0.040 A 
ATOM     75  F   UNL A   1      38.007  31.473  28.797  1.00  0.00    -0.206 F 
ATOM     76  C   UNL A   1      36.646  29.819  31.691  1.00  0.00     0.006 A 
ENDBRANCH  55  69
BRANCH  56  77
ATOM     77  C   UNL A   1      47.793  27.251  26.319  1.00  0.00     0.057 A 
ATOM     78  C   UNL A   1      47.298  27.449  25.010  1.00  0.00     0.134 A 
ATOM     79  C   UNL A   1      48.992  26.538  26.419  1.00  0.00     0.134 A 
ATOM     80  F   UNL A   1      46.154  28.127  24.821  1.00  0.00    -0.206 F 
ATOM     81  C   UNL A   1      48.012  27.069  23.864  1.00  0.00     0.040 A 
ATOM     82  C   UNL A   1      49.707  26.135  25.277  1.00  0.00     0.040 A 
ATOM     83  F   UNL A   1      49.563  26.328  27.612  1.00  0.00    -0.206 F 
ATOM     84  C   UNL A   1      49.241  26.436  23.997  1.00  0.00     0.006 A 
ENDBRANCH  56  77
BRANCH  68  85
ATOM     85  C   UNL A   1      44.006  33.312  27.885  1.00  0.00     0.057 A 
ATOM     86  C   UNL A   1      43.930  34.263  28.907  1.00  0.00     0.134 A 
ATOM     87  C   UNL A   1      43.865  33.843  26.578  1.00  0.00     0.134 A 
ATOM     88  F   UNL A   1      44.160  33.965  30.188  1.00  0.00    -0.206 F 
ATOM     89  C   UNL A   1      43.673  35.614  28.660  1.00  0.00     0.040 A 
ATOM     90  C   UNL A   1      43.692  35.199  26.316  1.00  0.00     0.040 A 
ATOM     91  F   UNL A   1      43.923  33.088  25.472  1.00  0.00    -0.206 F 
ATOM     92  C   UNL A   1      43.574  36.092  27.363  1.00  0.00     0.006 A 
ENDBRANCH  68  85
ENDBRANCH  42  43
ENDBRANCH  35  37
ENDBRANCH  34  35
ENDBRANCH  33  34
ENDBRANCH   1  33
TORSDOF 15
ENDMDL
MODEL 3
REMARK VINA RESULT:     -13.1      1.333      2.027
REMARK SMILES Cc1ccc(-c2c(C)sc(NC(=O)[C@H]3CC=CC[C@H]3C(=O)OCCOC(=O)c3ccc(-c4c5nc(c(-c6c(F)cccc6F)c6ccc([nH]6)c(-c6c(F)cccc6F)c6nc(c(-c7c(F)cccc7F)c7ccc4[nH]7)C=C6)C=C5)cc3)c2C(N)=O)cc1
REMARK SMILES IDX 23 1 22 2 20 3 21 4 19 5 14 6 15 7 16 8 18 9 17 10 12 11
REMARK SMILES IDX 11 12 13 14 10 15 6 16 7 17 82 18 8 19 9 20 5 21 1 22 2 23
REMARK SMILES IDX 3 24 87 25 4 26 86 27 83 28 84 29 85 30 24 33 25 34 26 35
REMARK SMILES IDX 27 36 28 37 29 38 81 39 30 40 80 41 31 42 32 43 33 44 74 45
REMARK SMILES IDX 34 46 79 47 73 48 75 49 35 50 78 51 72 52 71 53 36 55 62 56
REMARK SMILES IDX 45 57 61 58 46 59 49 60 60 61 76 62 47 63 48 64 59 66 77 67
REMARK SMILES IDX 50 68 37 69 38 70 43 71 39 72 40 73 42 74 44 75 41 76 63 77
REMARK SMILES IDX 64 78 69 79 65 80 66 81 68 82 70 83 67 84 51 85 52 86 57 87
REMARK SMILES IDX 53 88 54 89 56 90 58 91 55 92
REMARK H PARENT 11 13 84 31 84 32 75 54 49 65
REMARK Flexibility Score: inf
ROOT
ATOM      1  C   UNL A   1      31.967  31.754  27.338  1.00  0.00     0.274 C 
ENDROOT
BRANCH   1   2
ATOM      2  O   UNL A   1      31.834  31.172  26.060  1.00  0.00    -0.462 OA
BRANCH   2   3
ATOM      3  C   UNL A   1      31.707  29.814  26.125  1.00  0.00     0.310 C 
ATOM      4  O   UNL A   1      31.402  29.250  27.163  1.00  0.00    -0.252 OA
BRANCH   3   5
ATOM      5  C   UNL A   1      31.690  29.343  24.552  1.00  0.00     0.116 C 
ATOM      6  C   UNL A   1      33.281  28.160  24.449  1.00  0.00     0.097 C 
ATOM      7  C   UNL A   1      33.391  27.033  23.029  1.00  0.00     0.041 C 
ATOM      8  C   UNL A   1      31.977  26.513  22.102  1.00  0.00    -0.030 C 
ATOM      9  C   UNL A   1      30.195  28.775  22.998  1.00  0.00     0.043 C 
ATOM     10  C   UNL A   1      30.706  27.175  22.002  1.00  0.00    -0.030 C 
BRANCH   6  11
ATOM     11  C   UNL A   1      34.009  27.690  25.726  1.00  0.00     0.229 C 
ATOM     12  N   UNL A   1      33.925  26.507  26.386  1.00  0.00    -0.317 N 
ATOM     13  H   UNL A   1      34.390  26.522  27.254  1.00  0.00     0.170 HD
ATOM     14  O   UNL A   1      34.783  28.491  26.280  1.00  0.00    -0.274 OA
BRANCH  12  15
ATOM     15  C   UNL A   1      33.340  25.289  26.122  1.00  0.00     0.109 A 
ATOM     16  C   UNL A   1      32.772  23.113  25.531  1.00  0.00     0.010 A 
ATOM     17  C   UNL A   1      31.617  23.576  26.140  1.00  0.00     0.012 A 
ATOM     18  C   UNL A   1      33.815  24.150  25.471  1.00  0.00     0.082 A 
ATOM     19  C   UNL A   1      30.376  22.913  26.639  1.00  0.00     0.057 C 
ATOM     20  S   UNL A   1      31.656  25.245  25.916  1.00  0.00    -0.122 S 
BRANCH  16  21
ATOM     21  C   UNL A   1      32.755  21.798  24.923  1.00  0.00    -0.016 A 
ATOM     22  C   UNL A   1      32.538  17.816  23.357  1.00  0.00     0.044 C 
ATOM     23  C   UNL A   1      32.670  19.210  23.884  1.00  0.00    -0.051 A 
ATOM     24  C   UNL A   1      32.169  20.293  23.146  1.00  0.00     0.004 A 
ATOM     25  C   UNL A   1      33.243  19.434  25.137  1.00  0.00     0.004 A 
ATOM     26  C   UNL A   1      32.223  21.588  23.656  1.00  0.00     0.009 A 
ATOM     27  C   UNL A   1      33.270  20.719  25.658  1.00  0.00     0.009 A 
ENDBRANCH  16  21
BRANCH  18  28
ATOM     28  C   UNL A   1      35.109  24.008  24.802  1.00  0.00     0.252 C 
ATOM     29  N   UNL A   1      35.125  23.863  23.442  1.00  0.00    -0.365 N 
ATOM     30  O   UNL A   1      36.185  23.993  25.391  1.00  0.00    -0.269 OA
ATOM     31  H   UNL A   1      34.280  23.870  22.937  1.00  0.00     0.159 HD
ATOM     32  H   UNL A   1      35.981  23.749  22.969  1.00  0.00     0.159 HD
ENDBRANCH  18  28
ENDBRANCH  12  15
ENDBRANCH   6  11
ENDBRANCH   3   5
ENDBRANCH   2   3
ENDBRANCH   1   2
BRANCH   1  33
ATOM     33  C   UNL A   1      33.334  32.444  27.667  1.00  0.00     0.275 C 
BRANCH  33  34
ATOM     34  O   UNL A   1      33.567  33.861  28.137  1.00  0.00    -0.458 OA
BRANCH  34  35
ATOM     35  C   UNL A   1      33.840  34.636  29.244  1.00  0.00     0.338 C 
ATOM     36  O   UNL A   1      33.155  35.596  29.565  1.00  0.00    -0.246 OA
BRANCH  35  37
ATOM     37  C   UNL A   1      34.927  34.239  30.170  1.00  0.00     0.060 A 
ATOM     38  C   UNL A   1      34.551  33.198  31.551  1.00  0.00     0.016 A 
ATOM     39  C   UNL A   1      36.255  33.998  29.358  1.00  0.00     0.016 A 
ATOM     40  C   UNL A   1      35.738  31.679  32.015  1.00  0.00     0.010 A 
ATOM     41  C   UNL A   1      37.227  32.780  29.680  1.00  0.00     0.010 A 
ATOM     42  C   UNL A   1      37.189  31.593  30.966  1.00  0.00    -0.014 A 
BRANCH  42  43
ATOM     43  C   UNL A   1      38.500  30.897  30.907  1.00  0.00     0.031 A 
ATOM     44  C   UNL A   1      38.674  29.698  30.083  1.00  0.00     0.074 A 
ATOM     45  C   UNL A   1      39.561  31.423  31.618  1.00  0.00     0.049 A 
ATOM     46  N   UNL A   1      39.339  28.659  30.464  1.00  0.00    -0.248 NA
ATOM     47  C   UNL A   1      38.028  29.520  28.785  1.00  0.00     0.031 C 
ATOM     48  C   UNL A   1      41.003  31.303  31.414  1.00  0.00     0.029 A 
ATOM     49  N   UNL A   1      39.524  32.275  32.747  1.00  0.00    -0.354 N 
ATOM     50  C   UNL A   1      39.568  27.934  29.315  1.00  0.00     0.074 A 
ATOM     51  C   UNL A   1      38.524  28.337  28.402  1.00  0.00     0.031 C 
ATOM     52  C   UNL A   1      41.669  31.825  32.472  1.00  0.00     0.029 A 
ATOM     53  C   UNL A   1      40.700  32.257  33.462  1.00  0.00     0.049 A 
ATOM     54  H   UNL A   1      38.742  32.820  32.995  1.00  0.00     0.167 HD
ATOM     55  C   UNL A   1      40.801  27.386  29.102  1.00  0.00     0.037 A 
ATOM     56  C   UNL A   1      40.632  32.114  34.810  1.00  0.00     0.037 A 
ATOM     57  C   UNL A   1      41.729  27.821  30.153  1.00  0.00     0.049 A 
ATOM     58  C   UNL A   1      41.215  30.773  35.084  1.00  0.00     0.074 A 
ATOM     59  C   UNL A   1      42.743  28.765  30.150  1.00  0.00     0.029 A 
ATOM     60  N   UNL A   1      41.478  27.534  31.490  1.00  0.00    -0.354 N 
ATOM     61  N   UNL A   1      41.244  29.834  34.181  1.00  0.00    -0.248 NA
ATOM     62  C   UNL A   1      41.932  30.434  36.297  1.00  0.00     0.031 C 
ATOM     63  C   UNL A   1      43.169  28.966  31.488  1.00  0.00     0.029 A 
ATOM     64  C   UNL A   1      42.386  28.172  32.312  1.00  0.00     0.049 A 
ATOM     65  H   UNL A   1      40.750  26.954  31.809  1.00  0.00     0.167 HD
ATOM     66  C   UNL A   1      42.104  28.861  34.583  1.00  0.00     0.074 A 
ATOM     67  C   UNL A   1      42.476  29.259  35.932  1.00  0.00     0.031 C 
ATOM     68  C   UNL A   1      42.464  27.854  33.736  1.00  0.00     0.037 A 
BRANCH  55  69
ATOM     69  C   UNL A   1      41.285  26.798  27.784  1.00  0.00     0.057 A 
ATOM     70  C   UNL A   1      41.460  25.406  27.622  1.00  0.00     0.134 A 
ATOM     71  C   UNL A   1      41.562  27.543  26.622  1.00  0.00     0.134 A 
ATOM     72  F   UNL A   1      41.128  24.531  28.580  1.00  0.00    -0.206 F 
ATOM     73  C   UNL A   1      41.961  24.819  26.452  1.00  0.00     0.040 A 
ATOM     74  C   UNL A   1      42.098  26.972  25.453  1.00  0.00     0.040 A 
ATOM     75  F   UNL A   1      41.270  28.847  26.541  1.00  0.00    -0.206 F 
ATOM     76  C   UNL A   1      42.306  25.604  25.368  1.00  0.00     0.006 A 
ENDBRANCH  55  69
BRANCH  56  77
ATOM     77  C   UNL A   1      39.408  32.743  35.413  1.00  0.00     0.057 A 
ATOM     78  C   UNL A   1      38.343  31.890  35.783  1.00  0.00     0.134 A 
ATOM     79  C   UNL A   1      39.416  34.009  36.008  1.00  0.00     0.134 A 
ATOM     80  F   UNL A   1      38.262  30.654  35.263  1.00  0.00    -0.206 F 
ATOM     81  C   UNL A   1      37.412  32.229  36.776  1.00  0.00     0.040 A 
ATOM     82  C   UNL A   1      38.474  34.366  36.989  1.00  0.00     0.040 A 
ATOM     83  F   UNL A   1      40.402  34.877  35.751  1.00  0.00    -0.206 F 
ATOM     84  C   UNL A   1      37.496  33.463  37.407  1.00  0.00     0.006 A 
ENDBRANCH  56  77
BRANCH  68  85
ATOM     85  C   UNL A   1      43.018  26.509  34.132  1.00  0.00     0.057 A 
ATOM     86  C   UNL A   1      42.314  25.535  34.846  1.00  0.00     0.134 A 
ATOM     87  C   UNL A   1      44.278  26.082  33.643  1.00  0.00     0.134 A 
ATOM     88  F   UNL A   1      41.064  25.718  35.277  1.00  0.00    -0.206 F 
ATOM     89  C   UNL A   1      42.840  24.266  35.107  1.00  0.00     0.040 A 
ATOM     90  C   UNL A   1      44.775  24.794  33.826  1.00  0.00     0.040 A 
ATOM     91  F   UNL A   1      45.090  26.871  32.926  1.00  0.00    -0.206 F 
ATOM     92  C   UNL A   1      44.062  23.883  34.580  1.00  0.00     0.006 A 
ENDBRANCH  68  85
ENDBRANCH  42  43
ENDBRANCH  35  37
ENDBRANCH  34  35
ENDBRANCH  33  34
ENDBRANCH   1  33
TORSDOF 15
ENDMDL
