MODEL 1
REMARK VINA RESULT:     -11.7      0.000      0.000
REMARK SMILES O=C(OCCOC(=O)c1cccn1CC(=O)N1CCC[C@H]2CCCC[C@H]21)c1ccc(-c2c3nc(c(-c4c(F)cccc4F)c4ccc([nH]4)c(-c4c(F)cccc4F)c4nc(c(-c5c(F)cccc5F)c5ccc2[nH]5)C=C4)C=C3)cc1
REMARK SMILES IDX 5 1 4 2 3 3 2 4 1 5 27 6 28 7 80 8 29 9 79 10 30 11 31 12
REMARK SMILES IDX 32 13 73 14 33 15 78 16 72 17 74 18 34 19 77 20 71 21 70 22
REMARK SMILES IDX 35 24 61 25 44 26 60 27 45 28 48 29 59 30 75 31 46 32 47 33
REMARK SMILES IDX 58 35 76 36 49 37 36 38 37 39 42 40 38 41 39 42 41 43 43 44
REMARK SMILES IDX 40 45 62 46 63 47 68 48 64 49 65 50 67 51 69 52 66 53 50 54
REMARK SMILES IDX 51 55 56 56 52 57 53 58 55 59 57 60 54 61 6 62 7 63 8 64
REMARK SMILES IDX 9 65 10 66 13 67 11 68 12 69 14 70 15 71 16 72 17 73 18 74
REMARK SMILES IDX 26 75 19 76 21 77 25 78 20 79 22 80 24 81 23 82
REMARK H PARENT 74 23 48 34
REMARK Flexibility Score: inf
ROOT
ATOM      1  C   UNL A   1      42.529  19.483  26.535  1.00  0.00     0.275 C 
ENDROOT
BRANCH   1   2
ATOM      2  C   UNL A   1      43.384  18.585  25.626  1.00  0.00     0.275 C 
BRANCH   2   3
ATOM      3  O   UNL A   1      43.783  19.101  24.355  1.00  0.00    -0.458 OA
BRANCH   3   4
ATOM      4  C   UNL A   1      45.048  19.539  24.265  1.00  0.00     0.338 C 
ATOM      5  O   UNL A   1      45.950  18.899  23.737  1.00  0.00    -0.246 OA
BRANCH   4   6
ATOM      6  C   UNL A   1      45.223  20.991  24.475  1.00  0.00     0.060 A 
ATOM      7  C   UNL A   1      44.746  22.052  23.686  1.00  0.00     0.016 A 
ATOM      8  C   UNL A   1      45.704  21.265  25.736  1.00  0.00     0.016 A 
ATOM      9  C   UNL A   1      44.723  23.393  24.197  1.00  0.00     0.010 A 
ATOM     10  C   UNL A   1      45.577  22.545  26.242  1.00  0.00     0.010 A 
ATOM     11  C   UNL A   1      45.119  23.673  25.517  1.00  0.00    -0.014 A 
BRANCH  11  12
ATOM     12  C   UNL A   1      45.101  25.050  26.237  1.00  0.00     0.031 A 
ATOM     13  C   UNL A   1      43.683  25.885  26.325  1.00  0.00     0.074 A 
ATOM     14  C   UNL A   1      46.324  25.368  26.814  1.00  0.00     0.049 A 
ATOM     15  N   UNL A   1      43.296  27.119  26.105  1.00  0.00    -0.248 NA
ATOM     16  C   UNL A   1      42.449  25.176  26.687  1.00  0.00     0.031 C 
ATOM     17  C   UNL A   1      47.575  24.531  26.784  1.00  0.00     0.029 A 
ATOM     18  N   UNL A   1      46.792  26.424  27.575  1.00  0.00    -0.354 N 
ATOM     19  C   UNL A   1      41.879  27.196  26.438  1.00  0.00     0.074 A 
ATOM     20  C   UNL A   1      41.368  25.879  26.360  1.00  0.00     0.031 C 
ATOM     21  C   UNL A   1      48.607  25.118  27.403  1.00  0.00     0.029 A 
ATOM     22  C   UNL A   1      48.196  26.422  27.809  1.00  0.00     0.049 A 
ATOM     23  H   UNL A   1      46.197  27.124  27.929  1.00  0.00     0.167 HD
ATOM     24  C   UNL A   1      41.252  28.149  27.213  1.00  0.00     0.037 A 
ATOM     25  C   UNL A   1      49.038  27.425  28.186  1.00  0.00     0.037 A 
ATOM     26  C   UNL A   1      42.196  29.126  27.604  1.00  0.00     0.049 A 
ATOM     27  C   UNL A   1      48.166  28.540  28.517  1.00  0.00     0.074 A 
ATOM     28  C   UNL A   1      42.912  29.964  26.797  1.00  0.00     0.029 A 
ATOM     29  N   UNL A   1      42.853  28.946  28.805  1.00  0.00    -0.354 N 
ATOM     30  N   UNL A   1      47.524  28.656  29.641  1.00  0.00    -0.248 NA
ATOM     31  C   UNL A   1      47.788  29.449  27.432  1.00  0.00     0.031 C 
ATOM     32  C   UNL A   1      44.204  29.672  27.246  1.00  0.00     0.029 A 
ATOM     33  C   UNL A   1      44.169  29.277  28.585  1.00  0.00     0.049 A 
ATOM     34  H   UNL A   1      42.456  28.641  29.654  1.00  0.00     0.167 HD
ATOM     35  C   UNL A   1      46.446  29.413  29.257  1.00  0.00     0.074 A 
ATOM     36  C   UNL A   1      46.845  30.135  28.064  1.00  0.00     0.031 C 
ATOM     37  C   UNL A   1      45.187  29.002  29.561  1.00  0.00     0.037 A 
BRANCH  24  38
ATOM     38  C   UNL A   1      39.914  28.223  27.923  1.00  0.00     0.057 A 
ATOM     39  C   UNL A   1      38.988  29.181  27.453  1.00  0.00     0.134 A 
ATOM     40  C   UNL A   1      39.648  27.704  29.198  1.00  0.00     0.134 A 
ATOM     41  F   UNL A   1      39.146  29.737  26.241  1.00  0.00    -0.206 F 
ATOM     42  C   UNL A   1      37.926  29.659  28.230  1.00  0.00     0.040 A 
ATOM     43  C   UNL A   1      38.558  28.147  29.973  1.00  0.00     0.040 A 
ATOM     44  F   UNL A   1      40.481  26.829  29.779  1.00  0.00    -0.206 F 
ATOM     45  C   UNL A   1      37.716  29.153  29.505  1.00  0.00     0.006 A 
ENDBRANCH  24  38
BRANCH  25  46
ATOM     46  C   UNL A   1      50.518  27.642  28.097  1.00  0.00     0.057 A 
ATOM     47  C   UNL A   1      51.412  27.683  29.171  1.00  0.00     0.134 A 
ATOM     48  C   UNL A   1      51.124  27.818  26.828  1.00  0.00     0.134 A 
ATOM     49  F   UNL A   1      50.973  27.638  30.436  1.00  0.00    -0.206 F 
ATOM     50  C   UNL A   1      52.805  27.804  28.983  1.00  0.00     0.040 A 
ATOM     51  C   UNL A   1      52.500  27.916  26.623  1.00  0.00     0.040 A 
ATOM     52  F   UNL A   1      50.403  27.899  25.704  1.00  0.00    -0.206 F 
ATOM     53  C   UNL A   1      53.354  27.893  27.705  1.00  0.00     0.006 A 
ENDBRANCH  25  46
BRANCH  37  54
ATOM     54  C   UNL A   1      45.067  28.202  30.820  1.00  0.00     0.057 A 
ATOM     55  C   UNL A   1      44.718  26.851  30.707  1.00  0.00     0.134 A 
ATOM     56  C   UNL A   1      45.137  28.723  32.120  1.00  0.00     0.134 A 
ATOM     57  F   UNL A   1      44.589  26.294  29.493  1.00  0.00    -0.206 F 
ATOM     58  C   UNL A   1      44.480  26.043  31.823  1.00  0.00     0.040 A 
ATOM     59  C   UNL A   1      44.905  27.924  33.253  1.00  0.00     0.040 A 
ATOM     60  F   UNL A   1      45.414  30.018  32.323  1.00  0.00    -0.206 F 
ATOM     61  C   UNL A   1      44.581  26.576  33.105  1.00  0.00     0.006 A 
ENDBRANCH  37  54
ENDBRANCH  11  12
ENDBRANCH   4   6
ENDBRANCH   3   4
ENDBRANCH   2   3
ENDBRANCH   1   2
BRANCH   1  62
ATOM     62  O   UNL A   1      41.708  20.437  25.838  1.00  0.00    -0.457 OA
BRANCH  62  63
ATOM     63  C   UNL A   1      40.346  20.219  25.908  1.00  0.00     0.355 C 
ATOM     64  O   UNL A   1      39.779  19.202  25.568  1.00  0.00    -0.244 OA
BRANCH  63  65
ATOM     65  C   UNL A   1      39.673  21.434  26.337  1.00  0.00     0.128 A 
ATOM     66  C   UNL A   1      40.054  22.278  27.373  1.00  0.00     0.035 A 
ATOM     67  N   UNL A   1      38.553  22.022  25.744  1.00  0.00    -0.333 N 
ATOM     68  C   UNL A   1      39.318  23.477  27.258  1.00  0.00     0.020 A 
ATOM     69  C   UNL A   1      38.483  23.337  26.168  1.00  0.00     0.087 A 
BRANCH  67  70
ATOM     70  C   UNL A   1      37.549  21.362  24.884  1.00  0.00     0.222 C 
BRANCH  70  71
ATOM     71  C   UNL A   1      36.436  22.137  24.104  1.00  0.00     0.242 C 
ATOM     72  O   UNL A   1      36.749  22.672  23.031  1.00  0.00    -0.273 OA
BRANCH  71  73
ATOM     73  N   UNL A   1      35.079  22.077  24.444  1.00  0.00    -0.338 N 
ATOM     74  C   UNL A   1      34.534  20.747  24.742  1.00  0.00     0.120 C 
ATOM     75  C   UNL A   1      34.195  23.132  23.858  1.00  0.00     0.088 C 
ATOM     76  C   UNL A   1      33.059  20.510  24.784  1.00  0.00     0.022 C 
ATOM     77  C   UNL A   1      32.720  22.830  24.104  1.00  0.00     0.012 C 
ATOM     78  C   UNL A   1      34.408  24.630  24.107  1.00  0.00     0.025 C 
ATOM     79  C   UNL A   1      32.600  21.363  23.649  1.00  0.00     0.007 C 
ATOM     80  C   UNL A   1      32.193  23.304  25.488  1.00  0.00     0.006 C 
ATOM     81  C   UNL A   1      33.931  25.164  25.450  1.00  0.00     0.002 C 
ATOM     82  C   UNL A   1      33.150  24.170  26.286  1.00  0.00     0.000 C 
ENDBRANCH  71  73
ENDBRANCH  70  71
ENDBRANCH  67  70
ENDBRANCH  63  65
ENDBRANCH  62  63
ENDBRANCH   1  62
TORSDOF 14
ENDMDL
MODEL 2
REMARK VINA RESULT:     -11.5      3.893      8.412
REMARK SMILES O=C(OCCOC(=O)c1cccn1CC(=O)N1CCC[C@H]2CCCC[C@H]21)c1ccc(-c2c3nc(c(-c4c(F)cccc4F)c4ccc([nH]4)c(-c4c(F)cccc4F)c4nc(c(-c5c(F)cccc5F)c5ccc2[nH]5)C=C4)C=C3)cc1
REMARK SMILES IDX 5 1 4 2 3 3 2 4 1 5 27 6 28 7 80 8 29 9 79 10 30 11 31 12
REMARK SMILES IDX 32 13 73 14 33 15 78 16 72 17 74 18 34 19 77 20 71 21 70 22
REMARK SMILES IDX 35 24 61 25 44 26 60 27 45 28 48 29 59 30 75 31 46 32 47 33
REMARK SMILES IDX 58 35 76 36 49 37 36 38 37 39 42 40 38 41 39 42 41 43 43 44
REMARK SMILES IDX 40 45 62 46 63 47 68 48 64 49 65 50 67 51 69 52 66 53 50 54
REMARK SMILES IDX 51 55 56 56 52 57 53 58 55 59 57 60 54 61 6 62 7 63 8 64
REMARK SMILES IDX 9 65 10 66 13 67 11 68 12 69 14 70 15 71 16 72 17 73 18 74
REMARK SMILES IDX 26 75 19 76 21 77 25 78 20 79 22 80 24 81 23 82
REMARK H PARENT 74 23 48 34
REMARK Flexibility Score: inf
ROOT
ATOM      1  C   UNL A   1      32.663  30.191  27.185  1.00  0.00     0.275 C 
ENDROOT
BRANCH   1   2
ATOM      2  C   UNL A   1      34.020  30.880  27.396  1.00  0.00     0.275 C 
BRANCH   2   3
ATOM      3  O   UNL A   1      35.017  30.183  28.146  1.00  0.00    -0.458 OA
BRANCH   3   4
ATOM      4  C   UNL A   1      36.235  30.744  28.178  1.00  0.00     0.338 C 
ATOM      5  O   UNL A   1      36.447  31.882  28.578  1.00  0.00    -0.246 OA
BRANCH   4   6
ATOM      6  C   UNL A   1      37.363  29.793  28.081  1.00  0.00     0.060 A 
ATOM      7  C   UNL A   1      38.416  29.779  27.151  1.00  0.00     0.016 A 
ATOM      8  C   UNL A   1      37.461  29.009  29.209  1.00  0.00     0.016 A 
ATOM      9  C   UNL A   1      39.594  28.993  27.390  1.00  0.00     0.010 A 
ATOM     10  C   UNL A   1      38.645  28.342  29.465  1.00  0.00     0.010 A 
ATOM     11  C   UNL A   1      39.750  28.265  28.583  1.00  0.00    -0.014 A 
BRANCH  11  12
ATOM     12  C   UNL A   1      40.978  27.416  29.017  1.00  0.00     0.031 A 
ATOM     13  C   UNL A   1      41.298  26.011  28.217  1.00  0.00     0.074 A 
ATOM     14  C   UNL A   1      41.726  28.028  30.014  1.00  0.00     0.049 A 
ATOM     15  N   UNL A   1      41.586  24.776  28.552  1.00  0.00    -0.248 NA
ATOM     16  C   UNL A   1      41.234  25.985  26.751  1.00  0.00     0.031 C 
ATOM     17  C   UNL A   1      41.445  29.360  30.658  1.00  0.00     0.029 A 
ATOM     18  N   UNL A   1      42.893  27.709  30.685  1.00  0.00    -0.354 N 
ATOM     19  C   UNL A   1      41.811  24.033  27.319  1.00  0.00     0.074 A 
ATOM     20  C   UNL A   1      41.150  24.741  26.287  1.00  0.00     0.031 C 
ATOM     21  C   UNL A   1      42.330  29.672  31.613  1.00  0.00     0.029 A 
ATOM     22  C   UNL A   1      43.212  28.564  31.779  1.00  0.00     0.049 A 
ATOM     23  H   UNL A   1      43.461  26.949  30.425  1.00  0.00     0.167 HD
ATOM     24  C   UNL A   1      42.863  23.189  27.029  1.00  0.00     0.037 A 
ATOM     25  C   UNL A   1      44.037  28.375  32.846  1.00  0.00     0.037 A 
ATOM     26  C   UNL A   1      43.698  23.081  28.164  1.00  0.00     0.049 A 
ATOM     27  C   UNL A   1      44.737  27.132  32.561  1.00  0.00     0.074 A 
ATOM     28  C   UNL A   1      43.374  22.582  29.394  1.00  0.00     0.029 A 
ATOM     29  N   UNL A   1      44.760  23.957  28.272  1.00  0.00    -0.354 N 
ATOM     30  N   UNL A   1      45.753  27.034  31.757  1.00  0.00    -0.248 NA
ATOM     31  C   UNL A   1      44.107  25.884  33.000  1.00  0.00     0.031 C 
ATOM     32  C   UNL A   1      43.758  23.664  30.193  1.00  0.00     0.029 A 
ATOM     33  C   UNL A   1      44.801  24.364  29.585  1.00  0.00     0.049 A 
ATOM     34  H   UNL A   1      45.370  24.235  27.550  1.00  0.00     0.167 HD
ATOM     35  C   UNL A   1      45.640  25.732  31.339  1.00  0.00     0.074 A 
ATOM     36  C   UNL A   1      44.893  25.027  32.363  1.00  0.00     0.031 C 
ATOM     37  C   UNL A   1      45.646  25.445  30.011  1.00  0.00     0.037 A 
BRANCH  24  38
ATOM     38  C   UNL A   1      43.434  22.609  25.750  1.00  0.00     0.057 A 
ATOM     39  C   UNL A   1      43.576  21.204  25.687  1.00  0.00     0.134 A 
ATOM     40  C   UNL A   1      44.157  23.331  24.789  1.00  0.00     0.134 A 
ATOM     41  F   UNL A   1      42.923  20.419  26.557  1.00  0.00    -0.206 F 
ATOM     42  C   UNL A   1      44.448  20.566  24.795  1.00  0.00     0.040 A 
ATOM     43  C   UNL A   1      45.004  22.697  23.860  1.00  0.00     0.040 A 
ATOM     44  F   UNL A   1      44.150  24.672  24.777  1.00  0.00    -0.206 F 
ATOM     45  C   UNL A   1      45.180  21.315  23.886  1.00  0.00     0.006 A 
ENDBRANCH  24  38
BRANCH  25  46
ATOM     46  C   UNL A   1      44.161  29.001  34.201  1.00  0.00     0.057 A 
ATOM     47  C   UNL A   1      45.215  29.806  34.645  1.00  0.00     0.134 A 
ATOM     48  C   UNL A   1      43.137  28.801  35.160  1.00  0.00     0.134 A 
ATOM     49  F   UNL A   1      46.303  29.997  33.887  1.00  0.00    -0.206 F 
ATOM     50  C   UNL A   1      45.201  30.427  35.911  1.00  0.00     0.040 A 
ATOM     51  C   UNL A   1      43.098  29.425  36.407  1.00  0.00     0.040 A 
ATOM     52  F   UNL A   1      42.104  27.983  34.933  1.00  0.00    -0.206 F 
ATOM     53  C   UNL A   1      44.129  30.260  36.785  1.00  0.00     0.006 A 
ENDBRANCH  25  46
BRANCH  37  54
ATOM     54  C   UNL A   1      46.442  26.386  29.161  1.00  0.00     0.057 A 
ATOM     55  C   UNL A   1      47.836  26.356  29.281  1.00  0.00     0.134 A 
ATOM     56  C   UNL A   1      45.904  27.398  28.353  1.00  0.00     0.134 A 
ATOM     57  F   UNL A   1      48.419  25.443  30.071  1.00  0.00    -0.206 F 
ATOM     58  C   UNL A   1      48.664  27.262  28.610  1.00  0.00     0.040 A 
ATOM     59  C   UNL A   1      46.723  28.314  27.670  1.00  0.00     0.040 A 
ATOM     60  F   UNL A   1      44.578  27.535  28.222  1.00  0.00    -0.206 F 
ATOM     61  C   UNL A   1      48.110  28.242  27.794  1.00  0.00     0.006 A 
ENDBRANCH  37  54
ENDBRANCH  11  12
ENDBRANCH   4   6
ENDBRANCH   3   4
ENDBRANCH   2   3
ENDBRANCH   1   2
BRANCH   1  62
ATOM     62  O   UNL A   1      32.689  29.072  26.280  1.00  0.00    -0.457 OA
BRANCH  62  63
ATOM     63  C   UNL A   1      31.709  28.119  26.478  1.00  0.00     0.355 C 
ATOM     64  O   UNL A   1      31.520  27.509  27.510  1.00  0.00    -0.244 OA
BRANCH  63  65
ATOM     65  C   UNL A   1      31.010  27.864  25.229  1.00  0.00     0.128 A 
ATOM     66  C   UNL A   1      30.797  28.763  24.192  1.00  0.00     0.035 A 
ATOM     67  N   UNL A   1      30.479  26.643  24.805  1.00  0.00    -0.333 N 
ATOM     68  C   UNL A   1      30.356  28.038  23.064  1.00  0.00     0.020 A 
ATOM     69  C   UNL A   1      30.283  26.712  23.437  1.00  0.00     0.087 A 
BRANCH  67  70
ATOM     70  C   UNL A   1      30.097  25.493  25.651  1.00  0.00     0.222 C 
BRANCH  70  71
ATOM     71  C   UNL A   1      31.113  24.421  26.165  1.00  0.00     0.242 C 
ATOM     72  O   UNL A   1      31.077  24.121  27.367  1.00  0.00    -0.273 OA
BRANCH  71  73
ATOM     73  N   UNL A   1      31.905  23.645  25.311  1.00  0.00    -0.338 N 
ATOM     74  C   UNL A   1      31.529  22.232  25.170  1.00  0.00     0.120 C 
ATOM     75  C   UNL A   1      33.337  24.054  25.169  1.00  0.00     0.088 C 
ATOM     76  C   UNL A   1      32.473  21.240  24.571  1.00  0.00     0.022 C 
ATOM     77  C   UNL A   1      34.148  23.009  24.409  1.00  0.00     0.012 C 
ATOM     78  C   UNL A   1      33.761  25.434  24.651  1.00  0.00     0.025 C 
ATOM     79  C   UNL A   1      33.774  21.704  25.138  1.00  0.00     0.007 C 
ATOM     80  C   UNL A   1      34.066  23.136  22.862  1.00  0.00     0.006 C 
ATOM     81  C   UNL A   1      33.691  25.639  23.144  1.00  0.00     0.002 C 
ATOM     82  C   UNL A   1      33.377  24.387  22.349  1.00  0.00     0.000 C 
ENDBRANCH  71  73
ENDBRANCH  70  71
ENDBRANCH  67  70
ENDBRANCH  63  65
ENDBRANCH  62  63
ENDBRANCH   1  62
TORSDOF 14
ENDMDL
MODEL 3
REMARK VINA RESULT:     -11.5      4.310      6.722
REMARK SMILES O=C(OCCOC(=O)c1cccn1CC(=O)N1CCC[C@H]2CCCC[C@H]21)c1ccc(-c2c3nc(c(-c4c(F)cccc4F)c4ccc([nH]4)c(-c4c(F)cccc4F)c4nc(c(-c5c(F)cccc5F)c5ccc2[nH]5)C=C4)C=C3)cc1
REMARK SMILES IDX 5 1 4 2 3 3 2 4 1 5 27 6 28 7 80 8 29 9 79 10 30 11 31 12
REMARK SMILES IDX 32 13 73 14 33 15 78 16 72 17 74 18 34 19 77 20 71 21 70 22
REMARK SMILES IDX 35 24 61 25 44 26 60 27 45 28 48 29 59 30 75 31 46 32 47 33
REMARK SMILES IDX 58 35 76 36 49 37 36 38 37 39 42 40 38 41 39 42 41 43 43 44
REMARK SMILES IDX 40 45 62 46 63 47 68 48 64 49 65 50 67 51 69 52 66 53 50 54
REMARK SMILES IDX 51 55 56 56 52 57 53 58 55 59 57 60 54 61 6 62 7 63 8 64
REMARK SMILES IDX 9 65 10 66 13 67 11 68 12 69 14 70 15 71 16 72 17 73 18 74
REMARK SMILES IDX 26 75 19 76 21 77 25 78 20 79 22 80 24 81 23 82
REMARK H PARENT 74 23 48 34
REMARK Flexibility Score: inf
ROOT
ATOM      1  C   UNL A   1      36.767  22.156  25.601  1.00  0.00     0.275 C 
ENDROOT
BRANCH   1   2
ATOM      2  C   UNL A   1      38.186  22.745  25.664  1.00  0.00     0.275 C 
BRANCH   2   3
ATOM      3  O   UNL A   1      38.366  23.990  26.342  1.00  0.00    -0.458 OA
BRANCH   3   4
ATOM      4  C   UNL A   1      39.336  24.025  27.269  1.00  0.00     0.338 C 
ATOM      5  O   UNL A   1      39.954  23.035  27.640  1.00  0.00    -0.246 OA
BRANCH   4   6
ATOM      6  C   UNL A   1      39.897  25.366  27.534  1.00  0.00     0.060 A 
ATOM      7  C   UNL A   1      40.325  26.333  26.608  1.00  0.00     0.016 A 
ATOM      8  C   UNL A   1      39.721  25.737  28.848  1.00  0.00     0.016 A 
ATOM      9  C   UNL A   1      40.537  27.694  27.015  1.00  0.00     0.010 A 
ATOM     10  C   UNL A   1      39.833  27.071  29.193  1.00  0.00     0.010 A 
ATOM     11  C   UNL A   1      40.267  28.108  28.331  1.00  0.00    -0.014 A 
BRANCH  11  12
ATOM     12  C   UNL A   1      40.389  29.544  28.914  1.00  0.00     0.031 A 
ATOM     13  C   UNL A   1      39.016  30.422  29.164  1.00  0.00     0.074 A 
ATOM     14  C   UNL A   1      41.696  29.878  29.242  1.00  0.00     0.049 A 
ATOM     15  N   UNL A   1      38.612  31.641  28.901  1.00  0.00    -0.248 NA
ATOM     16  C   UNL A   1      37.856  29.781  29.795  1.00  0.00     0.031 C 
ATOM     17  C   UNL A   1      42.914  29.008  29.077  1.00  0.00     0.029 A 
ATOM     18  N   UNL A   1      42.300  30.984  29.812  1.00  0.00    -0.354 N 
ATOM     19  C   UNL A   1      37.275  31.786  29.462  1.00  0.00     0.074 A 
ATOM     20  C   UNL A   1      36.742  30.481  29.594  1.00  0.00     0.031 C 
ATOM     21  C   UNL A   1      44.044  29.620  29.455  1.00  0.00     0.029 A 
ATOM     22  C   UNL A   1      43.724  30.965  29.803  1.00  0.00     0.049 A 
ATOM     23  H   UNL A   1      41.783  31.729  30.196  1.00  0.00     0.167 HD
ATOM     24  C   UNL A   1      36.801  32.820  30.241  1.00  0.00     0.037 A 
ATOM     25  C   UNL A   1      44.630  31.974  29.938  1.00  0.00     0.037 A 
ATOM     26  C   UNL A   1      37.809  33.802  30.374  1.00  0.00     0.049 A 
ATOM     27  C   UNL A   1      43.840  33.137  30.308  1.00  0.00     0.074 A 
ATOM     28  C   UNL A   1      38.385  34.545  29.384  1.00  0.00     0.029 A 
ATOM     29  N   UNL A   1      38.661  33.712  31.457  1.00  0.00    -0.354 N 
ATOM     30  N   UNL A   1      43.402  33.370  31.509  1.00  0.00    -0.248 NA
ATOM     31  C   UNL A   1      43.292  33.957  29.224  1.00  0.00     0.031 C 
ATOM     32  C   UNL A   1      39.732  34.260  29.631  1.00  0.00     0.029 A 
ATOM     33  C   UNL A   1      39.923  33.986  30.987  1.00  0.00     0.049 A 
ATOM     34  H   UNL A   1      38.412  33.494  32.385  1.00  0.00     0.167 HD
ATOM     35  C   UNL A   1      42.283  34.119  31.246  1.00  0.00     0.074 A 
ATOM     36  C   UNL A   1      42.479  34.721  29.941  1.00  0.00     0.031 C 
ATOM     37  C   UNL A   1      41.090  33.771  31.796  1.00  0.00     0.037 A 
BRANCH  24  38
ATOM     38  C   UNL A   1      35.606  32.993  31.158  1.00  0.00     0.057 A 
ATOM     39  C   UNL A   1      34.696  34.027  30.842  1.00  0.00     0.134 A 
ATOM     40  C   UNL A   1      35.508  32.483  32.461  1.00  0.00     0.134 A 
ATOM     41  F   UNL A   1      34.700  34.582  29.620  1.00  0.00    -0.206 F 
ATOM     42  C   UNL A   1      33.816  34.581  31.781  1.00  0.00     0.040 A 
ATOM     43  C   UNL A   1      34.598  33.003  33.401  1.00  0.00     0.040 A 
ATOM     44  F   UNL A   1      36.352  31.538  32.902  1.00  0.00    -0.206 F 
ATOM     45  C   UNL A   1      33.775  34.079  33.073  1.00  0.00     0.006 A 
ENDBRANCH  24  38
BRANCH  25  46
ATOM     46  C   UNL A   1      46.074  32.142  29.578  1.00  0.00     0.057 A 
ATOM     47  C   UNL A   1      47.142  32.233  30.476  1.00  0.00     0.134 A 
ATOM     48  C   UNL A   1      46.452  32.210  28.214  1.00  0.00     0.134 A 
ATOM     49  F   UNL A   1      46.930  32.290  31.797  1.00  0.00    -0.206 F 
ATOM     50  C   UNL A   1      48.483  32.301  30.041  1.00  0.00     0.040 A 
ATOM     51  C   UNL A   1      47.773  32.255  27.768  1.00  0.00     0.040 A 
ATOM     52  F   UNL A   1      45.548  32.233  27.229  1.00  0.00    -0.206 F 
ATOM     53  C   UNL A   1      48.802  32.283  28.685  1.00  0.00     0.006 A 
ENDBRANCH  25  46
BRANCH  37  54
ATOM     54  C   UNL A   1      41.180  33.089  33.126  1.00  0.00     0.057 A 
ATOM     55  C   UNL A   1      41.550  33.861  34.233  1.00  0.00     0.134 A 
ATOM     56  C   UNL A   1      41.061  31.708  33.337  1.00  0.00     0.134 A 
ATOM     57  F   UNL A   1      41.726  35.184  34.097  1.00  0.00    -0.206 F 
ATOM     58  C   UNL A   1      41.762  33.302  35.498  1.00  0.00     0.040 A 
ATOM     59  C   UNL A   1      41.267  31.131  34.603  1.00  0.00     0.040 A 
ATOM     60  F   UNL A   1      40.761  30.885  32.324  1.00  0.00    -0.206 F 
ATOM     61  C   UNL A   1      41.613  31.933  35.690  1.00  0.00     0.006 A 
ENDBRANCH  37  54
ENDBRANCH  11  12
ENDBRANCH   4   6
ENDBRANCH   3   4
ENDBRANCH   2   3
ENDBRANCH   1   2
BRANCH   1  62
ATOM     62  O   UNL A   1      35.769  23.045  25.068  1.00  0.00    -0.457 OA
BRANCH  62  63
ATOM     63  C   UNL A   1      35.428  22.840  23.746  1.00  0.00     0.355 C 
ATOM     64  O   UNL A   1      36.147  23.057  22.793  1.00  0.00    -0.244 OA
BRANCH  63  65
ATOM     65  C   UNL A   1      34.035  22.437  23.653  1.00  0.00     0.128 A 
ATOM     66  C   UNL A   1      33.443  21.330  24.250  1.00  0.00     0.035 A 
ATOM     67  N   UNL A   1      33.009  23.125  23.000  1.00  0.00    -0.333 N 
ATOM     68  C   UNL A   1      32.043  21.476  24.158  1.00  0.00     0.020 A 
ATOM     69  C   UNL A   1      31.801  22.656  23.485  1.00  0.00     0.087 A 
BRANCH  67  70
ATOM     70  C   UNL A   1      33.149  24.118  21.915  1.00  0.00     0.222 C 
BRANCH  70  71
ATOM     71  C   UNL A   1      33.088  25.664  22.144  1.00  0.00     0.242 C 
ATOM     72  O   UNL A   1      33.657  26.393  21.318  1.00  0.00    -0.273 OA
BRANCH  71  73
ATOM     73  N   UNL A   1      32.260  26.265  23.099  1.00  0.00    -0.338 N 
ATOM     74  C   UNL A   1      31.064  26.951  22.593  1.00  0.00     0.120 C 
ATOM     75  C   UNL A   1      32.921  26.743  24.353  1.00  0.00     0.088 C 
ATOM     76  C   UNL A   1      30.298  27.902  23.456  1.00  0.00     0.022 C 
ATOM     77  C   UNL A   1      31.972  27.581  25.204  1.00  0.00     0.012 C 
ATOM     78  C   UNL A   1      33.687  25.809  25.298  1.00  0.00     0.025 C 
ATOM     79  C   UNL A   1      31.408  28.587  24.182  1.00  0.00     0.007 C 
ATOM     80  C   UNL A   1      31.043  26.750  26.134  1.00  0.00     0.006 C 
ATOM     81  C   UNL A   1      32.843  24.951  26.228  1.00  0.00     0.002 C 
ATOM     82  C   UNL A   1      31.361  25.268  26.212  1.00  0.00     0.000 C 
ENDBRANCH  71  73
ENDBRANCH  70  71
ENDBRANCH  67  70
ENDBRANCH  63  65
ENDBRANCH  62  63
ENDBRANCH   1  62
TORSDOF 14
ENDMDL
