MODEL 1
REMARK VINA RESULT:     -12.0      0.000      0.000
REMARK SMILES O=C(OCCOC(=O)c1ccc(-c2c3nc(c(-c4c(F)cccc4F)c4ccc([nH]4)c(-c4c(F)cccc4F)c4nc(c(-c5c(F)cccc5F)c5ccc2[nH]5)C=C4)C=C3)cc1)c1ccc(N[C@H]2OC[C@@H](O)[C@@H](O)[C@H]2O)cc1
REMARK SMILES IDX 4 1 3 2 2 3 1 4 63 5 64 6 78 7 65 8 77 9 66 10 67 11 68 13
REMARK SMILES IDX 69 14 75 15 70 16 73 17 71 18 76 19 74 21 72 23 5 25 6 26
REMARK SMILES IDX 7 27 8 28 9 29 10 30 62 31 11 32 61 33 12 34 13 35 14 36
REMARK SMILES IDX 55 37 15 38 60 39 54 40 56 41 16 42 59 43 53 44 52 45 17 47
REMARK SMILES IDX 43 48 26 49 42 50 27 51 30 52 41 53 57 54 28 55 29 56 40 58
REMARK SMILES IDX 58 59 31 60 18 61 19 62 24 63 20 64 21 65 23 66 25 67 22 68
REMARK SMILES IDX 44 69 45 70 50 71 46 72 47 73 49 74 51 75 48 76 32 77 33 78
REMARK SMILES IDX 38 79 34 80 35 81 37 82 39 83 36 84
REMARK H PARENT 67 12 76 20 74 22 72 24 56 46 30 57
REMARK Flexibility Score: inf
ROOT
ATOM      1  C   UNL A   1      35.512  20.754  25.297  1.00  0.00     0.275 C 
ENDROOT
BRANCH   1   2
ATOM      2  O   UNL A   1      34.462  19.810  25.004  1.00  0.00    -0.458 OA
BRANCH   2   3
ATOM      3  C   UNL A   1      33.112  19.934  25.053  1.00  0.00     0.338 C 
ATOM      4  O   UNL A   1      32.450  18.945  25.363  1.00  0.00    -0.246 OA
BRANCH   3   5
ATOM      5  C   UNL A   1      32.355  21.163  24.640  1.00  0.00     0.060 A 
ATOM      6  C   UNL A   1      31.681  22.032  25.487  1.00  0.00     0.018 A 
ATOM      7  C   UNL A   1      32.366  21.493  23.271  1.00  0.00     0.018 A 
ATOM      8  C   UNL A   1      31.133  23.228  25.013  1.00  0.00     0.026 A 
ATOM      9  C   UNL A   1      31.779  22.678  22.794  1.00  0.00     0.026 A 
ATOM     10  C   UNL A   1      31.175  23.585  23.665  1.00  0.00     0.036 A 
BRANCH  10  11
ATOM     11  N   UNL A   1      30.722  24.809  23.200  1.00  0.00    -0.358 N 
ATOM     12  H   UNL A   1      29.881  24.846  22.690  1.00  0.00     0.163 HD
BRANCH  11  13
ATOM     13  C   UNL A   1      31.454  26.037  23.448  1.00  0.00     0.244 C 
ATOM     14  O   UNL A   1      32.851  25.767  23.287  1.00  0.00    -0.353 OA
ATOM     15  C   UNL A   1      31.056  27.147  22.455  1.00  0.00     0.195 C 
ATOM     16  C   UNL A   1      33.675  26.876  23.662  1.00  0.00     0.197 C 
ATOM     17  C   UNL A   1      31.845  28.405  22.853  1.00  0.00     0.178 C 
ATOM     18  C   UNL A   1      33.359  28.131  22.842  1.00  0.00     0.171 C 
BRANCH  15  19
ATOM     19  O   UNL A   1      31.403  26.776  21.102  1.00  0.00    -0.386 OA
ATOM     20  H   UNL A   1      32.034  26.039  21.120  1.00  0.00     0.211 HD
ENDBRANCH  15  19
BRANCH  17  21
ATOM     21  O   UNL A   1      31.531  29.489  21.978  1.00  0.00    -0.387 OA
ATOM     22  H   UNL A   1      30.825  30.026  22.370  1.00  0.00     0.211 HD
ENDBRANCH  17  21
BRANCH  18  23
ATOM     23  O   UNL A   1      33.817  27.953  21.493  1.00  0.00    -0.388 OA
ATOM     24  H   UNL A   1      33.669  27.034  21.219  1.00  0.00     0.211 HD
ENDBRANCH  18  23
ENDBRANCH  11  13
ENDBRANCH  10  11
ENDBRANCH   3   5
ENDBRANCH   2   3
ENDBRANCH   1   2
BRANCH   1  25
ATOM     25  C   UNL A   1      36.925  20.233  25.010  1.00  0.00     0.275 C 
BRANCH  25  26
ATOM     26  O   UNL A   1      37.917  21.271  25.053  1.00  0.00    -0.458 OA
BRANCH  26  27
ATOM     27  C   UNL A   1      39.008  20.973  25.804  1.00  0.00     0.338 C 
ATOM     28  O   UNL A   1      39.588  19.899  25.832  1.00  0.00    -0.246 OA
BRANCH  27  29
ATOM     29  C   UNL A   1      39.504  22.169  26.526  1.00  0.00     0.060 A 
ATOM     30  C   UNL A   1      38.925  23.400  26.195  1.00  0.00     0.016 A 
ATOM     31  C   UNL A   1      40.527  22.118  27.477  1.00  0.00     0.016 A 
ATOM     32  C   UNL A   1      39.411  24.582  26.756  1.00  0.00     0.010 A 
ATOM     33  C   UNL A   1      41.005  23.304  28.052  1.00  0.00     0.010 A 
ATOM     34  C   UNL A   1      40.483  24.550  27.658  1.00  0.00    -0.014 A 
BRANCH  34  35
ATOM     35  C   UNL A   1      41.144  25.827  28.041  1.00  0.00     0.031 A 
ATOM     36  C   UNL A   1      42.550  26.095  27.571  1.00  0.00     0.074 A 
ATOM     37  C   UNL A   1      40.492  26.782  28.731  1.00  0.00     0.049 A 
ATOM     38  N   UNL A   1      43.264  27.191  27.666  1.00  0.00    -0.248 NA
ATOM     39  C   UNL A   1      43.243  24.984  26.901  1.00  0.00     0.031 C 
ATOM     40  C   UNL A   1      39.127  26.678  29.239  1.00  0.00     0.029 A 
ATOM     41  N   UNL A   1      40.897  28.040  29.110  1.00  0.00    -0.354 N 
ATOM     42  C   UNL A   1      44.480  26.903  27.059  1.00  0.00     0.074 A 
ATOM     43  C   UNL A   1      44.428  25.517  26.650  1.00  0.00     0.031 C 
ATOM     44  C   UNL A   1      38.802  27.828  29.857  1.00  0.00     0.029 A 
ATOM     45  C   UNL A   1      39.937  28.751  29.787  1.00  0.00     0.049 A 
ATOM     46  H   UNL A   1      41.793  28.398  28.913  1.00  0.00     0.167 HD
ATOM     47  C   UNL A   1      45.537  27.720  26.835  1.00  0.00     0.037 A 
ATOM     48  C   UNL A   1      39.959  30.005  30.279  1.00  0.00     0.037 A 
ATOM     49  C   UNL A   1      45.607  29.101  27.234  1.00  0.00     0.049 A 
ATOM     50  C   UNL A   1      41.171  30.879  30.067  1.00  0.00     0.074 A 
ATOM     51  C   UNL A   1      46.626  30.011  27.010  1.00  0.00     0.029 A 
ATOM     52  N   UNL A   1      44.625  29.768  27.948  1.00  0.00    -0.354 N 
ATOM     53  N   UNL A   1      42.278  30.622  29.414  1.00  0.00    -0.248 NA
ATOM     54  C   UNL A   1      41.121  32.230  30.647  1.00  0.00     0.031 C 
ATOM     55  C   UNL A   1      46.284  31.215  27.634  1.00  0.00     0.029 A 
ATOM     56  C   UNL A   1      45.027  31.070  28.200  1.00  0.00     0.049 A 
ATOM     57  H   UNL A   1      43.770  29.374  28.236  1.00  0.00     0.167 HD
ATOM     58  C   UNL A   1      43.028  31.792  29.460  1.00  0.00     0.074 A 
ATOM     59  C   UNL A   1      42.253  32.759  30.205  1.00  0.00     0.031 C 
ATOM     60  C   UNL A   1      44.246  32.043  28.919  1.00  0.00     0.037 A 
BRANCH  47  61
ATOM     61  C   UNL A   1      46.719  27.128  26.127  1.00  0.00     0.057 A 
ATOM     62  C   UNL A   1      46.887  27.254  24.742  1.00  0.00     0.134 A 
ATOM     63  C   UNL A   1      47.708  26.440  26.841  1.00  0.00     0.134 A 
ATOM     64  F   UNL A   1      45.968  27.889  23.999  1.00  0.00    -0.206 F 
ATOM     65  C   UNL A   1      47.984  26.691  24.087  1.00  0.00     0.040 A 
ATOM     66  C   UNL A   1      48.822  25.897  26.201  1.00  0.00     0.040 A 
ATOM     67  F   UNL A   1      47.610  26.292  28.170  1.00  0.00    -0.206 F 
ATOM     68  C   UNL A   1      48.958  26.015  24.819  1.00  0.00     0.006 A 
ENDBRANCH  47  61
BRANCH  48  69
ATOM     69  C   UNL A   1      38.778  30.549  30.995  1.00  0.00     0.057 A 
ATOM     70  C   UNL A   1      38.592  30.315  32.363  1.00  0.00     0.134 A 
ATOM     71  C   UNL A   1      37.780  31.259  30.319  1.00  0.00     0.134 A 
ATOM     72  F   UNL A   1      39.502  29.616  33.059  1.00  0.00    -0.206 F 
ATOM     73  C   UNL A   1      37.442  30.743  33.028  1.00  0.00     0.040 A 
ATOM     74  C   UNL A   1      36.636  31.713  30.976  1.00  0.00     0.040 A 
ATOM     75  F   UNL A   1      37.901  31.515  29.008  1.00  0.00    -0.206 F 
ATOM     76  C   UNL A   1      36.459  31.446  32.333  1.00  0.00     0.006 A 
ENDBRANCH  48  69
BRANCH  60  77
ATOM     77  C   UNL A   1      44.798  33.434  29.052  1.00  0.00     0.057 A 
ATOM     78  C   UNL A   1      45.647  33.807  30.103  1.00  0.00     0.134 A 
ATOM     79  C   UNL A   1      44.502  34.409  28.088  1.00  0.00     0.134 A 
ATOM     80  F   UNL A   1      45.964  32.927  31.065  1.00  0.00    -0.206 F 
ATOM     81  C   UNL A   1      46.159  35.102  30.205  1.00  0.00     0.040 A 
ATOM     82  C   UNL A   1      45.030  35.700  28.164  1.00  0.00     0.040 A 
ATOM     83  F   UNL A   1      43.705  34.120  27.050  1.00  0.00    -0.206 F 
ATOM     84  C   UNL A   1      45.856  36.051  29.230  1.00  0.00     0.006 A 
ENDBRANCH  60  77
ENDBRANCH  34  35
ENDBRANCH  27  29
ENDBRANCH  26  27
ENDBRANCH  25  26
ENDBRANCH   1  25
TORSDOF 16
ENDMDL
MODEL 2
REMARK VINA RESULT:     -11.9      4.101      6.921
REMARK SMILES O=C(OCCOC(=O)c1ccc(-c2c3nc(c(-c4c(F)cccc4F)c4ccc([nH]4)c(-c4c(F)cccc4F)c4nc(c(-c5c(F)cccc5F)c5ccc2[nH]5)C=C4)C=C3)cc1)c1ccc(N[C@H]2OC[C@@H](O)[C@@H](O)[C@H]2O)cc1
REMARK SMILES IDX 4 1 3 2 2 3 1 4 63 5 64 6 78 7 65 8 77 9 66 10 67 11 68 13
REMARK SMILES IDX 69 14 75 15 70 16 73 17 71 18 76 19 74 21 72 23 5 25 6 26
REMARK SMILES IDX 7 27 8 28 9 29 10 30 62 31 11 32 61 33 12 34 13 35 14 36
REMARK SMILES IDX 55 37 15 38 60 39 54 40 56 41 16 42 59 43 53 44 52 45 17 47
REMARK SMILES IDX 43 48 26 49 42 50 27 51 30 52 41 53 57 54 28 55 29 56 40 58
REMARK SMILES IDX 58 59 31 60 18 61 19 62 24 63 20 64 21 65 23 66 25 67 22 68
REMARK SMILES IDX 44 69 45 70 50 71 46 72 47 73 49 74 51 75 48 76 32 77 33 78
REMARK SMILES IDX 38 79 34 80 35 81 37 82 39 83 36 84
REMARK H PARENT 67 12 76 20 74 22 72 24 56 46 30 57
REMARK Flexibility Score: inf
ROOT
ATOM      1  C   UNL A   1      43.381  21.276  25.874  1.00  0.00     0.275 C 
ENDROOT
BRANCH   1   2
ATOM      2  O   UNL A   1      41.973  21.535  25.700  1.00  0.00    -0.458 OA
BRANCH   2   3
ATOM      3  C   UNL A   1      40.896  21.115  26.408  1.00  0.00     0.338 C 
ATOM      4  O   UNL A   1      41.072  20.745  27.568  1.00  0.00    -0.246 OA
BRANCH   3   5
ATOM      5  C   UNL A   1      39.515  20.954  25.841  1.00  0.00     0.060 A 
ATOM      6  C   UNL A   1      38.969  19.781  25.338  1.00  0.00     0.018 A 
ATOM      7  C   UNL A   1      38.677  22.085  25.861  1.00  0.00     0.018 A 
ATOM      8  C   UNL A   1      37.621  19.706  24.970  1.00  0.00     0.026 A 
ATOM      9  C   UNL A   1      37.333  22.015  25.454  1.00  0.00     0.026 A 
ATOM     10  C   UNL A   1      36.771  20.811  25.026  1.00  0.00     0.036 A 
BRANCH  10  11
ATOM     11  N   UNL A   1      35.415  20.727  24.757  1.00  0.00    -0.358 N 
ATOM     12  H   UNL A   1      35.082  19.989  24.197  1.00  0.00     0.163 HD
BRANCH  11  13
ATOM     13  C   UNL A   1      34.472  21.698  25.282  1.00  0.00     0.244 C 
ATOM     14  O   UNL A   1      33.376  21.797  24.367  1.00  0.00    -0.353 OA
ATOM     15  C   UNL A   1      33.922  21.272  26.657  1.00  0.00     0.195 C 
ATOM     16  C   UNL A   1      32.462  22.845  24.711  1.00  0.00     0.197 C 
ATOM     17  C   UNL A   1      32.990  22.399  27.133  1.00  0.00     0.178 C 
ATOM     18  C   UNL A   1      31.869  22.653  26.111  1.00  0.00     0.171 C 
BRANCH  15  19
ATOM     19  O   UNL A   1      33.167  20.044  26.551  1.00  0.00    -0.386 OA
ATOM     20  H   UNL A   1      32.423  20.067  27.173  1.00  0.00     0.211 HD
ENDBRANCH  15  19
BRANCH  17  21
ATOM     21  O   UNL A   1      32.435  22.083  28.409  1.00  0.00    -0.387 OA
ATOM     22  H   UNL A   1      31.473  22.197  28.381  1.00  0.00     0.211 HD
ENDBRANCH  17  21
BRANCH  18  23
ATOM     23  O   UNL A   1      30.954  21.547  26.099  1.00  0.00    -0.388 OA
ATOM     24  H   UNL A   1      31.290  20.842  26.673  1.00  0.00     0.211 HD
ENDBRANCH  18  23
ENDBRANCH  11  13
ENDBRANCH  10  11
ENDBRANCH   3   5
ENDBRANCH   2   3
ENDBRANCH   1   2
BRANCH   1  25
ATOM     25  C   UNL A   1      44.291  22.107  24.960  1.00  0.00     0.275 C 
BRANCH  25  26
ATOM     26  O   UNL A   1      43.687  23.348  24.559  1.00  0.00    -0.458 OA
BRANCH  26  27
ATOM     27  C   UNL A   1      44.362  24.455  24.964  1.00  0.00     0.338 C 
ATOM     28  O   UNL A   1      45.464  24.806  24.573  1.00  0.00    -0.246 OA
BRANCH  27  29
ATOM     29  C   UNL A   1      43.537  25.280  25.878  1.00  0.00     0.060 A 
ATOM     30  C   UNL A   1      44.062  26.516  26.274  1.00  0.00     0.016 A 
ATOM     31  C   UNL A   1      42.297  24.863  26.373  1.00  0.00     0.016 A 
ATOM     32  C   UNL A   1      43.390  27.300  27.212  1.00  0.00     0.010 A 
ATOM     33  C   UNL A   1      41.615  25.659  27.305  1.00  0.00     0.010 A 
ATOM     34  C   UNL A   1      42.181  26.860  27.769  1.00  0.00    -0.014 A 
BRANCH  34  35
ATOM     35  C   UNL A   1      41.621  27.584  28.943  1.00  0.00     0.031 A 
ATOM     36  C   UNL A   1      42.322  27.478  30.272  1.00  0.00     0.074 A 
ATOM     37  C   UNL A   1      40.548  28.390  28.831  1.00  0.00     0.049 A 
ATOM     38  N   UNL A   1      42.093  28.129  31.386  1.00  0.00    -0.248 NA
ATOM     39  C   UNL A   1      43.430  26.514  30.357  1.00  0.00     0.031 C 
ATOM     40  C   UNL A   1      39.776  28.609  27.611  1.00  0.00     0.029 A 
ATOM     41  N   UNL A   1      39.935  29.190  29.766  1.00  0.00    -0.354 N 
ATOM     42  C   UNL A   1      43.033  27.663  32.296  1.00  0.00     0.074 A 
ATOM     43  C   UNL A   1      43.798  26.636  31.622  1.00  0.00     0.031 C 
ATOM     44  C   UNL A   1      38.794  29.492  27.869  1.00  0.00     0.029 A 
ATOM     45  C   UNL A   1      38.870  29.902  29.272  1.00  0.00     0.049 A 
ATOM     46  H   UNL A   1      40.232  29.247  30.703  1.00  0.00     0.167 HD
ATOM     47  C   UNL A   1      43.264  28.066  33.569  1.00  0.00     0.037 A 
ATOM     48  C   UNL A   1      38.060  30.796  29.874  1.00  0.00     0.037 A 
ATOM     49  C   UNL A   1      42.516  29.085  34.256  1.00  0.00     0.049 A 
ATOM     50  C   UNL A   1      38.300  31.188  31.310  1.00  0.00     0.074 A 
ATOM     51  C   UNL A   1      42.709  29.582  35.533  1.00  0.00     0.029 A 
ATOM     52  N   UNL A   1      41.424  29.754  33.729  1.00  0.00    -0.354 N 
ATOM     53  N   UNL A   1      39.248  30.804  32.130  1.00  0.00    -0.248 NA
ATOM     54  C   UNL A   1      37.363  32.159  31.897  1.00  0.00     0.031 C 
ATOM     55  C   UNL A   1      41.702  30.515  35.799  1.00  0.00     0.029 A 
ATOM     56  C   UNL A   1      40.914  30.639  34.666  1.00  0.00     0.049 A 
ATOM     57  H   UNL A   1      41.061  29.619  32.823  1.00  0.00     0.167 HD
ATOM     58  C   UNL A   1      39.053  31.524  33.303  1.00  0.00     0.074 A 
ATOM     59  C   UNL A   1      37.896  32.366  33.092  1.00  0.00     0.031 C 
ATOM     60  C   UNL A   1      39.778  31.497  34.449  1.00  0.00     0.037 A 
BRANCH  47  61
ATOM     61  C   UNL A   1      44.377  27.387  34.308  1.00  0.00     0.057 A 
ATOM     62  C   UNL A   1      44.170  26.199  35.023  1.00  0.00     0.134 A 
ATOM     63  C   UNL A   1      45.674  27.914  34.290  1.00  0.00     0.134 A 
ATOM     64  F   UNL A   1      42.948  25.649  35.092  1.00  0.00    -0.206 F 
ATOM     65  C   UNL A   1      45.208  25.576  35.718  1.00  0.00     0.040 A 
ATOM     66  C   UNL A   1      46.725  27.286  34.958  1.00  0.00     0.040 A 
ATOM     67  F   UNL A   1      45.940  29.044  33.617  1.00  0.00    -0.206 F 
ATOM     68  C   UNL A   1      46.492  26.118  35.682  1.00  0.00     0.006 A 
ENDBRANCH  47  61
BRANCH  48  69
ATOM     69  C   UNL A   1      36.952  31.430  29.115  1.00  0.00     0.057 A 
ATOM     70  C   UNL A   1      37.045  32.755  28.671  1.00  0.00     0.134 A 
ATOM     71  C   UNL A   1      35.754  30.749  28.871  1.00  0.00     0.134 A 
ATOM     72  F   UNL A   1      38.160  33.467  28.901  1.00  0.00    -0.206 F 
ATOM     73  C   UNL A   1      35.977  33.390  28.037  1.00  0.00     0.040 A 
ATOM     74  C   UNL A   1      34.686  31.365  28.218  1.00  0.00     0.040 A 
ATOM     75  F   UNL A   1      35.604  29.479  29.272  1.00  0.00    -0.206 F 
ATOM     76  C   UNL A   1      34.792  32.693  27.807  1.00  0.00     0.006 A 
ENDBRANCH  48  69
BRANCH  60  77
ATOM     77  C   UNL A   1      39.390  32.447  35.546  1.00  0.00     0.057 A 
ATOM     78  C   UNL A   1      38.494  32.092  36.563  1.00  0.00     0.134 A 
ATOM     79  C   UNL A   1      39.954  33.730  35.605  1.00  0.00     0.134 A 
ATOM     80  F   UNL A   1      37.910  30.884  36.564  1.00  0.00    -0.206 F 
ATOM     81  C   UNL A   1      38.153  32.985  37.582  1.00  0.00     0.040 A 
ATOM     82  C   UNL A   1      39.641  34.622  36.633  1.00  0.00     0.040 A 
ATOM     83  F   UNL A   1      40.827  34.134  34.671  1.00  0.00    -0.206 F 
ATOM     84  C   UNL A   1      38.732  34.252  37.622  1.00  0.00     0.006 A 
ENDBRANCH  60  77
ENDBRANCH  34  35
ENDBRANCH  27  29
ENDBRANCH  26  27
ENDBRANCH  25  26
ENDBRANCH   1  25
TORSDOF 16
ENDMDL
MODEL 3
REMARK VINA RESULT:     -11.6      1.214      1.892
REMARK SMILES O=C(OCCOC(=O)c1ccc(-c2c3nc(c(-c4c(F)cccc4F)c4ccc([nH]4)c(-c4c(F)cccc4F)c4nc(c(-c5c(F)cccc5F)c5ccc2[nH]5)C=C4)C=C3)cc1)c1ccc(N[C@H]2OC[C@@H](O)[C@@H](O)[C@H]2O)cc1
REMARK SMILES IDX 4 1 3 2 2 3 1 4 63 5 64 6 78 7 65 8 77 9 66 10 67 11 68 13
REMARK SMILES IDX 69 14 75 15 70 16 73 17 71 18 76 19 74 21 72 23 5 25 6 26
REMARK SMILES IDX 7 27 8 28 9 29 10 30 62 31 11 32 61 33 12 34 13 35 14 36
REMARK SMILES IDX 55 37 15 38 60 39 54 40 56 41 16 42 59 43 53 44 52 45 17 47
REMARK SMILES IDX 43 48 26 49 42 50 27 51 30 52 41 53 57 54 28 55 29 56 40 58
REMARK SMILES IDX 58 59 31 60 18 61 19 62 24 63 20 64 21 65 23 66 25 67 22 68
REMARK SMILES IDX 44 69 45 70 50 71 46 72 47 73 49 74 51 75 48 76 32 77 33 78
REMARK SMILES IDX 38 79 34 80 35 81 37 82 39 83 36 84
REMARK H PARENT 67 12 76 20 74 22 72 24 56 46 30 57
REMARK Flexibility Score: inf
ROOT
ATOM      1  C   UNL A   1      35.977  20.291  24.902  1.00  0.00     0.275 C 
ENDROOT
BRANCH   1   2
ATOM      2  O   UNL A   1      35.633  21.605  25.385  1.00  0.00    -0.458 OA
BRANCH   2   3
ATOM      3  C   UNL A   1      34.533  22.055  26.039  1.00  0.00     0.338 C 
ATOM      4  O   UNL A   1      33.787  21.225  26.558  1.00  0.00    -0.246 OA
BRANCH   3   5
ATOM      5  C   UNL A   1      34.091  23.489  26.074  1.00  0.00     0.060 A 
ATOM      6  C   UNL A   1      34.860  24.591  25.724  1.00  0.00     0.018 A 
ATOM      7  C   UNL A   1      32.759  23.741  26.453  1.00  0.00     0.018 A 
ATOM      8  C   UNL A   1      34.303  25.872  25.652  1.00  0.00     0.026 A 
ATOM      9  C   UNL A   1      32.214  25.037  26.417  1.00  0.00     0.026 A 
ATOM     10  C   UNL A   1      32.972  26.125  25.985  1.00  0.00     0.036 A 
BRANCH  10  11
ATOM     11  N   UNL A   1      32.384  27.370  25.826  1.00  0.00    -0.358 N 
ATOM     12  H   UNL A   1      32.637  28.101  26.435  1.00  0.00     0.163 HD
BRANCH  11  13
ATOM     13  C   UNL A   1      31.406  27.624  24.784  1.00  0.00     0.244 C 
ATOM     14  O   UNL A   1      31.193  29.036  24.703  1.00  0.00    -0.353 OA
ATOM     15  C   UNL A   1      31.896  27.126  23.410  1.00  0.00     0.195 C 
ATOM     16  C   UNL A   1      30.128  29.385  23.811  1.00  0.00     0.197 C 
ATOM     17  C   UNL A   1      30.760  27.391  22.409  1.00  0.00     0.178 C 
ATOM     18  C   UNL A   1      30.385  28.882  22.386  1.00  0.00     0.171 C 
BRANCH  15  19
ATOM     19  O   UNL A   1      33.077  27.847  22.993  1.00  0.00    -0.386 OA
ATOM     20  H   UNL A   1      33.675  27.955  23.749  1.00  0.00     0.211 HD
ENDBRANCH  15  19
BRANCH  17  21
ATOM     21  O   UNL A   1      31.134  26.954  21.102  1.00  0.00    -0.387 OA
ATOM     22  H   UNL A   1      32.054  26.649  21.114  1.00  0.00     0.211 HD
ENDBRANCH  17  21
BRANCH  18  23
ATOM     23  O   UNL A   1      31.442  29.647  21.788  1.00  0.00    -0.388 OA
ATOM     24  H   UNL A   1      32.213  29.649  22.376  1.00  0.00     0.211 HD
ENDBRANCH  18  23
ENDBRANCH  11  13
ENDBRANCH  10  11
ENDBRANCH   3   5
ENDBRANCH   2   3
ENDBRANCH   1   2
BRANCH   1  25
ATOM     25  C   UNL A   1      37.471  19.957  24.998  1.00  0.00     0.275 C 
BRANCH  25  26
ATOM     26  O   UNL A   1      38.279  21.113  25.271  1.00  0.00    -0.458 OA
BRANCH  26  27
ATOM     27  C   UNL A   1      39.369  20.864  26.043  1.00  0.00     0.338 C 
ATOM     28  O   UNL A   1      39.974  19.806  26.109  1.00  0.00    -0.246 OA
BRANCH  27  29
ATOM     29  C   UNL A   1      39.829  22.094  26.731  1.00  0.00     0.060 A 
ATOM     30  C   UNL A   1      39.189  23.293  26.393  1.00  0.00     0.016 A 
ATOM     31  C   UNL A   1      40.875  22.104  27.659  1.00  0.00     0.016 A 
ATOM     32  C   UNL A   1      39.636  24.504  26.922  1.00  0.00     0.010 A 
ATOM     33  C   UNL A   1      41.313  23.321  28.202  1.00  0.00     0.010 A 
ATOM     34  C   UNL A   1      40.729  24.535  27.799  1.00  0.00    -0.014 A 
BRANCH  34  35
ATOM     35  C   UNL A   1      41.342  25.847  28.144  1.00  0.00     0.031 A 
ATOM     36  C   UNL A   1      42.730  26.160  27.650  1.00  0.00     0.074 A 
ATOM     37  C   UNL A   1      40.660  26.790  28.821  1.00  0.00     0.049 A 
ATOM     38  N   UNL A   1      43.400  27.285  27.711  1.00  0.00    -0.248 NA
ATOM     39  C   UNL A   1      43.459  25.062  26.997  1.00  0.00     0.031 C 
ATOM     40  C   UNL A   1      39.306  26.644  29.347  1.00  0.00     0.029 A 
ATOM     41  N   UNL A   1      41.018  28.072  29.165  1.00  0.00    -0.354 N 
ATOM     42  C   UNL A   1      44.619  27.032  27.095  1.00  0.00     0.074 A 
ATOM     43  C   UNL A   1      44.619  25.636  26.719  1.00  0.00     0.031 C 
ATOM     44  C   UNL A   1      38.942  27.794  29.944  1.00  0.00     0.029 A 
ATOM     45  C   UNL A   1      40.038  28.759  29.838  1.00  0.00     0.049 A 
ATOM     46  H   UNL A   1      41.896  28.461  28.949  1.00  0.00     0.167 HD
ATOM     47  C   UNL A   1      45.640  27.886  26.839  1.00  0.00     0.037 A 
ATOM     48  C   UNL A   1      40.016  30.025  30.300  1.00  0.00     0.037 A 
ATOM     49  C   UNL A   1      45.659  29.277  27.205  1.00  0.00     0.049 A 
ATOM     50  C   UNL A   1      41.188  30.941  30.054  1.00  0.00     0.074 A 
ATOM     51  C   UNL A   1      46.637  30.223  26.948  1.00  0.00     0.029 A 
ATOM     52  N   UNL A   1      44.659  29.921  27.916  1.00  0.00    -0.354 N 
ATOM     53  N   UNL A   1      42.297  30.714  29.392  1.00  0.00    -0.248 NA
ATOM     54  C   UNL A   1      41.091  32.303  30.603  1.00  0.00     0.031 C 
ATOM     55  C   UNL A   1      46.254  31.426  27.548  1.00  0.00     0.029 A 
ATOM     56  C   UNL A   1      45.011  31.244  28.133  1.00  0.00     0.049 A 
ATOM     57  H   UNL A   1      43.824  29.500  28.224  1.00  0.00     0.167 HD
ATOM     58  C   UNL A   1      42.999  31.914  29.401  1.00  0.00     0.074 A 
ATOM     59  C   UNL A   1      42.195  32.867  30.135  1.00  0.00     0.031 C 
ATOM     60  C   UNL A   1      44.200  32.201  28.840  1.00  0.00     0.037 A 
BRANCH  47  61
ATOM     61  C   UNL A   1      46.836  27.325  26.130  1.00  0.00     0.057 A 
ATOM     62  C   UNL A   1      46.953  27.369  24.734  1.00  0.00     0.134 A 
ATOM     63  C   UNL A   1      47.891  26.752  26.851  1.00  0.00     0.134 A 
ATOM     64  F   UNL A   1      45.971  27.892  23.984  1.00  0.00    -0.206 F 
ATOM     65  C   UNL A   1      48.064  26.836  24.078  1.00  0.00     0.040 A 
ATOM     66  C   UNL A   1      49.018  26.241  26.209  1.00  0.00     0.040 A 
ATOM     67  F   UNL A   1      47.843  26.687  28.190  1.00  0.00    -0.206 F 
ATOM     68  C   UNL A   1      49.104  26.274  24.818  1.00  0.00     0.006 A 
ENDBRANCH  47  61
BRANCH  48  69
ATOM     69  C   UNL A   1      38.822  30.537  31.019  1.00  0.00     0.057 A 
ATOM     70  C   UNL A   1      38.666  30.336  32.396  1.00  0.00     0.134 A 
ATOM     71  C   UNL A   1      37.784  31.183  30.339  1.00  0.00     0.134 A 
ATOM     72  F   UNL A   1      39.616  29.698  33.097  1.00  0.00    -0.206 F 
ATOM     73  C   UNL A   1      37.507  30.733  33.066  1.00  0.00     0.040 A 
ATOM     74  C   UNL A   1      36.630  31.605  31.000  1.00  0.00     0.040 A 
ATOM     75  F   UNL A   1      37.874  31.405  29.019  1.00  0.00    -0.206 F 
ATOM     76  C   UNL A   1      36.485  31.372  32.367  1.00  0.00     0.006 A 
ENDBRANCH  48  69
BRANCH  60  77
ATOM     77  C   UNL A   1      44.697  33.616  28.934  1.00  0.00     0.057 A 
ATOM     78  C   UNL A   1      44.387  34.585  27.970  1.00  0.00     0.134 A 
ATOM     79  C   UNL A   1      45.470  34.024  30.030  1.00  0.00     0.134 A 
ATOM     80  F   UNL A   1      43.660  34.261  26.890  1.00  0.00    -0.206 F 
ATOM     81  C   UNL A   1      44.849  35.898  28.079  1.00  0.00     0.040 A 
ATOM     82  C   UNL A   1      45.914  35.341  30.164  1.00  0.00     0.040 A 
ATOM     83  F   UNL A   1      45.796  33.153  30.996  1.00  0.00    -0.206 F 
ATOM     84  C   UNL A   1      45.610  36.281  29.182  1.00  0.00     0.006 A 
ENDBRANCH  60  77
ENDBRANCH  34  35
ENDBRANCH  27  29
ENDBRANCH  26  27
ENDBRANCH  25  26
ENDBRANCH   1  25
TORSDOF 16
ENDMDL
