MODEL 1
REMARK VINA RESULT:     -12.2      0.000      0.000
REMARK SMILES Cc1ccccc1Sc1cncc(C(=O)OCCOC(=O)c2ccc(-c3c4nc(c(-c5c(F)cccc5F)c5ccc([nH]5)c(-c5c(F)cccc5F)c5nc(c(-c6c(F)cccc6F)c6ccc3[nH]6)C=C5)C=C4)cc2)n1
REMARK SMILES IDX 17 1 16 2 14 3 15 4 13 5 9 6 10 7 76 8 11 9 12 10 8 11 7 12
REMARK SMILES IDX 1 13 2 14 3 15 4 16 6 17 5 18 18 19 19 20 20 21 21 22 22 23
REMARK SMILES IDX 23 24 75 25 24 26 74 27 25 28 26 29 27 30 68 31 28 32 73 33
REMARK SMILES IDX 67 34 69 35 29 36 72 37 66 38 65 39 30 41 56 42 39 43 55 44
REMARK SMILES IDX 40 45 43 46 54 47 70 48 41 49 42 50 53 52 71 53 44 54 31 55
REMARK SMILES IDX 32 56 37 57 33 58 34 59 36 60 38 61 35 62 57 63 58 64 63 65
REMARK SMILES IDX 59 66 60 67 62 68 64 69 61 70 45 71 46 72 51 73 47 74 48 75
REMARK SMILES IDX 50 76 52 77 49 78
REMARK H PARENT 69 40 43 51
REMARK Flexibility Score: inf
ROOT
ATOM      1  C   UNL A   1      33.413  31.673  27.550  1.00  0.00     0.275 C 
ENDROOT
BRANCH   1   2
ATOM      2  O   UNL A   1      32.601  30.541  27.203  1.00  0.00    -0.457 OA
BRANCH   2   3
ATOM      3  C   UNL A   1      31.660  30.707  26.054  1.00  0.00     0.358 C 
ATOM      4  O   UNL A   1      31.146  31.823  26.366  1.00  0.00    -0.244 OA
BRANCH   3   5
ATOM      5  C   UNL A   1      31.339  29.359  24.398  1.00  0.00     0.167 A 
ATOM      6  C   UNL A   1      31.771  27.186  23.242  1.00  0.00     0.120 A 
ATOM      7  C   UNL A   1      30.685  27.269  22.408  1.00  0.00     0.146 A 
ATOM      8  N   UNL A   1      32.070  28.154  24.171  1.00  0.00    -0.231 NA
ATOM      9  N   UNL A   1      29.939  28.367  22.384  1.00  0.00    -0.259 NA
ATOM     10  C   UNL A   1      30.292  29.333  23.307  1.00  0.00     0.147 A 
BRANCH   6  11
ATOM     11  S   UNL A   1      32.937  25.874  23.096  1.00  0.00    -0.068 SA
BRANCH  11  12
ATOM     12  C   UNL A   1      32.692  24.849  24.554  1.00  0.00     0.017 A 
ATOM     13  C   UNL A   1      35.153  24.408  25.289  1.00  0.00     0.045 C 
ATOM     14  C   UNL A   1      33.659  24.322  25.441  1.00  0.00    -0.037 A 
ATOM     15  C   UNL A   1      33.224  23.608  26.578  1.00  0.00     0.004 A 
ATOM     16  C   UNL A   1      31.873  23.451  26.870  1.00  0.00     0.000 A 
ATOM     17  C   UNL A   1      31.328  24.648  24.857  1.00  0.00     0.016 A 
ATOM     18  C   UNL A   1      30.922  23.968  26.006  1.00  0.00     0.001 A 
ENDBRANCH  11  12
ENDBRANCH   6  11
ENDBRANCH   3   5
ENDBRANCH   2   3
ENDBRANCH   1   2
BRANCH   1  19
ATOM     19  C   UNL A   1      34.845  31.182  27.802  1.00  0.00     0.275 C 
BRANCH  19  20
ATOM     20  O   UNL A   1      35.639  31.993  28.722  1.00  0.00    -0.458 OA
BRANCH  20  21
ATOM     21  C   UNL A   1      36.835  31.561  29.225  1.00  0.00     0.338 C 
ATOM     22  O   UNL A   1      37.712  32.291  29.652  1.00  0.00    -0.246 OA
BRANCH  21  23
ATOM     23  C   UNL A   1      37.143  30.166  28.821  1.00  0.00     0.060 A 
ATOM     24  C   UNL A   1      37.180  29.002  30.211  1.00  0.00     0.016 A 
ATOM     25  C   UNL A   1      38.333  30.035  27.480  1.00  0.00     0.016 A 
ATOM     26  C   UNL A   1      38.528  27.742  30.306  1.00  0.00     0.010 A 
ATOM     27  C   UNL A   1      39.664  28.776  27.560  1.00  0.00     0.010 A 
ATOM     28  C   UNL A   1      39.761  27.660  28.989  1.00  0.00    -0.014 A 
BRANCH  28  29
ATOM     29  C   UNL A   1      41.114  27.234  29.259  1.00  0.00     0.031 A 
ATOM     30  C   UNL A   1      41.471  25.910  28.750  1.00  0.00     0.074 A 
ATOM     31  C   UNL A   1      41.969  28.182  29.715  1.00  0.00     0.049 A 
ATOM     32  N   UNL A   1      42.586  25.352  29.010  1.00  0.00    -0.248 NA
ATOM     33  C   UNL A   1      40.594  25.052  27.948  1.00  0.00     0.031 C 
ATOM     34  C   UNL A   1      43.426  28.236  29.714  1.00  0.00     0.029 A 
ATOM     35  N   UNL A   1      41.619  29.297  30.480  1.00  0.00    -0.354 N 
ATOM     36  C   UNL A   1      42.719  24.261  28.185  1.00  0.00     0.074 A 
ATOM     37  C   UNL A   1      41.418  24.053  27.618  1.00  0.00     0.031 C 
ATOM     38  C   UNL A   1      43.834  29.110  30.657  1.00  0.00     0.029 A 
ATOM     39  C   UNL A   1      42.657  29.580  31.369  1.00  0.00     0.049 A 
ATOM     40  H   UNL A   1      40.778  29.802  30.404  1.00  0.00     0.167 HD
ATOM     41  C   UNL A   1      43.983  23.790  28.026  1.00  0.00     0.037 A 
ATOM     42  C   UNL A   1      42.419  29.416  32.706  1.00  0.00     0.037 A 
ATOM     43  C   UNL A   1      44.838  24.413  29.045  1.00  0.00     0.049 A 
ATOM     44  C   UNL A   1      43.119  28.168  33.214  1.00  0.00     0.074 A 
ATOM     45  C   UNL A   1      45.693  25.501  29.028  1.00  0.00     0.029 A 
ATOM     46  N   UNL A   1      44.498  24.205  30.378  1.00  0.00    -0.354 N 
ATOM     47  N   UNL A   1      43.487  27.167  32.451  1.00  0.00    -0.248 NA
ATOM     48  C   UNL A   1      43.545  27.998  34.597  1.00  0.00     0.031 C 
ATOM     49  C   UNL A   1      45.797  25.986  30.369  1.00  0.00     0.029 A 
ATOM     50  C   UNL A   1      45.028  25.181  31.197  1.00  0.00     0.049 A 
ATOM     51  H   UNL A   1      43.947  23.454  30.698  1.00  0.00     0.167 HD
ATOM     52  C   UNL A   1      44.219  26.269  33.183  1.00  0.00     0.074 A 
ATOM     53  C   UNL A   1      44.228  26.842  34.518  1.00  0.00     0.031 C 
ATOM     54  C   UNL A   1      44.777  25.139  32.638  1.00  0.00     0.037 A 
BRANCH  41  55
ATOM     55  C   UNL A   1      44.500  22.951  26.885  1.00  0.00     0.057 A 
ATOM     56  C   UNL A   1      45.555  23.446  26.093  1.00  0.00     0.134 A 
ATOM     57  C   UNL A   1      43.969  21.727  26.435  1.00  0.00     0.134 A 
ATOM     58  F   UNL A   1      46.171  24.600  26.388  1.00  0.00    -0.206 F 
ATOM     59  C   UNL A   1      46.021  22.796  24.943  1.00  0.00     0.040 A 
ATOM     60  C   UNL A   1      44.440  21.055  25.297  1.00  0.00     0.040 A 
ATOM     61  F   UNL A   1      42.951  21.112  27.043  1.00  0.00    -0.206 F 
ATOM     62  C   UNL A   1      45.465  21.594  24.540  1.00  0.00     0.006 A 
ENDBRANCH  41  55
BRANCH  42  63
ATOM     63  C   UNL A   1      41.088  29.969  33.132  1.00  0.00     0.057 A 
ATOM     64  C   UNL A   1      40.919  31.373  33.050  1.00  0.00     0.134 A 
ATOM     65  C   UNL A   1      39.916  29.217  33.251  1.00  0.00     0.134 A 
ATOM     66  F   UNL A   1      41.995  32.176  32.998  1.00  0.00    -0.206 F 
ATOM     67  C   UNL A   1      39.666  31.974  32.886  1.00  0.00     0.040 A 
ATOM     68  C   UNL A   1      38.643  29.819  33.141  1.00  0.00     0.040 A 
ATOM     69  F   UNL A   1      39.963  27.879  33.302  1.00  0.00    -0.206 F 
ATOM     70  C   UNL A   1      38.522  31.190  32.901  1.00  0.00     0.006 A 
ENDBRANCH  42  63
BRANCH  54  71
ATOM     71  C   UNL A   1      45.212  23.900  33.415  1.00  0.00     0.057 A 
ATOM     72  C   UNL A   1      46.476  23.722  33.995  1.00  0.00     0.134 A 
ATOM     73  C   UNL A   1      44.288  22.869  33.733  1.00  0.00     0.134 A 
ATOM     74  F   UNL A   1      47.422  24.666  33.951  1.00  0.00    -0.206 F 
ATOM     75  C   UNL A   1      46.825  22.578  34.726  1.00  0.00     0.040 A 
ATOM     76  C   UNL A   1      44.596  21.776  34.547  1.00  0.00     0.040 A 
ATOM     77  F   UNL A   1      43.020  22.872  33.301  1.00  0.00    -0.206 F 
ATOM     78  C   UNL A   1      45.882  21.606  35.016  1.00  0.00     0.006 A 
ENDBRANCH  54  71
ENDBRANCH  28  29
ENDBRANCH  21  23
ENDBRANCH  20  21
ENDBRANCH  19  20
ENDBRANCH   1  19
TORSDOF 13
ENDMDL
MODEL 2
REMARK VINA RESULT:     -12.0      4.921      9.853
REMARK SMILES Cc1ccccc1Sc1cncc(C(=O)OCCOC(=O)c2ccc(-c3c4nc(c(-c5c(F)cccc5F)c5ccc([nH]5)c(-c5c(F)cccc5F)c5nc(c(-c6c(F)cccc6F)c6ccc3[nH]6)C=C5)C=C4)cc2)n1
REMARK SMILES IDX 17 1 16 2 14 3 15 4 13 5 9 6 10 7 76 8 11 9 12 10 8 11 7 12
REMARK SMILES IDX 1 13 2 14 3 15 4 16 6 17 5 18 18 19 19 20 20 21 21 22 22 23
REMARK SMILES IDX 23 24 75 25 24 26 74 27 25 28 26 29 27 30 68 31 28 32 73 33
REMARK SMILES IDX 67 34 69 35 29 36 72 37 66 38 65 39 30 41 56 42 39 43 55 44
REMARK SMILES IDX 40 45 43 46 54 47 70 48 41 49 42 50 53 52 71 53 44 54 31 55
REMARK SMILES IDX 32 56 37 57 33 58 34 59 36 60 38 61 35 62 57 63 58 64 63 65
REMARK SMILES IDX 59 66 60 67 62 68 64 69 61 70 45 71 46 72 51 73 47 74 48 75
REMARK SMILES IDX 50 76 52 77 49 78
REMARK H PARENT 69 40 43 51
REMARK Flexibility Score: inf
ROOT
ATOM      1  C   UNL A   1      40.957  20.009  26.587  1.00  0.00     0.275 C 
ENDROOT
BRANCH   1   2
ATOM      2  O   UNL A   1      40.039  20.912  25.951  1.00  0.00    -0.457 OA
BRANCH   2   3
ATOM      3  C   UNL A   1      38.778  20.324  25.405  1.00  0.00     0.358 C 
ATOM      4  O   UNL A   1      39.113  19.102  25.376  1.00  0.00    -0.244 OA
BRANCH   3   5
ATOM      5  C   UNL A   1      36.968  21.360  24.844  1.00  0.00     0.167 A 
ATOM      6  C   UNL A   1      34.516  21.764  25.114  1.00  0.00     0.120 A 
ATOM      7  C   UNL A   1      34.515  22.969  24.458  1.00  0.00     0.146 A 
ATOM      8  N   UNL A   1      35.658  21.020  25.299  1.00  0.00    -0.231 NA
ATOM      9  N   UNL A   1      35.616  23.410  23.860  1.00  0.00    -0.259 NA
ATOM     10  C   UNL A   1      36.734  22.617  24.038  1.00  0.00     0.147 A 
BRANCH   6  11
ATOM     11  S   UNL A   1      33.017  21.022  25.666  1.00  0.00    -0.068 SA
BRANCH  11  12
ATOM     12  C   UNL A   1      32.844  19.515  24.699  1.00  0.00     0.017 A 
ATOM     13  C   UNL A   1      32.152  20.473  22.376  1.00  0.00     0.045 C 
ATOM     14  C   UNL A   1      32.532  19.371  23.327  1.00  0.00    -0.037 A 
ATOM     15  C   UNL A   1      32.533  18.080  22.759  1.00  0.00     0.004 A 
ATOM     16  C   UNL A   1      32.877  16.954  23.502  1.00  0.00     0.000 A 
ATOM     17  C   UNL A   1      33.159  18.354  25.437  1.00  0.00     0.016 A 
ATOM     18  C   UNL A   1      33.186  17.090  24.845  1.00  0.00     0.001 A 
ENDBRANCH  11  12
ENDBRANCH   6  11
ENDBRANCH   3   5
ENDBRANCH   2   3
ENDBRANCH   1   2
BRANCH   1  19
ATOM     19  C   UNL A   1      42.384  20.429  26.214  1.00  0.00     0.275 C 
BRANCH  19  20
ATOM     20  O   UNL A   1      42.516  21.753  25.610  1.00  0.00    -0.458 OA
BRANCH  20  21
ATOM     21  C   UNL A   1      42.842  22.859  26.345  1.00  0.00     0.338 C 
ATOM     22  O   UNL A   1      43.769  22.920  27.133  1.00  0.00    -0.246 OA
BRANCH  21  23
ATOM     23  C   UNL A   1      41.726  23.836  26.415  1.00  0.00     0.060 A 
ATOM     24  C   UNL A   1      41.981  25.300  25.375  1.00  0.00     0.016 A 
ATOM     25  C   UNL A   1      40.979  23.984  28.044  1.00  0.00     0.016 A 
ATOM     26  C   UNL A   1      41.574  26.973  26.045  1.00  0.00     0.010 A 
ATOM     27  C   UNL A   1      40.558  25.640  28.708  1.00  0.00     0.010 A 
ATOM     28  C   UNL A   1      40.886  27.120  27.709  1.00  0.00    -0.014 A 
BRANCH  28  29
ATOM     29  C   UNL A   1      41.147  28.283  28.524  1.00  0.00     0.031 A 
ATOM     30  C   UNL A   1      40.053  29.249  28.611  1.00  0.00     0.074 A 
ATOM     31  C   UNL A   1      42.250  28.238  29.312  1.00  0.00     0.049 A 
ATOM     32  N   UNL A   1      40.175  30.375  29.195  1.00  0.00    -0.248 NA
ATOM     33  C   UNL A   1      38.730  29.079  28.005  1.00  0.00     0.031 C 
ATOM     34  C   UNL A   1      42.605  28.997  30.504  1.00  0.00     0.029 A 
ATOM     35  N   UNL A   1      43.423  27.530  29.035  1.00  0.00    -0.354 N 
ATOM     36  C   UNL A   1      38.922  30.921  29.334  1.00  0.00     0.074 A 
ATOM     37  C   UNL A   1      38.070  30.134  28.491  1.00  0.00     0.031 C 
ATOM     38  C   UNL A   1      43.943  28.954  30.671  1.00  0.00     0.029 A 
ATOM     39  C   UNL A   1      44.511  28.246  29.534  1.00  0.00     0.049 A 
ATOM     40  H   UNL A   1      43.473  26.667  28.565  1.00  0.00     0.167 HD
ATOM     41  C   UNL A   1      38.803  31.898  30.271  1.00  0.00     0.037 A 
ATOM     42  C   UNL A   1      45.402  28.769  28.638  1.00  0.00     0.037 A 
ATOM     43  C   UNL A   1      40.152  32.314  30.675  1.00  0.00     0.049 A 
ATOM     44  C   UNL A   1      45.218  30.273  28.532  1.00  0.00     0.074 A 
ATOM     45  C   UNL A   1      40.969  31.978  31.740  1.00  0.00     0.029 A 
ATOM     46  N   UNL A   1      40.991  32.812  29.682  1.00  0.00    -0.354 N 
ATOM     47  N   UNL A   1      44.120  30.906  28.861  1.00  0.00    -0.248 NA
ATOM     48  C   UNL A   1      46.290  31.182  28.146  1.00  0.00     0.031 C 
ATOM     49  C   UNL A   1      42.320  32.213  31.336  1.00  0.00     0.029 A 
ATOM     50  C   UNL A   1      42.320  32.713  30.041  1.00  0.00     0.049 A 
ATOM     51  H   UNL A   1      40.676  33.189  28.829  1.00  0.00     0.167 HD
ATOM     52  C   UNL A   1      44.323  32.259  28.792  1.00  0.00     0.074 A 
ATOM     53  C   UNL A   1      45.701  32.375  28.344  1.00  0.00     0.031 C 
ATOM     54  C   UNL A   1      43.360  33.179  29.125  1.00  0.00     0.037 A 
BRANCH  41  55
ATOM     55  C   UNL A   1      37.537  32.343  30.958  1.00  0.00     0.057 A 
ATOM     56  C   UNL A   1      37.133  31.691  32.140  1.00  0.00     0.134 A 
ATOM     57  C   UNL A   1      36.621  33.305  30.490  1.00  0.00     0.134 A 
ATOM     58  F   UNL A   1      37.896  30.751  32.717  1.00  0.00    -0.206 F 
ATOM     59  C   UNL A   1      35.916  31.953  32.783  1.00  0.00     0.040 A 
ATOM     60  C   UNL A   1      35.409  33.590  31.136  1.00  0.00     0.040 A 
ATOM     61  F   UNL A   1      36.819  34.010  29.374  1.00  0.00    -0.206 F 
ATOM     62  C   UNL A   1      35.047  32.907  32.282  1.00  0.00     0.006 A 
ENDBRANCH  41  55
BRANCH  42  63
ATOM     63  C   UNL A   1      45.762  27.801  27.545  1.00  0.00     0.057 A 
ATOM     64  C   UNL A   1      45.211  28.045  26.263  1.00  0.00     0.134 A 
ATOM     65  C   UNL A   1      46.847  26.921  27.588  1.00  0.00     0.134 A 
ATOM     66  F   UNL A   1      44.126  28.827  26.138  1.00  0.00    -0.206 F 
ATOM     67  C   UNL A   1      45.824  27.611  25.084  1.00  0.00     0.040 A 
ATOM     68  C   UNL A   1      47.442  26.432  26.405  1.00  0.00     0.040 A 
ATOM     69  F   UNL A   1      47.462  26.648  28.747  1.00  0.00    -0.206 F 
ATOM     70  C   UNL A   1      46.965  26.824  25.152  1.00  0.00     0.006 A 
ENDBRANCH  42  63
BRANCH  54  71
ATOM     71  C   UNL A   1      43.332  34.638  28.678  1.00  0.00     0.057 A 
ATOM     72  C   UNL A   1      43.302  35.065  27.343  1.00  0.00     0.134 A 
ATOM     73  C   UNL A   1      43.187  35.693  29.618  1.00  0.00     0.134 A 
ATOM     74  F   UNL A   1      43.254  34.207  26.319  1.00  0.00    -0.206 F 
ATOM     75  C   UNL A   1      43.248  36.417  26.977  1.00  0.00     0.040 A 
ATOM     76  C   UNL A   1      43.028  37.034  29.261  1.00  0.00     0.040 A 
ATOM     77  F   UNL A   1      43.160  35.487  30.942  1.00  0.00    -0.206 F 
ATOM     78  C   UNL A   1      43.097  37.407  27.935  1.00  0.00     0.006 A 
ENDBRANCH  54  71
ENDBRANCH  28  29
ENDBRANCH  21  23
ENDBRANCH  20  21
ENDBRANCH  19  20
ENDBRANCH   1  19
TORSDOF 13
ENDMDL
MODEL 3
REMARK VINA RESULT:     -12.0      4.404      9.614
REMARK SMILES Cc1ccccc1Sc1cncc(C(=O)OCCOC(=O)c2ccc(-c3c4nc(c(-c5c(F)cccc5F)c5ccc([nH]5)c(-c5c(F)cccc5F)c5nc(c(-c6c(F)cccc6F)c6ccc3[nH]6)C=C5)C=C4)cc2)n1
REMARK SMILES IDX 17 1 16 2 14 3 15 4 13 5 9 6 10 7 76 8 11 9 12 10 8 11 7 12
REMARK SMILES IDX 1 13 2 14 3 15 4 16 6 17 5 18 18 19 19 20 20 21 21 22 22 23
REMARK SMILES IDX 23 24 75 25 24 26 74 27 25 28 26 29 27 30 68 31 28 32 73 33
REMARK SMILES IDX 67 34 69 35 29 36 72 37 66 38 65 39 30 41 56 42 39 43 55 44
REMARK SMILES IDX 40 45 43 46 54 47 70 48 41 49 42 50 53 52 71 53 44 54 31 55
REMARK SMILES IDX 32 56 37 57 33 58 34 59 36 60 38 61 35 62 57 63 58 64 63 65
REMARK SMILES IDX 59 66 60 67 62 68 64 69 61 70 45 71 46 72 51 73 47 74 48 75
REMARK SMILES IDX 50 76 52 77 49 78
REMARK H PARENT 69 40 43 51
REMARK Flexibility Score: inf
ROOT
ATOM      1  C   UNL A   1      38.528  22.035  25.879  1.00  0.00     0.275 C 
ENDROOT
BRANCH   1   2
ATOM      2  O   UNL A   1      38.025  20.934  25.106  1.00  0.00    -0.457 OA
BRANCH   2   3
ATOM      3  C   UNL A   1      36.553  20.901  24.851  1.00  0.00     0.358 C 
ATOM      4  O   UNL A   1      36.341  19.662  25.012  1.00  0.00    -0.244 OA
BRANCH   3   5
ATOM      5  C   UNL A   1      35.258  22.553  24.344  1.00  0.00     0.167 A 
ATOM      6  C   UNL A   1      33.846  24.502  25.020  1.00  0.00     0.120 A 
ATOM      7  C   UNL A   1      33.809  25.068  23.771  1.00  0.00     0.146 A 
ATOM      8  N   UNL A   1      34.526  23.336  25.286  1.00  0.00    -0.231 NA
ATOM      9  N   UNL A   1      34.337  24.436  22.730  1.00  0.00    -0.259 NA
ATOM     10  C   UNL A   1      34.980  23.250  23.032  1.00  0.00     0.147 A 
BRANCH   6  11
ATOM     11  S   UNL A   1      32.915  25.172  26.356  1.00  0.00    -0.068 SA
BRANCH  11  12
ATOM     12  C   UNL A   1      32.586  26.881  25.901  1.00  0.00     0.017 A 
ATOM     13  C   UNL A   1      30.407  26.627  24.493  1.00  0.00     0.045 C 
ATOM     14  C   UNL A   1      31.499  27.412  25.170  1.00  0.00    -0.037 A 
ATOM     15  C   UNL A   1      31.404  28.810  25.005  1.00  0.00     0.004 A 
ATOM     16  C   UNL A   1      32.326  29.678  25.582  1.00  0.00     0.000 A 
ATOM     17  C   UNL A   1      33.525  27.782  26.449  1.00  0.00     0.016 A 
ATOM     18  C   UNL A   1      33.392  29.163  26.301  1.00  0.00     0.001 A 
ENDBRANCH  11  12
ENDBRANCH   6  11
ENDBRANCH   3   5
ENDBRANCH   2   3
ENDBRANCH   1   2
BRANCH   1  19
ATOM     19  C   UNL A   1      39.867  21.618  26.500  1.00  0.00     0.275 C 
BRANCH  19  20
ATOM     20  O   UNL A   1      41.035  22.374  26.052  1.00  0.00    -0.458 OA
BRANCH  20  21
ATOM     21  C   UNL A   1      41.476  23.488  26.711  1.00  0.00     0.338 C 
ATOM     22  O   UNL A   1      42.394  23.503  27.512  1.00  0.00    -0.246 OA
BRANCH  21  23
ATOM     23  C   UNL A   1      40.478  24.588  26.684  1.00  0.00     0.060 A 
ATOM     24  C   UNL A   1      41.028  26.040  25.746  1.00  0.00     0.016 A 
ATOM     25  C   UNL A   1      39.552  24.778  28.213  1.00  0.00     0.016 A 
ATOM     26  C   UNL A   1      40.732  27.730  26.431  1.00  0.00     0.010 A 
ATOM     27  C   UNL A   1      39.241  26.453  28.891  1.00  0.00     0.010 A 
ATOM     28  C   UNL A   1      39.859  27.910  28.002  1.00  0.00    -0.014 A 
BRANCH  28  29
ATOM     29  C   UNL A   1      40.145  29.012  28.892  1.00  0.00     0.031 A 
ATOM     30  C   UNL A   1      39.083  30.009  29.020  1.00  0.00     0.074 A 
ATOM     31  C   UNL A   1      41.230  28.879  29.694  1.00  0.00     0.049 A 
ATOM     32  N   UNL A   1      39.234  31.092  29.674  1.00  0.00    -0.248 NA
ATOM     33  C   UNL A   1      37.767  29.924  28.383  1.00  0.00     0.031 C 
ATOM     34  C   UNL A   1      41.589  29.551  30.936  1.00  0.00     0.029 A 
ATOM     35  N   UNL A   1      42.383  28.148  29.394  1.00  0.00    -0.354 N 
ATOM     36  C   UNL A   1      37.998  31.673  29.826  1.00  0.00     0.074 A 
ATOM     37  C   UNL A   1      37.134  30.970  28.922  1.00  0.00     0.031 C 
ATOM     38  C   UNL A   1      42.921  29.450  31.122  1.00  0.00     0.029 A 
ATOM     39  C   UNL A   1      43.486  28.793  29.954  1.00  0.00     0.049 A 
ATOM     40  H   UNL A   1      42.412  27.314  28.872  1.00  0.00     0.167 HD
ATOM     41  C   UNL A   1      37.894  32.595  30.819  1.00  0.00     0.037 A 
ATOM     42  C   UNL A   1      44.411  29.337  29.107  1.00  0.00     0.037 A 
ATOM     43  C   UNL A   1      39.249  32.937  31.270  1.00  0.00     0.049 A 
ATOM     44  C   UNL A   1      44.282  30.850  29.091  1.00  0.00     0.074 A 
ATOM     45  C   UNL A   1      40.034  32.508  32.326  1.00  0.00     0.029 A 
ATOM     46  N   UNL A   1      40.124  33.464  30.324  1.00  0.00    -0.354 N 
ATOM     47  N   UNL A   1      43.199  31.501  29.440  1.00  0.00    -0.248 NA
ATOM     48  C   UNL A   1      45.391  31.743  28.780  1.00  0.00     0.031 C 
ATOM     49  C   UNL A   1      41.400  32.718  31.960  1.00  0.00     0.029 A 
ATOM     50  C   UNL A   1      41.441  33.296  30.699  1.00  0.00     0.049 A 
ATOM     51  H   UNL A   1      39.838  33.904  29.491  1.00  0.00     0.167 HD
ATOM     52  C   UNL A   1      43.451  32.848  29.457  1.00  0.00     0.074 A 
ATOM     53  C   UNL A   1      44.840  32.942  29.040  1.00  0.00     0.031 C 
ATOM     54  C   UNL A   1      42.514  33.780  29.830  1.00  0.00     0.037 A 
BRANCH  41  55
ATOM     55  C   UNL A   1      36.633  33.042  31.511  1.00  0.00     0.057 A 
ATOM     56  C   UNL A   1      35.741  33.895  30.829  1.00  0.00     0.134 A 
ATOM     57  C   UNL A   1      36.269  32.780  32.846  1.00  0.00     0.134 A 
ATOM     58  F   UNL A   1      35.944  34.240  29.549  1.00  0.00    -0.206 F 
ATOM     59  C   UNL A   1      34.607  34.457  31.429  1.00  0.00     0.040 A 
ATOM     60  C   UNL A   1      35.125  33.320  33.452  1.00  0.00     0.040 A 
ATOM     61  F   UNL A   1      36.999  32.012  33.657  1.00  0.00    -0.206 F 
ATOM     62  C   UNL A   1      34.293  34.170  32.746  1.00  0.00     0.006 A 
ENDBRANCH  41  55
BRANCH  42  63
ATOM     63  C   UNL A   1      44.757  28.426  27.963  1.00  0.00     0.057 A 
ATOM     64  C   UNL A   1      45.389  27.200  28.285  1.00  0.00     0.134 A 
ATOM     65  C   UNL A   1      44.202  28.510  26.682  1.00  0.00     0.134 A 
ATOM     66  F   UNL A   1      46.005  27.056  29.470  1.00  0.00    -0.206 F 
ATOM     67  C   UNL A   1      45.294  26.065  27.473  1.00  0.00     0.040 A 
ATOM     68  C   UNL A   1      44.148  27.385  25.831  1.00  0.00     0.040 A 
ATOM     69  F   UNL A   1      43.553  29.614  26.289  1.00  0.00    -0.206 F 
ATOM     70  C   UNL A   1      44.643  26.148  26.251  1.00  0.00     0.006 A 
ENDBRANCH  42  63
BRANCH  54  71
ATOM     71  C   UNL A   1      42.545  35.263  29.474  1.00  0.00     0.057 A 
ATOM     72  C   UNL A   1      43.378  36.214  30.081  1.00  0.00     0.134 A 
ATOM     73  C   UNL A   1      41.811  35.771  28.369  1.00  0.00     0.134 A 
ATOM     74  F   UNL A   1      44.268  35.887  31.024  1.00  0.00    -0.206 F 
ATOM     75  C   UNL A   1      43.396  37.564  29.703  1.00  0.00     0.040 A 
ATOM     76  C   UNL A   1      41.900  37.090  27.919  1.00  0.00     0.040 A 
ATOM     77  F   UNL A   1      40.984  35.012  27.637  1.00  0.00    -0.206 F 
ATOM     78  C   UNL A   1      42.666  38.005  28.612  1.00  0.00     0.006 A 
ENDBRANCH  54  71
ENDBRANCH  28  29
ENDBRANCH  21  23
ENDBRANCH  20  21
ENDBRANCH  19  20
ENDBRANCH   1  19
TORSDOF 13
ENDMDL
