MODEL 1
REMARK VINA RESULT:     -11.5      0.000      0.000
REMARK SMILES Cc1ccccc1N[C@H](C(=O)OCCOC(=O)c1ccc(-c2c3nc(c(-c4c(F)cccc4F)c4ccc([nH]4)c(-c4c(F)cccc4F)c4nc(c(-c5c(F)cccc5F)c5ccc2[nH]5)C=C4)C=C3)cc1)c1ccccc1
REMARK SMILES IDX 13 1 12 2 10 3 11 4 9 5 8 6 7 8 1 9 2 10 3 11 4 12 6 13 5 14
REMARK SMILES IDX 72 15 73 16 77 17 74 18 76 19 75 20 14 21 15 22 16 23 17 24
REMARK SMILES IDX 18 25 19 26 71 27 20 28 70 29 21 30 22 31 23 32 64 33 24 34
REMARK SMILES IDX 69 35 63 36 65 37 25 38 68 39 62 40 61 41 26 43 52 44 35 45
REMARK SMILES IDX 51 46 36 47 39 48 50 49 66 50 37 51 38 52 49 54 67 55 40 56
REMARK SMILES IDX 27 57 28 58 33 59 29 60 30 61 32 62 34 63 31 64 53 65 54 66
REMARK SMILES IDX 59 67 55 68 56 69 58 70 60 71 57 72 41 73 42 74 47 75 43 76
REMARK SMILES IDX 44 77 46 78 48 79 45 80
REMARK H PARENT 8 7 65 42 39 53
REMARK Flexibility Score: inf
ROOT
ATOM      1  C   UNL A   1      32.846  30.156  25.741  1.00  0.00     0.274 C 
ENDROOT
BRANCH   1   2
ATOM      2  O   UNL A   1      32.323  29.060  24.953  1.00  0.00    -0.460 OA
BRANCH   2   3
ATOM      3  C   UNL A   1      32.698  28.775  23.687  1.00  0.00     0.333 C 
ATOM      4  O   UNL A   1      33.667  29.308  23.149  1.00  0.00    -0.249 OA
BRANCH   3   5
ATOM      5  C   UNL A   1      31.660  27.865  22.892  1.00  0.00     0.221 C 
BRANCH   5   6
ATOM      6  N   UNL A   1      31.863  26.501  23.465  1.00  0.00    -0.368 N 
ATOM      7  H   UNL A   1      31.202  26.297  24.165  1.00  0.00     0.161 HD
BRANCH   6   8
ATOM      8  C   UNL A   1      32.731  25.464  23.269  1.00  0.00     0.038 A 
ATOM      9  C   UNL A   1      33.977  25.951  25.461  1.00  0.00     0.046 C 
ATOM     10  C   UNL A   1      33.572  25.050  24.321  1.00  0.00    -0.028 A 
ATOM     11  C   UNL A   1      34.090  23.744  24.321  1.00  0.00     0.005 A 
ATOM     12  C   UNL A   1      33.904  22.911  23.225  1.00  0.00     0.000 A 
ATOM     13  C   UNL A   1      32.748  24.704  22.100  1.00  0.00     0.026 A 
ATOM     14  C   UNL A   1      33.303  23.419  22.082  1.00  0.00     0.002 A 
ENDBRANCH   6   8
ENDBRANCH   5   6
BRANCH   5  15
ATOM     15  C   UNL A   1      30.272  28.497  22.624  1.00  0.00    -0.015 A 
ATOM     16  C   UNL A   1      30.056  29.727  21.994  1.00  0.00     0.006 A 
ATOM     17  C   UNL A   1      29.109  27.946  23.215  1.00  0.00     0.006 A 
ATOM     18  C   UNL A   1      28.803  30.355  21.932  1.00  0.00     0.000 A 
ATOM     19  C   UNL A   1      27.838  28.526  23.107  1.00  0.00     0.000 A 
ATOM     20  C   UNL A   1      27.684  29.734  22.454  1.00  0.00     0.000 A 
ENDBRANCH   5  15
ENDBRANCH   3   5
ENDBRANCH   2   3
ENDBRANCH   1   2
BRANCH   1  21
ATOM     21  C   UNL A   1      33.877  29.887  26.870  1.00  0.00     0.275 C 
BRANCH  21  22
ATOM     22  O   UNL A   1      34.070  30.906  27.887  1.00  0.00    -0.458 OA
BRANCH  22  23
ATOM     23  C   UNL A   1      35.258  31.567  27.973  1.00  0.00     0.338 C 
ATOM     24  O   UNL A   1      35.493  32.669  27.495  1.00  0.00    -0.246 OA
BRANCH  23  25
ATOM     25  C   UNL A   1      36.292  30.683  28.553  1.00  0.00     0.060 A 
ATOM     26  C   UNL A   1      36.179  30.036  29.795  1.00  0.00     0.016 A 
ATOM     27  C   UNL A   1      37.388  30.430  27.744  1.00  0.00     0.016 A 
ATOM     28  C   UNL A   1      37.212  29.183  30.219  1.00  0.00     0.010 A 
ATOM     29  C   UNL A   1      38.170  29.348  27.990  1.00  0.00     0.010 A 
ATOM     30  C   UNL A   1      38.218  28.871  29.303  1.00  0.00    -0.014 A 
BRANCH  30  31
ATOM     31  C   UNL A   1      39.587  28.446  29.572  1.00  0.00     0.031 A 
ATOM     32  C   UNL A   1      40.099  27.153  29.105  1.00  0.00     0.074 A 
ATOM     33  C   UNL A   1      40.366  29.558  29.635  1.00  0.00     0.049 A 
ATOM     34  N   UNL A   1      41.330  26.984  28.788  1.00  0.00    -0.248 NA
ATOM     35  C   UNL A   1      39.293  25.954  28.925  1.00  0.00     0.031 C 
ATOM     36  C   UNL A   1      41.703  29.837  29.136  1.00  0.00     0.029 A 
ATOM     37  N   UNL A   1      39.973  30.798  30.160  1.00  0.00    -0.354 N 
ATOM     38  C   UNL A   1      41.479  25.745  28.217  1.00  0.00     0.074 A 
ATOM     39  C   UNL A   1      40.182  25.126  28.349  1.00  0.00     0.031 C 
ATOM     40  C   UNL A   1      42.136  30.982  29.701  1.00  0.00     0.029 A 
ATOM     41  C   UNL A   1      41.136  31.380  30.683  1.00  0.00     0.049 A 
ATOM     42  H   UNL A   1      39.066  31.182  30.161  1.00  0.00     0.167 HD
ATOM     43  C   UNL A   1      42.700  25.463  27.678  1.00  0.00     0.037 A 
ATOM     44  C   UNL A   1      41.238  31.284  32.045  1.00  0.00     0.037 A 
ATOM     45  C   UNL A   1      43.693  26.379  28.255  1.00  0.00     0.049 A 
ATOM     46  C   UNL A   1      42.210  30.180  32.453  1.00  0.00     0.074 A 
ATOM     47  C   UNL A   1      44.294  27.573  27.903  1.00  0.00     0.029 A 
ATOM     48  N   UNL A   1      43.893  26.249  29.616  1.00  0.00    -0.354 N 
ATOM     49  N   UNL A   1      42.894  29.442  31.615  1.00  0.00    -0.248 NA
ATOM     50  C   UNL A   1      42.457  29.794  33.838  1.00  0.00     0.031 C 
ATOM     51  C   UNL A   1      44.677  28.231  29.131  1.00  0.00     0.029 A 
ATOM     52  C   UNL A   1      44.343  27.415  30.203  1.00  0.00     0.049 A 
ATOM     53  H   UNL A   1      43.734  25.415  30.114  1.00  0.00     0.167 HD
ATOM     54  C   UNL A   1      43.578  28.472  32.281  1.00  0.00     0.074 A 
ATOM     55  C   UNL A   1      43.284  28.744  33.682  1.00  0.00     0.031 C 
ATOM     56  C   UNL A   1      44.315  27.496  31.666  1.00  0.00     0.037 A 
BRANCH  43  57
ATOM     57  C   UNL A   1      43.038  24.415  26.648  1.00  0.00     0.057 A 
ATOM     58  C   UNL A   1      42.933  23.049  26.975  1.00  0.00     0.134 A 
ATOM     59  C   UNL A   1      43.606  24.663  25.386  1.00  0.00     0.134 A 
ATOM     60  F   UNL A   1      42.372  22.646  28.124  1.00  0.00    -0.206 F 
ATOM     61  C   UNL A   1      43.418  22.024  26.147  1.00  0.00     0.040 A 
ATOM     62  C   UNL A   1      44.095  23.650  24.547  1.00  0.00     0.040 A 
ATOM     63  F   UNL A   1      43.727  25.897  24.895  1.00  0.00    -0.206 F 
ATOM     64  C   UNL A   1      44.020  22.323  24.936  1.00  0.00     0.006 A 
ENDBRANCH  43  57
BRANCH  44  65
ATOM     65  C   UNL A   1      39.887  31.593  32.667  1.00  0.00     0.057 A 
ATOM     66  C   UNL A   1      39.163  30.505  33.218  1.00  0.00     0.134 A 
ATOM     67  C   UNL A   1      39.559  32.861  33.166  1.00  0.00     0.134 A 
ATOM     68  F   UNL A   1      39.431  29.251  32.820  1.00  0.00    -0.206 F 
ATOM     69  C   UNL A   1      38.291  30.653  34.305  1.00  0.00     0.040 A 
ATOM     70  C   UNL A   1      38.651  33.023  34.230  1.00  0.00     0.040 A 
ATOM     71  F   UNL A   1      40.205  33.955  32.737  1.00  0.00    -0.206 F 
ATOM     72  C   UNL A   1      38.054  31.915  34.834  1.00  0.00     0.006 A 
ENDBRANCH  44  65
BRANCH  56  73
ATOM     73  C   UNL A   1      45.069  26.491  32.488  1.00  0.00     0.057 A 
ATOM     74  C   UNL A   1      46.465  26.418  32.424  1.00  0.00     0.134 A 
ATOM     75  C   UNL A   1      44.439  25.516  33.285  1.00  0.00     0.134 A 
ATOM     76  F   UNL A   1      47.163  27.266  31.653  1.00  0.00    -0.206 F 
ATOM     77  C   UNL A   1      47.193  25.472  33.149  1.00  0.00     0.040 A 
ATOM     78  C   UNL A   1      45.149  24.518  33.952  1.00  0.00     0.040 A 
ATOM     79  F   UNL A   1      43.112  25.505  33.478  1.00  0.00    -0.206 F 
ATOM     80  C   UNL A   1      46.534  24.508  33.904  1.00  0.00     0.006 A 
ENDBRANCH  56  73
ENDBRANCH  30  31
ENDBRANCH  23  25
ENDBRANCH  22  23
ENDBRANCH  21  22
ENDBRANCH   1  21
TORSDOF 14
ENDMDL
MODEL 2
REMARK VINA RESULT:     -11.4      0.973      3.073
REMARK SMILES Cc1ccccc1N[C@H](C(=O)OCCOC(=O)c1ccc(-c2c3nc(c(-c4c(F)cccc4F)c4ccc([nH]4)c(-c4c(F)cccc4F)c4nc(c(-c5c(F)cccc5F)c5ccc2[nH]5)C=C4)C=C3)cc1)c1ccccc1
REMARK SMILES IDX 13 1 12 2 10 3 11 4 9 5 8 6 7 8 1 9 2 10 3 11 4 12 6 13 5 14
REMARK SMILES IDX 72 15 73 16 77 17 74 18 76 19 75 20 14 21 15 22 16 23 17 24
REMARK SMILES IDX 18 25 19 26 71 27 20 28 70 29 21 30 22 31 23 32 64 33 24 34
REMARK SMILES IDX 69 35 63 36 65 37 25 38 68 39 62 40 61 41 26 43 52 44 35 45
REMARK SMILES IDX 51 46 36 47 39 48 50 49 66 50 37 51 38 52 49 54 67 55 40 56
REMARK SMILES IDX 27 57 28 58 33 59 29 60 30 61 32 62 34 63 31 64 53 65 54 66
REMARK SMILES IDX 59 67 55 68 56 69 58 70 60 71 57 72 41 73 42 74 47 75 43 76
REMARK SMILES IDX 44 77 46 78 48 79 45 80
REMARK H PARENT 8 7 65 42 39 53
REMARK Flexibility Score: inf
ROOT
ATOM      1  C   UNL A   1      33.038  28.716  27.563  1.00  0.00     0.274 C 
ENDROOT
BRANCH   1   2
ATOM      2  O   UNL A   1      32.826  27.729  26.524  1.00  0.00    -0.460 OA
BRANCH   2   3
ATOM      3  C   UNL A   1      31.753  26.912  26.445  1.00  0.00     0.333 C 
ATOM      4  O   UNL A   1      30.826  26.960  27.252  1.00  0.00    -0.249 OA
BRANCH   3   5
ATOM      5  C   UNL A   1      31.897  25.755  25.362  1.00  0.00     0.221 C 
BRANCH   5   6
ATOM      6  N   UNL A   1      31.531  26.417  24.075  1.00  0.00    -0.368 N 
ATOM      7  H   UNL A   1      31.928  25.956  23.301  1.00  0.00     0.161 HD
BRANCH   6   8
ATOM      8  C   UNL A   1      30.788  27.500  23.695  1.00  0.00     0.038 A 
ATOM      9  C   UNL A   1      32.880  28.940  23.322  1.00  0.00     0.046 C 
ATOM     10  C   UNL A   1      31.424  28.611  23.107  1.00  0.00    -0.028 A 
ATOM     11  C   UNL A   1      30.683  29.483  22.292  1.00  0.00     0.005 A 
ATOM     12  C   UNL A   1      29.305  29.345  22.182  1.00  0.00     0.000 A 
ATOM     13  C   UNL A   1      29.394  27.516  23.752  1.00  0.00     0.026 A 
ATOM     14  C   UNL A   1      28.651  28.413  22.977  1.00  0.00     0.002 A 
ENDBRANCH   6   8
ENDBRANCH   5   6
BRANCH   5  15
ATOM     15  C   UNL A   1      33.112  24.810  25.537  1.00  0.00    -0.015 A 
ATOM     16  C   UNL A   1      33.209  23.795  26.496  1.00  0.00     0.006 A 
ATOM     17  C   UNL A   1      34.324  25.067  24.853  1.00  0.00     0.006 A 
ATOM     18  C   UNL A   1      34.390  23.082  26.749  1.00  0.00     0.000 A 
ATOM     19  C   UNL A   1      35.495  24.321  25.046  1.00  0.00     0.000 A 
ATOM     20  C   UNL A   1      35.524  23.317  25.994  1.00  0.00     0.000 A 
ENDBRANCH   5  15
ENDBRANCH   3   5
ENDBRANCH   2   3
ENDBRANCH   1   2
BRANCH   1  21
ATOM     21  C   UNL A   1      33.244  30.209  27.195  1.00  0.00     0.275 C 
BRANCH  21  22
ATOM     22  O   UNL A   1      34.588  30.664  26.879  1.00  0.00    -0.458 OA
BRANCH  22  23
ATOM     23  C   UNL A   1      35.296  31.384  27.792  1.00  0.00     0.338 C 
ATOM     24  O   UNL A   1      35.224  32.596  27.950  1.00  0.00    -0.246 OA
BRANCH  23  25
ATOM     25  C   UNL A   1      36.315  30.528  28.435  1.00  0.00     0.060 A 
ATOM     26  C   UNL A   1      36.212  30.009  29.736  1.00  0.00     0.016 A 
ATOM     27  C   UNL A   1      37.385  30.162  27.633  1.00  0.00     0.016 A 
ATOM     28  C   UNL A   1      37.228  29.169  30.221  1.00  0.00     0.010 A 
ATOM     29  C   UNL A   1      38.139  29.085  27.968  1.00  0.00     0.010 A 
ATOM     30  C   UNL A   1      38.203  28.736  29.321  1.00  0.00    -0.014 A 
BRANCH  30  31
ATOM     31  C   UNL A   1      39.565  28.296  29.603  1.00  0.00     0.031 A 
ATOM     32  C   UNL A   1      40.067  26.998  29.140  1.00  0.00     0.074 A 
ATOM     33  C   UNL A   1      40.355  29.399  29.674  1.00  0.00     0.049 A 
ATOM     34  N   UNL A   1      41.298  26.815  28.835  1.00  0.00    -0.248 NA
ATOM     35  C   UNL A   1      39.249  25.808  28.951  1.00  0.00     0.031 C 
ATOM     36  C   UNL A   1      41.701  29.663  29.188  1.00  0.00     0.029 A 
ATOM     37  N   UNL A   1      39.971  30.643  30.196  1.00  0.00    -0.354 N 
ATOM     38  C   UNL A   1      41.439  25.575  28.265  1.00  0.00     0.074 A 
ATOM     39  C   UNL A   1      40.134  24.971  28.383  1.00  0.00     0.031 C 
ATOM     40  C   UNL A   1      42.141  30.803  29.759  1.00  0.00     0.029 A 
ATOM     41  C   UNL A   1      41.136  31.212  30.731  1.00  0.00     0.049 A 
ATOM     42  H   UNL A   1      39.069  31.037  30.189  1.00  0.00     0.167 HD
ATOM     43  C   UNL A   1      42.663  25.279  27.737  1.00  0.00     0.037 A 
ATOM     44  C   UNL A   1      41.223  31.114  32.094  1.00  0.00     0.037 A 
ATOM     45  C   UNL A   1      43.660  26.184  28.325  1.00  0.00     0.049 A 
ATOM     46  C   UNL A   1      42.179  29.998  32.510  1.00  0.00     0.074 A 
ATOM     47  C   UNL A   1      44.278  27.371  27.980  1.00  0.00     0.029 A 
ATOM     48  N   UNL A   1      43.845  26.050  29.688  1.00  0.00    -0.354 N 
ATOM     49  N   UNL A   1      42.863  29.254  31.679  1.00  0.00    -0.248 NA
ATOM     50  C   UNL A   1      42.408  29.610  33.897  1.00  0.00     0.031 C 
ATOM     51  C   UNL A   1      44.656  28.024  29.212  1.00  0.00     0.029 A 
ATOM     52  C   UNL A   1      44.303  27.211  30.280  1.00  0.00     0.049 A 
ATOM     53  H   UNL A   1      43.671  25.218  30.183  1.00  0.00     0.167 HD
ATOM     54  C   UNL A   1      43.529  28.275  32.351  1.00  0.00     0.074 A 
ATOM     55  C   UNL A   1      43.224  28.550  33.749  1.00  0.00     0.031 C 
ATOM     56  C   UNL A   1      44.261  27.291  31.742  1.00  0.00     0.037 A 
BRANCH  43  57
ATOM     57  C   UNL A   1      42.998  24.228  26.710  1.00  0.00     0.057 A 
ATOM     58  C   UNL A   1      42.987  22.866  27.068  1.00  0.00     0.134 A 
ATOM     59  C   UNL A   1      43.480  24.478  25.414  1.00  0.00     0.134 A 
ATOM     60  F   UNL A   1      42.513  22.460  28.255  1.00  0.00    -0.206 F 
ATOM     61  C   UNL A   1      43.479  21.850  26.234  1.00  0.00     0.040 A 
ATOM     62  C   UNL A   1      43.976  23.474  24.567  1.00  0.00     0.040 A 
ATOM     63  F   UNL A   1      43.507  25.705  24.892  1.00  0.00    -0.206 F 
ATOM     64  C   UNL A   1      43.995  22.154  24.985  1.00  0.00     0.006 A 
ENDBRANCH  43  57
BRANCH  44  65
ATOM     65  C   UNL A   1      39.870  31.438  32.703  1.00  0.00     0.057 A 
ATOM     66  C   UNL A   1      39.128  30.357  33.245  1.00  0.00     0.134 A 
ATOM     67  C   UNL A   1      39.552  32.709  33.201  1.00  0.00     0.134 A 
ATOM     68  F   UNL A   1      39.385  29.101  32.846  1.00  0.00    -0.206 F 
ATOM     69  C   UNL A   1      38.246  30.514  34.323  1.00  0.00     0.040 A 
ATOM     70  C   UNL A   1      38.635  32.879  34.256  1.00  0.00     0.040 A 
ATOM     71  F   UNL A   1      40.215  33.796  32.781  1.00  0.00    -0.206 F 
ATOM     72  C   UNL A   1      38.019  31.778  34.851  1.00  0.00     0.006 A 
ENDBRANCH  44  65
BRANCH  56  73
ATOM     73  C   UNL A   1      44.996  26.277  32.571  1.00  0.00     0.057 A 
ATOM     74  C   UNL A   1      46.391  26.186  32.517  1.00  0.00     0.134 A 
ATOM     75  C   UNL A   1      44.347  25.311  33.364  1.00  0.00     0.134 A 
ATOM     76  F   UNL A   1      47.106  27.025  31.752  1.00  0.00    -0.206 F 
ATOM     77  C   UNL A   1      47.101  25.232  33.249  1.00  0.00     0.040 A 
ATOM     78  C   UNL A   1      45.039  24.305  34.038  1.00  0.00     0.040 A 
ATOM     79  F   UNL A   1      43.018  25.318  33.547  1.00  0.00    -0.206 F 
ATOM     80  C   UNL A   1      46.424  24.277  34.000  1.00  0.00     0.006 A 
ENDBRANCH  56  73
ENDBRANCH  30  31
ENDBRANCH  23  25
ENDBRANCH  22  23
ENDBRANCH  21  22
ENDBRANCH   1  21
TORSDOF 14
ENDMDL
MODEL 3
REMARK VINA RESULT:     -11.4      2.093      3.947
REMARK SMILES Cc1ccccc1N[C@H](C(=O)OCCOC(=O)c1ccc(-c2c3nc(c(-c4c(F)cccc4F)c4ccc([nH]4)c(-c4c(F)cccc4F)c4nc(c(-c5c(F)cccc5F)c5ccc2[nH]5)C=C4)C=C3)cc1)c1ccccc1
REMARK SMILES IDX 13 1 12 2 10 3 11 4 9 5 8 6 7 8 1 9 2 10 3 11 4 12 6 13 5 14
REMARK SMILES IDX 72 15 73 16 77 17 74 18 76 19 75 20 14 21 15 22 16 23 17 24
REMARK SMILES IDX 18 25 19 26 71 27 20 28 70 29 21 30 22 31 23 32 64 33 24 34
REMARK SMILES IDX 69 35 63 36 65 37 25 38 68 39 62 40 61 41 26 43 52 44 35 45
REMARK SMILES IDX 51 46 36 47 39 48 50 49 66 50 37 51 38 52 49 54 67 55 40 56
REMARK SMILES IDX 27 57 28 58 33 59 29 60 30 61 32 62 34 63 31 64 53 65 54 66
REMARK SMILES IDX 59 67 55 68 56 69 58 70 60 71 57 72 41 73 42 74 47 75 43 76
REMARK SMILES IDX 44 77 46 78 48 79 45 80
REMARK H PARENT 8 7 65 42 39 53
REMARK Flexibility Score: inf
ROOT
ATOM      1  C   UNL A   1      34.453  30.486  27.390  1.00  0.00     0.274 C 
ENDROOT
BRANCH   1   2
ATOM      2  O   UNL A   1      33.107  29.955  27.449  1.00  0.00    -0.460 OA
BRANCH   2   3
ATOM      3  C   UNL A   1      32.093  30.336  26.642  1.00  0.00     0.333 C 
ATOM      4  O   UNL A   1      31.566  31.444  26.722  1.00  0.00    -0.249 OA
BRANCH   3   5
ATOM      5  C   UNL A   1      31.506  29.163  25.740  1.00  0.00     0.221 C 
BRANCH   5   6
ATOM      6  N   UNL A   1      31.104  29.847  24.475  1.00  0.00    -0.368 N 
ATOM      7  H   UNL A   1      31.864  30.311  24.054  1.00  0.00     0.161 HD
BRANCH   6   8
ATOM      8  C   UNL A   1      29.954  29.994  23.751  1.00  0.00     0.038 A 
ATOM      9  C   UNL A   1      30.285  27.742  22.564  1.00  0.00     0.046 C 
ATOM     10  C   UNL A   1      29.438  28.898  23.032  1.00  0.00    -0.028 A 
ATOM     11  C   UNL A   1      28.072  28.867  22.703  1.00  0.00     0.005 A 
ATOM     12  C   UNL A   1      27.262  29.969  22.947  1.00  0.00     0.000 A 
ATOM     13  C   UNL A   1      29.188  31.159  23.781  1.00  0.00     0.026 A 
ATOM     14  C   UNL A   1      27.838  31.144  23.411  1.00  0.00     0.002 A 
ENDBRANCH   6   8
ENDBRANCH   5   6
BRANCH   5  15
ATOM     15  C   UNL A   1      32.272  27.818  25.795  1.00  0.00    -0.015 A 
ATOM     16  C   UNL A   1      33.419  27.516  25.053  1.00  0.00     0.006 A 
ATOM     17  C   UNL A   1      31.713  26.702  26.462  1.00  0.00     0.006 A 
ATOM     18  C   UNL A   1      33.980  26.232  24.986  1.00  0.00     0.000 A 
ATOM     19  C   UNL A   1      32.296  25.427  26.459  1.00  0.00     0.000 A 
ATOM     20  C   UNL A   1      33.442  25.194  25.723  1.00  0.00     0.000 A 
ENDBRANCH   5  15
ENDBRANCH   3   5
ENDBRANCH   2   3
ENDBRANCH   1   2
BRANCH   1  21
ATOM     21  C   UNL A   1      34.751  31.925  27.887  1.00  0.00     0.275 C 
BRANCH  21  22
ATOM     22  O   UNL A   1      34.234  32.329  29.184  1.00  0.00    -0.458 OA
BRANCH  22  23
ATOM     23  C   UNL A   1      34.899  33.260  29.923  1.00  0.00     0.338 C 
ATOM     24  O   UNL A   1      34.491  34.384  30.182  1.00  0.00    -0.246 OA
BRANCH  23  25
ATOM     25  C   UNL A   1      36.275  32.798  30.204  1.00  0.00     0.060 A 
ATOM     26  C   UNL A   1      37.428  33.307  29.581  1.00  0.00     0.016 A 
ATOM     27  C   UNL A   1      36.401  31.867  31.222  1.00  0.00     0.016 A 
ATOM     28  C   UNL A   1      38.686  32.817  29.966  1.00  0.00     0.010 A 
ATOM     29  C   UNL A   1      37.602  31.687  31.826  1.00  0.00     0.010 A 
ATOM     30  C   UNL A   1      38.750  31.983  31.083  1.00  0.00    -0.014 A 
BRANCH  30  31
ATOM     31  C   UNL A   1      39.762  30.986  31.414  1.00  0.00     0.031 A 
ATOM     32  C   UNL A   1      39.821  29.690  30.731  1.00  0.00     0.074 A 
ATOM     33  C   UNL A   1      40.877  31.644  31.826  1.00  0.00     0.049 A 
ATOM     34  N   UNL A   1      40.928  29.073  30.538  1.00  0.00    -0.248 NA
ATOM     35  C   UNL A   1      38.671  28.985  30.182  1.00  0.00     0.031 C 
ATOM     36  C   UNL A   1      42.291  31.411  31.574  1.00  0.00     0.029 A 
ATOM     37  N   UNL A   1      40.893  32.834  32.569  1.00  0.00    -0.354 N 
ATOM     38  C   UNL A   1      40.703  27.994  29.721  1.00  0.00     0.074 A 
ATOM     39  C   UNL A   1      39.271  27.963  29.546  1.00  0.00     0.031 C 
ATOM     40  C   UNL A   1      43.005  32.164  32.436  1.00  0.00     0.029 A 
ATOM     41  C   UNL A   1      42.056  32.783  33.351  1.00  0.00     0.049 A 
ATOM     42  H   UNL A   1      40.226  33.557  32.545  1.00  0.00     0.167 HD
ATOM     43  C   UNL A   1      41.804  27.314  29.287  1.00  0.00     0.037 A 
ATOM     44  C   UNL A   1      41.829  32.439  34.656  1.00  0.00     0.037 A 
ATOM     45  C   UNL A   1      42.931  27.625  30.177  1.00  0.00     0.049 A 
ATOM     46  C   UNL A   1      42.193  30.980  34.917  1.00  0.00     0.074 A 
ATOM     47  C   UNL A   1      44.004  28.496  30.186  1.00  0.00     0.029 A 
ATOM     48  N   UNL A   1      42.779  27.209  31.486  1.00  0.00    -0.354 N 
ATOM     49  N   UNL A   1      42.697  30.166  34.024  1.00  0.00    -0.248 NA
ATOM     50  C   UNL A   1      41.981  30.312  36.197  1.00  0.00     0.031 C 
ATOM     51  C   UNL A   1      44.348  28.730  31.569  1.00  0.00     0.029 A 
ATOM     52  C   UNL A   1      43.511  27.970  32.376  1.00  0.00     0.049 A 
ATOM     53  H   UNL A   1      42.211  26.452  31.756  1.00  0.00     0.167 HD
ATOM     54  C   UNL A   1      42.801  28.906  34.530  1.00  0.00     0.074 A 
ATOM     55  C   UNL A   1      42.351  29.052  35.908  1.00  0.00     0.031 C 
ATOM     56  C   UNL A   1      43.215  27.822  33.803  1.00  0.00     0.037 A 
BRANCH  43  57
ATOM     57  C   UNL A   1      41.916  26.400  28.094  1.00  0.00     0.057 A 
ATOM     58  C   UNL A   1      42.537  25.142  28.228  1.00  0.00     0.134 A 
ATOM     59  C   UNL A   1      41.582  26.737  26.771  1.00  0.00     0.134 A 
ATOM     60  F   UNL A   1      42.877  24.656  29.431  1.00  0.00    -0.206 F 
ATOM     61  C   UNL A   1      42.860  24.326  27.133  1.00  0.00     0.040 A 
ATOM     62  C   UNL A   1      41.897  25.932  25.666  1.00  0.00     0.040 A 
ATOM     63  F   UNL A   1      40.937  27.866  26.470  1.00  0.00    -0.206 F 
ATOM     64  C   UNL A   1      42.557  24.729  25.842  1.00  0.00     0.006 A 
ENDBRANCH  43  57
BRANCH  44  65
ATOM     65  C   UNL A   1      40.604  33.183  35.161  1.00  0.00     0.057 A 
ATOM     66  C   UNL A   1      39.419  32.428  35.350  1.00  0.00     0.134 A 
ATOM     67  C   UNL A   1      40.694  34.374  35.896  1.00  0.00     0.134 A 
ATOM     68  F   UNL A   1      39.259  31.259  34.708  1.00  0.00    -0.206 F 
ATOM     69  C   UNL A   1      38.465  32.753  36.325  1.00  0.00     0.040 A 
ATOM     70  C   UNL A   1      39.719  34.729  36.847  1.00  0.00     0.040 A 
ATOM     71  F   UNL A   1      41.787  35.147  35.816  1.00  0.00    -0.206 F 
ATOM     72  C   UNL A   1      38.630  33.894  37.098  1.00  0.00     0.006 A 
ENDBRANCH  44  65
BRANCH  56  73
ATOM     73  C   UNL A   1      43.336  26.477  34.460  1.00  0.00     0.057 A 
ATOM     74  C   UNL A   1      44.586  25.868  34.616  1.00  0.00     0.134 A 
ATOM     75  C   UNL A   1      42.225  25.713  34.866  1.00  0.00     0.134 A 
ATOM     76  F   UNL A   1      45.707  26.487  34.215  1.00  0.00    -0.206 F 
ATOM     77  C   UNL A   1      44.729  24.604  35.191  1.00  0.00     0.040 A 
ATOM     78  C   UNL A   1      42.348  24.419  35.369  1.00  0.00     0.040 A 
ATOM     79  F   UNL A   1      40.975  26.198  34.822  1.00  0.00    -0.206 F 
ATOM     80  C   UNL A   1      43.606  23.868  35.555  1.00  0.00     0.006 A 
ENDBRANCH  56  73
ENDBRANCH  30  31
ENDBRANCH  23  25
ENDBRANCH  22  23
ENDBRANCH  21  22
ENDBRANCH   1  21
TORSDOF 14
ENDMDL
