MODEL 1
REMARK VINA RESULT:     -11.3      0.000      0.000
REMARK SMILES Cc1nsc(N(C)S(=O)(=O)c2cn[nH]c2C)c1C(=O)OCCOC(=O)c1ccc(-c2c3nc(c(-c4c(F)cccc4F)c4ccc([nH]4)c(-c4c(F)cccc4F)c4nc(c(-c5c(F)cccc5F)c5ccc2[nH]5)C=C4)C=C3)cc1
REMARK SMILES IDX 21 1 20 2 18 3 19 4 17 5 1 6 2 7 3 8 4 9 5 10 6 11 7 12 8 13
REMARK SMILES IDX 9 14 10 15 11 16 12 17 15 18 13 19 14 20 16 21 22 23 23 24
REMARK SMILES IDX 24 25 25 26 26 27 27 28 79 29 28 30 78 31 29 32 30 33 31 34
REMARK SMILES IDX 72 35 32 36 77 37 71 38 73 39 33 40 76 41 70 42 69 43 34 45
REMARK SMILES IDX 60 46 43 47 59 48 44 49 47 50 58 51 74 52 45 53 46 54 57 56
REMARK SMILES IDX 75 57 48 58 35 59 36 60 41 61 37 62 38 63 40 64 42 65 39 66
REMARK SMILES IDX 61 67 62 68 67 69 63 70 64 71 66 72 68 73 65 74 49 75 50 76
REMARK SMILES IDX 55 77 51 78 52 79 54 80 56 81 53 82
REMARK H PARENT 14 22 73 44 47 55
REMARK Flexibility Score: inf
ROOT
ATOM      1  C   UNL A   1      32.298  30.109  25.962  1.00  0.00     0.275 C 
ENDROOT
BRANCH   1   2
ATOM      2  O   UNL A   1      33.150  29.118  25.377  1.00  0.00    -0.458 OA
BRANCH   2   3
ATOM      3  C   UNL A   1      32.969  28.780  24.075  1.00  0.00     0.343 C 
ATOM      4  O   UNL A   1      33.534  29.320  23.134  1.00  0.00    -0.246 OA
BRANCH   3   5
ATOM      5  C   UNL A   1      31.976  27.726  23.946  1.00  0.00     0.118 A 
ATOM      6  C   UNL A   1      29.970  29.358  23.304  1.00  0.00     0.069 C 
ATOM      7  C   UNL A   1      30.590  28.023  23.574  1.00  0.00     0.068 A 
ATOM      8  N   UNL A   1      29.785  26.978  23.420  1.00  0.00    -0.195 NA
ATOM      9  S   UNL A   1      30.583  25.623  23.844  1.00  0.00    -0.017 S 
ATOM     10  C   UNL A   1      32.129  26.352  24.179  1.00  0.00     0.140 A 
BRANCH  10  11
ATOM     11  N   UNL A   1      33.217  25.492  24.680  1.00  0.00    -0.258 N 
ATOM     12  C   UNL A   1      33.242  25.170  26.126  1.00  0.00     0.165 C 
BRANCH  11  13
ATOM     13  S   UNL A   1      34.052  24.421  23.663  1.00  0.00     0.268 S 
ATOM     14  O   UNL A   1      33.927  24.888  22.302  1.00  0.00    -0.201 OA
ATOM     15  O   UNL A   1      35.326  24.102  24.274  1.00  0.00    -0.201 OA
BRANCH  13  16
ATOM     16  C   UNL A   1      33.312  22.848  23.575  1.00  0.00     0.128 A 
ATOM     17  C   UNL A   1      32.532  22.335  22.523  1.00  0.00     0.157 A 
ATOM     18  C   UNL A   1      33.464  21.765  24.437  1.00  0.00     0.053 A 
ATOM     19  N   UNL A   1      32.153  21.069  22.722  1.00  0.00    -0.183 NA
ATOM     20  N   UNL A   1      32.745  20.743  23.876  1.00  0.00    -0.281 N 
ATOM     21  C   UNL A   1      34.229  21.535  25.686  1.00  0.00     0.067 C 
ATOM     22  H   UNL A   1      32.671  19.851  24.285  1.00  0.00     0.190 HD
ENDBRANCH  13  16
ENDBRANCH  11  13
ENDBRANCH  10  11
ENDBRANCH   3   5
ENDBRANCH   2   3
ENDBRANCH   1   2
BRANCH   1  23
ATOM     23  C   UNL A   1      32.973  30.554  27.251  1.00  0.00     0.275 C 
BRANCH  23  24
ATOM     24  O   UNL A   1      34.383  30.646  27.056  1.00  0.00    -0.458 OA
BRANCH  24  25
ATOM     25  C   UNL A   1      35.049  31.611  27.730  1.00  0.00     0.338 C 
ATOM     26  O   UNL A   1      34.931  32.818  27.626  1.00  0.00    -0.246 OA
BRANCH  25  27
ATOM     27  C   UNL A   1      36.115  30.958  28.508  1.00  0.00     0.060 A 
ATOM     28  C   UNL A   1      37.130  31.750  29.056  1.00  0.00     0.016 A 
ATOM     29  C   UNL A   1      36.203  29.559  28.492  1.00  0.00     0.016 A 
ATOM     30  C   UNL A   1      38.309  31.140  29.442  1.00  0.00     0.010 A 
ATOM     31  C   UNL A   1      37.377  28.955  28.858  1.00  0.00     0.010 A 
ATOM     32  C   UNL A   1      38.440  29.760  29.258  1.00  0.00    -0.014 A 
BRANCH  32  33
ATOM     33  C   UNL A   1      39.724  29.132  29.477  1.00  0.00     0.031 A 
ATOM     34  C   UNL A   1      40.053  28.836  30.890  1.00  0.00     0.074 A 
ATOM     35  C   UNL A   1      40.442  28.657  28.441  1.00  0.00     0.049 A 
ATOM     36  N   UNL A   1      41.082  29.224  31.565  1.00  0.00    -0.248 NA
ATOM     37  C   UNL A   1      39.067  28.077  31.677  1.00  0.00     0.031 C 
ATOM     38  C   UNL A   1      40.056  28.572  27.028  1.00  0.00     0.029 A 
ATOM     39  N   UNL A   1      41.638  28.019  28.468  1.00  0.00    -0.354 N 
ATOM     40  C   UNL A   1      40.966  28.623  32.816  1.00  0.00     0.074 A 
ATOM     41  C   UNL A   1      39.649  28.046  32.875  1.00  0.00     0.031 C 
ATOM     42  C   UNL A   1      40.892  27.722  26.391  1.00  0.00     0.029 A 
ATOM     43  C   UNL A   1      41.932  27.305  27.316  1.00  0.00     0.049 A 
ATOM     44  H   UNL A   1      42.247  28.059  29.240  1.00  0.00     0.167 HD
ATOM     45  C   UNL A   1      42.043  28.466  33.633  1.00  0.00     0.037 A 
ATOM     46  C   UNL A   1      42.910  26.376  27.186  1.00  0.00     0.037 A 
ATOM     47  C   UNL A   1      43.116  29.353  33.264  1.00  0.00     0.049 A 
ATOM     48  C   UNL A   1      43.871  26.578  28.305  1.00  0.00     0.074 A 
ATOM     49  C   UNL A   1      43.226  30.726  33.137  1.00  0.00     0.029 A 
ATOM     50  N   UNL A   1      44.197  28.835  32.593  1.00  0.00    -0.354 N 
ATOM     51  N   UNL A   1      44.653  27.617  28.417  1.00  0.00    -0.248 NA
ATOM     52  C   UNL A   1      43.627  25.849  29.543  1.00  0.00     0.031 C 
ATOM     53  C   UNL A   1      44.042  30.920  31.984  1.00  0.00     0.029 A 
ATOM     54  C   UNL A   1      44.420  29.660  31.521  1.00  0.00     0.049 A 
ATOM     55  H   UNL A   1      44.710  28.030  32.836  1.00  0.00     0.167 HD
ATOM     56  C   UNL A   1      44.657  27.918  29.772  1.00  0.00     0.074 A 
ATOM     57  C   UNL A   1      44.079  26.745  30.425  1.00  0.00     0.031 C 
ATOM     58  C   UNL A   1      44.851  29.193  30.224  1.00  0.00     0.037 A 
BRANCH  45  59
ATOM     59  C   UNL A   1      42.247  27.282  34.540  1.00  0.00     0.057 A 
ATOM     60  C   UNL A   1      41.903  27.390  35.899  1.00  0.00     0.134 A 
ATOM     61  C   UNL A   1      43.028  26.158  34.205  1.00  0.00     0.134 A 
ATOM     62  F   UNL A   1      41.173  28.423  36.344  1.00  0.00    -0.206 F 
ATOM     63  C   UNL A   1      42.369  26.488  36.863  1.00  0.00     0.040 A 
ATOM     64  C   UNL A   1      43.455  25.224  35.152  1.00  0.00     0.040 A 
ATOM     65  F   UNL A   1      43.505  25.956  32.970  1.00  0.00    -0.206 F 
ATOM     66  C   UNL A   1      43.156  25.406  36.492  1.00  0.00     0.006 A 
ENDBRANCH  45  59
BRANCH  46  67
ATOM     67  C   UNL A   1      42.888  25.152  26.351  1.00  0.00     0.057 A 
ATOM     68  C   UNL A   1      43.841  24.942  25.346  1.00  0.00     0.134 A 
ATOM     69  C   UNL A   1      42.081  24.045  26.672  1.00  0.00     0.134 A 
ATOM     70  F   UNL A   1      44.693  25.917  24.999  1.00  0.00    -0.206 F 
ATOM     71  C   UNL A   1      43.986  23.703  24.704  1.00  0.00     0.040 A 
ATOM     72  C   UNL A   1      42.206  22.809  26.031  1.00  0.00     0.040 A 
ATOM     73  F   UNL A   1      41.197  24.097  27.679  1.00  0.00    -0.206 F 
ATOM     74  C   UNL A   1      43.170  22.630  25.051  1.00  0.00     0.006 A 
ENDBRANCH  46  67
BRANCH  58  75
ATOM     75  C   UNL A   1      45.271  30.248  29.237  1.00  0.00     0.057 A 
ATOM     76  C   UNL A   1      44.367  31.020  28.491  1.00  0.00     0.134 A 
ATOM     77  C   UNL A   1      46.617  30.623  29.176  1.00  0.00     0.134 A 
ATOM     78  F   UNL A   1      43.048  30.815  28.571  1.00  0.00    -0.206 F 
ATOM     79  C   UNL A   1      44.788  32.085  27.689  1.00  0.00     0.040 A 
ATOM     80  C   UNL A   1      47.047  31.707  28.405  1.00  0.00     0.040 A 
ATOM     81  F   UNL A   1      47.535  29.976  29.911  1.00  0.00    -0.206 F 
ATOM     82  C   UNL A   1      46.132  32.436  27.650  1.00  0.00     0.006 A 
ENDBRANCH  58  75
ENDBRANCH  32  33
ENDBRANCH  25  27
ENDBRANCH  24  25
ENDBRANCH  23  24
ENDBRANCH   1  23
TORSDOF 14
ENDMDL
MODEL 2
REMARK VINA RESULT:     -11.0      1.768      2.358
REMARK SMILES Cc1nsc(N(C)S(=O)(=O)c2cn[nH]c2C)c1C(=O)OCCOC(=O)c1ccc(-c2c3nc(c(-c4c(F)cccc4F)c4ccc([nH]4)c(-c4c(F)cccc4F)c4nc(c(-c5c(F)cccc5F)c5ccc2[nH]5)C=C4)C=C3)cc1
REMARK SMILES IDX 21 1 20 2 18 3 19 4 17 5 1 6 2 7 3 8 4 9 5 10 6 11 7 12 8 13
REMARK SMILES IDX 9 14 10 15 11 16 12 17 15 18 13 19 14 20 16 21 22 23 23 24
REMARK SMILES IDX 24 25 25 26 26 27 27 28 79 29 28 30 78 31 29 32 30 33 31 34
REMARK SMILES IDX 72 35 32 36 77 37 71 38 73 39 33 40 76 41 70 42 69 43 34 45
REMARK SMILES IDX 60 46 43 47 59 48 44 49 47 50 58 51 74 52 45 53 46 54 57 56
REMARK SMILES IDX 75 57 48 58 35 59 36 60 41 61 37 62 38 63 40 64 42 65 39 66
REMARK SMILES IDX 61 67 62 68 67 69 63 70 64 71 66 72 68 73 65 74 49 75 50 76
REMARK SMILES IDX 55 77 51 78 52 79 54 80 56 81 53 82
REMARK H PARENT 14 22 73 44 47 55
REMARK Flexibility Score: inf
ROOT
ATOM      1  C   UNL A   1      33.604  28.507  25.928  1.00  0.00     0.275 C 
ENDROOT
BRANCH   1   2
ATOM      2  O   UNL A   1      33.643  27.123  26.295  1.00  0.00    -0.458 OA
BRANCH   2   3
ATOM      3  C   UNL A   1      33.483  26.182  25.331  1.00  0.00     0.343 C 
ATOM      4  O   UNL A   1      34.059  26.191  24.251  1.00  0.00    -0.246 OA
BRANCH   3   5
ATOM      5  C   UNL A   1      32.499  25.189  25.732  1.00  0.00     0.118 A 
ATOM      6  C   UNL A   1      30.386  26.760  25.316  1.00  0.00     0.069 C 
ATOM      7  C   UNL A   1      31.063  25.483  25.703  1.00  0.00     0.068 A 
ATOM      8  N   UNL A   1      30.252  24.483  26.027  1.00  0.00    -0.195 NA
ATOM      9  S   UNL A   1      31.143  23.209  26.514  1.00  0.00    -0.017 S 
ATOM     10  C   UNL A   1      32.718  23.895  26.225  1.00  0.00     0.140 A 
BRANCH  10  11
ATOM     11  N   UNL A   1      33.907  23.102  26.588  1.00  0.00    -0.258 N 
ATOM     12  C   UNL A   1      34.004  22.584  27.972  1.00  0.00     0.165 C 
BRANCH  11  13
ATOM     13  S   UNL A   1      34.830  22.288  25.420  1.00  0.00     0.268 S 
ATOM     14  O   UNL A   1      34.728  20.868  25.663  1.00  0.00    -0.201 OA
ATOM     15  O   UNL A   1      34.572  22.888  24.127  1.00  0.00    -0.201 OA
BRANCH  13  16
ATOM     16  C   UNL A   1      36.540  22.562  25.590  1.00  0.00     0.128 A 
ATOM     17  C   UNL A   1      37.167  23.703  26.125  1.00  0.00     0.157 A 
ATOM     18  C   UNL A   1      37.590  21.675  25.373  1.00  0.00     0.053 A 
ATOM     19  N   UNL A   1      38.497  23.592  26.176  1.00  0.00    -0.183 NA
ATOM     20  N   UNL A   1      38.725  22.350  25.734  1.00  0.00    -0.281 N 
ATOM     21  C   UNL A   1      37.678  20.265  24.923  1.00  0.00     0.067 C 
ATOM     22  H   UNL A   1      39.626  21.958  25.674  1.00  0.00     0.190 HD
ENDBRANCH  13  16
ENDBRANCH  11  13
ENDBRANCH  10  11
ENDBRANCH   3   5
ENDBRANCH   2   3
ENDBRANCH   1   2
BRANCH   1  23
ATOM     23  C   UNL A   1      33.668  29.301  27.225  1.00  0.00     0.275 C 
BRANCH  23  24
ATOM     24  O   UNL A   1      34.769  30.206  27.187  1.00  0.00    -0.458 OA
BRANCH  24  25
ATOM     25  C   UNL A   1      34.939  31.034  28.244  1.00  0.00     0.338 C 
ATOM     26  O   UNL A   1      34.288  32.021  28.537  1.00  0.00    -0.246 OA
BRANCH  25  27
ATOM     27  C   UNL A   1      36.193  30.654  28.913  1.00  0.00     0.060 A 
ATOM     28  C   UNL A   1      37.280  31.533  28.855  1.00  0.00     0.016 A 
ATOM     29  C   UNL A   1      36.333  29.344  29.393  1.00  0.00     0.016 A 
ATOM     30  C   UNL A   1      38.544  31.042  29.129  1.00  0.00     0.010 A 
ATOM     31  C   UNL A   1      37.586  28.852  29.648  1.00  0.00     0.010 A 
ATOM     32  C   UNL A   1      38.681  29.686  29.441  1.00  0.00    -0.014 A 
BRANCH  32  33
ATOM     33  C   UNL A   1      40.004  29.111  29.545  1.00  0.00     0.031 A 
ATOM     34  C   UNL A   1      40.531  28.979  30.923  1.00  0.00     0.074 A 
ATOM     35  C   UNL A   1      40.590  28.538  28.477  1.00  0.00     0.049 A 
ATOM     36  N   UNL A   1      41.628  29.459  31.404  1.00  0.00    -0.248 NA
ATOM     37  C   UNL A   1      39.687  28.292  31.915  1.00  0.00     0.031 C 
ATOM     38  C   UNL A   1      40.019  28.291  27.148  1.00  0.00     0.029 A 
ATOM     39  N   UNL A   1      41.801  27.931  28.406  1.00  0.00    -0.354 N 
ATOM     40  C   UNL A   1      41.703  28.997  32.716  1.00  0.00     0.074 A 
ATOM     41  C   UNL A   1      40.427  28.405  33.018  1.00  0.00     0.031 C 
ATOM     42  C   UNL A   1      40.791  27.392  26.496  1.00  0.00     0.029 A 
ATOM     43  C   UNL A   1      41.960  27.100  27.307  1.00  0.00     0.049 A 
ATOM     44  H   UNL A   1      42.507  28.067  29.078  1.00  0.00     0.167 HD
ATOM     45  C   UNL A   1      42.886  28.953  33.387  1.00  0.00     0.037 A 
ATOM     46  C   UNL A   1      42.942  26.181  27.143  1.00  0.00     0.037 A 
ATOM     47  C   UNL A   1      43.867  29.814  32.781  1.00  0.00     0.049 A 
ATOM     48  C   UNL A   1      44.039  26.524  28.090  1.00  0.00     0.074 A 
ATOM     49  C   UNL A   1      43.913  31.167  32.495  1.00  0.00     0.029 A 
ATOM     50  N   UNL A   1      44.865  29.246  32.027  1.00  0.00    -0.354 N 
ATOM     51  N   UNL A   1      44.792  27.584  27.981  1.00  0.00    -0.248 NA
ATOM     52  C   UNL A   1      43.990  25.932  29.421  1.00  0.00     0.031 C 
ATOM     53  C   UNL A   1      44.557  31.248  31.225  1.00  0.00     0.029 A 
ATOM     54  C   UNL A   1      44.913  29.952  30.852  1.00  0.00     0.049 A 
ATOM     55  H   UNL A   1      45.434  28.483  32.280  1.00  0.00     0.167 HD
ATOM     56  C   UNL A   1      44.970  28.033  29.283  1.00  0.00     0.074 A 
ATOM     57  C   UNL A   1      44.527  26.928  30.130  1.00  0.00     0.031 C 
ATOM     58  C   UNL A   1      45.180  29.354  29.565  1.00  0.00     0.037 A 
BRANCH  45  59
ATOM     59  C   UNL A   1      43.252  27.880  34.378  1.00  0.00     0.057 A 
ATOM     60  C   UNL A   1      43.365  26.549  33.939  1.00  0.00     0.134 A 
ATOM     61  C   UNL A   1      43.206  28.050  35.776  1.00  0.00     0.134 A 
ATOM     62  F   UNL A   1      43.404  26.256  32.631  1.00  0.00    -0.206 F 
ATOM     63  C   UNL A   1      43.355  25.465  34.825  1.00  0.00     0.040 A 
ATOM     64  C   UNL A   1      43.248  26.978  36.671  1.00  0.00     0.040 A 
ATOM     65  F   UNL A   1      43.018  29.245  36.350  1.00  0.00    -0.206 F 
ATOM     66  C   UNL A   1      43.288  25.677  36.196  1.00  0.00     0.006 A 
ENDBRANCH  45  59
BRANCH  46  67
ATOM     67  C   UNL A   1      42.850  24.873  26.454  1.00  0.00     0.057 A 
ATOM     68  C   UNL A   1      43.683  24.561  25.372  1.00  0.00     0.134 A 
ATOM     69  C   UNL A   1      42.109  23.801  26.987  1.00  0.00     0.134 A 
ATOM     70  F   UNL A   1      44.469  25.499  24.823  1.00  0.00    -0.206 F 
ATOM     71  C   UNL A   1      43.779  23.260  24.855  1.00  0.00     0.040 A 
ATOM     72  C   UNL A   1      42.185  22.503  26.473  1.00  0.00     0.040 A 
ATOM     73  F   UNL A   1      41.348  23.957  28.079  1.00  0.00    -0.206 F 
ATOM     74  C   UNL A   1      43.032  22.225  25.411  1.00  0.00     0.006 A 
ENDBRANCH  46  67
BRANCH  58  75
ATOM     75  C   UNL A   1      45.425  30.301  28.422  1.00  0.00     0.057 A 
ATOM     76  C   UNL A   1      44.402  30.963  27.725  1.00  0.00     0.134 A 
ATOM     77  C   UNL A   1      46.736  30.700  28.141  1.00  0.00     0.134 A 
ATOM     78  F   UNL A   1      43.114  30.736  28.003  1.00  0.00    -0.206 F 
ATOM     79  C   UNL A   1      44.672  31.941  26.764  1.00  0.00     0.040 A 
ATOM     80  C   UNL A   1      47.019  31.701  27.208  1.00  0.00     0.040 A 
ATOM     81  F   UNL A   1      47.767  30.162  28.812  1.00  0.00    -0.206 F 
ATOM     82  C   UNL A   1      45.985  32.318  26.507  1.00  0.00     0.006 A 
ENDBRANCH  58  75
ENDBRANCH  32  33
ENDBRANCH  25  27
ENDBRANCH  24  25
ENDBRANCH  23  24
ENDBRANCH   1  23
TORSDOF 14
ENDMDL
MODEL 3
REMARK VINA RESULT:     -10.9      2.536      7.791
REMARK SMILES Cc1nsc(N(C)S(=O)(=O)c2cn[nH]c2C)c1C(=O)OCCOC(=O)c1ccc(-c2c3nc(c(-c4c(F)cccc4F)c4ccc([nH]4)c(-c4c(F)cccc4F)c4nc(c(-c5c(F)cccc5F)c5ccc2[nH]5)C=C4)C=C3)cc1
REMARK SMILES IDX 21 1 20 2 18 3 19 4 17 5 1 6 2 7 3 8 4 9 5 10 6 11 7 12 8 13
REMARK SMILES IDX 9 14 10 15 11 16 12 17 15 18 13 19 14 20 16 21 22 23 23 24
REMARK SMILES IDX 24 25 25 26 26 27 27 28 79 29 28 30 78 31 29 32 30 33 31 34
REMARK SMILES IDX 72 35 32 36 77 37 71 38 73 39 33 40 76 41 70 42 69 43 34 45
REMARK SMILES IDX 60 46 43 47 59 48 44 49 47 50 58 51 74 52 45 53 46 54 57 56
REMARK SMILES IDX 75 57 48 58 35 59 36 60 41 61 37 62 38 63 40 64 42 65 39 66
REMARK SMILES IDX 61 67 62 68 67 69 63 70 64 71 66 72 68 73 65 74 49 75 50 76
REMARK SMILES IDX 55 77 51 78 52 79 54 80 56 81 53 82
REMARK H PARENT 14 22 73 44 47 55
REMARK Flexibility Score: inf
ROOT
ATOM      1  C   UNL A   1      36.614  21.541  25.726  1.00  0.00     0.275 C 
ENDROOT
BRANCH   1   2
ATOM      2  O   UNL A   1      35.859  22.538  25.028  1.00  0.00    -0.458 OA
BRANCH   2   3
ATOM      3  C   UNL A   1      34.593  22.810  25.435  1.00  0.00     0.343 C 
ATOM      4  O   UNL A   1      34.302  23.284  26.524  1.00  0.00    -0.246 OA
BRANCH   3   5
ATOM      5  C   UNL A   1      33.626  22.415  24.423  1.00  0.00     0.118 A 
ATOM      6  C   UNL A   1      33.737  19.811  24.984  1.00  0.00     0.069 C 
ATOM      7  C   UNL A   1      33.238  21.013  24.244  1.00  0.00     0.068 A 
ATOM      8  N   UNL A   1      32.299  20.773  23.336  1.00  0.00    -0.195 NA
ATOM      9  S   UNL A   1      31.941  22.160  22.560  1.00  0.00    -0.017 S 
ATOM     10  C   UNL A   1      32.976  23.220  23.477  1.00  0.00     0.140 A 
BRANCH  10  11
ATOM     11  N   UNL A   1      33.047  24.641  23.090  1.00  0.00    -0.258 N 
ATOM     12  C   UNL A   1      33.011  24.974  21.647  1.00  0.00     0.165 C 
BRANCH  11  13
ATOM     13  S   UNL A   1      32.591  25.882  24.153  1.00  0.00     0.268 S 
ATOM     14  O   UNL A   1      31.419  25.455  24.882  1.00  0.00    -0.201 OA
ATOM     15  O   UNL A   1      33.780  26.396  24.801  1.00  0.00    -0.201 OA
BRANCH  13  16
ATOM     16  C   UNL A   1      32.008  27.303  23.333  1.00  0.00     0.128 A 
ATOM     17  C   UNL A   1      30.676  27.747  23.248  1.00  0.00     0.157 A 
ATOM     18  C   UNL A   1      32.741  28.328  22.742  1.00  0.00     0.053 A 
ATOM     19  N   UNL A   1      30.553  28.907  22.598  1.00  0.00    -0.183 NA
ATOM     20  N   UNL A   1      31.816  29.246  22.320  1.00  0.00    -0.281 N 
ATOM     21  C   UNL A   1      34.187  28.597  22.561  1.00  0.00     0.067 C 
ATOM     22  H   UNL A   1      32.059  30.079  21.854  1.00  0.00     0.190 HD
ENDBRANCH  13  16
ENDBRANCH  11  13
ENDBRANCH  10  11
ENDBRANCH   3   5
ENDBRANCH   2   3
ENDBRANCH   1   2
BRANCH   1  23
ATOM     23  C   UNL A   1      38.077  21.798  25.396  1.00  0.00     0.275 C 
BRANCH  23  24
ATOM     24  O   UNL A   1      38.573  22.876  26.188  1.00  0.00    -0.458 OA
BRANCH  24  25
ATOM     25  C   UNL A   1      39.727  22.680  26.866  1.00  0.00     0.338 C 
ATOM     26  O   UNL A   1      40.160  21.639  27.324  1.00  0.00    -0.246 OA
BRANCH  25  27
ATOM     27  C   UNL A   1      40.316  24.001  27.138  1.00  0.00     0.060 A 
ATOM     28  C   UNL A   1      41.291  24.111  28.136  1.00  0.00     0.016 A 
ATOM     29  C   UNL A   1      39.734  25.134  26.552  1.00  0.00     0.016 A 
ATOM     30  C   UNL A   1      41.563  25.362  28.659  1.00  0.00     0.010 A 
ATOM     31  C   UNL A   1      39.991  26.371  27.081  1.00  0.00     0.010 A 
ATOM     32  C   UNL A   1      40.845  26.460  28.176  1.00  0.00    -0.014 A 
BRANCH  32  33
ATOM     33  C   UNL A   1      40.976  27.741  28.835  1.00  0.00     0.031 A 
ATOM     34  C   UNL A   1      42.068  28.604  28.331  1.00  0.00     0.074 A 
ATOM     35  C   UNL A   1      40.022  28.180  29.679  1.00  0.00     0.049 A 
ATOM     36  N   UNL A   1      43.047  29.118  28.997  1.00  0.00    -0.248 NA
ATOM     37  C   UNL A   1      42.124  28.862  26.883  1.00  0.00     0.031 C 
ATOM     38  C   UNL A   1      38.723  27.570  29.981  1.00  0.00     0.029 A 
ATOM     39  N   UNL A   1      39.970  29.356  30.351  1.00  0.00    -0.354 N 
ATOM     40  C   UNL A   1      43.753  29.904  28.090  1.00  0.00     0.074 A 
ATOM     41  C   UNL A   1      43.227  29.602  26.785  1.00  0.00     0.031 C 
ATOM     42  C   UNL A   1      37.934  28.488  30.584  1.00  0.00     0.029 A 
ATOM     43  C   UNL A   1      38.709  29.695  30.815  1.00  0.00     0.049 A 
ATOM     44  H   UNL A   1      40.762  29.923  30.498  1.00  0.00     0.167 HD
ATOM     45  C   UNL A   1      44.580  30.902  28.507  1.00  0.00     0.037 A 
ATOM     46  C   UNL A   1      38.330  30.915  31.266  1.00  0.00     0.037 A 
ATOM     47  C   UNL A   1      44.957  30.732  29.886  1.00  0.00     0.049 A 
ATOM     48  C   UNL A   1      39.568  31.672  31.600  1.00  0.00     0.074 A 
ATOM     49  C   UNL A   1      45.580  29.720  30.594  1.00  0.00     0.029 A 
ATOM     50  N   UNL A   1      44.361  31.529  30.834  1.00  0.00    -0.354 N 
ATOM     51  N   UNL A   1      40.360  31.374  32.594  1.00  0.00    -0.248 NA
ATOM     52  C   UNL A   1      40.171  32.477  30.546  1.00  0.00     0.031 C 
ATOM     53  C   UNL A   1      44.893  29.673  31.843  1.00  0.00     0.029 A 
ATOM     54  C   UNL A   1      43.941  30.693  31.836  1.00  0.00     0.049 A 
ATOM     55  H   UNL A   1      44.258  32.508  30.800  1.00  0.00     0.167 HD
ATOM     56  C   UNL A   1      41.642  31.582  32.104  1.00  0.00     0.074 A 
ATOM     57  C   UNL A   1      41.460  32.344  30.871  1.00  0.00     0.031 C 
ATOM     58  C   UNL A   1      42.714  30.877  32.575  1.00  0.00     0.037 A 
BRANCH  45  59
ATOM     59  C   UNL A   1      44.769  32.202  27.771  1.00  0.00     0.057 A 
ATOM     60  C   UNL A   1      45.927  32.391  26.995  1.00  0.00     0.134 A 
ATOM     61  C   UNL A   1      44.018  33.367  28.024  1.00  0.00     0.134 A 
ATOM     62  F   UNL A   1      46.732  31.360  26.698  1.00  0.00    -0.206 F 
ATOM     63  C   UNL A   1      46.345  33.657  26.572  1.00  0.00     0.040 A 
ATOM     64  C   UNL A   1      44.400  34.629  27.562  1.00  0.00     0.040 A 
ATOM     65  F   UNL A   1      42.936  33.368  28.813  1.00  0.00    -0.206 F 
ATOM     66  C   UNL A   1      45.586  34.783  26.862  1.00  0.00     0.006 A 
ENDBRANCH  45  59
BRANCH  46  67
ATOM     67  C   UNL A   1      37.002  31.558  31.128  1.00  0.00     0.057 A 
ATOM     68  C   UNL A   1      36.208  31.834  32.248  1.00  0.00     0.134 A 
ATOM     69  C   UNL A   1      36.578  32.137  29.917  1.00  0.00     0.134 A 
ATOM     70  F   UNL A   1      36.552  31.371  33.459  1.00  0.00    -0.206 F 
ATOM     71  C   UNL A   1      35.065  32.643  32.170  1.00  0.00     0.040 A 
ATOM     72  C   UNL A   1      35.434  32.934  29.823  1.00  0.00     0.040 A 
ATOM     73  F   UNL A   1      37.306  32.020  28.797  1.00  0.00    -0.206 F 
ATOM     74  C   UNL A   1      34.678  33.201  30.955  1.00  0.00     0.006 A 
ENDBRANCH  46  67
BRANCH  58  75
ATOM     75  C   UNL A   1      42.524  30.007  33.788  1.00  0.00     0.057 A 
ATOM     76  C   UNL A   1      42.118  28.666  33.728  1.00  0.00     0.134 A 
ATOM     77  C   UNL A   1      42.942  30.482  35.036  1.00  0.00     0.134 A 
ATOM     78  F   UNL A   1      41.809  28.085  32.564  1.00  0.00    -0.206 F 
ATOM     79  C   UNL A   1      42.088  27.849  34.862  1.00  0.00     0.040 A 
ATOM     80  C   UNL A   1      42.950  29.667  36.171  1.00  0.00     0.040 A 
ATOM     81  F   UNL A   1      43.407  31.735  35.163  1.00  0.00    -0.206 F 
ATOM     82  C   UNL A   1      42.512  28.347  36.088  1.00  0.00     0.006 A 
ENDBRANCH  58  75
ENDBRANCH  32  33
ENDBRANCH  25  27
ENDBRANCH  24  25
ENDBRANCH  23  24
ENDBRANCH   1  23
TORSDOF 14
ENDMDL
