MODEL 1
REMARK VINA RESULT:      -9.6      0.000      0.000
REMARK SMILES CCCCC[NH2+][C@](C)(C(=O)OCCOC(=O)c1ccc(-c2c3nc(c(-c4c(F)cccc4F)c4ccc([nH]4)c(-c4c(F)cccc4F)c4nc(c(-c5c(F)cccc5F)c5ccc2[nH]5)C=C4)C=C3)cc1)C(F)(F)F
REMARK SMILES IDX 11 1 9 2 10 3 7 4 8 5 6 6 5 9 4 10 3 11 2 12 1 13 71 14
REMARK SMILES IDX 72 15 73 16 74 17 12 18 13 19 14 20 15 21 16 22 17 23 18 24
REMARK SMILES IDX 70 25 19 26 69 27 20 28 21 29 22 30 63 31 23 32 68 33 62 34
REMARK SMILES IDX 64 35 24 36 67 37 61 38 60 39 25 41 51 42 34 43 50 44 35 45
REMARK SMILES IDX 38 46 49 47 65 48 36 49 37 50 48 52 66 53 39 54 26 55 27 56
REMARK SMILES IDX 32 57 28 58 29 59 31 60 33 61 30 62 52 63 53 64 58 65 54 66
REMARK SMILES IDX 55 67 57 68 59 69 56 70 40 71 41 72 46 73 42 74 43 75 45 76
REMARK SMILES IDX 47 77 44 78
REMARK H PARENT 6 7 6 8 64 40 38 51
REMARK Flexibility Score: inf
ROOT
ATOM      1  O   UNL A   1      44.277  22.313  26.569  1.00  0.00    -0.457 OA
ENDROOT
BRANCH   1   2
ATOM      2  C   UNL A   1      43.228  22.102  25.719  1.00  0.00     0.377 C 
ATOM      3  O   UNL A   1      43.298  22.305  24.512  1.00  0.00    -0.244 OA
BRANCH   2   4
ATOM      4  C   UNL A   1      41.920  21.775  26.465  1.00  0.00     0.287 C 
ATOM      5  C   UNL A   1      42.019  22.177  27.950  1.00  0.00     0.103 C 
BRANCH   4   6
ATOM      6  N   UNL A   1      40.760  22.552  25.887  1.00  0.00    -0.325 N 
ATOM      7  H   UNL A   1      41.120  23.426  25.503  1.00  0.00     0.347 HD
ATOM      8  H   UNL A   1      40.332  21.955  25.178  1.00  0.00     0.347 HD
BRANCH   6   9
ATOM      9  C   UNL A   1      39.706  22.874  26.854  1.00  0.00     0.261 C 
BRANCH   9  10
ATOM     10  C   UNL A   1      38.837  24.050  26.398  1.00  0.00     0.061 C 
BRANCH  10  11
ATOM     11  C   UNL A   1      37.368  23.728  26.090  1.00  0.00     0.006 C 
BRANCH  11  12
ATOM     12  C   UNL A   1      37.012  23.485  24.620  1.00  0.00    -0.003 C 
ATOM     13  C   UNL A   1      36.922  22.018  24.241  1.00  0.00     0.004 C 
ENDBRANCH  11  12
ENDBRANCH  10  11
ENDBRANCH   9  10
ENDBRANCH   6   9
ENDBRANCH   4   6
BRANCH   4  14
ATOM     14  C   UNL A   1      41.752  20.239  26.424  1.00  0.00     0.455 C 
ATOM     15  F   UNL A   1      41.714  19.715  27.673  1.00  0.00    -0.164 F 
ATOM     16  F   UNL A   1      40.577  19.891  25.838  1.00  0.00    -0.164 F 
ATOM     17  F   UNL A   1      42.728  19.599  25.745  1.00  0.00    -0.164 F 
ENDBRANCH   4  14
ENDBRANCH   2   4
ENDBRANCH   1   2
BRANCH   1  18
ATOM     18  C   UNL A   1      45.052  23.508  26.335  1.00  0.00     0.274 C 
BRANCH  18  19
ATOM     19  C   UNL A   1      44.470  24.719  27.060  1.00  0.00     0.275 C 
BRANCH  19  20
ATOM     20  O   UNL A   1      44.059  25.721  26.115  1.00  0.00    -0.458 OA
BRANCH  20  21
ATOM     21  C   UNL A   1      42.727  25.830  25.920  1.00  0.00     0.338 C 
ATOM     22  O   UNL A   1      42.057  25.306  25.042  1.00  0.00    -0.246 OA
BRANCH  21  23
ATOM     23  C   UNL A   1      42.140  26.661  26.978  1.00  0.00     0.060 A 
ATOM     24  C   UNL A   1      42.569  27.979  27.110  1.00  0.00     0.016 A 
ATOM     25  C   UNL A   1      41.283  26.104  27.924  1.00  0.00     0.016 A 
ATOM     26  C   UNL A   1      42.225  28.722  28.231  1.00  0.00     0.010 A 
ATOM     27  C   UNL A   1      40.862  26.882  29.008  1.00  0.00     0.010 A 
ATOM     28  C   UNL A   1      41.358  28.187  29.189  1.00  0.00    -0.014 A 
BRANCH  28  29
ATOM     29  C   UNL A   1      41.019  28.973  30.401  1.00  0.00     0.031 A 
ATOM     30  C   UNL A   1      39.835  29.897  30.385  1.00  0.00     0.074 A 
ATOM     31  C   UNL A   1      41.744  28.836  31.528  1.00  0.00     0.049 A 
ATOM     32  N   UNL A   1      39.493  30.819  31.249  1.00  0.00    -0.248 NA
ATOM     33  C   UNL A   1      38.919  29.775  29.240  1.00  0.00     0.031 C 
ATOM     34  C   UNL A   1      42.867  27.914  31.709  1.00  0.00     0.029 A 
ATOM     35  N   UNL A   1      41.636  29.468  32.740  1.00  0.00    -0.354 N 
ATOM     36  C   UNL A   1      38.362  31.428  30.720  1.00  0.00     0.074 A 
ATOM     37  C   UNL A   1      38.065  30.763  29.470  1.00  0.00     0.031 C 
ATOM     38  C   UNL A   1      43.322  28.017  32.966  1.00  0.00     0.029 A 
ATOM     39  C   UNL A   1      42.582  29.071  33.652  1.00  0.00     0.049 A 
ATOM     40  H   UNL A   1      40.945  30.142  32.938  1.00  0.00     0.167 HD
ATOM     41  C   UNL A   1      37.648  32.458  31.232  1.00  0.00     0.037 A 
ATOM     42  C   UNL A   1      42.857  29.535  34.884  1.00  0.00     0.037 A 
ATOM     43  C   UNL A   1      37.915  33.075  32.504  1.00  0.00     0.049 A 
ATOM     44  C   UNL A   1      42.066  30.691  35.422  1.00  0.00     0.074 A 
ATOM     45  C   UNL A   1      37.262  34.136  33.107  1.00  0.00     0.029 A 
ATOM     46  N   UNL A   1      38.904  32.661  33.383  1.00  0.00    -0.354 N 
ATOM     47  N   UNL A   1      41.068  31.336  34.869  1.00  0.00    -0.248 NA
ATOM     48  C   UNL A   1      42.460  31.205  36.742  1.00  0.00     0.031 C 
ATOM     49  C   UNL A   1      37.869  34.376  34.345  1.00  0.00     0.029 A 
ATOM     50  C   UNL A   1      38.881  33.447  34.523  1.00  0.00     0.049 A 
ATOM     51  H   UNL A   1      39.530  31.919  33.221  1.00  0.00     0.167 HD
ATOM     52  C   UNL A   1      40.717  32.333  35.767  1.00  0.00     0.074 A 
ATOM     53  C   UNL A   1      41.593  32.194  36.914  1.00  0.00     0.031 C 
ATOM     54  C   UNL A   1      39.763  33.288  35.649  1.00  0.00     0.037 A 
BRANCH  41  55
ATOM     55  C   UNL A   1      36.540  33.012  30.390  1.00  0.00     0.057 A 
ATOM     56  C   UNL A   1      36.779  33.876  29.316  1.00  0.00     0.134 A 
ATOM     57  C   UNL A   1      35.210  32.653  30.652  1.00  0.00     0.134 A 
ATOM     58  F   UNL A   1      38.027  34.270  29.026  1.00  0.00    -0.206 F 
ATOM     59  C   UNL A   1      35.732  34.377  28.539  1.00  0.00     0.040 A 
ATOM     60  C   UNL A   1      34.158  33.133  29.872  1.00  0.00     0.040 A 
ATOM     61  F   UNL A   1      34.914  31.829  31.668  1.00  0.00    -0.206 F 
ATOM     62  C   UNL A   1      34.418  34.002  28.813  1.00  0.00     0.006 A 
ENDBRANCH  41  55
BRANCH  42  63
ATOM     63  C   UNL A   1      43.968  28.939  35.666  1.00  0.00     0.057 A 
ATOM     64  C   UNL A   1      45.276  29.418  35.541  1.00  0.00     0.134 A 
ATOM     65  C   UNL A   1      43.745  27.892  36.568  1.00  0.00     0.134 A 
ATOM     66  F   UNL A   1      45.555  30.404  34.676  1.00  0.00    -0.206 F 
ATOM     67  C   UNL A   1      46.325  28.874  36.285  1.00  0.00     0.040 A 
ATOM     68  C   UNL A   1      44.779  27.354  37.334  1.00  0.00     0.040 A 
ATOM     69  F   UNL A   1      42.512  27.390  36.731  1.00  0.00    -0.206 F 
ATOM     70  C   UNL A   1      46.075  27.844  37.191  1.00  0.00     0.006 A 
ENDBRANCH  42  63
BRANCH  54  71
ATOM     71  C   UNL A   1      39.618  34.242  36.792  1.00  0.00     0.057 A 
ATOM     72  C   UNL A   1      40.208  35.510  36.763  1.00  0.00     0.134 A 
ATOM     73  C   UNL A   1      38.857  33.900  37.915  1.00  0.00     0.134 A 
ATOM     74  F   UNL A   1      40.960  35.887  35.718  1.00  0.00    -0.206 F 
ATOM     75  C   UNL A   1      40.056  36.405  37.823  1.00  0.00     0.040 A 
ATOM     76  C   UNL A   1      38.685  34.791  38.975  1.00  0.00     0.040 A 
ATOM     77  F   UNL A   1      38.265  32.699  37.998  1.00  0.00    -0.206 F 
ATOM     78  C   UNL A   1      39.290  36.048  38.930  1.00  0.00     0.006 A 
ENDBRANCH  54  71
ENDBRANCH  28  29
ENDBRANCH  21  23
ENDBRANCH  20  21
ENDBRANCH  19  20
ENDBRANCH  18  19
ENDBRANCH   1  18
TORSDOF 17
ENDMDL
MODEL 2
REMARK VINA RESULT:      -9.6      4.796      9.549
REMARK SMILES CCCCC[NH2+][C@](C)(C(=O)OCCOC(=O)c1ccc(-c2c3nc(c(-c4c(F)cccc4F)c4ccc([nH]4)c(-c4c(F)cccc4F)c4nc(c(-c5c(F)cccc5F)c5ccc2[nH]5)C=C4)C=C3)cc1)C(F)(F)F
REMARK SMILES IDX 11 1 9 2 10 3 7 4 8 5 6 6 5 9 4 10 3 11 2 12 1 13 71 14
REMARK SMILES IDX 72 15 73 16 74 17 12 18 13 19 14 20 15 21 16 22 17 23 18 24
REMARK SMILES IDX 70 25 19 26 69 27 20 28 21 29 22 30 63 31 23 32 68 33 62 34
REMARK SMILES IDX 64 35 24 36 67 37 61 38 60 39 25 41 51 42 34 43 50 44 35 45
REMARK SMILES IDX 38 46 49 47 65 48 36 49 37 50 48 52 66 53 39 54 26 55 27 56
REMARK SMILES IDX 32 57 28 58 29 59 31 60 33 61 30 62 52 63 53 64 58 65 54 66
REMARK SMILES IDX 55 67 57 68 59 69 56 70 40 71 41 72 46 73 42 74 43 75 45 76
REMARK SMILES IDX 47 77 44 78
REMARK H PARENT 6 7 6 8 64 40 38 51
REMARK Flexibility Score: inf
ROOT
ATOM      1  O   UNL A   1      31.917  30.960  25.905  1.00  0.00    -0.457 OA
ENDROOT
BRANCH   1   2
ATOM      2  C   UNL A   1      31.890  29.645  26.276  1.00  0.00     0.377 C 
ATOM      3  O   UNL A   1      31.774  29.285  27.442  1.00  0.00    -0.244 OA
BRANCH   2   4
ATOM      4  C   UNL A   1      32.213  28.696  25.107  1.00  0.00     0.287 C 
ATOM      5  C   UNL A   1      31.412  27.383  25.227  1.00  0.00     0.103 C 
BRANCH   4   6
ATOM      6  N   UNL A   1      31.824  29.315  23.784  1.00  0.00    -0.325 N 
ATOM      7  H   UNL A   1      31.817  30.329  23.896  1.00  0.00     0.347 HD
ATOM      8  H   UNL A   1      32.511  28.997  23.100  1.00  0.00     0.347 HD
BRANCH   6   9
ATOM      9  C   UNL A   1      30.511  28.899  23.284  1.00  0.00     0.261 C 
BRANCH   9  10
ATOM     10  C   UNL A   1      29.506  30.054  23.254  1.00  0.00     0.061 C 
BRANCH  10  11
ATOM     11  C   UNL A   1      29.038  30.510  21.865  1.00  0.00     0.006 C 
BRANCH  11  12
ATOM     12  C   UNL A   1      28.391  31.895  21.778  1.00  0.00    -0.003 C 
ATOM     13  C   UNL A   1      28.831  32.851  22.871  1.00  0.00     0.004 C 
ENDBRANCH  11  12
ENDBRANCH  10  11
ENDBRANCH   9  10
ENDBRANCH   6   9
ENDBRANCH   4   6
BRANCH   4  14
ATOM     14  C   UNL A   1      33.708  28.324  25.230  1.00  0.00     0.455 C 
ATOM     15  F   UNL A   1      34.344  29.132  26.113  1.00  0.00    -0.164 F 
ATOM     16  F   UNL A   1      33.861  27.060  25.705  1.00  0.00    -0.164 F 
ATOM     17  F   UNL A   1      34.386  28.384  24.064  1.00  0.00    -0.164 F 
ENDBRANCH   4  14
ENDBRANCH   2   4
ENDBRANCH   1   2
BRANCH   1  18
ATOM     18  C   UNL A   1      31.402  31.902  26.870  1.00  0.00     0.274 C 
BRANCH  18  19
ATOM     19  C   UNL A   1      32.139  33.239  26.815  1.00  0.00     0.275 C 
BRANCH  19  20
ATOM     20  O   UNL A   1      32.186  33.841  28.119  1.00  0.00    -0.458 OA
BRANCH  20  21
ATOM     21  C   UNL A   1      33.267  34.611  28.368  1.00  0.00     0.338 C 
ATOM     22  O   UNL A   1      33.334  35.831  28.350  1.00  0.00    -0.246 OA
BRANCH  21  23
ATOM     23  C   UNL A   1      34.405  33.759  28.732  1.00  0.00     0.060 A 
ATOM     24  C   UNL A   1      34.157  32.464  29.179  1.00  0.00     0.016 A 
ATOM     25  C   UNL A   1      35.697  34.280  28.775  1.00  0.00     0.016 A 
ATOM     26  C   UNL A   1      35.172  31.712  29.756  1.00  0.00     0.010 A 
ATOM     27  C   UNL A   1      36.737  33.489  29.274  1.00  0.00     0.010 A 
ATOM     28  C   UNL A   1      36.477  32.210  29.801  1.00  0.00    -0.014 A 
BRANCH  28  29
ATOM     29  C   UNL A   1      37.551  31.417  30.449  1.00  0.00     0.031 A 
ATOM     30  C   UNL A   1      37.817  31.580  31.918  1.00  0.00     0.074 A 
ATOM     31  C   UNL A   1      38.264  30.524  29.736  1.00  0.00     0.049 A 
ATOM     32  N   UNL A   1      38.828  31.151  32.629  1.00  0.00    -0.248 NA
ATOM     33  C   UNL A   1      36.817  32.336  32.689  1.00  0.00     0.031 C 
ATOM     34  C   UNL A   1      38.056  30.204  28.322  1.00  0.00     0.029 A 
ATOM     35  N   UNL A   1      39.305  29.712  30.109  1.00  0.00    -0.354 N 
ATOM     36  C   UNL A   1      38.619  31.637  33.912  1.00  0.00     0.074 A 
ATOM     37  C   UNL A   1      37.378  32.381  33.889  1.00  0.00     0.031 C 
ATOM     38  C   UNL A   1      38.918  29.244  27.958  1.00  0.00     0.029 A 
ATOM     39  C   UNL A   1      39.794  28.942  29.084  1.00  0.00     0.049 A 
ATOM     40  H   UNL A   1      39.666  29.685  31.026  1.00  0.00     0.167 HD
ATOM     41  C   UNL A   1      39.403  31.484  35.005  1.00  0.00     0.037 A 
ATOM     42  C   UNL A   1      40.859  28.121  29.040  1.00  0.00     0.037 A 
ATOM     43  C   UNL A   1      40.604  30.693  35.035  1.00  0.00     0.049 A 
ATOM     44  C   UNL A   1      41.726  27.983  30.257  1.00  0.00     0.074 A 
ATOM     45  C   UNL A   1      41.480  30.486  36.087  1.00  0.00     0.029 A 
ATOM     46  N   UNL A   1      41.082  29.953  33.964  1.00  0.00    -0.354 N 
ATOM     47  N   UNL A   1      41.585  28.536  31.437  1.00  0.00    -0.248 NA
ATOM     48  C   UNL A   1      42.918  27.133  30.127  1.00  0.00     0.031 C 
ATOM     49  C   UNL A   1      42.499  29.634  35.645  1.00  0.00     0.029 A 
ATOM     50  C   UNL A   1      42.242  29.290  34.328  1.00  0.00     0.049 A 
ATOM     51  H   UNL A   1      40.659  29.907  33.076  1.00  0.00     0.167 HD
ATOM     52  C   UNL A   1      42.668  28.107  32.189  1.00  0.00     0.074 A 
ATOM     53  C   UNL A   1      43.447  27.227  31.340  1.00  0.00     0.031 C 
ATOM     54  C   UNL A   1      42.997  28.421  33.464  1.00  0.00     0.037 A 
BRANCH  41  55
ATOM     55  C   UNL A   1      39.008  32.226  36.245  1.00  0.00     0.057 A 
ATOM     56  C   UNL A   1      39.444  33.530  36.505  1.00  0.00     0.134 A 
ATOM     57  C   UNL A   1      38.158  31.626  37.184  1.00  0.00     0.134 A 
ATOM     58  F   UNL A   1      40.272  34.151  35.653  1.00  0.00    -0.206 F 
ATOM     59  C   UNL A   1      39.060  34.208  37.664  1.00  0.00     0.040 A 
ATOM     60  C   UNL A   1      37.753  32.300  38.337  1.00  0.00     0.040 A 
ATOM     61  F   UNL A   1      37.706  30.377  36.995  1.00  0.00    -0.206 F 
ATOM     62  C   UNL A   1      38.208  33.594  38.581  1.00  0.00     0.006 A 
ENDBRANCH  41  55
BRANCH  42  63
ATOM     63  C   UNL A   1      41.193  27.414  27.779  1.00  0.00     0.057 A 
ATOM     64  C   UNL A   1      40.718  26.123  27.527  1.00  0.00     0.134 A 
ATOM     65  C   UNL A   1      41.979  28.020  26.791  1.00  0.00     0.134 A 
ATOM     66  F   UNL A   1      39.980  25.484  28.446  1.00  0.00    -0.206 F 
ATOM     67  C   UNL A   1      41.015  25.457  26.337  1.00  0.00     0.040 A 
ATOM     68  C   UNL A   1      42.265  27.375  25.588  1.00  0.00     0.040 A 
ATOM     69  F   UNL A   1      42.464  29.257  26.975  1.00  0.00    -0.206 F 
ATOM     70  C   UNL A   1      41.784  26.088  25.360  1.00  0.00     0.006 A 
ENDBRANCH  42  63
BRANCH  54  71
ATOM     71  C   UNL A   1      44.244  27.802  34.013  1.00  0.00     0.057 A 
ATOM     72  C   UNL A   1      45.476  28.460  33.944  1.00  0.00     0.134 A 
ATOM     73  C   UNL A   1      44.204  26.552  34.640  1.00  0.00     0.134 A 
ATOM     74  F   UNL A   1      45.577  29.655  33.342  1.00  0.00    -0.206 F 
ATOM     75  C   UNL A   1      46.634  27.888  34.472  1.00  0.00     0.040 A 
ATOM     76  C   UNL A   1      45.352  25.976  35.184  1.00  0.00     0.040 A 
ATOM     77  F   UNL A   1      43.050  25.874  34.737  1.00  0.00    -0.206 F 
ATOM     78  C   UNL A   1      46.573  26.645  35.098  1.00  0.00     0.006 A 
ENDBRANCH  54  71
ENDBRANCH  28  29
ENDBRANCH  21  23
ENDBRANCH  20  21
ENDBRANCH  19  20
ENDBRANCH  18  19
ENDBRANCH   1  18
TORSDOF 17
ENDMDL
MODEL 3
REMARK VINA RESULT:      -9.5      4.723      7.969
REMARK SMILES CCCCC[NH2+][C@](C)(C(=O)OCCOC(=O)c1ccc(-c2c3nc(c(-c4c(F)cccc4F)c4ccc([nH]4)c(-c4c(F)cccc4F)c4nc(c(-c5c(F)cccc5F)c5ccc2[nH]5)C=C4)C=C3)cc1)C(F)(F)F
REMARK SMILES IDX 11 1 9 2 10 3 7 4 8 5 6 6 5 9 4 10 3 11 2 12 1 13 71 14
REMARK SMILES IDX 72 15 73 16 74 17 12 18 13 19 14 20 15 21 16 22 17 23 18 24
REMARK SMILES IDX 70 25 19 26 69 27 20 28 21 29 22 30 63 31 23 32 68 33 62 34
REMARK SMILES IDX 64 35 24 36 67 37 61 38 60 39 25 41 51 42 34 43 50 44 35 45
REMARK SMILES IDX 38 46 49 47 65 48 36 49 37 50 48 52 66 53 39 54 26 55 27 56
REMARK SMILES IDX 32 57 28 58 29 59 31 60 33 61 30 62 52 63 53 64 58 65 54 66
REMARK SMILES IDX 55 67 57 68 59 69 56 70 40 71 41 72 46 73 42 74 43 75 45 76
REMARK SMILES IDX 47 77 44 78
REMARK H PARENT 6 7 6 8 64 40 38 51
REMARK Flexibility Score: inf
ROOT
ATOM      1  O   UNL A   1      34.769  21.638  24.476  1.00  0.00    -0.457 OA
ENDROOT
BRANCH   1   2
ATOM      2  C   UNL A   1      33.679  22.403  24.782  1.00  0.00     0.377 C 
ATOM      3  O   UNL A   1      33.466  23.495  24.265  1.00  0.00    -0.244 OA
BRANCH   2   4
ATOM      4  C   UNL A   1      32.874  21.838  25.967  1.00  0.00     0.287 C 
ATOM      5  C   UNL A   1      31.518  22.560  26.105  1.00  0.00     0.103 C 
BRANCH   4   6
ATOM      6  N   UNL A   1      32.561  20.374  25.758  1.00  0.00    -0.325 N 
ATOM      7  H   UNL A   1      33.391  19.833  25.995  1.00  0.00     0.347 HD
ATOM      8  H   UNL A   1      31.763  20.158  26.356  1.00  0.00     0.347 HD
BRANCH   6   9
ATOM      9  C   UNL A   1      32.163  20.030  24.389  1.00  0.00     0.261 C 
BRANCH   9  10
ATOM     10  C   UNL A   1      32.576  18.607  24.003  1.00  0.00     0.061 C 
BRANCH  10  11
ATOM     11  C   UNL A   1      34.036  18.224  24.281  1.00  0.00     0.006 C 
BRANCH  11  12
ATOM     12  C   UNL A   1      34.432  16.773  23.998  1.00  0.00    -0.003 C 
ATOM     13  C   UNL A   1      34.626  15.931  25.246  1.00  0.00     0.004 C 
ENDBRANCH  11  12
ENDBRANCH  10  11
ENDBRANCH   9  10
ENDBRANCH   6   9
ENDBRANCH   4   6
BRANCH   4  14
ATOM     14  C   UNL A   1      33.682  22.148  27.247  1.00  0.00     0.455 C 
ATOM     15  F   UNL A   1      34.635  21.209  27.467  1.00  0.00    -0.164 F 
ATOM     16  F   UNL A   1      34.343  23.330  27.135  1.00  0.00    -0.164 F 
ATOM     17  F   UNL A   1      32.929  22.230  28.365  1.00  0.00    -0.164 F 
ENDBRANCH   4  14
ENDBRANCH   2   4
ENDBRANCH   1   2
BRANCH   1  18
ATOM     18  C   UNL A   1      35.989  22.355  24.192  1.00  0.00     0.274 C 
BRANCH  18  19
ATOM     19  C   UNL A   1      37.224  21.476  24.372  1.00  0.00     0.275 C 
BRANCH  19  20
ATOM     20  O   UNL A   1      37.575  21.379  25.763  1.00  0.00    -0.458 OA
BRANCH  20  21
ATOM     21  C   UNL A   1      38.886  21.193  26.024  1.00  0.00     0.338 C 
ATOM     22  O   UNL A   1      39.561  20.204  25.783  1.00  0.00    -0.246 OA
BRANCH  21  23
ATOM     23  C   UNL A   1      39.447  22.411  26.621  1.00  0.00     0.060 A 
ATOM     24  C   UNL A   1      38.984  23.648  26.181  1.00  0.00     0.016 A 
ATOM     25  C   UNL A   1      40.525  22.338  27.501  1.00  0.00     0.016 A 
ATOM     26  C   UNL A   1      39.647  24.815  26.538  1.00  0.00     0.010 A 
ATOM     27  C   UNL A   1      41.137  23.519  27.933  1.00  0.00     0.010 A 
ATOM     28  C   UNL A   1      40.724  24.767  27.427  1.00  0.00    -0.014 A 
BRANCH  28  29
ATOM     29  C   UNL A   1      41.449  26.013  27.780  1.00  0.00     0.031 A 
ATOM     30  C   UNL A   1      40.782  27.047  28.641  1.00  0.00     0.074 A 
ATOM     31  C   UNL A   1      42.715  26.207  27.363  1.00  0.00     0.049 A 
ATOM     32  N   UNL A   1      41.147  28.279  28.889  1.00  0.00    -0.248 NA
ATOM     33  C   UNL A   1      39.531  26.645  29.304  1.00  0.00     0.031 C 
ATOM     34  C   UNL A   1      43.512  25.251  26.591  1.00  0.00     0.029 A 
ATOM     35  N   UNL A   1      43.558  27.274  27.540  1.00  0.00    -0.354 N 
ATOM     36  C   UNL A   1      40.142  28.817  29.681  1.00  0.00     0.074 A 
ATOM     37  C   UNL A   1      39.159  27.775  29.888  1.00  0.00     0.031 C 
ATOM     38  C   UNL A   1      44.736  25.760  26.390  1.00  0.00     0.029 A 
ATOM     39  C   UNL A   1      44.783  27.110  26.941  1.00  0.00     0.049 A 
ATOM     40  H   UNL A   1      43.309  28.081  28.048  1.00  0.00     0.167 HD
ATOM     41  C   UNL A   1      40.048  30.072  30.179  1.00  0.00     0.037 A 
ATOM     42  C   UNL A   1      45.811  27.967  26.808  1.00  0.00     0.037 A 
ATOM     43  C   UNL A   1      41.058  31.084  30.019  1.00  0.00     0.049 A 
ATOM     44  C   UNL A   1      45.676  29.360  27.348  1.00  0.00     0.074 A 
ATOM     45  C   UNL A   1      41.053  32.393  30.469  1.00  0.00     0.029 A 
ATOM     46  N   UNL A   1      42.272  30.885  29.378  1.00  0.00    -0.354 N 
ATOM     47  N   UNL A   1      44.675  29.898  28.000  1.00  0.00    -0.248 NA
ATOM     48  C   UNL A   1      46.801  30.276  27.106  1.00  0.00     0.031 C 
ATOM     49  C   UNL A   1      42.258  32.992  30.084  1.00  0.00     0.029 A 
ATOM     50  C   UNL A   1      43.023  32.048  29.418  1.00  0.00     0.049 A 
ATOM     51  H   UNL A   1      42.557  30.043  28.956  1.00  0.00     0.167 HD
ATOM     52  C   UNL A   1      45.043  31.213  28.243  1.00  0.00     0.074 A 
ATOM     53  C   UNL A   1      46.372  31.386  27.690  1.00  0.00     0.031 C 
ATOM     54  C   UNL A   1      44.341  32.194  28.859  1.00  0.00     0.037 A 
BRANCH  41  55
ATOM     55  C   UNL A   1      38.787  30.433  30.902  1.00  0.00     0.057 A 
ATOM     56  C   UNL A   1      38.647  30.272  32.285  1.00  0.00     0.134 A 
ATOM     57  C   UNL A   1      37.700  30.970  30.197  1.00  0.00     0.134 A 
ATOM     58  F   UNL A   1      39.644  29.746  33.011  1.00  0.00    -0.206 F 
ATOM     59  C   UNL A   1      37.465  30.620  32.942  1.00  0.00     0.040 A 
ATOM     60  C   UNL A   1      36.521  31.339  30.846  1.00  0.00     0.040 A 
ATOM     61  F   UNL A   1      37.770  31.149  28.870  1.00  0.00    -0.206 F 
ATOM     62  C   UNL A   1      36.400  31.160  32.222  1.00  0.00     0.006 A 
ENDBRANCH  41  55
BRANCH  42  63
ATOM     63  C   UNL A   1      47.033  27.544  26.081  1.00  0.00     0.057 A 
ATOM     64  C   UNL A   1      48.139  27.030  26.766  1.00  0.00     0.134 A 
ATOM     65  C   UNL A   1      47.116  27.627  24.686  1.00  0.00     0.134 A 
ATOM     66  F   UNL A   1      48.127  26.948  28.104  1.00  0.00    -0.206 F 
ATOM     67  C   UNL A   1      49.287  26.616  26.088  1.00  0.00     0.040 A 
ATOM     68  C   UNL A   1      48.248  27.196  23.994  1.00  0.00     0.040 A 
ATOM     69  F   UNL A   1      46.088  28.112  23.974  1.00  0.00    -0.206 F 
ATOM     70  C   UNL A   1      49.340  26.690  24.697  1.00  0.00     0.006 A 
ENDBRANCH  42  63
BRANCH  54  71
ATOM     71  C   UNL A   1      45.003  33.531  28.971  1.00  0.00     0.057 A 
ATOM     72  C   UNL A   1      44.806  34.525  28.006  1.00  0.00     0.134 A 
ATOM     73  C   UNL A   1      45.819  33.835  30.066  1.00  0.00     0.134 A 
ATOM     74  F   UNL A   1      44.046  34.284  26.927  1.00  0.00    -0.206 F 
ATOM     75  C   UNL A   1      45.411  35.777  28.120  1.00  0.00     0.040 A 
ATOM     76  C   UNL A   1      46.417  35.088  30.200  1.00  0.00     0.040 A 
ATOM     77  F   UNL A   1      46.042  32.923  31.024  1.00  0.00    -0.206 F 
ATOM     78  C   UNL A   1      46.215  36.062  29.222  1.00  0.00     0.006 A 
ENDBRANCH  54  71
ENDBRANCH  28  29
ENDBRANCH  21  23
ENDBRANCH  20  21
ENDBRANCH  19  20
ENDBRANCH  18  19
ENDBRANCH   1  18
TORSDOF 17
ENDMDL
