MODEL 1
REMARK VINA RESULT:     -11.9      0.000      0.000
REMARK SMILES CC1=Nc2ncnn2[C@H](c2ccc(F)cc2)[C@@H]1C(=O)OCCOC(=O)c1ccc(-c2c3nc(c(-c4c(F)cccc4F)c4ccc([nH]4)c(-c4c(F)cccc4F)c4nc(c(-c5c(F)cccc5F)c5ccc2[nH]5)C=C4)C=C3)cc1
REMARK SMILES IDX 22 1 21 2 20 3 18 4 19 5 17 6 1 7 2 8 3 9 4 10 9 11 5 12
REMARK SMILES IDX 8 13 6 14 7 15 10 16 11 17 16 18 12 19 15 20 13 21 14 22
REMARK SMILES IDX 23 23 24 24 25 25 26 26 27 27 79 28 28 29 78 30 29 31 30 32
REMARK SMILES IDX 31 33 72 34 32 35 77 36 71 37 73 38 33 39 76 40 70 41 69 42
REMARK SMILES IDX 34 44 60 45 43 46 59 47 44 48 47 49 58 50 74 51 45 52 46 53
REMARK SMILES IDX 57 55 75 56 48 57 35 58 36 59 41 60 37 61 38 62 40 63 42 64
REMARK SMILES IDX 39 65 61 66 62 67 67 68 63 69 64 70 66 71 68 72 65 73 49 74
REMARK SMILES IDX 50 75 55 76 51 77 52 78 54 79 56 80 53 81
REMARK H PARENT 73 43 47 54
REMARK Flexibility Score: inf
ROOT
ATOM      1  C   UNL A   1      37.382  21.577  25.384  1.00  0.00     0.275 C 
ENDROOT
BRANCH   1   2
ATOM      2  C   UNL A   1      36.815  22.955  25.112  1.00  0.00     0.274 C 
BRANCH   2   3
ATOM      3  O   UNL A   1      35.376  22.893  25.090  1.00  0.00    -0.461 OA
BRANCH   3   4
ATOM      4  C   UNL A   1      34.718  23.200  23.935  1.00  0.00     0.317 C 
ATOM      5  O   UNL A   1      35.156  22.980  22.814  1.00  0.00    -0.251 OA
BRANCH   4   6
ATOM      6  C   UNL A   1      33.365  23.823  24.233  1.00  0.00     0.173 C 
ATOM      7  C   UNL A   1      34.328  26.018  25.308  1.00  0.00     0.063 C 
ATOM      8  C   UNL A   1      33.410  24.811  25.403  1.00  0.00     0.036 C 
ATOM      9  N   UNL A   1      32.634  24.783  26.442  1.00  0.00    -0.220 NA
ATOM     10  C   UNL A   1      31.663  23.852  26.523  1.00  0.00     0.248 A 
ATOM     11  C   UNL A   1      32.228  22.770  24.349  1.00  0.00     0.161 C 
ATOM     12  N   UNL A   1      30.738  23.697  27.446  1.00  0.00    -0.198 NA
ATOM     13  N   UNL A   1      31.436  22.924  25.550  1.00  0.00    -0.221 N 
ATOM     14  C   UNL A   1      29.940  22.708  26.950  1.00  0.00     0.248 A 
ATOM     15  N   UNL A   1      30.303  22.227  25.762  1.00  0.00    -0.157 NA
BRANCH  11  16
ATOM     16  C   UNL A   1      32.595  21.291  24.172  1.00  0.00    -0.022 A 
ATOM     17  C   UNL A   1      33.067  20.575  25.288  1.00  0.00     0.009 A 
ATOM     18  C   UNL A   1      32.346  20.594  22.972  1.00  0.00     0.009 A 
ATOM     19  C   UNL A   1      33.159  19.185  25.249  1.00  0.00     0.039 A 
ATOM     20  C   UNL A   1      32.392  19.198  22.954  1.00  0.00     0.039 A 
ATOM     21  C   UNL A   1      32.779  18.508  24.098  1.00  0.00     0.123 A 
ATOM     22  F   UNL A   1      32.745  17.170  24.102  1.00  0.00    -0.207 F 
ENDBRANCH  11  16
ENDBRANCH   4   6
ENDBRANCH   3   4
ENDBRANCH   2   3
ENDBRANCH   1   2
BRANCH   1  23
ATOM     23  O   UNL A   1      38.747  21.722  25.746  1.00  0.00    -0.458 OA
BRANCH  23  24
ATOM     24  C   UNL A   1      39.503  20.601  25.654  1.00  0.00     0.338 C 
ATOM     25  O   UNL A   1      39.146  19.478  25.350  1.00  0.00    -0.246 OA
BRANCH  24  26
ATOM     26  C   UNL A   1      40.846  20.914  26.161  1.00  0.00     0.060 A 
ATOM     27  C   UNL A   1      40.947  20.714  27.538  1.00  0.00     0.016 A 
ATOM     28  C   UNL A   1      41.544  21.920  25.487  1.00  0.00     0.016 A 
ATOM     29  C   UNL A   1      41.368  21.784  28.282  1.00  0.00     0.010 A 
ATOM     30  C   UNL A   1      41.912  23.008  26.227  1.00  0.00     0.010 A 
ATOM     31  C   UNL A   1      41.717  22.957  27.605  1.00  0.00    -0.014 A 
BRANCH  31  32
ATOM     32  C   UNL A   1      42.050  24.109  28.398  1.00  0.00     0.031 A 
ATOM     33  C   UNL A   1      41.017  25.148  28.249  1.00  0.00     0.074 A 
ATOM     34  C   UNL A   1      43.100  24.160  29.231  1.00  0.00     0.049 A 
ATOM     35  N   UNL A   1      41.058  26.184  27.479  1.00  0.00    -0.248 NA
ATOM     36  C   UNL A   1      39.678  24.832  28.775  1.00  0.00     0.031 C 
ATOM     37  C   UNL A   1      43.995  23.091  29.671  1.00  0.00     0.029 A 
ATOM     38  N   UNL A   1      43.526  25.233  29.943  1.00  0.00    -0.354 N 
ATOM     39  C   UNL A   1      39.808  26.770  27.625  1.00  0.00     0.074 A 
ATOM     40  C   UNL A   1      38.945  25.751  28.150  1.00  0.00     0.031 C 
ATOM     41  C   UNL A   1      44.706  23.522  30.742  1.00  0.00     0.029 A 
ATOM     42  C   UNL A   1      44.408  24.926  30.970  1.00  0.00     0.049 A 
ATOM     43  H   UNL A   1      43.234  26.153  29.747  1.00  0.00     0.167 HD
ATOM     44  C   UNL A   1      39.670  28.122  27.643  1.00  0.00     0.037 A 
ATOM     45  C   UNL A   1      44.731  25.784  31.972  1.00  0.00     0.037 A 
ATOM     46  C   UNL A   1      40.840  28.765  27.094  1.00  0.00     0.049 A 
ATOM     47  C   UNL A   1      44.378  27.156  31.497  1.00  0.00     0.074 A 
ATOM     48  C   UNL A   1      41.486  28.725  25.874  1.00  0.00     0.029 A 
ATOM     49  N   UNL A   1      41.751  29.287  27.983  1.00  0.00    -0.354 N 
ATOM     50  N   UNL A   1      44.988  27.761  30.513  1.00  0.00    -0.248 NA
ATOM     51  C   UNL A   1      43.034  27.640  31.785  1.00  0.00     0.031 C 
ATOM     52  C   UNL A   1      42.876  28.778  26.187  1.00  0.00     0.029 A 
ATOM     53  C   UNL A   1      43.002  28.911  27.570  1.00  0.00     0.049 A 
ATOM     54  H   UNL A   1      41.541  29.833  28.775  1.00  0.00     0.167 HD
ATOM     55  C   UNL A   1      43.981  28.403  29.804  1.00  0.00     0.074 A 
ATOM     56  C   UNL A   1      42.806  28.340  30.669  1.00  0.00     0.031 C 
ATOM     57  C   UNL A   1      44.106  28.660  28.468  1.00  0.00     0.037 A 
BRANCH  44  58
ATOM     58  C   UNL A   1      38.682  28.841  28.530  1.00  0.00     0.057 A 
ATOM     59  C   UNL A   1      37.554  29.569  28.086  1.00  0.00     0.134 A 
ATOM     60  C   UNL A   1      38.703  28.573  29.908  1.00  0.00     0.134 A 
ATOM     61  F   UNL A   1      37.316  29.848  26.801  1.00  0.00    -0.206 F 
ATOM     62  C   UNL A   1      36.526  29.979  28.936  1.00  0.00     0.040 A 
ATOM     63  C   UNL A   1      37.650  28.929  30.758  1.00  0.00     0.040 A 
ATOM     64  F   UNL A   1      39.713  27.884  30.459  1.00  0.00    -0.206 F 
ATOM     65  C   UNL A   1      36.553  29.629  30.271  1.00  0.00     0.006 A 
ENDBRANCH  44  58
BRANCH  45  66
ATOM     66  C   UNL A   1      44.908  25.476  33.410  1.00  0.00     0.057 A 
ATOM     67  C   UNL A   1      43.999  24.665  34.114  1.00  0.00     0.134 A 
ATOM     68  C   UNL A   1      45.811  26.208  34.196  1.00  0.00     0.134 A 
ATOM     69  F   UNL A   1      43.044  23.974  33.474  1.00  0.00    -0.206 F 
ATOM     70  C   UNL A   1      43.970  24.606  35.511  1.00  0.00     0.040 A 
ATOM     71  C   UNL A   1      45.789  26.162  35.597  1.00  0.00     0.040 A 
ATOM     72  F   UNL A   1      46.690  27.040  33.621  1.00  0.00    -0.206 F 
ATOM     73  C   UNL A   1      44.856  25.369  36.259  1.00  0.00     0.006 A 
ENDBRANCH  45  66
BRANCH  57  74
ATOM     74  C   UNL A   1      45.449  28.430  27.828  1.00  0.00     0.057 A 
ATOM     75  C   UNL A   1      46.288  29.529  27.617  1.00  0.00     0.134 A 
ATOM     76  C   UNL A   1      45.842  27.213  27.251  1.00  0.00     0.134 A 
ATOM     77  F   UNL A   1      45.949  30.738  28.093  1.00  0.00    -0.206 F 
ATOM     78  C   UNL A   1      47.459  29.428  26.862  1.00  0.00     0.040 A 
ATOM     79  C   UNL A   1      47.029  27.090  26.520  1.00  0.00     0.040 A 
ATOM     80  F   UNL A   1      45.058  26.129  27.319  1.00  0.00    -0.206 F 
ATOM     81  C   UNL A   1      47.836  28.205  26.315  1.00  0.00     0.006 A 
ENDBRANCH  57  74
ENDBRANCH  31  32
ENDBRANCH  24  26
ENDBRANCH  23  24
ENDBRANCH   1  23
TORSDOF 12
ENDMDL
MODEL 2
REMARK VINA RESULT:     -11.9      4.359      8.433
REMARK SMILES CC1=Nc2ncnn2[C@H](c2ccc(F)cc2)[C@@H]1C(=O)OCCOC(=O)c1ccc(-c2c3nc(c(-c4c(F)cccc4F)c4ccc([nH]4)c(-c4c(F)cccc4F)c4nc(c(-c5c(F)cccc5F)c5ccc2[nH]5)C=C4)C=C3)cc1
REMARK SMILES IDX 22 1 21 2 20 3 18 4 19 5 17 6 1 7 2 8 3 9 4 10 9 11 5 12
REMARK SMILES IDX 8 13 6 14 7 15 10 16 11 17 16 18 12 19 15 20 13 21 14 22
REMARK SMILES IDX 23 23 24 24 25 25 26 26 27 27 79 28 28 29 78 30 29 31 30 32
REMARK SMILES IDX 31 33 72 34 32 35 77 36 71 37 73 38 33 39 76 40 70 41 69 42
REMARK SMILES IDX 34 44 60 45 43 46 59 47 44 48 47 49 58 50 74 51 45 52 46 53
REMARK SMILES IDX 57 55 75 56 48 57 35 58 36 59 41 60 37 61 38 62 40 63 42 64
REMARK SMILES IDX 39 65 61 66 62 67 67 68 63 69 64 70 66 71 68 72 65 73 49 74
REMARK SMILES IDX 50 75 55 76 51 77 52 78 54 79 56 80 53 81
REMARK H PARENT 73 43 47 54
REMARK Flexibility Score: inf
ROOT
ATOM      1  C   UNL A   1      32.836  30.366  27.253  1.00  0.00     0.275 C 
ENDROOT
BRANCH   1   2
ATOM      2  C   UNL A   1      33.608  29.199  26.674  1.00  0.00     0.274 C 
BRANCH   2   3
ATOM      3  O   UNL A   1      32.933  27.966  26.988  1.00  0.00    -0.461 OA
BRANCH   3   4
ATOM      4  C   UNL A   1      32.062  27.438  26.082  1.00  0.00     0.317 C 
ATOM      5  O   UNL A   1      31.047  26.823  26.380  1.00  0.00    -0.251 OA
BRANCH   4   6
ATOM      6  C   UNL A   1      32.509  27.742  24.662  1.00  0.00     0.173 C 
ATOM      7  C   UNL A   1      30.648  29.535  24.189  1.00  0.00     0.063 C 
ATOM      8  C   UNL A   1      31.371  28.263  23.778  1.00  0.00     0.036 C 
ATOM      9  N   UNL A   1      31.033  27.779  22.623  1.00  0.00    -0.220 NA
ATOM     10  C   UNL A   1      31.742  26.762  22.095  1.00  0.00     0.248 A 
ATOM     11  C   UNL A   1      33.315  26.579  24.020  1.00  0.00     0.161 C 
ATOM     12  N   UNL A   1      31.609  26.181  20.922  1.00  0.00    -0.198 NA
ATOM     13  N   UNL A   1      32.824  26.206  22.712  1.00  0.00    -0.221 N 
ATOM     14  C   UNL A   1      32.674  25.332  20.851  1.00  0.00     0.248 A 
ATOM     15  N   UNL A   1      33.479  25.341  21.914  1.00  0.00    -0.157 NA
BRANCH  11  16
ATOM     16  C   UNL A   1      33.539  25.311  24.855  1.00  0.00    -0.022 A 
ATOM     17  C   UNL A   1      32.544  24.315  24.849  1.00  0.00     0.009 A 
ATOM     18  C   UNL A   1      34.758  25.051  25.513  1.00  0.00     0.009 A 
ATOM     19  C   UNL A   1      32.810  23.048  25.366  1.00  0.00     0.039 A 
ATOM     20  C   UNL A   1      35.036  23.766  25.985  1.00  0.00     0.039 A 
ATOM     21  C   UNL A   1      34.066  22.774  25.888  1.00  0.00     0.123 A 
ATOM     22  F   UNL A   1      34.363  21.524  26.267  1.00  0.00    -0.207 F 
ENDBRANCH  11  16
ENDBRANCH   4   6
ENDBRANCH   3   4
ENDBRANCH   2   3
ENDBRANCH   1   2
BRANCH   1  23
ATOM     23  O   UNL A   1      33.739  31.445  27.444  1.00  0.00    -0.458 OA
BRANCH  23  24
ATOM     24  C   UNL A   1      33.186  32.608  27.866  1.00  0.00     0.338 C 
ATOM     25  O   UNL A   1      32.142  33.118  27.502  1.00  0.00    -0.246 OA
BRANCH  24  26
ATOM     26  C   UNL A   1      34.153  33.282  28.743  1.00  0.00     0.060 A 
ATOM     27  C   UNL A   1      35.120  33.980  28.019  1.00  0.00     0.016 A 
ATOM     28  C   UNL A   1      34.424  32.655  29.963  1.00  0.00     0.016 A 
ATOM     29  C   UNL A   1      36.426  33.663  28.278  1.00  0.00     0.010 A 
ATOM     30  C   UNL A   1      35.722  32.293  30.188  1.00  0.00     0.010 A 
ATOM     31  C   UNL A   1      36.687  32.719  29.277  1.00  0.00    -0.014 A 
BRANCH  31  32
ATOM     32  C   UNL A   1      38.051  32.308  29.466  1.00  0.00     0.031 A 
ATOM     33  C   UNL A   1      38.212  30.889  29.109  1.00  0.00     0.074 A 
ATOM     34  C   UNL A   1      39.039  33.147  29.812  1.00  0.00     0.049 A 
ATOM     35  N   UNL A   1      38.234  29.880  29.915  1.00  0.00    -0.248 NA
ATOM     36  C   UNL A   1      38.013  30.534  27.694  1.00  0.00     0.031 C 
ATOM     37  C   UNL A   1      39.038  34.608  29.891  1.00  0.00     0.029 A 
ATOM     38  N   UNL A   1      40.326  32.822  30.091  1.00  0.00    -0.354 N 
ATOM     39  C   UNL A   1      38.292  28.773  29.079  1.00  0.00     0.074 A 
ATOM     40  C   UNL A   1      37.837  29.218  27.792  1.00  0.00     0.031 C 
ATOM     41  C   UNL A   1      40.319  35.046  29.972  1.00  0.00     0.029 A 
ATOM     42  C   UNL A   1      41.203  33.898  30.082  1.00  0.00     0.049 A 
ATOM     43  H   UNL A   1      40.613  31.901  30.283  1.00  0.00     0.167 HD
ATOM     44  C   UNL A   1      39.037  27.687  29.410  1.00  0.00     0.037 A 
ATOM     45  C   UNL A   1      42.555  33.771  30.049  1.00  0.00     0.037 A 
ATOM     46  C   UNL A   1      39.353  27.691  30.819  1.00  0.00     0.049 A 
ATOM     47  C   UNL A   1      42.871  32.384  30.502  1.00  0.00     0.074 A 
ATOM     48  C   UNL A   1      38.606  27.686  31.981  1.00  0.00     0.029 A 
ATOM     49  N   UNL A   1      40.610  28.116  31.184  1.00  0.00    -0.354 N 
ATOM     50  N   UNL A   1      42.661  31.953  31.716  1.00  0.00    -0.248 NA
ATOM     51  C   UNL A   1      42.949  31.347  29.480  1.00  0.00     0.031 C 
ATOM     52  C   UNL A   1      39.306  28.546  32.877  1.00  0.00     0.029 A 
ATOM     53  C   UNL A   1      40.470  28.977  32.241  1.00  0.00     0.049 A 
ATOM     54  H   UNL A   1      41.457  27.849  30.761  1.00  0.00     0.167 HD
ATOM     55  C   UNL A   1      42.178  30.660  31.562  1.00  0.00     0.074 A 
ATOM     56  C   UNL A   1      42.432  30.321  30.164  1.00  0.00     0.031 C 
ATOM     57  C   UNL A   1      41.351  30.095  32.492  1.00  0.00     0.037 A 
BRANCH  44  58
ATOM     58  C   UNL A   1      39.814  26.876  28.400  1.00  0.00     0.057 A 
ATOM     59  C   UNL A   1      39.540  25.539  28.031  1.00  0.00     0.134 A 
ATOM     60  C   UNL A   1      40.716  27.546  27.558  1.00  0.00     0.134 A 
ATOM     61  F   UNL A   1      38.648  24.768  28.660  1.00  0.00    -0.206 F 
ATOM     62  C   UNL A   1      40.100  24.926  26.910  1.00  0.00     0.040 A 
ATOM     63  C   UNL A   1      41.237  26.959  26.400  1.00  0.00     0.040 A 
ATOM     64  F   UNL A   1      41.055  28.822  27.791  1.00  0.00    -0.206 F 
ATOM     65  C   UNL A   1      40.925  25.647  26.069  1.00  0.00     0.006 A 
ENDBRANCH  44  58
BRANCH  45  66
ATOM     66  C   UNL A   1      43.524  34.582  29.274  1.00  0.00     0.057 A 
ATOM     67  C   UNL A   1      44.140  35.724  29.818  1.00  0.00     0.134 A 
ATOM     68  C   UNL A   1      43.645  34.424  27.886  1.00  0.00     0.134 A 
ATOM     69  F   UNL A   1      44.031  36.018  31.122  1.00  0.00    -0.206 F 
ATOM     70  C   UNL A   1      44.809  36.664  29.029  1.00  0.00     0.040 A 
ATOM     71  C   UNL A   1      44.309  35.362  27.082  1.00  0.00     0.040 A 
ATOM     72  F   UNL A   1      43.059  33.389  27.267  1.00  0.00    -0.206 F 
ATOM     73  C   UNL A   1      44.882  36.494  27.653  1.00  0.00     0.006 A 
ENDBRANCH  45  66
BRANCH  57  74
ATOM     74  C   UNL A   1      41.151  30.823  33.794  1.00  0.00     0.057 A 
ATOM     75  C   UNL A   1      41.885  30.411  34.911  1.00  0.00     0.134 A 
ATOM     76  C   UNL A   1      40.137  31.768  34.014  1.00  0.00     0.134 A 
ATOM     77  F   UNL A   1      42.834  29.471  34.786  1.00  0.00    -0.206 F 
ATOM     78  C   UNL A   1      41.619  30.906  36.190  1.00  0.00     0.040 A 
ATOM     79  C   UNL A   1      39.883  32.296  35.284  1.00  0.00     0.040 A 
ATOM     80  F   UNL A   1      39.322  32.152  33.024  1.00  0.00    -0.206 F 
ATOM     81  C   UNL A   1      40.618  31.856  36.380  1.00  0.00     0.006 A 
ENDBRANCH  57  74
ENDBRANCH  31  32
ENDBRANCH  24  26
ENDBRANCH  23  24
ENDBRANCH   1  23
TORSDOF 12
ENDMDL
MODEL 3
REMARK VINA RESULT:     -11.8      1.573      2.907
REMARK SMILES CC1=Nc2ncnn2[C@H](c2ccc(F)cc2)[C@@H]1C(=O)OCCOC(=O)c1ccc(-c2c3nc(c(-c4c(F)cccc4F)c4ccc([nH]4)c(-c4c(F)cccc4F)c4nc(c(-c5c(F)cccc5F)c5ccc2[nH]5)C=C4)C=C3)cc1
REMARK SMILES IDX 22 1 21 2 20 3 18 4 19 5 17 6 1 7 2 8 3 9 4 10 9 11 5 12
REMARK SMILES IDX 8 13 6 14 7 15 10 16 11 17 16 18 12 19 15 20 13 21 14 22
REMARK SMILES IDX 23 23 24 24 25 25 26 26 27 27 79 28 28 29 78 30 29 31 30 32
REMARK SMILES IDX 31 33 72 34 32 35 77 36 71 37 73 38 33 39 76 40 70 41 69 42
REMARK SMILES IDX 34 44 60 45 43 46 59 47 44 48 47 49 58 50 74 51 45 52 46 53
REMARK SMILES IDX 57 55 75 56 48 57 35 58 36 59 41 60 37 61 38 62 40 63 42 64
REMARK SMILES IDX 39 65 61 66 62 67 67 68 63 69 64 70 66 71 68 72 65 73 49 74
REMARK SMILES IDX 50 75 55 76 51 77 52 78 54 79 56 80 53 81
REMARK H PARENT 73 43 47 54
REMARK Flexibility Score: inf
ROOT
ATOM      1  C   UNL A   1      37.770  21.746  25.061  1.00  0.00     0.275 C 
ENDROOT
BRANCH   1   2
ATOM      2  C   UNL A   1      36.860  22.834  25.592  1.00  0.00     0.274 C 
BRANCH   2   3
ATOM      3  O   UNL A   1      36.189  23.485  24.496  1.00  0.00    -0.461 OA
BRANCH   3   4
ATOM      4  C   UNL A   1      34.933  23.079  24.154  1.00  0.00     0.317 C 
ATOM      5  O   UNL A   1      34.499  23.073  23.010  1.00  0.00    -0.251 OA
BRANCH   4   6
ATOM      6  C   UNL A   1      34.163  22.614  25.378  1.00  0.00     0.173 C 
ATOM      7  C   UNL A   1      34.186  20.066  24.739  1.00  0.00     0.063 C 
ATOM      8  C   UNL A   1      33.403  21.305  25.142  1.00  0.00     0.036 C 
ATOM      9  N   UNL A   1      32.141  21.115  25.373  1.00  0.00    -0.220 NA
ATOM     10  C   UNL A   1      31.405  22.110  25.907  1.00  0.00     0.248 A 
ATOM     11  C   UNL A   1      33.292  23.737  26.007  1.00  0.00     0.161 C 
ATOM     12  N   UNL A   1      30.143  22.100  26.277  1.00  0.00    -0.198 NA
ATOM     13  N   UNL A   1      31.923  23.328  26.237  1.00  0.00    -0.221 N 
ATOM     14  C   UNL A   1      29.967  23.308  26.885  1.00  0.00     0.248 A 
ATOM     15  N   UNL A   1      31.049  24.087  26.925  1.00  0.00    -0.157 NA
BRANCH  11  16
ATOM     16  C   UNL A   1      33.300  25.117  25.335  1.00  0.00    -0.022 A 
ATOM     17  C   UNL A   1      32.430  25.344  24.252  1.00  0.00     0.009 A 
ATOM     18  C   UNL A   1      34.044  26.198  25.850  1.00  0.00     0.009 A 
ATOM     19  C   UNL A   1      32.207  26.638  23.785  1.00  0.00     0.039 A 
ATOM     20  C   UNL A   1      33.779  27.497  25.411  1.00  0.00     0.039 A 
ATOM     21  C   UNL A   1      32.850  27.705  24.397  1.00  0.00     0.123 A 
ATOM     22  F   UNL A   1      32.540  28.956  24.035  1.00  0.00    -0.207 F 
ENDBRANCH  11  16
ENDBRANCH   4   6
ENDBRANCH   3   4
ENDBRANCH   2   3
ENDBRANCH   1   2
BRANCH   1  23
ATOM     23  O   UNL A   1      38.991  21.796  25.785  1.00  0.00    -0.458 OA
BRANCH  23  24
ATOM     24  C   UNL A   1      39.747  20.672  25.742  1.00  0.00     0.338 C 
ATOM     25  O   UNL A   1      39.400  19.546  25.438  1.00  0.00    -0.246 OA
BRANCH  24  26
ATOM     26  C   UNL A   1      41.066  20.989  26.305  1.00  0.00     0.060 A 
ATOM     27  C   UNL A   1      41.098  20.832  27.691  1.00  0.00     0.016 A 
ATOM     28  C   UNL A   1      41.807  21.966  25.634  1.00  0.00     0.016 A 
ATOM     29  C   UNL A   1      41.493  21.921  28.420  1.00  0.00     0.010 A 
ATOM     30  C   UNL A   1      42.149  23.074  26.357  1.00  0.00     0.010 A 
ATOM     31  C   UNL A   1      41.887  23.069  27.725  1.00  0.00    -0.014 A 
BRANCH  31  32
ATOM     32  C   UNL A   1      42.193  24.243  28.496  1.00  0.00     0.031 A 
ATOM     33  C   UNL A   1      41.156  25.269  28.299  1.00  0.00     0.074 A 
ATOM     34  C   UNL A   1      43.224  24.323  29.351  1.00  0.00     0.049 A 
ATOM     35  N   UNL A   1      41.206  26.286  27.505  1.00  0.00    -0.248 NA
ATOM     36  C   UNL A   1      39.808  24.955  28.802  1.00  0.00     0.031 C 
ATOM     37  C   UNL A   1      44.117  23.272  29.837  1.00  0.00     0.029 A 
ATOM     38  N   UNL A   1      43.625  25.417  30.046  1.00  0.00    -0.354 N 
ATOM     39  C   UNL A   1      39.949  26.866  27.608  1.00  0.00     0.074 A 
ATOM     40  C   UNL A   1      39.082  25.853  28.138  1.00  0.00     0.031 C 
ATOM     41  C   UNL A   1      44.799  23.735  30.913  1.00  0.00     0.029 A 
ATOM     42  C   UNL A   1      44.486  25.142  31.100  1.00  0.00     0.049 A 
ATOM     43  H   UNL A   1      43.331  26.328  29.822  1.00  0.00     0.167 HD
ATOM     44  C   UNL A   1      39.800  28.216  27.590  1.00  0.00     0.037 A 
ATOM     45  C   UNL A   1      44.779  26.027  32.087  1.00  0.00     0.037 A 
ATOM     46  C   UNL A   1      40.977  28.856  27.052  1.00  0.00     0.049 A 
ATOM     47  C   UNL A   1      44.427  27.384  31.571  1.00  0.00     0.074 A 
ATOM     48  C   UNL A   1      41.651  28.791  25.848  1.00  0.00     0.029 A 
ATOM     49  N   UNL A   1      41.863  29.407  27.948  1.00  0.00    -0.354 N 
ATOM     50  N   UNL A   1      45.055  27.969  30.587  1.00  0.00    -0.248 NA
ATOM     51  C   UNL A   1      43.073  27.863  31.817  1.00  0.00     0.031 C 
ATOM     52  C   UNL A   1      43.033  28.863  26.191  1.00  0.00     0.029 A 
ATOM     53  C   UNL A   1      43.127  29.031  27.572  1.00  0.00     0.049 A 
ATOM     54  H   UNL A   1      41.632  29.970  28.722  1.00  0.00     0.167 HD
ATOM     55  C   UNL A   1      44.059  28.585  29.840  1.00  0.00     0.074 A 
ATOM     56  C   UNL A   1      42.864  28.534  30.680  1.00  0.00     0.031 C 
ATOM     57  C   UNL A   1      44.212  28.811  28.501  1.00  0.00     0.037 A 
BRANCH  44  58
ATOM     58  C   UNL A   1      38.786  28.949  28.437  1.00  0.00     0.057 A 
ATOM     59  C   UNL A   1      38.777  29.002  29.849  1.00  0.00     0.134 A 
ATOM     60  C   UNL A   1      37.931  29.867  27.808  1.00  0.00     0.134 A 
ATOM     61  F   UNL A   1      39.583  28.265  30.620  1.00  0.00    -0.206 F 
ATOM     62  C   UNL A   1      37.999  29.905  30.575  1.00  0.00     0.040 A 
ATOM     63  C   UNL A   1      37.191  30.815  28.525  1.00  0.00     0.040 A 
ATOM     64  F   UNL A   1      37.849  29.927  26.471  1.00  0.00    -0.206 F 
ATOM     65  C   UNL A   1      37.228  30.840  29.913  1.00  0.00     0.006 A 
ENDBRANCH  44  58
BRANCH  45  66
ATOM     66  C   UNL A   1      44.926  25.755  33.537  1.00  0.00     0.057 A 
ATOM     67  C   UNL A   1      46.182  25.514  34.124  1.00  0.00     0.134 A 
ATOM     68  C   UNL A   1      43.811  25.433  34.324  1.00  0.00     0.134 A 
ATOM     69  F   UNL A   1      47.318  25.715  33.441  1.00  0.00    -0.206 F 
ATOM     70  C   UNL A   1      46.321  24.963  35.402  1.00  0.00     0.040 A 
ATOM     71  C   UNL A   1      43.936  24.876  35.605  1.00  0.00     0.040 A 
ATOM     72  F   UNL A   1      42.571  25.589  33.840  1.00  0.00    -0.206 F 
ATOM     73  C   UNL A   1      45.196  24.627  36.142  1.00  0.00     0.006 A 
ENDBRANCH  45  66
BRANCH  57  74
ATOM     74  C   UNL A   1      45.571  28.576  27.897  1.00  0.00     0.057 A 
ATOM     75  C   UNL A   1      46.404  29.677  27.675  1.00  0.00     0.134 A 
ATOM     76  C   UNL A   1      45.988  27.348  27.363  1.00  0.00     0.134 A 
ATOM     77  F   UNL A   1      46.043  30.896  28.109  1.00  0.00    -0.206 F 
ATOM     78  C   UNL A   1      47.592  29.567  26.948  1.00  0.00     0.040 A 
ATOM     79  C   UNL A   1      47.192  27.216  26.663  1.00  0.00     0.040 A 
ATOM     80  F   UNL A   1      45.213  26.259  27.445  1.00  0.00    -0.206 F 
ATOM     81  C   UNL A   1      47.993  28.333  26.443  1.00  0.00     0.006 A 
ENDBRANCH  57  74
ENDBRANCH  31  32
ENDBRANCH  24  26
ENDBRANCH  23  24
ENDBRANCH   1  23
TORSDOF 12
ENDMDL
