MODEL 1
REMARK VINA RESULT:     -10.6      0.000      0.000
REMARK SMILES Cn1ccnc1SCC[C@@H]1CCC[C@]1([NH3+])C(=O)OCCOC(=O)c1ccc(-c2c3nc(c(-c4c(F)cccc4F)c4ccc([nH]4)c(-c4c(F)cccc4F)c4nc(c(-c5c(F)cccc5F)c5ccc2[nH]5)C=C4)C=C3)cc1
REMARK SMILES IDX 19 1 18 2 16 3 17 4 14 5 10 6 11 7 12 8 13 9 9 10 8 11 7 12
REMARK SMILES IDX 6 13 1 14 2 15 3 16 4 17 5 18 15 19 20 23 21 24 22 25 23 26
REMARK SMILES IDX 24 27 25 28 77 29 26 30 76 31 27 32 28 33 29 34 70 35 30 36
REMARK SMILES IDX 75 37 69 38 71 39 31 40 74 41 68 42 67 43 32 45 58 46 41 47
REMARK SMILES IDX 57 48 42 49 45 50 56 51 72 52 43 53 44 54 55 56 73 57 46 58
REMARK SMILES IDX 33 59 34 60 39 61 35 62 36 63 38 64 40 65 37 66 59 67 60 68
REMARK SMILES IDX 65 69 61 70 62 71 64 72 66 73 63 74 47 75 48 76 53 77 49 78
REMARK SMILES IDX 50 79 52 80 54 81 51 82
REMARK H PARENT 15 20 15 21 15 22 71 44 45 55
REMARK Flexibility Score: inf
ROOT
ATOM      1  C   UNL A   1      32.815  29.253  24.538  1.00  0.00     0.274 C 
ENDROOT
BRANCH   1   2
ATOM      2  O   UNL A   1      32.407  27.895  24.259  1.00  0.00    -0.457 OA
BRANCH   2   3
ATOM      3  C   UNL A   1      32.628  26.997  25.252  1.00  0.00     0.368 C 
ATOM      4  O   UNL A   1      33.745  26.637  25.615  1.00  0.00    -0.245 OA
BRANCH   3   5
ATOM      5  C   UNL A   1      31.333  26.316  25.794  1.00  0.00     0.195 C 
ATOM      6  C   UNL A   1      31.232  24.780  25.864  1.00  0.00     0.063 C 
ATOM      7  C   UNL A   1      31.110  24.371  24.402  1.00  0.00     0.011 C 
ATOM      8  C   UNL A   1      30.101  25.380  23.866  1.00  0.00     0.008 C 
ATOM      9  C   UNL A   1      30.188  26.609  24.786  1.00  0.00     0.081 C 
BRANCH   6  10
ATOM     10  C   UNL A   1      32.204  23.932  26.679  1.00  0.00     0.022 C 
BRANCH  10  11
ATOM     11  C   UNL A   1      33.216  23.130  25.846  1.00  0.00     0.079 C 
BRANCH  11  12
ATOM     12  S   UNL A   1      33.342  21.326  26.110  1.00  0.00    -0.088 SA
BRANCH  12  13
ATOM     13  C   UNL A   1      32.801  20.571  24.649  1.00  0.00     0.167 A 
ATOM     14  C   UNL A   1      32.780  18.140  25.388  1.00  0.00     0.152 C 
ATOM     15  N   UNL A   1      32.590  19.228  24.466  1.00  0.00    -0.329 N 
ATOM     16  C   UNL A   1      32.152  19.056  23.172  1.00  0.00     0.108 A 
ATOM     17  C   UNL A   1      32.155  20.314  22.620  1.00  0.00     0.132 A 
ATOM     18  N   UNL A   1      32.559  21.244  23.542  1.00  0.00    -0.231 NA
ENDBRANCH  12  13
ENDBRANCH  11  12
ENDBRANCH  10  11
ENDBRANCH   6  10
BRANCH   5  19
ATOM     19  N   UNL A   1      31.025  26.955  27.101  1.00  0.00    -0.343 N 
ATOM     20  H   UNL A   1      30.785  27.935  26.953  1.00  0.00     0.345 HD
ATOM     21  H   UNL A   1      31.840  26.892  27.711  1.00  0.00     0.345 HD
ATOM     22  H   UNL A   1      30.237  26.474  27.537  1.00  0.00     0.345 HD
ENDBRANCH   5  19
ENDBRANCH   3   5
ENDBRANCH   2   3
ENDBRANCH   1   2
BRANCH   1  23
ATOM     23  C   UNL A   1      31.784  29.986  25.389  1.00  0.00     0.275 C 
BRANCH  23  24
ATOM     24  O   UNL A   1      32.221  30.015  26.758  1.00  0.00    -0.458 OA
BRANCH  24  25
ATOM     25  C   UNL A   1      32.842  31.149  27.144  1.00  0.00     0.338 C 
ATOM     26  O   UNL A   1      32.345  32.266  27.232  1.00  0.00    -0.246 OA
BRANCH  25  27
ATOM     27  C   UNL A   1      34.245  30.881  27.515  1.00  0.00     0.060 A 
ATOM     28  C   UNL A   1      34.708  29.575  27.678  1.00  0.00     0.016 A 
ATOM     29  C   UNL A   1      35.061  31.953  27.874  1.00  0.00     0.016 A 
ATOM     30  C   UNL A   1      35.914  29.344  28.346  1.00  0.00     0.010 A 
ATOM     31  C   UNL A   1      36.318  31.715  28.438  1.00  0.00     0.010 A 
ATOM     32  C   UNL A   1      36.732  30.408  28.753  1.00  0.00    -0.014 A 
BRANCH  32  33
ATOM     33  C   UNL A   1      37.953  30.197  29.589  1.00  0.00     0.031 A 
ATOM     34  C   UNL A   1      39.123  29.429  29.020  1.00  0.00     0.074 A 
ATOM     35  C   UNL A   1      38.060  30.682  30.842  1.00  0.00     0.049 A 
ATOM     36  N   UNL A   1      40.114  28.840  29.642  1.00  0.00    -0.248 NA
ATOM     37  C   UNL A   1      39.168  29.286  27.555  1.00  0.00     0.031 C 
ATOM     38  C   UNL A   1      37.080  31.525  31.524  1.00  0.00     0.029 A 
ATOM     39  N   UNL A   1      39.065  30.532  31.767  1.00  0.00    -0.354 N 
ATOM     40  C   UNL A   1      40.831  28.166  28.659  1.00  0.00     0.074 A 
ATOM     41  C   UNL A   1      40.182  28.446  27.396  1.00  0.00     0.031 C 
ATOM     42  C   UNL A   1      37.559  31.869  32.730  1.00  0.00     0.029 A 
ATOM     43  C   UNL A   1      38.820  31.174  32.955  1.00  0.00     0.049 A 
ATOM     44  H   UNL A   1      39.884  30.012  31.594  1.00  0.00     0.167 HD
ATOM     45  C   UNL A   1      41.921  27.372  28.802  1.00  0.00     0.037 A 
ATOM     46  C   UNL A   1      39.499  31.163  34.117  1.00  0.00     0.037 A 
ATOM     47  C   UNL A   1      42.632  27.185  30.041  1.00  0.00     0.049 A 
ATOM     48  C   UNL A   1      40.705  30.283  34.265  1.00  0.00     0.074 A 
ATOM     49  C   UNL A   1      43.742  26.398  30.294  1.00  0.00     0.029 A 
ATOM     50  N   UNL A   1      42.324  27.833  31.227  1.00  0.00    -0.354 N 
ATOM     51  N   UNL A   1      41.279  29.511  33.375  1.00  0.00    -0.248 NA
ATOM     52  C   UNL A   1      41.330  30.239  35.594  1.00  0.00     0.031 C 
ATOM     53  C   UNL A   1      44.101  26.563  31.637  1.00  0.00     0.029 A 
ATOM     54  C   UNL A   1      43.230  27.474  32.211  1.00  0.00     0.049 A 
ATOM     55  H   UNL A   1      41.572  28.456  31.351  1.00  0.00     0.167 HD
ATOM     56  C   UNL A   1      42.334  28.894  34.033  1.00  0.00     0.074 A 
ATOM     57  C   UNL A   1      42.333  29.395  35.392  1.00  0.00     0.031 C 
ATOM     58  C   UNL A   1      43.220  27.987  33.556  1.00  0.00     0.037 A 
BRANCH  45  59
ATOM     59  C   UNL A   1      42.381  26.606  27.597  1.00  0.00     0.057 A 
ATOM     60  C   UNL A   1      41.919  25.319  27.300  1.00  0.00     0.134 A 
ATOM     61  C   UNL A   1      43.297  27.184  26.707  1.00  0.00     0.134 A 
ATOM     62  F   UNL A   1      41.054  24.702  28.118  1.00  0.00    -0.206 F 
ATOM     63  C   UNL A   1      42.373  24.623  26.176  1.00  0.00     0.040 A 
ATOM     64  C   UNL A   1      43.738  26.510  25.567  1.00  0.00     0.040 A 
ATOM     65  F   UNL A   1      43.773  28.419  26.929  1.00  0.00    -0.206 F 
ATOM     66  C   UNL A   1      43.282  25.221  25.304  1.00  0.00     0.006 A 
ENDBRANCH  45  59
BRANCH  46  67
ATOM     67  C   UNL A   1      39.020  31.986  35.256  1.00  0.00     0.057 A 
ATOM     68  C   UNL A   1      38.228  31.421  36.261  1.00  0.00     0.134 A 
ATOM     69  C   UNL A   1      39.358  33.338  35.379  1.00  0.00     0.134 A 
ATOM     70  F   UNL A   1      37.851  30.136  36.181  1.00  0.00    -0.206 F 
ATOM     71  C   UNL A   1      37.792  32.171  37.354  1.00  0.00     0.040 A 
ATOM     72  C   UNL A   1      38.950  34.095  36.479  1.00  0.00     0.040 A 
ATOM     73  F   UNL A   1      40.114  33.935  34.447  1.00  0.00    -0.206 F 
ATOM     74  C   UNL A   1      38.163  33.511  37.469  1.00  0.00     0.006 A 
ENDBRANCH  46  67
BRANCH  58  75
ATOM     75  C   UNL A   1      44.281  27.511  34.501  1.00  0.00     0.057 A 
ATOM     76  C   UNL A   1      45.499  28.188  34.640  1.00  0.00     0.134 A 
ATOM     77  C   UNL A   1      44.075  26.372  35.287  1.00  0.00     0.134 A 
ATOM     78  F   UNL A   1      45.760  29.278  33.902  1.00  0.00    -0.206 F 
ATOM     79  C   UNL A   1      46.485  27.735  35.518  1.00  0.00     0.040 A 
ATOM     80  C   UNL A   1      45.047  25.918  36.179  1.00  0.00     0.040 A 
ATOM     81  F   UNL A   1      42.929  25.683  35.200  1.00  0.00    -0.206 F 
ATOM     82  C   UNL A   1      46.259  26.598  36.293  1.00  0.00     0.006 A 
ENDBRANCH  58  75
ENDBRANCH  32  33
ENDBRANCH  25  27
ENDBRANCH  24  25
ENDBRANCH  23  24
ENDBRANCH   1  23
TORSDOF 16
ENDMDL
MODEL 2
REMARK VINA RESULT:     -10.5      1.343      2.176
REMARK SMILES Cn1ccnc1SCC[C@@H]1CCC[C@]1([NH3+])C(=O)OCCOC(=O)c1ccc(-c2c3nc(c(-c4c(F)cccc4F)c4ccc([nH]4)c(-c4c(F)cccc4F)c4nc(c(-c5c(F)cccc5F)c5ccc2[nH]5)C=C4)C=C3)cc1
REMARK SMILES IDX 19 1 18 2 16 3 17 4 14 5 10 6 11 7 12 8 13 9 9 10 8 11 7 12
REMARK SMILES IDX 6 13 1 14 2 15 3 16 4 17 5 18 15 19 20 23 21 24 22 25 23 26
REMARK SMILES IDX 24 27 25 28 77 29 26 30 76 31 27 32 28 33 29 34 70 35 30 36
REMARK SMILES IDX 75 37 69 38 71 39 31 40 74 41 68 42 67 43 32 45 58 46 41 47
REMARK SMILES IDX 57 48 42 49 45 50 56 51 72 52 43 53 44 54 55 56 73 57 46 58
REMARK SMILES IDX 33 59 34 60 39 61 35 62 36 63 38 64 40 65 37 66 59 67 60 68
REMARK SMILES IDX 65 69 61 70 62 71 64 72 66 73 63 74 47 75 48 76 53 77 49 78
REMARK SMILES IDX 50 79 52 80 54 81 51 82
REMARK H PARENT 15 20 15 21 15 22 71 44 45 55
REMARK Flexibility Score: inf
ROOT
ATOM      1  C   UNL A   1      32.229  28.516  24.947  1.00  0.00     0.274 C 
ENDROOT
BRANCH   1   2
ATOM      2  O   UNL A   1      31.215  27.487  24.921  1.00  0.00    -0.457 OA
BRANCH   2   3
ATOM      3  C   UNL A   1      31.456  26.402  25.701  1.00  0.00     0.368 C 
ATOM      4  O   UNL A   1      32.401  26.313  26.480  1.00  0.00    -0.245 OA
BRANCH   3   5
ATOM      5  C   UNL A   1      30.523  25.186  25.406  1.00  0.00     0.195 C 
ATOM      6  C   UNL A   1      31.091  23.754  25.392  1.00  0.00     0.063 C 
ATOM      7  C   UNL A   1      31.922  23.720  24.115  1.00  0.00     0.011 C 
ATOM      8  C   UNL A   1      31.001  24.400  23.110  1.00  0.00     0.008 C 
ATOM      9  C   UNL A   1      30.056  25.298  23.928  1.00  0.00     0.081 C 
BRANCH   6  10
ATOM     10  C   UNL A   1      31.774  23.133  26.608  1.00  0.00     0.022 C 
BRANCH  10  11
ATOM     11  C   UNL A   1      33.099  22.416  26.307  1.00  0.00     0.079 C 
BRANCH  11  12
ATOM     12  S   UNL A   1      34.664  23.340  26.495  1.00  0.00    -0.088 SA
BRANCH  12  13
ATOM     13  C   UNL A   1      35.918  22.326  25.866  1.00  0.00     0.167 A 
ATOM     14  C   UNL A   1      37.918  23.869  26.147  1.00  0.00     0.152 C 
ATOM     15  N   UNL A   1      37.249  22.649  25.780  1.00  0.00    -0.329 N 
ATOM     16  C   UNL A   1      37.898  21.563  25.238  1.00  0.00     0.108 A 
ATOM     17  C   UNL A   1      36.911  20.641  24.987  1.00  0.00     0.132 A 
ATOM     18  N   UNL A   1      35.690  21.124  25.378  1.00  0.00    -0.231 NA
ENDBRANCH  12  13
ENDBRANCH  11  12
ENDBRANCH  10  11
ENDBRANCH   6  10
BRANCH   5  19
ATOM     19  N   UNL A   1      29.351  25.312  26.311  1.00  0.00    -0.343 N 
ATOM     20  H   UNL A   1      29.011  26.273  26.297  1.00  0.00     0.345 HD
ATOM     21  H   UNL A   1      29.627  25.063  27.261  1.00  0.00     0.345 HD
ATOM     22  H   UNL A   1      28.610  24.685  25.997  1.00  0.00     0.345 HD
ENDBRANCH   5  19
ENDBRANCH   3   5
ENDBRANCH   2   3
ENDBRANCH   1   2
BRANCH   1  23
ATOM     23  C   UNL A   1      31.681  29.830  25.495  1.00  0.00     0.275 C 
BRANCH  23  24
ATOM     24  O   UNL A   1      32.127  30.010  26.849  1.00  0.00    -0.458 OA
BRANCH  24  25
ATOM     25  C   UNL A   1      32.777  31.166  27.097  1.00  0.00     0.338 C 
ATOM     26  O   UNL A   1      32.300  32.295  27.086  1.00  0.00    -0.246 OA
BRANCH  25  27
ATOM     27  C   UNL A   1      34.189  30.912  27.445  1.00  0.00     0.060 A 
ATOM     28  C   UNL A   1      34.664  29.612  27.613  1.00  0.00     0.016 A 
ATOM     29  C   UNL A   1      35.003  31.993  27.779  1.00  0.00     0.016 A 
ATOM     30  C   UNL A   1      35.883  29.395  28.262  1.00  0.00     0.010 A 
ATOM     31  C   UNL A   1      36.270  31.770  28.324  1.00  0.00     0.010 A 
ATOM     32  C   UNL A   1      36.700  30.469  28.643  1.00  0.00    -0.014 A 
BRANCH  32  33
ATOM     33  C   UNL A   1      37.937  30.276  29.460  1.00  0.00     0.031 A 
ATOM     34  C   UNL A   1      39.097  29.497  28.884  1.00  0.00     0.074 A 
ATOM     35  C   UNL A   1      38.068  30.785  30.701  1.00  0.00     0.049 A 
ATOM     36  N   UNL A   1      40.100  28.920  29.498  1.00  0.00    -0.248 NA
ATOM     37  C   UNL A   1      39.114  29.325  27.422  1.00  0.00     0.031 C 
ATOM     38  C   UNL A   1      37.101  31.641  31.385  1.00  0.00     0.029 A 
ATOM     39  N   UNL A   1      39.091  30.653  31.609  1.00  0.00    -0.354 N 
ATOM     40  C   UNL A   1      40.799  28.228  28.515  1.00  0.00     0.074 A 
ATOM     41  C   UNL A   1      40.125  28.483  27.259  1.00  0.00     0.031 C 
ATOM     42  C   UNL A   1      37.602  32.009  32.574  1.00  0.00     0.029 A 
ATOM     43  C   UNL A   1      38.868  31.319  32.789  1.00  0.00     0.049 A 
ATOM     44  H   UNL A   1      39.907  30.131  31.431  1.00  0.00     0.167 HD
ATOM     45  C   UNL A   1      41.892  27.437  28.652  1.00  0.00     0.037 A 
ATOM     46  C   UNL A   1      39.569  31.331  33.938  1.00  0.00     0.037 A 
ATOM     47  C   UNL A   1      42.626  27.275  29.881  1.00  0.00     0.049 A 
ATOM     48  C   UNL A   1      40.778  30.455  34.079  1.00  0.00     0.074 A 
ATOM     49  C   UNL A   1      43.742  26.494  30.128  1.00  0.00     0.029 A 
ATOM     50  N   UNL A   1      42.341  27.946  31.060  1.00  0.00    -0.354 N 
ATOM     51  N   UNL A   1      41.336  29.666  33.194  1.00  0.00    -0.248 NA
ATOM     52  C   UNL A   1      41.430  30.438  35.397  1.00  0.00     0.031 C 
ATOM     53  C   UNL A   1      44.126  26.685  31.460  1.00  0.00     0.029 A 
ATOM     54  C   UNL A   1      43.266  27.607  32.033  1.00  0.00     0.049 A 
ATOM     55  H   UNL A   1      41.591  28.571  31.186  1.00  0.00     0.167 HD
ATOM     56  C   UNL A   1      42.404  29.062  33.844  1.00  0.00     0.074 A 
ATOM     57  C   UNL A   1      42.428  29.590  35.193  1.00  0.00     0.031 C 
ATOM     58  C   UNL A   1      43.282  28.146  33.368  1.00  0.00     0.037 A 
BRANCH  45  59
ATOM     59  C   UNL A   1      42.329  26.648  27.454  1.00  0.00     0.057 A 
ATOM     60  C   UNL A   1      43.230  27.148  26.508  1.00  0.00     0.134 A 
ATOM     61  C   UNL A   1      41.843  25.347  27.257  1.00  0.00     0.134 A 
ATOM     62  F   UNL A   1      43.721  28.390  26.628  1.00  0.00    -0.206 F 
ATOM     63  C   UNL A   1      43.612  26.394  25.395  1.00  0.00     0.040 A 
ATOM     64  C   UNL A   1      42.236  24.575  26.163  1.00  0.00     0.040 A 
ATOM     65  F   UNL A   1      40.981  24.804  28.131  1.00  0.00    -0.206 F 
ATOM     66  C   UNL A   1      43.117  25.102  25.224  1.00  0.00     0.006 A 
ENDBRANCH  45  59
BRANCH  46  67
ATOM     67  C   UNL A   1      39.111  32.176  35.069  1.00  0.00     0.057 A 
ATOM     68  C   UNL A   1      38.310  31.639  36.082  1.00  0.00     0.134 A 
ATOM     69  C   UNL A   1      39.479  33.522  35.177  1.00  0.00     0.134 A 
ATOM     70  F   UNL A   1      37.906  30.362  36.017  1.00  0.00    -0.206 F 
ATOM     71  C   UNL A   1      37.895  32.410  37.169  1.00  0.00     0.040 A 
ATOM     72  C   UNL A   1      39.091  34.298  36.270  1.00  0.00     0.040 A 
ATOM     73  F   UNL A   1      40.245  34.093  34.236  1.00  0.00    -0.206 F 
ATOM     74  C   UNL A   1      38.295  33.742  37.269  1.00  0.00     0.006 A 
ENDBRANCH  46  67
BRANCH  58  75
ATOM     75  C   UNL A   1      44.360  27.690  34.301  1.00  0.00     0.057 A 
ATOM     76  C   UNL A   1      44.201  26.559  35.112  1.00  0.00     0.134 A 
ATOM     77  C   UNL A   1      45.574  28.381  34.379  1.00  0.00     0.134 A 
ATOM     78  F   UNL A   1      43.054  25.863  35.092  1.00  0.00    -0.206 F 
ATOM     79  C   UNL A   1      45.209  26.143  35.984  1.00  0.00     0.040 A 
ATOM     80  C   UNL A   1      46.595  27.966  35.235  1.00  0.00     0.040 A 
ATOM     81  F   UNL A   1      45.787  29.470  33.626  1.00  0.00    -0.206 F 
ATOM     82  C   UNL A   1      46.411  26.846  36.045  1.00  0.00     0.006 A 
ENDBRANCH  58  75
ENDBRANCH  32  33
ENDBRANCH  25  27
ENDBRANCH  24  25
ENDBRANCH  23  24
ENDBRANCH   1  23
TORSDOF 16
ENDMDL
MODEL 3
REMARK VINA RESULT:     -10.4      4.194      8.931
REMARK SMILES Cn1ccnc1SCC[C@@H]1CCC[C@]1([NH3+])C(=O)OCCOC(=O)c1ccc(-c2c3nc(c(-c4c(F)cccc4F)c4ccc([nH]4)c(-c4c(F)cccc4F)c4nc(c(-c5c(F)cccc5F)c5ccc2[nH]5)C=C4)C=C3)cc1
REMARK SMILES IDX 19 1 18 2 16 3 17 4 14 5 10 6 11 7 12 8 13 9 9 10 8 11 7 12
REMARK SMILES IDX 6 13 1 14 2 15 3 16 4 17 5 18 15 19 20 23 21 24 22 25 23 26
REMARK SMILES IDX 24 27 25 28 77 29 26 30 76 31 27 32 28 33 29 34 70 35 30 36
REMARK SMILES IDX 75 37 69 38 71 39 31 40 74 41 68 42 67 43 32 45 58 46 41 47
REMARK SMILES IDX 57 48 42 49 45 50 56 51 72 52 43 53 44 54 55 56 73 57 46 58
REMARK SMILES IDX 33 59 34 60 39 61 35 62 36 63 38 64 40 65 37 66 59 67 60 68
REMARK SMILES IDX 65 69 61 70 62 71 64 72 66 73 63 74 47 75 48 76 53 77 49 78
REMARK SMILES IDX 50 79 52 80 54 81 51 82
REMARK H PARENT 15 20 15 21 15 22 71 44 45 55
REMARK Flexibility Score: inf
ROOT
ATOM      1  C   UNL A   1      34.866  20.480  24.862  1.00  0.00     0.274 C 
ENDROOT
BRANCH   1   2
ATOM      2  O   UNL A   1      33.758  21.332  24.492  1.00  0.00    -0.457 OA
BRANCH   2   3
ATOM      3  C   UNL A   1      32.612  21.147  25.195  1.00  0.00     0.368 C 
ATOM      4  O   UNL A   1      32.049  20.062  25.317  1.00  0.00    -0.245 OA
BRANCH   3   5
ATOM      5  C   UNL A   1      31.958  22.468  25.706  1.00  0.00     0.195 C 
ATOM      6  C   UNL A   1      31.960  23.731  24.822  1.00  0.00     0.063 C 
ATOM      7  C   UNL A   1      33.417  24.173  24.847  1.00  0.00     0.011 C 
ATOM      8  C   UNL A   1      33.775  24.029  26.321  1.00  0.00     0.008 C 
ATOM      9  C   UNL A   1      32.807  22.983  26.901  1.00  0.00     0.081 C 
BRANCH   6  10
ATOM     10  C   UNL A   1      31.312  23.763  23.441  1.00  0.00     0.022 C 
BRANCH  10  11
ATOM     11  C   UNL A   1      30.589  25.075  23.098  1.00  0.00     0.079 C 
BRANCH  11  12
ATOM     12  S   UNL A   1      31.513  26.387  22.223  1.00  0.00    -0.088 SA
BRANCH  12  13
ATOM     13  C   UNL A   1      30.830  27.896  22.729  1.00  0.00     0.167 A 
ATOM     14  C   UNL A   1      31.787  28.049  25.079  1.00  0.00     0.152 C 
ATOM     15  N   UNL A   1      31.024  28.501  23.945  1.00  0.00    -0.329 N 
ATOM     16  C   UNL A   1      30.319  29.683  23.930  1.00  0.00     0.108 A 
ATOM     17  C   UNL A   1      29.697  29.717  22.706  1.00  0.00     0.132 A 
ATOM     18  N   UNL A   1      30.020  28.606  21.972  1.00  0.00    -0.231 NA
ENDBRANCH  12  13
ENDBRANCH  11  12
ENDBRANCH  10  11
ENDBRANCH   6  10
BRANCH   5  19
ATOM     19  N   UNL A   1      30.592  22.119  26.177  1.00  0.00    -0.343 N 
ATOM     20  H   UNL A   1      30.657  21.565  27.030  1.00  0.00     0.345 HD
ATOM     21  H   UNL A   1      30.111  21.580  25.457  1.00  0.00     0.345 HD
ATOM     22  H   UNL A   1      30.069  22.975  26.366  1.00  0.00     0.345 HD
ENDBRANCH   5  19
ENDBRANCH   3   5
ENDBRANCH   2   3
ENDBRANCH   1   2
BRANCH   1  23
ATOM     23  C   UNL A   1      35.883  21.223  25.722  1.00  0.00     0.275 C 
BRANCH  23  24
ATOM     24  O   UNL A   1      37.017  21.588  24.919  1.00  0.00    -0.458 OA
BRANCH  24  25
ATOM     25  C   UNL A   1      38.221  21.274  25.439  1.00  0.00     0.338 C 
ATOM     26  O   UNL A   1      38.844  20.231  25.276  1.00  0.00    -0.246 OA
BRANCH  25  27
ATOM     27  C   UNL A   1      38.761  22.397  26.231  1.00  0.00     0.060 A 
ATOM     28  C   UNL A   1      38.245  23.686  26.094  1.00  0.00     0.016 A 
ATOM     29  C   UNL A   1      39.913  22.192  26.989  1.00  0.00     0.016 A 
ATOM     30  C   UNL A   1      38.968  24.779  26.579  1.00  0.00     0.010 A 
ATOM     31  C   UNL A   1      40.570  23.281  27.568  1.00  0.00     0.010 A 
ATOM     32  C   UNL A   1      40.151  24.598  27.310  1.00  0.00    -0.014 A 
BRANCH  32  33
ATOM     33  C   UNL A   1      41.017  25.746  27.719  1.00  0.00     0.031 A 
ATOM     34  C   UNL A   1      40.466  26.801  28.650  1.00  0.00     0.074 A 
ATOM     35  C   UNL A   1      42.290  25.874  27.296  1.00  0.00     0.049 A 
ATOM     36  N   UNL A   1      40.886  28.023  28.864  1.00  0.00    -0.248 NA
ATOM     37  C   UNL A   1      39.268  26.436  29.423  1.00  0.00     0.031 C 
ATOM     38  C   UNL A   1      43.025  24.913  26.476  1.00  0.00     0.029 A 
ATOM     39  N   UNL A   1      43.199  26.883  27.513  1.00  0.00    -0.354 N 
ATOM     40  C   UNL A   1      39.943  28.605  29.706  1.00  0.00     0.074 A 
ATOM     41  C   UNL A   1      38.948  27.592  29.989  1.00  0.00     0.031 C 
ATOM     42  C   UNL A   1      44.285  25.345  26.313  1.00  0.00     0.029 A 
ATOM     43  C   UNL A   1      44.414  26.668  26.911  1.00  0.00     0.049 A 
ATOM     44  H   UNL A   1      42.997  27.683  28.049  1.00  0.00     0.167 HD
ATOM     45  C   UNL A   1      39.904  29.873  30.183  1.00  0.00     0.037 A 
ATOM     46  C   UNL A   1      45.493  27.464  26.800  1.00  0.00     0.037 A 
ATOM     47  C   UNL A   1      40.950  30.845  29.992  1.00  0.00     0.049 A 
ATOM     48  C   UNL A   1      45.441  28.865  27.333  1.00  0.00     0.074 A 
ATOM     49  C   UNL A   1      41.006  32.157  30.428  1.00  0.00     0.029 A 
ATOM     50  N   UNL A   1      42.150  30.588  29.346  1.00  0.00    -0.354 N 
ATOM     51  N   UNL A   1      44.474  29.469  27.980  1.00  0.00    -0.248 NA
ATOM     52  C   UNL A   1      46.615  29.712  27.079  1.00  0.00     0.031 C 
ATOM     53  C   UNL A   1      42.236  32.699  30.036  1.00  0.00     0.029 A 
ATOM     54  C   UNL A   1      42.956  31.713  29.382  1.00  0.00     0.049 A 
ATOM     55  H   UNL A   1      42.391  29.733  28.924  1.00  0.00     0.167 HD
ATOM     56  C   UNL A   1      44.923  30.760  28.215  1.00  0.00     0.074 A 
ATOM     57  C   UNL A   1      46.257  30.850  27.657  1.00  0.00     0.031 C 
ATOM     58  C   UNL A   1      44.284  31.785  28.830  1.00  0.00     0.037 A 
BRANCH  45  59
ATOM     59  C   UNL A   1      38.665  30.299  30.914  1.00  0.00     0.057 A 
ATOM     60  C   UNL A   1      38.513  30.143  32.296  1.00  0.00     0.134 A 
ATOM     61  C   UNL A   1      37.607  30.895  30.212  1.00  0.00     0.134 A 
ATOM     62  F   UNL A   1      39.480  29.566  33.025  1.00  0.00    -0.206 F 
ATOM     63  C   UNL A   1      37.343  30.538  32.951  1.00  0.00     0.040 A 
ATOM     64  C   UNL A   1      36.444  31.318  30.858  1.00  0.00     0.040 A 
ATOM     65  F   UNL A   1      37.692  31.082  28.886  1.00  0.00    -0.206 F 
ATOM     66  C   UNL A   1      36.307  31.132  32.230  1.00  0.00     0.006 A 
ENDBRANCH  45  59
BRANCH  46  67
ATOM     67  C   UNL A   1      46.707  26.963  26.109  1.00  0.00     0.057 A 
ATOM     68  C   UNL A   1      47.649  26.188  26.795  1.00  0.00     0.134 A 
ATOM     69  C   UNL A   1      46.942  27.222  24.754  1.00  0.00     0.134 A 
ATOM     70  F   UNL A   1      47.489  25.929  28.101  1.00  0.00    -0.206 F 
ATOM     71  C   UNL A   1      48.782  25.684  26.155  1.00  0.00     0.040 A 
ATOM     72  C   UNL A   1      48.058  26.705  24.096  1.00  0.00     0.040 A 
ATOM     73  F   UNL A   1      46.076  27.960  24.046  1.00  0.00    -0.206 F 
ATOM     74  C   UNL A   1      48.983  25.934  24.797  1.00  0.00     0.006 A 
ENDBRANCH  46  67
BRANCH  58  75
ATOM     75  C   UNL A   1      45.036  33.073  28.964  1.00  0.00     0.057 A 
ATOM     76  C   UNL A   1      45.898  33.312  30.042  1.00  0.00     0.134 A 
ATOM     77  C   UNL A   1      44.907  34.077  27.999  1.00  0.00     0.134 A 
ATOM     78  F   UNL A   1      46.053  32.393  31.007  1.00  0.00    -0.206 F 
ATOM     79  C   UNL A   1      46.591  34.518  30.164  1.00  0.00     0.040 A 
ATOM     80  C   UNL A   1      45.606  35.280  28.101  1.00  0.00     0.040 A 
ATOM     81  F   UNL A   1      44.098  33.906  26.943  1.00  0.00    -0.206 F 
ATOM     82  C   UNL A   1      46.448  35.505  29.189  1.00  0.00     0.006 A 
ENDBRANCH  58  75
ENDBRANCH  32  33
ENDBRANCH  25  27
ENDBRANCH  24  25
ENDBRANCH  23  24
ENDBRANCH   1  23
TORSDOF 16
ENDMDL
