MODEL 1
REMARK VINA RESULT:     -11.2      0.000      0.000
REMARK SMILES CCc1nn(-c2ccncn2)c(Cl)c1C(=O)OCCOC(=O)c1ccc(-c2c3nc(c(-c4c(F)cccc4F)c4ccc([nH]4)c(-c4c(F)cccc4F)c4nc(c(-c5c(F)cccc5F)c5ccc2[nH]5)C=C4)C=C3)cc1
REMARK SMILES IDX 19 1 18 2 17 3 15 4 16 5 14 6 3 7 4 8 5 9 12 10 13 11 2 12
REMARK SMILES IDX 1 13 6 14 7 15 11 16 8 17 10 18 9 19 20 20 21 21 22 22 23 23
REMARK SMILES IDX 24 24 76 25 25 26 75 27 26 28 27 29 28 30 69 31 29 32 74 33
REMARK SMILES IDX 68 34 70 35 30 36 73 37 67 38 66 39 31 41 57 42 40 43 56 44
REMARK SMILES IDX 41 45 44 46 55 47 71 48 42 49 43 50 54 52 72 53 45 54 32 55
REMARK SMILES IDX 33 56 38 57 34 58 35 59 37 60 39 61 36 62 58 63 59 64 64 65
REMARK SMILES IDX 60 66 61 67 63 68 65 69 62 70 46 71 47 72 52 73 48 74 49 75
REMARK SMILES IDX 51 76 53 77 50 78
REMARK H PARENT 70 40 44 51
REMARK Flexibility Score: inf
ROOT
ATOM      1  C   UNL A   1      38.550  22.255  26.109  1.00  0.00     0.275 C 
ENDROOT
BRANCH   1   2
ATOM      2  C   UNL A   1      37.485  23.315  25.859  1.00  0.00     0.275 C 
BRANCH   2   3
ATOM      3  O   UNL A   1      36.171  22.745  25.968  1.00  0.00    -0.458 OA
BRANCH   3   4
ATOM      4  C   UNL A   1      35.375  22.876  24.868  1.00  0.00     0.343 C 
ATOM      5  O   UNL A   1      35.515  23.765  24.035  1.00  0.00    -0.246 OA
BRANCH   4   6
ATOM      6  C   UNL A   1      34.404  21.808  24.740  1.00  0.00     0.120 A 
ATOM      7  C   UNL A   1      32.982  21.845  24.623  1.00  0.00     0.079 A 
ATOM      8  N   UNL A   1      32.452  20.619  24.473  1.00  0.00    -0.169 NA
ATOM      9  N   UNL A   1      33.507  19.774  24.613  1.00  0.00    -0.203 N 
ATOM     10  C   UNL A   1      34.684  20.463  24.776  1.00  0.00     0.149 A 
ATOM     11  Cl  UNL A   1      36.172  19.633  24.941  1.00  0.00    -0.061 Cl
BRANCH   7  12
ATOM     12  C   UNL A   1      32.079  23.038  24.637  1.00  0.00     0.056 C 
ATOM     13  C   UNL A   1      31.212  23.094  25.884  1.00  0.00     0.011 C 
ENDBRANCH   7  12
BRANCH   9  14
ATOM     14  C   UNL A   1      33.335  18.367  24.578  1.00  0.00     0.158 A 
ATOM     15  C   UNL A   1      32.779  17.750  25.684  1.00  0.00     0.069 A 
ATOM     16  N   UNL A   1      33.843  17.694  23.520  1.00  0.00    -0.217 NA
ATOM     17  C   UNL A   1      32.792  16.377  25.661  1.00  0.00     0.117 A 
ATOM     18  C   UNL A   1      33.821  16.360  23.626  1.00  0.00     0.224 A 
ATOM     19  N   UNL A   1      33.321  15.657  24.654  1.00  0.00    -0.245 NA
ENDBRANCH   9  14
ENDBRANCH   4   6
ENDBRANCH   3   4
ENDBRANCH   2   3
ENDBRANCH   1   2
BRANCH   1  20
ATOM     20  O   UNL A   1      39.540  22.709  27.034  1.00  0.00    -0.458 OA
BRANCH  20  21
ATOM     21  C   UNL A   1      40.737  23.027  26.497  1.00  0.00     0.338 C 
ATOM     22  O   UNL A   1      41.513  22.279  25.926  1.00  0.00    -0.246 OA
BRANCH  21  23
ATOM     23  C   UNL A   1      41.090  24.395  26.890  1.00  0.00     0.060 A 
ATOM     24  C   UNL A   1      41.860  24.563  28.045  1.00  0.00     0.016 A 
ATOM     25  C   UNL A   1      40.452  25.477  26.268  1.00  0.00     0.016 A 
ATOM     26  C   UNL A   1      41.869  25.799  28.660  1.00  0.00     0.010 A 
ATOM     27  C   UNL A   1      40.459  26.706  26.882  1.00  0.00     0.010 A 
ATOM     28  C   UNL A   1      41.107  26.837  28.107  1.00  0.00    -0.014 A 
BRANCH  28  29
ATOM     29  C   UNL A   1      41.084  28.114  28.794  1.00  0.00     0.031 A 
ATOM     30  C   UNL A   1      42.216  29.002  28.424  1.00  0.00     0.074 A 
ATOM     31  C   UNL A   1      40.050  28.493  29.571  1.00  0.00     0.049 A 
ATOM     32  N   UNL A   1      43.134  29.486  29.194  1.00  0.00    -0.248 NA
ATOM     33  C   UNL A   1      42.433  29.267  26.991  1.00  0.00     0.031 C 
ATOM     34  C   UNL A   1      38.761  27.819  29.761  1.00  0.00     0.029 A 
ATOM     35  N   UNL A   1      39.898  29.639  30.283  1.00  0.00    -0.354 N 
ATOM     36  C   UNL A   1      43.938  30.275  28.373  1.00  0.00     0.074 A 
ATOM     37  C   UNL A   1      43.561  29.977  27.018  1.00  0.00     0.031 C 
ATOM     38  C   UNL A   1      37.888  28.680  30.335  1.00  0.00     0.029 A 
ATOM     39  C   UNL A   1      38.592  29.904  30.673  1.00  0.00     0.049 A 
ATOM     40  H   UNL A   1      40.651  30.233  30.506  1.00  0.00     0.167 HD
ATOM     41  C   UNL A   1      44.691  31.284  28.882  1.00  0.00     0.037 A 
ATOM     42  C   UNL A   1      38.127  31.081  31.164  1.00  0.00     0.037 A 
ATOM     43  C   UNL A   1      44.903  31.115  30.296  1.00  0.00     0.049 A 
ATOM     44  C   UNL A   1      39.302  31.863  31.628  1.00  0.00     0.074 A 
ATOM     45  C   UNL A   1      45.511  30.152  31.076  1.00  0.00     0.029 A 
ATOM     46  N   UNL A   1      44.130  31.858  31.151  1.00  0.00    -0.354 N 
ATOM     47  N   UNL A   1      40.038  31.531  32.652  1.00  0.00    -0.248 NA
ATOM     48  C   UNL A   1      39.933  32.758  30.669  1.00  0.00     0.031 C 
ATOM     49  C   UNL A   1      44.702  30.061  32.244  1.00  0.00     0.029 A 
ATOM     50  C   UNL A   1      43.688  31.014  32.136  1.00  0.00     0.049 A 
ATOM     51  H   UNL A   1      43.930  32.820  31.074  1.00  0.00     0.167 HD
ATOM     52  C   UNL A   1      41.338  31.820  32.262  1.00  0.00     0.074 A 
ATOM     53  C   UNL A   1      41.204  32.643  31.063  1.00  0.00     0.031 C 
ATOM     54  C   UNL A   1      42.398  31.129  32.774  1.00  0.00     0.037 A 
BRANCH  41  55
ATOM     55  C   UNL A   1      44.900  32.607  28.191  1.00  0.00     0.057 A 
ATOM     56  C   UNL A   1      43.829  33.517  28.119  1.00  0.00     0.134 A 
ATOM     57  C   UNL A   1      45.984  32.890  27.335  1.00  0.00     0.134 A 
ATOM     58  F   UNL A   1      42.734  33.354  28.877  1.00  0.00    -0.206 F 
ATOM     59  C   UNL A   1      43.804  34.573  27.202  1.00  0.00     0.040 A 
ATOM     60  C   UNL A   1      45.990  33.972  26.452  1.00  0.00     0.040 A 
ATOM     61  F   UNL A   1      47.047  32.085  27.228  1.00  0.00    -0.206 F 
ATOM     62  C   UNL A   1      44.882  34.797  26.356  1.00  0.00     0.006 A 
ENDBRANCH  41  55
BRANCH  42  63
ATOM     63  C   UNL A   1      36.804  31.708  30.938  1.00  0.00     0.057 A 
ATOM     64  C   UNL A   1      35.941  31.992  32.007  1.00  0.00     0.134 A 
ATOM     65  C   UNL A   1      36.469  32.296  29.705  1.00  0.00     0.134 A 
ATOM     66  F   UNL A   1      36.199  31.514  33.233  1.00  0.00    -0.206 F 
ATOM     67  C   UNL A   1      34.824  32.826  31.862  1.00  0.00     0.040 A 
ATOM     68  C   UNL A   1      35.353  33.124  29.546  1.00  0.00     0.040 A 
ATOM     69  F   UNL A   1      37.264  32.159  28.634  1.00  0.00    -0.206 F 
ATOM     70  C   UNL A   1      34.533  33.405  30.631  1.00  0.00     0.006 A 
ENDBRANCH  42  63
BRANCH  54  71
ATOM     71  C   UNL A   1      42.154  30.219  33.943  1.00  0.00     0.057 A 
ATOM     72  C   UNL A   1      41.799  28.867  33.823  1.00  0.00     0.134 A 
ATOM     73  C   UNL A   1      42.483  30.676  35.224  1.00  0.00     0.134 A 
ATOM     74  F   UNL A   1      41.559  28.316  32.626  1.00  0.00    -0.206 F 
ATOM     75  C   UNL A   1      41.750  28.017  34.933  1.00  0.00     0.040 A 
ATOM     76  C   UNL A   1      42.470  29.832  36.335  1.00  0.00     0.040 A 
ATOM     77  F   UNL A   1      42.886  31.945  35.404  1.00  0.00    -0.206 F 
ATOM     78  C   UNL A   1      42.097  28.497  36.192  1.00  0.00     0.006 A 
ENDBRANCH  54  71
ENDBRANCH  28  29
ENDBRANCH  21  23
ENDBRANCH  20  21
ENDBRANCH   1  20
TORSDOF 13
ENDMDL
MODEL 2
REMARK VINA RESULT:     -11.1      1.958      3.160
REMARK SMILES CCc1nn(-c2ccncn2)c(Cl)c1C(=O)OCCOC(=O)c1ccc(-c2c3nc(c(-c4c(F)cccc4F)c4ccc([nH]4)c(-c4c(F)cccc4F)c4nc(c(-c5c(F)cccc5F)c5ccc2[nH]5)C=C4)C=C3)cc1
REMARK SMILES IDX 19 1 18 2 17 3 15 4 16 5 14 6 3 7 4 8 5 9 12 10 13 11 2 12
REMARK SMILES IDX 1 13 6 14 7 15 11 16 8 17 10 18 9 19 20 20 21 21 22 22 23 23
REMARK SMILES IDX 24 24 76 25 25 26 75 27 26 28 27 29 28 30 69 31 29 32 74 33
REMARK SMILES IDX 68 34 70 35 30 36 73 37 67 38 66 39 31 41 57 42 40 43 56 44
REMARK SMILES IDX 41 45 44 46 55 47 71 48 42 49 43 50 54 52 72 53 45 54 32 55
REMARK SMILES IDX 33 56 38 57 34 58 35 59 37 60 39 61 36 62 58 63 59 64 64 65
REMARK SMILES IDX 60 66 61 67 63 68 65 69 62 70 46 71 47 72 52 73 48 74 49 75
REMARK SMILES IDX 51 76 53 77 50 78
REMARK H PARENT 70 40 44 51
REMARK Flexibility Score: inf
ROOT
ATOM      1  C   UNL A   1      43.547  22.178  25.412  1.00  0.00     0.275 C 
ENDROOT
BRANCH   1   2
ATOM      2  C   UNL A   1      42.555  21.191  26.015  1.00  0.00     0.275 C 
BRANCH   2   3
ATOM      3  O   UNL A   1      41.227  21.453  25.533  1.00  0.00    -0.458 OA
BRANCH   3   4
ATOM      4  C   UNL A   1      40.247  21.484  26.481  1.00  0.00     0.343 C 
ATOM      5  O   UNL A   1      40.403  21.073  27.626  1.00  0.00    -0.246 OA
BRANCH   4   6
ATOM      6  C   UNL A   1      39.034  22.131  26.024  1.00  0.00     0.120 A 
ATOM      7  C   UNL A   1      38.601  23.487  26.125  1.00  0.00     0.079 A 
ATOM      8  N   UNL A   1      37.418  23.690  25.521  1.00  0.00    -0.169 NA
ATOM      9  N   UNL A   1      37.020  22.450  25.132  1.00  0.00    -0.203 N 
ATOM     10  C   UNL A   1      37.969  21.503  25.424  1.00  0.00     0.149 A 
ATOM     11  Cl  UNL A   1      37.729  19.860  25.005  1.00  0.00    -0.061 Cl
BRANCH   7  12
ATOM     12  C   UNL A   1      39.294  24.637  26.785  1.00  0.00     0.056 C 
ATOM     13  C   UNL A   1      39.316  24.510  28.300  1.00  0.00     0.011 C 
ENDBRANCH   7  12
BRANCH   9  14
ATOM     14  C   UNL A   1      35.767  22.243  24.501  1.00  0.00     0.158 A 
ATOM     15  C   UNL A   1      35.404  23.097  23.475  1.00  0.00     0.069 A 
ATOM     16  N   UNL A   1      34.942  21.306  25.023  1.00  0.00    -0.217 NA
ATOM     17  C   UNL A   1      34.116  22.955  23.018  1.00  0.00     0.117 A 
ATOM     18  C   UNL A   1      33.706  21.281  24.512  1.00  0.00     0.224 A 
ATOM     19  N   UNL A   1      33.241  22.068  23.529  1.00  0.00    -0.245 NA
ENDBRANCH   9  14
ENDBRANCH   4   6
ENDBRANCH   3   4
ENDBRANCH   2   3
ENDBRANCH   1   2
BRANCH   1  20
ATOM     20  O   UNL A   1      42.893  23.348  24.919  1.00  0.00    -0.458 OA
BRANCH  20  21
ATOM     21  C   UNL A   1      43.589  24.499  25.039  1.00  0.00     0.338 C 
ATOM     22  O   UNL A   1      44.714  24.729  24.629  1.00  0.00    -0.246 OA
BRANCH  21  23
ATOM     23  C   UNL A   1      42.870  25.401  25.944  1.00  0.00     0.060 A 
ATOM     24  C   UNL A   1      42.082  26.405  25.374  1.00  0.00     0.016 A 
ATOM     25  C   UNL A   1      43.186  25.402  27.311  1.00  0.00     0.016 A 
ATOM     26  C   UNL A   1      41.730  27.491  26.150  1.00  0.00     0.010 A 
ATOM     27  C   UNL A   1      42.838  26.485  28.082  1.00  0.00     0.010 A 
ATOM     28  C   UNL A   1      42.176  27.550  27.477  1.00  0.00    -0.014 A 
BRANCH  28  29
ATOM     29  C   UNL A   1      41.843  28.722  28.262  1.00  0.00     0.031 A 
ATOM     30  C   UNL A   1      42.863  29.799  28.175  1.00  0.00     0.074 A 
ATOM     31  C   UNL A   1      40.654  28.858  28.881  1.00  0.00     0.049 A 
ATOM     32  N   UNL A   1      43.562  30.315  29.131  1.00  0.00    -0.248 NA
ATOM     33  C   UNL A   1      43.257  30.256  26.831  1.00  0.00     0.031 C 
ATOM     34  C   UNL A   1      39.475  27.992  28.785  1.00  0.00     0.029 A 
ATOM     35  N   UNL A   1      40.212  29.881  29.658  1.00  0.00    -0.354 N 
ATOM     36  C   UNL A   1      44.348  31.299  28.536  1.00  0.00     0.074 A 
ATOM     37  C   UNL A   1      44.239  31.110  27.115  1.00  0.00     0.031 C 
ATOM     38  C   UNL A   1      38.397  28.647  29.276  1.00  0.00     0.029 A 
ATOM     39  C   UNL A   1      38.836  29.911  29.840  1.00  0.00     0.049 A 
ATOM     40  H   UNL A   1      40.817  30.546  30.060  1.00  0.00     0.167 HD
ATOM     41  C   UNL A   1      44.843  32.339  29.257  1.00  0.00     0.037 A 
ATOM     42  C   UNL A   1      38.119  30.946  30.349  1.00  0.00     0.037 A 
ATOM     43  C   UNL A   1      44.855  32.040  30.665  1.00  0.00     0.049 A 
ATOM     44  C   UNL A   1      39.068  31.828  31.076  1.00  0.00     0.074 A 
ATOM     45  C   UNL A   1      45.479  31.088  31.447  1.00  0.00     0.029 A 
ATOM     46  N   UNL A   1      43.849  32.562  31.438  1.00  0.00    -0.354 N 
ATOM     47  N   UNL A   1      39.678  31.486  32.177  1.00  0.00    -0.248 NA
ATOM     48  C   UNL A   1      39.691  32.907  30.325  1.00  0.00     0.031 C 
ATOM     49  C   UNL A   1      44.522  30.749  32.445  1.00  0.00     0.029 A 
ATOM     50  C   UNL A   1      43.400  31.555  32.252  1.00  0.00     0.049 A 
ATOM     51  H   UNL A   1      43.514  33.487  31.415  1.00  0.00     0.167 HD
ATOM     52  C   UNL A   1      40.960  32.000  32.045  1.00  0.00     0.074 A 
ATOM     53  C   UNL A   1      40.886  32.929  30.920  1.00  0.00     0.031 C 
ATOM     54  C   UNL A   1      42.023  31.412  32.666  1.00  0.00     0.037 A 
BRANCH  41  55
ATOM     55  C   UNL A   1      44.943  33.750  28.734  1.00  0.00     0.057 A 
ATOM     56  C   UNL A   1      43.766  34.433  28.381  1.00  0.00     0.134 A 
ATOM     57  C   UNL A   1      46.139  34.339  28.275  1.00  0.00     0.134 A 
ATOM     58  F   UNL A   1      42.562  33.970  28.751  1.00  0.00    -0.206 F 
ATOM     59  C   UNL A   1      43.775  35.565  27.557  1.00  0.00     0.040 A 
ATOM     60  C   UNL A   1      46.162  35.497  27.495  1.00  0.00     0.040 A 
ATOM     61  F   UNL A   1      47.339  33.777  28.462  1.00  0.00    -0.206 F 
ATOM     62  C   UNL A   1      44.976  36.094  27.102  1.00  0.00     0.006 A 
ENDBRANCH  41  55
BRANCH  42  63
ATOM     63  C   UNL A   1      36.765  31.401  29.956  1.00  0.00     0.057 A 
ATOM     64  C   UNL A   1      35.873  31.928  30.901  1.00  0.00     0.134 A 
ATOM     65  C   UNL A   1      36.413  31.588  28.607  1.00  0.00     0.134 A 
ATOM     66  F   UNL A   1      36.141  31.840  32.212  1.00  0.00    -0.206 F 
ATOM     67  C   UNL A   1      34.711  32.618  30.526  1.00  0.00     0.040 A 
ATOM     68  C   UNL A   1      35.254  32.268  28.220  1.00  0.00     0.040 A 
ATOM     69  F   UNL A   1      37.229  31.197  27.618  1.00  0.00    -0.206 F 
ATOM     70  C   UNL A   1      34.403  32.799  29.182  1.00  0.00     0.006 A 
ENDBRANCH  42  63
BRANCH  54  71
ATOM     71  C   UNL A   1      41.748  30.347  33.688  1.00  0.00     0.057 A 
ATOM     72  C   UNL A   1      41.614  28.984  33.383  1.00  0.00     0.134 A 
ATOM     73  C   UNL A   1      41.818  30.689  35.043  1.00  0.00     0.134 A 
ATOM     74  F   UNL A   1      41.632  28.551  32.116  1.00  0.00    -0.206 F 
ATOM     75  C   UNL A   1      41.528  28.010  34.385  1.00  0.00     0.040 A 
ATOM     76  C   UNL A   1      41.767  29.725  36.051  1.00  0.00     0.040 A 
ATOM     77  F   UNL A   1      42.002  31.969  35.406  1.00  0.00    -0.206 F 
ATOM     78  C   UNL A   1      41.617  28.380  35.724  1.00  0.00     0.006 A 
ENDBRANCH  54  71
ENDBRANCH  28  29
ENDBRANCH  21  23
ENDBRANCH  20  21
ENDBRANCH   1  20
TORSDOF 13
ENDMDL
MODEL 3
REMARK VINA RESULT:     -11.0      5.920     11.169
REMARK SMILES CCc1nn(-c2ccncn2)c(Cl)c1C(=O)OCCOC(=O)c1ccc(-c2c3nc(c(-c4c(F)cccc4F)c4ccc([nH]4)c(-c4c(F)cccc4F)c4nc(c(-c5c(F)cccc5F)c5ccc2[nH]5)C=C4)C=C3)cc1
REMARK SMILES IDX 19 1 18 2 17 3 15 4 16 5 14 6 3 7 4 8 5 9 12 10 13 11 2 12
REMARK SMILES IDX 1 13 6 14 7 15 11 16 8 17 10 18 9 19 20 20 21 21 22 22 23 23
REMARK SMILES IDX 24 24 76 25 25 26 75 27 26 28 27 29 28 30 69 31 29 32 74 33
REMARK SMILES IDX 68 34 70 35 30 36 73 37 67 38 66 39 31 41 57 42 40 43 56 44
REMARK SMILES IDX 41 45 44 46 55 47 71 48 42 49 43 50 54 52 72 53 45 54 32 55
REMARK SMILES IDX 33 56 38 57 34 58 35 59 37 60 39 61 36 62 58 63 59 64 64 65
REMARK SMILES IDX 60 66 61 67 63 68 65 69 62 70 46 71 47 72 52 73 48 74 49 75
REMARK SMILES IDX 51 76 53 77 50 78
REMARK H PARENT 70 40 44 51
REMARK Flexibility Score: inf
ROOT
ATOM      1  C   UNL A   1      34.638  33.430  31.505  1.00  0.00     0.275 C 
ENDROOT
BRANCH   1   2
ATOM      2  C   UNL A   1      34.829  33.275  33.008  1.00  0.00     0.275 C 
BRANCH   2   3
ATOM      3  O   UNL A   1      36.018  32.520  33.290  1.00  0.00    -0.458 OA
BRANCH   3   4
ATOM      4  C   UNL A   1      36.803  33.002  34.297  1.00  0.00     0.343 C 
ATOM      5  O   UNL A   1      36.368  33.312  35.402  1.00  0.00    -0.246 OA
BRANCH   4   6
ATOM      6  C   UNL A   1      38.211  33.026  33.958  1.00  0.00     0.120 A 
ATOM      7  C   UNL A   1      39.344  32.474  34.626  1.00  0.00     0.079 A 
ATOM      8  N   UNL A   1      40.486  32.680  33.948  1.00  0.00    -0.169 NA
ATOM      9  N   UNL A   1      40.121  33.468  32.903  1.00  0.00    -0.203 N 
ATOM     10  C   UNL A   1      38.766  33.690  32.890  1.00  0.00     0.149 A 
ATOM     11  Cl  UNL A   1      38.040  34.626  31.654  1.00  0.00    -0.061 Cl
BRANCH   7  12
ATOM     12  C   UNL A   1      39.386  31.724  35.921  1.00  0.00     0.056 C 
ATOM     13  C   UNL A   1      38.550  30.455  35.882  1.00  0.00     0.011 C 
ENDBRANCH   7  12
BRANCH   9  14
ATOM     14  C   UNL A   1      41.078  33.956  31.978  1.00  0.00     0.158 A 
ATOM     15  C   UNL A   1      41.132  33.371  30.725  1.00  0.00     0.069 A 
ATOM     16  N   UNL A   1      41.970  34.875  32.415  1.00  0.00    -0.217 NA
ATOM     17  C   UNL A   1      42.185  33.766  29.935  1.00  0.00     0.117 A 
ATOM     18  C   UNL A   1      42.963  35.160  31.564  1.00  0.00     0.224 A 
ATOM     19  N   UNL A   1      43.122  34.645  30.335  1.00  0.00    -0.245 NA
ENDBRANCH   9  14
ENDBRANCH   4   6
ENDBRANCH   3   4
ENDBRANCH   2   3
ENDBRANCH   1   2
BRANCH   1  20
ATOM     20  O   UNL A   1      34.651  32.166  30.839  1.00  0.00    -0.458 OA
BRANCH  20  21
ATOM     21  C   UNL A   1      34.841  32.213  29.502  1.00  0.00     0.338 C 
ATOM     22  O   UNL A   1      34.042  32.577  28.656  1.00  0.00    -0.246 OA
BRANCH  21  23
ATOM     23  C   UNL A   1      36.104  31.547  29.173  1.00  0.00     0.060 A 
ATOM     24  C   UNL A   1      36.108  30.151  29.110  1.00  0.00     0.016 A 
ATOM     25  C   UNL A   1      37.296  32.286  29.186  1.00  0.00     0.016 A 
ATOM     26  C   UNL A   1      37.315  29.488  29.207  1.00  0.00     0.010 A 
ATOM     27  C   UNL A   1      38.497  31.625  29.285  1.00  0.00     0.010 A 
ATOM     28  C   UNL A   1      38.489  30.235  29.366  1.00  0.00    -0.014 A 
BRANCH  28  29
ATOM     29  C   UNL A   1      39.742  29.523  29.520  1.00  0.00     0.031 A 
ATOM     30  C   UNL A   1      40.160  29.365  30.937  1.00  0.00     0.074 A 
ATOM     31  C   UNL A   1      40.370  28.941  28.479  1.00  0.00     0.049 A 
ATOM     32  N   UNL A   1      41.236  29.801  31.505  1.00  0.00    -0.248 NA
ATOM     33  C   UNL A   1      39.187  28.771  31.871  1.00  0.00     0.031 C 
ATOM     34  C   UNL A   1      39.893  28.785  27.101  1.00  0.00     0.029 A 
ATOM     35  N   UNL A   1      41.547  28.262  28.468  1.00  0.00    -0.354 N 
ATOM     36  C   UNL A   1      41.166  29.369  32.828  1.00  0.00     0.074 A 
ATOM     37  C   UNL A   1      39.827  28.887  33.034  1.00  0.00     0.031 C 
ATOM     38  C   UNL A   1      40.654  27.863  26.467  1.00  0.00     0.029 A 
ATOM     39  C   UNL A   1      41.744  27.472  27.344  1.00  0.00     0.049 A 
ATOM     40  H   UNL A   1      42.206  28.324  29.197  1.00  0.00     0.167 HD
ATOM     41  C   UNL A   1      42.286  29.228  33.584  1.00  0.00     0.037 A 
ATOM     42  C   UNL A   1      42.693  26.514  27.196  1.00  0.00     0.037 A 
ATOM     43  C   UNL A   1      43.383  29.984  33.039  1.00  0.00     0.049 A 
ATOM     44  C   UNL A   1      43.737  26.761  28.224  1.00  0.00     0.074 A 
ATOM     45  C   UNL A   1      43.609  31.325  32.800  1.00  0.00     0.029 A 
ATOM     46  N   UNL A   1      44.327  29.307  32.310  1.00  0.00    -0.354 N 
ATOM     47  N   UNL A   1      44.534  27.794  28.216  1.00  0.00    -0.248 NA
ATOM     48  C   UNL A   1      43.579  26.104  29.513  1.00  0.00     0.031 C 
ATOM     49  C   UNL A   1      44.343  31.361  31.580  1.00  0.00     0.029 A 
ATOM     50  C   UNL A   1      44.573  30.043  31.181  1.00  0.00     0.049 A 
ATOM     51  H   UNL A   1      44.751  28.452  32.554  1.00  0.00     0.167 HD
ATOM     52  C   UNL A   1      44.641  28.168  29.548  1.00  0.00     0.074 A 
ATOM     53  C   UNL A   1      44.093  27.046  30.306  1.00  0.00     0.031 C 
ATOM     54  C   UNL A   1      44.891  29.463  29.898  1.00  0.00     0.037 A 
BRANCH  41  55
ATOM     55  C   UNL A   1      42.494  28.111  34.575  1.00  0.00     0.057 A 
ATOM     56  C   UNL A   1      42.721  26.807  34.097  1.00  0.00     0.134 A 
ATOM     57  C   UNL A   1      42.173  28.199  35.945  1.00  0.00     0.134 A 
ATOM     58  F   UNL A   1      43.027  26.588  32.810  1.00  0.00    -0.206 F 
ATOM     59  C   UNL A   1      42.553  25.674  34.902  1.00  0.00     0.040 A 
ATOM     60  C   UNL A   1      42.052  27.078  36.768  1.00  0.00     0.040 A 
ATOM     61  F   UNL A   1      41.857  29.356  36.538  1.00  0.00    -0.206 F 
ATOM     62  C   UNL A   1      42.206  25.808  36.240  1.00  0.00     0.006 A 
ENDBRANCH  41  55
BRANCH  42  63
ATOM     63  C   UNL A   1      42.586  25.222  26.479  1.00  0.00     0.057 A 
ATOM     64  C   UNL A   1      43.465  24.893  25.437  1.00  0.00     0.134 A 
ATOM     65  C   UNL A   1      41.802  24.166  26.977  1.00  0.00     0.134 A 
ATOM     66  F   UNL A   1      44.287  25.820  24.923  1.00  0.00    -0.206 F 
ATOM     67  C   UNL A   1      43.572  23.588  24.934  1.00  0.00     0.040 A 
ATOM     68  C   UNL A   1      41.893  22.862  26.481  1.00  0.00     0.040 A 
ATOM     69  F   UNL A   1      40.985  24.345  28.026  1.00  0.00    -0.206 F 
ATOM     70  C   UNL A   1      42.792  22.565  25.464  1.00  0.00     0.006 A 
ENDBRANCH  42  63
BRANCH  54  71
ATOM     71  C   UNL A   1      45.290  30.427  28.817  1.00  0.00     0.057 A 
ATOM     72  C   UNL A   1      46.604  30.581  28.351  1.00  0.00     0.134 A 
ATOM     73  C   UNL A   1      44.281  31.073  28.096  1.00  0.00     0.134 A 
ATOM     74  F   UNL A   1      47.624  29.926  28.920  1.00  0.00    -0.206 F 
ATOM     75  C   UNL A   1      46.900  31.364  27.230  1.00  0.00     0.040 A 
ATOM     76  C   UNL A   1      44.559  31.831  26.956  1.00  0.00     0.040 A 
ATOM     77  F   UNL A   1      42.995  30.925  28.452  1.00  0.00    -0.206 F 
ATOM     78  C   UNL A   1      45.874  31.982  26.522  1.00  0.00     0.006 A 
ENDBRANCH  54  71
ENDBRANCH  28  29
ENDBRANCH  21  23
ENDBRANCH  20  21
ENDBRANCH   1  20
TORSDOF 13
ENDMDL
