MODEL 1
REMARK VINA RESULT:     -12.2      0.000      0.000
REMARK SMILES O=C(CNC(=O)N1CC(OCCOC(=O)c2ccc(-c3c4nc(c(-c5c(F)cccc5F)c5ccc([nH]5)c(-c5c(F)cccc5F)c5nc(c(-c6c(F)cccc6F)c6ccc3[nH]6)C=C5)C=C4)cc2)=Nc2ccccc21)N[C@H](C(=O)[O-])c1ccccc1
REMARK SMILES IDX 11 1 10 2 9 3 7 4 8 5 76 6 71 7 75 8 70 9 72 10 74 11 73 12
REMARK SMILES IDX 5 13 4 14 6 16 3 17 2 18 1 19 77 20 78 22 82 23 83 24 87 25
REMARK SMILES IDX 84 26 86 27 85 28 79 29 80 30 81 31 12 32 13 33 14 34 15 35
REMARK SMILES IDX 16 36 17 37 69 38 18 39 68 40 19 41 20 42 21 43 62 44 22 45
REMARK SMILES IDX 67 46 61 47 63 48 23 49 66 50 60 51 59 52 24 54 50 55 33 56
REMARK SMILES IDX 49 57 34 58 37 59 48 60 64 61 35 62 36 63 47 65 65 66 38 67
REMARK SMILES IDX 25 68 26 69 31 70 27 71 28 72 30 73 32 74 29 75 51 76 52 77
REMARK SMILES IDX 57 78 53 79 54 80 56 81 58 82 55 83 39 84 40 85 45 86 41 87
REMARK SMILES IDX 42 88 44 89 46 90 43 91
REMARK H PARENT 4 15 77 21 63 53 37 64
REMARK Flexibility Score: inf
ROOT
ATOM      1  C   UNL A   1      31.717  31.770  26.857  1.00  0.00     0.272 C 
ENDROOT
BRANCH   1   2
ATOM      2  O   UNL A   1      32.507  30.576  27.055  1.00  0.00    -0.476 OA
BRANCH   2   3
ATOM      3  C   UNL A   1      32.146  29.448  26.392  1.00  0.00     0.209 C 
ATOM      4  N   UNL A   1      31.317  28.752  24.191  1.00  0.00    -0.283 N 
ATOM      5  C   UNL A   1      32.283  29.584  24.896  1.00  0.00     0.224 C 
ATOM      6  C   UNL A   1      31.031  27.485  24.793  1.00  0.00     0.072 A 
ATOM      7  C   UNL A   1      31.292  27.323  26.181  1.00  0.00     0.091 A 
ATOM      8  C   UNL A   1      30.345  26.474  24.109  1.00  0.00     0.029 A 
ATOM      9  N   UNL A   1      31.761  28.372  26.997  1.00  0.00    -0.214 NA
ATOM     10  C   UNL A   1      30.861  26.166  26.841  1.00  0.00     0.030 A 
ATOM     11  C   UNL A   1      29.900  25.335  24.793  1.00  0.00     0.002 A 
ATOM     12  C   UNL A   1      30.155  25.182  26.155  1.00  0.00     0.002 A 
BRANCH   4  13
ATOM     13  C   UNL A   1      31.164  29.019  22.852  1.00  0.00     0.322 C 
ATOM     14  N   UNL A   1      31.844  28.216  21.976  1.00  0.00    -0.329 N 
ATOM     15  H   UNL A   1      31.426  28.069  21.097  1.00  0.00     0.165 HD
ATOM     16  O   UNL A   1      30.368  29.846  22.418  1.00  0.00    -0.248 OA
BRANCH  14  17
ATOM     17  C   UNL A   1      33.122  27.558  22.207  1.00  0.00     0.218 C 
BRANCH  17  18
ATOM     18  C   UNL A   1      33.280  26.057  21.942  1.00  0.00     0.240 C 
ATOM     19  O   UNL A   1      33.262  25.616  20.791  1.00  0.00    -0.273 OA
ATOM     20  N   UNL A   1      33.437  25.253  23.042  1.00  0.00    -0.342 N 
ATOM     21  H   UNL A   1      33.248  25.604  23.942  1.00  0.00     0.164 HD
BRANCH  20  22
ATOM     22  C   UNL A   1      33.887  23.870  22.874  1.00  0.00     0.158 C 
BRANCH  22  23
ATOM     23  C   UNL A   1      35.058  23.619  23.818  1.00  0.00    -0.020 A 
ATOM     24  C   UNL A   1      35.216  24.343  25.012  1.00  0.00     0.006 A 
ATOM     25  C   UNL A   1      36.050  22.691  23.459  1.00  0.00     0.006 A 
ATOM     26  C   UNL A   1      36.321  24.126  25.836  1.00  0.00     0.000 A 
ATOM     27  C   UNL A   1      37.160  22.484  24.281  1.00  0.00     0.000 A 
ATOM     28  C   UNL A   1      37.293  23.199  25.470  1.00  0.00     0.000 A 
ENDBRANCH  22  23
BRANCH  22  29
ATOM     29  C   UNL A   1      32.794  22.785  23.014  1.00  0.00     0.068 C 
ATOM     30  O   UNL A   1      32.495  21.952  22.167  1.00  0.00    -0.548 OA
ATOM     31  O   UNL A   1      32.215  22.712  24.234  1.00  0.00    -0.548 OA
ENDBRANCH  22  29
ENDBRANCH  20  22
ENDBRANCH  17  18
ENDBRANCH  14  17
ENDBRANCH   4  13
ENDBRANCH   2   3
ENDBRANCH   1   2
BRANCH   1  32
ATOM     32  C   UNL A   1      32.563  33.047  26.959  1.00  0.00     0.274 C 
BRANCH  32  33
ATOM     33  O   UNL A   1      32.164  33.919  28.041  1.00  0.00    -0.458 OA
BRANCH  33  34
ATOM     34  C   UNL A   1      33.139  34.740  28.489  1.00  0.00     0.338 C 
ATOM     35  O   UNL A   1      33.008  35.935  28.729  1.00  0.00    -0.246 OA
BRANCH  34  36
ATOM     36  C   UNL A   1      34.363  33.997  28.856  1.00  0.00     0.060 A 
ATOM     37  C   UNL A   1      34.164  32.920  29.710  1.00  0.00     0.016 A 
ATOM     38  C   UNL A   1      35.664  34.362  28.522  1.00  0.00     0.016 A 
ATOM     39  C   UNL A   1      35.214  32.202  30.259  1.00  0.00     0.010 A 
ATOM     40  C   UNL A   1      36.745  33.639  29.072  1.00  0.00     0.010 A 
ATOM     41  C   UNL A   1      36.522  32.562  29.951  1.00  0.00    -0.014 A 
BRANCH  41  42
ATOM     42  C   UNL A   1      37.611  31.790  30.594  1.00  0.00     0.031 A 
ATOM     43  C   UNL A   1      37.935  31.998  32.044  1.00  0.00     0.074 A 
ATOM     44  C   UNL A   1      38.177  30.763  29.932  1.00  0.00     0.049 A 
ATOM     45  N   UNL A   1      38.895  31.468  32.757  1.00  0.00    -0.248 NA
ATOM     46  C   UNL A   1      37.034  32.881  32.801  1.00  0.00     0.031 C 
ATOM     47  C   UNL A   1      37.786  30.306  28.598  1.00  0.00     0.029 A 
ATOM     48  N   UNL A   1      39.176  29.899  30.304  1.00  0.00    -0.354 N 
ATOM     49  C   UNL A   1      38.724  31.958  34.045  1.00  0.00     0.074 A 
ATOM     50  C   UNL A   1      37.555  32.813  34.020  1.00  0.00     0.031 C 
ATOM     51  C   UNL A   1      38.539  29.244  28.264  1.00  0.00     0.029 A 
ATOM     52  C   UNL A   1      39.512  28.997  29.324  1.00  0.00     0.049 A 
ATOM     53  H   UNL A   1      39.609  29.923  31.188  1.00  0.00     0.167 HD
ATOM     54  C   UNL A   1      39.491  31.734  35.139  1.00  0.00     0.037 A 
ATOM     55  C   UNL A   1      40.526  28.112  29.269  1.00  0.00     0.037 A 
ATOM     56  C   UNL A   1      40.673  30.914  35.145  1.00  0.00     0.049 A 
ATOM     57  C   UNL A   1      41.489  28.034  30.423  1.00  0.00     0.074 A 
ATOM     58  C   UNL A   1      41.608  30.746  36.152  1.00  0.00     0.029 A 
ATOM     59  N   UNL A   1      41.080  30.119  34.084  1.00  0.00    -0.354 N 
ATOM     60  N   UNL A   1      41.426  28.623  31.592  1.00  0.00    -0.248 NA
ATOM     61  C   UNL A   1      42.684  27.199  30.237  1.00  0.00     0.031 C 
ATOM     62  C   UNL A   1      42.603  29.876  35.685  1.00  0.00     0.029 A 
ATOM     63  C   UNL A   1      42.263  29.472  34.404  1.00  0.00     0.049 A 
ATOM     64  H   UNL A   1      40.601  30.028  33.230  1.00  0.00     0.167 HD
ATOM     65  C   UNL A   1      42.560  28.220  32.284  1.00  0.00     0.074 A 
ATOM     66  C   UNL A   1      43.288  27.324  31.411  1.00  0.00     0.031 C 
ATOM     67  C   UNL A   1      42.967  28.571  33.529  1.00  0.00     0.037 A 
BRANCH  54  68
ATOM     68  C   UNL A   1      39.119  32.462  36.394  1.00  0.00     0.057 A 
ATOM     69  C   UNL A   1      39.638  33.724  36.703  1.00  0.00     0.134 A 
ATOM     70  C   UNL A   1      38.221  31.888  37.302  1.00  0.00     0.134 A 
ATOM     71  F   UNL A   1      40.517  34.319  35.882  1.00  0.00    -0.206 F 
ATOM     72  C   UNL A   1      39.285  34.386  37.881  1.00  0.00     0.040 A 
ATOM     73  C   UNL A   1      37.849  32.545  38.475  1.00  0.00     0.040 A 
ATOM     74  F   UNL A   1      37.688  30.682  37.061  1.00  0.00    -0.206 F 
ATOM     75  C   UNL A   1      38.385  33.797  38.769  1.00  0.00     0.006 A 
ENDBRANCH  54  68
BRANCH  55  76
ATOM     76  C   UNL A   1      40.744  27.292  28.049  1.00  0.00     0.057 A 
ATOM     77  C   UNL A   1      41.502  27.769  26.974  1.00  0.00     0.134 A 
ATOM     78  C   UNL A   1      40.162  26.024  27.912  1.00  0.00     0.134 A 
ATOM     79  F   UNL A   1      42.058  28.988  27.029  1.00  0.00    -0.206 F 
ATOM     80  C   UNL A   1      41.665  27.021  25.806  1.00  0.00     0.040 A 
ATOM     81  C   UNL A   1      40.342  25.254  26.764  1.00  0.00     0.040 A 
ATOM     82  F   UNL A   1      39.412  25.512  28.901  1.00  0.00    -0.206 F 
ATOM     83  C   UNL A   1      41.089  25.756  25.702  1.00  0.00     0.006 A 
ENDBRANCH  55  76
BRANCH  67  84
ATOM     84  C   UNL A   1      44.238  27.957  34.033  1.00  0.00     0.057 A 
ATOM     85  C   UNL A   1      44.255  26.697  34.642  1.00  0.00     0.134 A 
ATOM     86  C   UNL A   1      45.463  28.615  33.864  1.00  0.00     0.134 A 
ATOM     87  F   UNL A   1      43.113  26.024  34.845  1.00  0.00    -0.206 F 
ATOM     88  C   UNL A   1      45.446  26.117  35.079  1.00  0.00     0.040 A 
ATOM     89  C   UNL A   1      46.662  28.036  34.280  1.00  0.00     0.040 A 
ATOM     90  F   UNL A   1      45.513  29.823  33.283  1.00  0.00    -0.206 F 
ATOM     91  C   UNL A   1      46.656  26.785  34.892  1.00  0.00     0.006 A 
ENDBRANCH  67  84
ENDBRANCH  41  42
ENDBRANCH  34  36
ENDBRANCH  33  34
ENDBRANCH  32  33
ENDBRANCH   1  32
TORSDOF 16
ENDMDL
MODEL 2
REMARK VINA RESULT:     -12.1      4.516      9.975
REMARK SMILES O=C(CNC(=O)N1CC(OCCOC(=O)c2ccc(-c3c4nc(c(-c5c(F)cccc5F)c5ccc([nH]5)c(-c5c(F)cccc5F)c5nc(c(-c6c(F)cccc6F)c6ccc3[nH]6)C=C5)C=C4)cc2)=Nc2ccccc21)N[C@H](C(=O)[O-])c1ccccc1
REMARK SMILES IDX 11 1 10 2 9 3 7 4 8 5 76 6 71 7 75 8 70 9 72 10 74 11 73 12
REMARK SMILES IDX 5 13 4 14 6 16 3 17 2 18 1 19 77 20 78 22 82 23 83 24 87 25
REMARK SMILES IDX 84 26 86 27 85 28 79 29 80 30 81 31 12 32 13 33 14 34 15 35
REMARK SMILES IDX 16 36 17 37 69 38 18 39 68 40 19 41 20 42 21 43 62 44 22 45
REMARK SMILES IDX 67 46 61 47 63 48 23 49 66 50 60 51 59 52 24 54 50 55 33 56
REMARK SMILES IDX 49 57 34 58 37 59 48 60 64 61 35 62 36 63 47 65 65 66 38 67
REMARK SMILES IDX 25 68 26 69 31 70 27 71 28 72 30 73 32 74 29 75 51 76 52 77
REMARK SMILES IDX 57 78 53 79 54 80 56 81 58 82 55 83 39 84 40 85 45 86 41 87
REMARK SMILES IDX 42 88 44 89 46 90 43 91
REMARK H PARENT 4 15 77 21 63 53 37 64
REMARK Flexibility Score: inf
ROOT
ATOM      1  C   UNL A   1      38.206  20.039  24.994  1.00  0.00     0.272 C 
ENDROOT
BRANCH   1   2
ATOM      2  O   UNL A   1      37.872  21.436  25.162  1.00  0.00    -0.476 OA
BRANCH   2   3
ATOM      3  C   UNL A   1      36.614  21.839  24.855  1.00  0.00     0.209 C 
ATOM      4  N   UNL A   1      34.285  21.248  25.350  1.00  0.00    -0.283 N 
ATOM      5  C   UNL A   1      35.609  21.464  25.917  1.00  0.00     0.224 C 
ATOM      6  C   UNL A   1      33.924  22.110  24.264  1.00  0.00     0.072 A 
ATOM      7  C   UNL A   1      34.965  22.737  23.526  1.00  0.00     0.091 A 
ATOM      8  C   UNL A   1      32.607  22.209  23.799  1.00  0.00     0.029 A 
ATOM      9  N   UNL A   1      36.331  22.498  23.780  1.00  0.00    -0.214 NA
ATOM     10  C   UNL A   1      34.663  23.437  22.353  1.00  0.00     0.030 A 
ATOM     11  C   UNL A   1      32.329  22.895  22.609  1.00  0.00     0.002 A 
ATOM     12  C   UNL A   1      33.353  23.505  21.887  1.00  0.00     0.002 A 
BRANCH   4  13
ATOM     13  C   UNL A   1      33.376  20.630  26.174  1.00  0.00     0.322 C 
ATOM     14  N   UNL A   1      32.474  21.433  26.821  1.00  0.00    -0.329 N 
ATOM     15  H   UNL A   1      31.592  21.040  27.012  1.00  0.00     0.165 HD
ATOM     16  O   UNL A   1      33.264  19.410  26.256  1.00  0.00    -0.248 OA
BRANCH  14  17
ATOM     17  C   UNL A   1      32.685  22.806  27.257  1.00  0.00     0.218 C 
BRANCH  17  18
ATOM     18  C   UNL A   1      31.683  23.901  26.879  1.00  0.00     0.240 C 
ATOM     19  O   UNL A   1      30.509  23.836  27.249  1.00  0.00    -0.273 OA
ATOM     20  N   UNL A   1      32.164  24.936  26.116  1.00  0.00    -0.342 N 
ATOM     21  H   UNL A   1      33.041  24.858  25.675  1.00  0.00     0.164 HD
BRANCH  20  22
ATOM     22  C   UNL A   1      31.369  26.156  25.962  1.00  0.00     0.158 C 
BRANCH  22  23
ATOM     23  C   UNL A   1      32.241  27.355  26.317  1.00  0.00    -0.020 A 
ATOM     24  C   UNL A   1      33.631  27.347  26.111  1.00  0.00     0.006 A 
ATOM     25  C   UNL A   1      31.661  28.475  26.934  1.00  0.00     0.006 A 
ATOM     26  C   UNL A   1      34.414  28.440  26.487  1.00  0.00     0.000 A 
ATOM     27  C   UNL A   1      32.448  29.563  27.318  1.00  0.00     0.000 A 
ATOM     28  C   UNL A   1      33.823  29.546  27.092  1.00  0.00     0.000 A 
ENDBRANCH  22  23
BRANCH  22  29
ATOM     29  C   UNL A   1      30.674  26.336  24.592  1.00  0.00     0.068 C 
ATOM     30  O   UNL A   1      30.720  27.339  23.889  1.00  0.00    -0.548 OA
ATOM     31  O   UNL A   1      30.065  25.229  24.111  1.00  0.00    -0.548 OA
ENDBRANCH  22  29
ENDBRANCH  20  22
ENDBRANCH  17  18
ENDBRANCH  14  17
ENDBRANCH   4  13
ENDBRANCH   2   3
ENDBRANCH   1   2
BRANCH   1  32
ATOM     32  C   UNL A   1      39.262  19.571  26.005  1.00  0.00     0.274 C 
BRANCH  32  33
ATOM     33  O   UNL A   1      40.521  19.203  25.397  1.00  0.00    -0.458 OA
BRANCH  33  34
ATOM     34  C   UNL A   1      41.593  19.327  26.209  1.00  0.00     0.338 C 
ATOM     35  O   UNL A   1      42.425  18.452  26.428  1.00  0.00    -0.246 OA
BRANCH  34  36
ATOM     36  C   UNL A   1      41.781  20.718  26.670  1.00  0.00     0.060 A 
ATOM     37  C   UNL A   1      41.680  21.685  25.679  1.00  0.00     0.016 A 
ATOM     38  C   UNL A   1      42.162  21.103  27.952  1.00  0.00     0.016 A 
ATOM     39  C   UNL A   1      41.962  23.022  25.912  1.00  0.00     0.010 A 
ATOM     40  C   UNL A   1      42.451  22.462  28.206  1.00  0.00     0.010 A 
ATOM     41  C   UNL A   1      42.362  23.424  27.183  1.00  0.00    -0.014 A 
BRANCH  41  42
ATOM     42  C   UNL A   1      42.690  24.856  27.373  1.00  0.00     0.031 A 
ATOM     43  C   UNL A   1      43.978  25.416  26.844  1.00  0.00     0.074 A 
ATOM     44  C   UNL A   1      41.750  25.696  27.845  1.00  0.00     0.049 A 
ATOM     45  N   UNL A   1      44.467  26.622  26.976  1.00  0.00    -0.248 NA
ATOM     46  C   UNL A   1      44.800  24.515  26.020  1.00  0.00     0.031 C 
ATOM     47  C   UNL A   1      40.375  25.319  28.175  1.00  0.00     0.029 A 
ATOM     48  N   UNL A   1      41.797  27.045  28.094  1.00  0.00    -0.354 N 
ATOM     49  C   UNL A   1      45.659  26.627  26.263  1.00  0.00     0.074 A 
ATOM     50  C   UNL A   1      45.809  25.308  25.682  1.00  0.00     0.031 C 
ATOM     51  C   UNL A   1      39.711  26.412  28.585  1.00  0.00     0.029 A 
ATOM     52  C   UNL A   1      40.630  27.545  28.618  1.00  0.00     0.049 A 
ATOM     53  H   UNL A   1      42.590  27.599  27.915  1.00  0.00     0.167 HD
ATOM     54  C   UNL A   1      46.555  27.634  26.130  1.00  0.00     0.037 A 
ATOM     55  C   UNL A   1      40.356  28.765  29.119  1.00  0.00     0.037 A 
ATOM     56  C   UNL A   1      46.416  28.928  26.743  1.00  0.00     0.049 A 
ATOM     57  C   UNL A   1      41.445  29.804  29.147  1.00  0.00     0.074 A 
ATOM     58  C   UNL A   1      47.333  29.963  26.805  1.00  0.00     0.029 A 
ATOM     59  N   UNL A   1      45.277  29.364  27.402  1.00  0.00    -0.354 N 
ATOM     60  N   UNL A   1      42.642  29.759  28.614  1.00  0.00    -0.248 NA
ATOM     61  C   UNL A   1      41.159  31.048  29.875  1.00  0.00     0.031 C 
ATOM     62  C   UNL A   1      46.761  31.013  27.535  1.00  0.00     0.029 A 
ATOM     63  C   UNL A   1      45.473  30.646  27.890  1.00  0.00     0.049 A 
ATOM     64  H   UNL A   1      44.450  28.841  27.508  1.00  0.00     0.167 HD
ATOM     65  C   UNL A   1      43.246  30.968  28.930  1.00  0.00     0.074 A 
ATOM     66  C   UNL A   1      42.278  31.734  29.688  1.00  0.00     0.031 C 
ATOM     67  C   UNL A   1      44.494  31.401  28.628  1.00  0.00     0.037 A 
BRANCH  54  68
ATOM     68  C   UNL A   1      47.807  27.336  25.364  1.00  0.00     0.057 A 
ATOM     69  C   UNL A   1      48.960  26.843  25.985  1.00  0.00     0.134 A 
ATOM     70  C   UNL A   1      47.852  27.542  23.980  1.00  0.00     0.134 A 
ATOM     71  F   UNL A   1      48.985  26.640  27.311  1.00  0.00    -0.206 F 
ATOM     72  C   UNL A   1      50.120  26.577  25.255  1.00  0.00     0.040 A 
ATOM     73  C   UNL A   1      49.000  27.267  23.237  1.00  0.00     0.040 A 
ATOM     74  F   UNL A   1      46.779  28.012  23.327  1.00  0.00    -0.206 F 
ATOM     75  C   UNL A   1      50.141  26.786  23.876  1.00  0.00     0.006 A 
ENDBRANCH  54  68
BRANCH  55  76
ATOM     76  C   UNL A   1      39.027  29.050  29.721  1.00  0.00     0.057 A 
ATOM     77  C   UNL A   1      38.770  28.802  31.073  1.00  0.00     0.134 A 
ATOM     78  C   UNL A   1      37.969  29.541  28.944  1.00  0.00     0.134 A 
ATOM     79  F   UNL A   1      39.731  28.301  31.863  1.00  0.00    -0.206 F 
ATOM     80  C   UNL A   1      37.507  29.020  31.629  1.00  0.00     0.040 A 
ATOM     81  C   UNL A   1      36.711  29.792  29.492  1.00  0.00     0.040 A 
ATOM     82  F   UNL A   1      38.144  29.789  27.637  1.00  0.00    -0.206 F 
ATOM     83  C   UNL A   1      36.475  29.524  30.838  1.00  0.00     0.006 A 
ENDBRANCH  55  76
BRANCH  67  84
ATOM     84  C   UNL A   1      44.873  32.776  29.087  1.00  0.00     0.057 A 
ATOM     85  C   UNL A   1      45.541  32.990  30.298  1.00  0.00     0.134 A 
ATOM     86  C   UNL A   1      44.606  33.893  28.285  1.00  0.00     0.134 A 
ATOM     87  F   UNL A   1      45.811  31.962  31.116  1.00  0.00    -0.206 F 
ATOM     88  C   UNL A   1      45.920  34.270  30.704  1.00  0.00     0.040 A 
ATOM     89  C   UNL A   1      44.997  35.176  28.671  1.00  0.00     0.040 A 
ATOM     90  F   UNL A   1      43.973  33.754  27.111  1.00  0.00    -0.206 F 
ATOM     91  C   UNL A   1      45.654  35.367  29.885  1.00  0.00     0.006 A 
ENDBRANCH  67  84
ENDBRANCH  41  42
ENDBRANCH  34  36
ENDBRANCH  33  34
ENDBRANCH  32  33
ENDBRANCH   1  32
TORSDOF 16
ENDMDL
MODEL 3
REMARK VINA RESULT:     -12.0      1.118      2.064
REMARK SMILES O=C(CNC(=O)N1CC(OCCOC(=O)c2ccc(-c3c4nc(c(-c5c(F)cccc5F)c5ccc([nH]5)c(-c5c(F)cccc5F)c5nc(c(-c6c(F)cccc6F)c6ccc3[nH]6)C=C5)C=C4)cc2)=Nc2ccccc21)N[C@H](C(=O)[O-])c1ccccc1
REMARK SMILES IDX 11 1 10 2 9 3 7 4 8 5 76 6 71 7 75 8 70 9 72 10 74 11 73 12
REMARK SMILES IDX 5 13 4 14 6 16 3 17 2 18 1 19 77 20 78 22 82 23 83 24 87 25
REMARK SMILES IDX 84 26 86 27 85 28 79 29 80 30 81 31 12 32 13 33 14 34 15 35
REMARK SMILES IDX 16 36 17 37 69 38 18 39 68 40 19 41 20 42 21 43 62 44 22 45
REMARK SMILES IDX 67 46 61 47 63 48 23 49 66 50 60 51 59 52 24 54 50 55 33 56
REMARK SMILES IDX 49 57 34 58 37 59 48 60 64 61 35 62 36 63 47 65 65 66 38 67
REMARK SMILES IDX 25 68 26 69 31 70 27 71 28 72 30 73 32 74 29 75 51 76 52 77
REMARK SMILES IDX 57 78 53 79 54 80 56 81 58 82 55 83 39 84 40 85 45 86 41 87
REMARK SMILES IDX 42 88 44 89 46 90 43 91
REMARK H PARENT 4 15 77 21 63 53 37 64
REMARK Flexibility Score: inf
ROOT
ATOM      1  C   UNL A   1      31.641  31.458  26.538  1.00  0.00     0.272 C 
ENDROOT
BRANCH   1   2
ATOM      2  O   UNL A   1      32.056  30.073  26.542  1.00  0.00    -0.476 OA
BRANCH   2   3
ATOM      3  C   UNL A   1      32.034  29.391  25.369  1.00  0.00     0.209 C 
ATOM      4  N   UNL A   1      30.765  27.606  24.265  1.00  0.00    -0.283 N 
ATOM      5  C   UNL A   1      30.671  28.828  25.050  1.00  0.00     0.224 C 
ATOM      6  C   UNL A   1      31.824  27.565  23.301  1.00  0.00     0.072 A 
ATOM      7  C   UNL A   1      32.938  28.429  23.486  1.00  0.00     0.091 A 
ATOM      8  C   UNL A   1      31.880  26.590  22.298  1.00  0.00     0.029 A 
ATOM      9  N   UNL A   1      33.070  29.274  24.606  1.00  0.00    -0.214 NA
ATOM     10  C   UNL A   1      34.068  28.292  22.672  1.00  0.00     0.030 A 
ATOM     11  C   UNL A   1      33.030  26.454  21.509  1.00  0.00     0.002 A 
ATOM     12  C   UNL A   1      34.122  27.300  21.696  1.00  0.00     0.002 A 
BRANCH   4  13
ATOM     13  C   UNL A   1      29.612  26.866  24.170  1.00  0.00     0.322 C 
ATOM     14  N   UNL A   1      29.541  25.724  24.922  1.00  0.00    -0.329 N 
ATOM     15  H   UNL A   1      28.646  25.455  25.231  1.00  0.00     0.165 HD
ATOM     16  O   UNL A   1      28.621  27.240  23.548  1.00  0.00    -0.248 OA
BRANCH  14  17
ATOM     17  C   UNL A   1      30.650  24.866  25.312  1.00  0.00     0.218 C 
BRANCH  17  18
ATOM     18  C   UNL A   1      31.089  23.708  24.410  1.00  0.00     0.240 C 
ATOM     19  O   UNL A   1      30.523  23.498  23.335  1.00  0.00    -0.273 OA
ATOM     20  N   UNL A   1      32.127  22.935  24.865  1.00  0.00    -0.342 N 
ATOM     21  H   UNL A   1      32.420  23.003  25.803  1.00  0.00     0.164 HD
BRANCH  20  22
ATOM     22  C   UNL A   1      32.799  22.009  23.951  1.00  0.00     0.158 C 
BRANCH  22  23
ATOM     23  C   UNL A   1      34.307  22.171  24.113  1.00  0.00    -0.020 A 
ATOM     24  C   UNL A   1      35.085  22.855  23.165  1.00  0.00     0.006 A 
ATOM     25  C   UNL A   1      34.955  21.562  25.200  1.00  0.00     0.006 A 
ATOM     26  C   UNL A   1      36.470  22.950  23.313  1.00  0.00     0.000 A 
ATOM     27  C   UNL A   1      36.342  21.650  25.341  1.00  0.00     0.000 A 
ATOM     28  C   UNL A   1      37.097  22.346  24.399  1.00  0.00     0.000 A 
ENDBRANCH  22  23
BRANCH  22  29
ATOM     29  C   UNL A   1      32.366  20.529  24.055  1.00  0.00     0.068 C 
ATOM     30  O   UNL A   1      32.113  19.925  25.091  1.00  0.00    -0.548 OA
ATOM     31  O   UNL A   1      32.150  19.912  22.872  1.00  0.00    -0.548 OA
ENDBRANCH  22  29
ENDBRANCH  20  22
ENDBRANCH  17  18
ENDBRANCH  14  17
ENDBRANCH   4  13
ENDBRANCH   2   3
ENDBRANCH   1   2
BRANCH   1  32
ATOM     32  C   UNL A   1      32.681  32.375  27.197  1.00  0.00     0.274 C 
BRANCH  32  33
ATOM     33  O   UNL A   1      32.204  33.721  27.421  1.00  0.00    -0.458 OA
BRANCH  33  34
ATOM     34  C   UNL A   1      32.963  34.452  28.266  1.00  0.00     0.338 C 
ATOM     35  O   UNL A   1      32.621  35.499  28.806  1.00  0.00    -0.246 OA
BRANCH  34  36
ATOM     36  C   UNL A   1      34.209  33.750  28.639  1.00  0.00     0.060 A 
ATOM     37  C   UNL A   1      34.043  32.677  29.505  1.00  0.00     0.016 A 
ATOM     38  C   UNL A   1      35.498  34.149  28.299  1.00  0.00     0.016 A 
ATOM     39  C   UNL A   1      35.115  31.997  30.060  1.00  0.00     0.010 A 
ATOM     40  C   UNL A   1      36.601  33.465  28.855  1.00  0.00     0.010 A 
ATOM     41  C   UNL A   1      36.411  32.392  29.746  1.00  0.00    -0.014 A 
BRANCH  41  42
ATOM     42  C   UNL A   1      37.523  31.659  30.395  1.00  0.00     0.031 A 
ATOM     43  C   UNL A   1      37.835  31.882  31.846  1.00  0.00     0.074 A 
ATOM     44  C   UNL A   1      38.127  30.650  29.738  1.00  0.00     0.049 A 
ATOM     45  N   UNL A   1      38.809  31.388  32.564  1.00  0.00    -0.248 NA
ATOM     46  C   UNL A   1      36.901  32.737  32.597  1.00  0.00     0.031 C 
ATOM     47  C   UNL A   1      37.756  30.176  28.405  1.00  0.00     0.029 A 
ATOM     48  N   UNL A   1      39.153  29.822  30.117  1.00  0.00    -0.354 N 
ATOM     49  C   UNL A   1      38.617  31.876  33.850  1.00  0.00     0.074 A 
ATOM     50  C   UNL A   1      37.419  32.690  33.818  1.00  0.00     0.031 C 
ATOM     51  C   UNL A   1      38.546  29.140  28.077  1.00  0.00     0.029 A 
ATOM     52  C   UNL A   1      39.524  28.929  29.141  1.00  0.00     0.049 A 
ATOM     53  H   UNL A   1      39.582  29.864  31.002  1.00  0.00     0.167 HD
ATOM     54  C   UNL A   1      39.387  31.681  34.947  1.00  0.00     0.037 A 
ATOM     55  C   UNL A   1      40.567  28.079  29.093  1.00  0.00     0.037 A 
ATOM     56  C   UNL A   1      40.597  30.902  34.960  1.00  0.00     0.049 A 
ATOM     57  C   UNL A   1      41.528  28.038  30.251  1.00  0.00     0.074 A 
ATOM     58  C   UNL A   1      41.533  30.769  35.971  1.00  0.00     0.029 A 
ATOM     59  N   UNL A   1      41.035  30.118  33.904  1.00  0.00    -0.354 N 
ATOM     60  N   UNL A   1      41.440  28.627  31.418  1.00  0.00    -0.248 NA
ATOM     61  C   UNL A   1      42.751  27.243  30.071  1.00  0.00     0.031 C 
ATOM     62  C   UNL A   1      42.558  29.932  35.511  1.00  0.00     0.029 A 
ATOM     63  C   UNL A   1      42.237  29.513  34.230  1.00  0.00     0.049 A 
ATOM     64  H   UNL A   1      40.562  30.008  33.048  1.00  0.00     0.167 HD
ATOM     65  C   UNL A   1      42.585  28.266  32.115  1.00  0.00     0.074 A 
ATOM     66  C   UNL A   1      43.346  27.392  31.247  1.00  0.00     0.031 C 
ATOM     67  C   UNL A   1      42.975  28.633  33.360  1.00  0.00     0.037 A 
BRANCH  54  68
ATOM     68  C   UNL A   1      38.986  32.400  36.198  1.00  0.00     0.057 A 
ATOM     69  C   UNL A   1      39.428  33.696  36.486  1.00  0.00     0.134 A 
ATOM     70  C   UNL A   1      38.137  31.782  37.125  1.00  0.00     0.134 A 
ATOM     71  F   UNL A   1      40.257  34.335  35.646  1.00  0.00    -0.206 F 
ATOM     72  C   UNL A   1      39.049  34.348  37.661  1.00  0.00     0.040 A 
ATOM     73  C   UNL A   1      37.739  32.429  38.295  1.00  0.00     0.040 A 
ATOM     74  F   UNL A   1      37.678  30.541  36.905  1.00  0.00    -0.206 F 
ATOM     75  C   UNL A   1      38.199  33.716  38.568  1.00  0.00     0.006 A 
ENDBRANCH  54  68
BRANCH  55  76
ATOM     76  C   UNL A   1      40.817  27.263  27.876  1.00  0.00     0.057 A 
ATOM     77  C   UNL A   1      40.310  25.966  27.749  1.00  0.00     0.134 A 
ATOM     78  C   UNL A   1      41.606  27.751  26.824  1.00  0.00     0.134 A 
ATOM     79  F   UNL A   1      39.575  25.430  28.734  1.00  0.00    -0.206 F 
ATOM     80  C   UNL A   1      40.587  25.179  26.628  1.00  0.00     0.040 A 
ATOM     81  C   UNL A   1      41.865  26.988  25.686  1.00  0.00     0.040 A 
ATOM     82  F   UNL A   1      42.134  28.983  26.887  1.00  0.00    -0.206 F 
ATOM     83  C   UNL A   1      41.361  25.694  25.590  1.00  0.00     0.006 A 
ENDBRANCH  55  76
BRANCH  67  84
ATOM     84  C   UNL A   1      44.264  28.065  33.870  1.00  0.00     0.057 A 
ATOM     85  C   UNL A   1      44.314  26.831  34.528  1.00  0.00     0.134 A 
ATOM     86  C   UNL A   1      45.473  28.740  33.660  1.00  0.00     0.134 A 
ATOM     87  F   UNL A   1      43.188  26.144  34.772  1.00  0.00    -0.206 F 
ATOM     88  C   UNL A   1      45.522  26.292  34.972  1.00  0.00     0.040 A 
ATOM     89  C   UNL A   1      46.689  28.201  34.082  1.00  0.00     0.040 A 
ATOM     90  F   UNL A   1      45.492  29.925  33.032  1.00  0.00    -0.206 F 
ATOM     91  C   UNL A   1      46.716  26.975  34.742  1.00  0.00     0.006 A 
ENDBRANCH  67  84
ENDBRANCH  41  42
ENDBRANCH  34  36
ENDBRANCH  33  34
ENDBRANCH  32  33
ENDBRANCH   1  32
TORSDOF 16
ENDMDL
