MODEL 1
REMARK VINA RESULT:     -13.5      0.000      0.000
REMARK SMILES Cc1cccc(-n2ncc(C(=O)Nc3cccc(C(=O)OCCOC(=O)c4ccc(-c5c6nc(c(-c7c(F)cccc7F)c7ccc([nH]7)c(-c7c(F)cccc7F)c7nc(c(-c8c(F)cccc8F)c8ccc5[nH]8)C=C7)C=C6)cc4)c3C)c2C)c1
REMARK SMILES IDX 22 1 21 2 19 3 20 4 18 5 14 6 15 7 81 8 16 9 82 10 17 11
REMARK SMILES IDX 13 12 11 13 12 14 10 16 7 17 8 18 83 19 9 20 84 21 6 22 1 23
REMARK SMILES IDX 2 24 3 25 85 26 4 27 5 28 23 29 24 30 25 31 26 32 27 33
REMARK SMILES IDX 28 34 80 35 29 36 79 37 30 38 31 39 32 40 73 41 33 42 78 43
REMARK SMILES IDX 72 44 74 45 34 46 77 47 71 48 70 49 35 51 61 52 44 53 60 54
REMARK SMILES IDX 45 55 48 56 59 57 75 58 46 59 47 60 58 62 76 63 49 64 36 65
REMARK SMILES IDX 37 66 42 67 38 68 39 69 41 70 43 71 40 72 62 73 63 74 68 75
REMARK SMILES IDX 64 76 65 77 67 78 69 79 66 80 50 81 51 82 56 83 52 84 53 85
REMARK SMILES IDX 55 86 57 87 54 88
REMARK H PARENT 13 15 74 50 48 61
REMARK Flexibility Score: inf
ROOT
ATOM      1  C   UNL A   1      32.631  30.604  26.760  1.00  0.00     0.275 C 
ENDROOT
BRANCH   1   2
ATOM      2  O   UNL A   1      31.801  30.016  25.749  1.00  0.00    -0.458 OA
BRANCH   2   3
ATOM      3  C   UNL A   1      32.298  29.059  24.938  1.00  0.00     0.338 C 
ATOM      4  O   UNL A   1      33.412  29.024  24.442  1.00  0.00    -0.246 OA
BRANCH   3   5
ATOM      5  C   UNL A   1      31.292  27.970  24.837  1.00  0.00     0.065 A 
ATOM      6  C   UNL A   1      29.999  26.072  25.630  1.00  0.00     0.045 A 
ATOM      7  C   UNL A   1      29.225  26.137  24.465  1.00  0.00     0.026 A 
ATOM      8  C   UNL A   1      30.988  27.058  25.875  1.00  0.00    -0.013 A 
ATOM      9  C   UNL A   1      29.530  27.043  23.455  1.00  0.00     0.003 A 
ATOM     10  C   UNL A   1      31.706  27.065  27.200  1.00  0.00     0.047 C 
ATOM     11  C   UNL A   1      30.583  27.930  23.625  1.00  0.00     0.016 A 
BRANCH   6  12
ATOM     12  N   UNL A   1      29.795  25.046  26.575  1.00  0.00    -0.322 N 
ATOM     13  C   UNL A   1      30.215  23.731  26.618  1.00  0.00     0.259 C 
ATOM     14  O   UNL A   1      29.672  22.997  27.447  1.00  0.00    -0.269 OA
ATOM     15  H   UNL A   1      29.250  25.318  27.349  1.00  0.00     0.170 HD
BRANCH  13  16
ATOM     16  C   UNL A   1      31.314  23.251  25.788  1.00  0.00     0.081 A 
ATOM     17  N   UNL A   1      33.221  22.310  25.123  1.00  0.00    -0.237 N 
ATOM     18  N   UNL A   1      32.669  22.812  23.992  1.00  0.00    -0.175 NA
ATOM     19  C   UNL A   1      32.521  22.724  26.245  1.00  0.00     0.054 A 
ATOM     20  C   UNL A   1      31.523  23.353  24.396  1.00  0.00     0.149 A 
ATOM     21  C   UNL A   1      33.078  22.732  27.628  1.00  0.00     0.068 C 
BRANCH  17  22
ATOM     22  C   UNL A   1      34.389  21.508  25.035  1.00  0.00     0.065 A 
ATOM     23  C   UNL A   1      38.138  21.990  25.457  1.00  0.00     0.044 C 
ATOM     24  C   UNL A   1      36.809  21.352  25.185  1.00  0.00    -0.049 A 
ATOM     25  C   UNL A   1      36.716  19.971  24.971  1.00  0.00     0.003 A 
ATOM     26  C   UNL A   1      35.640  22.123  25.176  1.00  0.00     0.031 A 
ATOM     27  C   UNL A   1      35.475  19.365  24.768  1.00  0.00     0.002 A 
ATOM     28  C   UNL A   1      34.308  20.130  24.811  1.00  0.00     0.028 A 
ENDBRANCH  17  22
ENDBRANCH  13  16
ENDBRANCH   6  12
ENDBRANCH   3   5
ENDBRANCH   2   3
ENDBRANCH   1   2
BRANCH   1  29
ATOM     29  C   UNL A   1      33.914  29.904  27.265  1.00  0.00     0.275 C 
BRANCH  29  30
ATOM     30  O   UNL A   1      35.180  30.607  27.405  1.00  0.00    -0.458 OA
BRANCH  30  31
ATOM     31  C   UNL A   1      35.933  30.825  28.507  1.00  0.00     0.338 C 
ATOM     32  O   UNL A   1      35.604  31.573  29.417  1.00  0.00    -0.246 OA
BRANCH  31  33
ATOM     33  C   UNL A   1      37.153  30.035  28.613  1.00  0.00     0.060 A 
ATOM     34  C   UNL A   1      37.264  29.108  29.661  1.00  0.00     0.016 A 
ATOM     35  C   UNL A   1      38.098  30.124  27.601  1.00  0.00     0.016 A 
ATOM     36  C   UNL A   1      38.293  28.194  29.665  1.00  0.00     0.010 A 
ATOM     37  C   UNL A   1      39.016  29.122  27.497  1.00  0.00     0.010 A 
ATOM     38  C   UNL A   1      39.160  28.242  28.582  1.00  0.00    -0.014 A 
BRANCH  38  39
ATOM     39  C   UNL A   1      40.510  27.746  28.688  1.00  0.00     0.031 A 
ATOM     40  C   UNL A   1      40.801  26.394  28.233  1.00  0.00     0.074 A 
ATOM     41  C   UNL A   1      41.334  28.740  29.091  1.00  0.00     0.049 A 
ATOM     42  N   UNL A   1      41.729  25.656  28.720  1.00  0.00    -0.248 NA
ATOM     43  C   UNL A   1      39.983  25.701  27.236  1.00  0.00     0.031 C 
ATOM     44  C   UNL A   1      42.766  28.924  29.048  1.00  0.00     0.029 A 
ATOM     45  N   UNL A   1      40.882  29.875  29.790  1.00  0.00    -0.354 N 
ATOM     46  C   UNL A   1      41.925  24.652  27.796  1.00  0.00     0.074 A 
ATOM     47  C   UNL A   1      40.688  24.576  27.058  1.00  0.00     0.031 C 
ATOM     48  C   UNL A   1      43.090  29.893  29.935  1.00  0.00     0.029 A 
ATOM     49  C   UNL A   1      41.883  30.264  30.673  1.00  0.00     0.049 A 
ATOM     50  H   UNL A   1      40.010  30.318  29.675  1.00  0.00     0.167 HD
ATOM     51  C   UNL A   1      43.205  24.231  27.576  1.00  0.00     0.037 A 
ATOM     52  C   UNL A   1      41.613  30.017  31.992  1.00  0.00     0.037 A 
ATOM     53  C   UNL A   1      44.118  24.992  28.446  1.00  0.00     0.049 A 
ATOM     54  C   UNL A   1      42.360  28.790  32.484  1.00  0.00     0.074 A 
ATOM     55  C   UNL A   1      44.906  26.115  28.244  1.00  0.00     0.029 A 
ATOM     56  N   UNL A   1      43.965  24.891  29.818  1.00  0.00    -0.354 N 
ATOM     57  N   UNL A   1      43.013  27.963  31.711  1.00  0.00    -0.248 NA
ATOM     58  C   UNL A   1      42.370  28.371  33.881  1.00  0.00     0.031 C 
ATOM     59  C   UNL A   1      45.186  26.700  29.520  1.00  0.00     0.029 A 
ATOM     60  C   UNL A   1      44.561  25.940  30.493  1.00  0.00     0.049 A 
ATOM     61  H   UNL A   1      43.485  24.155  30.263  1.00  0.00     0.167 HD
ATOM     62  C   UNL A   1      43.563  26.965  32.457  1.00  0.00     0.074 A 
ATOM     63  C   UNL A   1      43.074  27.230  33.804  1.00  0.00     0.031 C 
ATOM     64  C   UNL A   1      44.387  26.004  31.939  1.00  0.00     0.037 A 
BRANCH  51  65
ATOM     65  C   UNL A   1      43.670  23.425  26.379  1.00  0.00     0.057 A 
ATOM     66  C   UNL A   1      43.504  22.026  26.358  1.00  0.00     0.134 A 
ATOM     67  C   UNL A   1      44.288  23.944  25.224  1.00  0.00     0.134 A 
ATOM     68  F   UNL A   1      42.850  21.381  27.333  1.00  0.00    -0.206 F 
ATOM     69  C   UNL A   1      43.988  21.207  25.330  1.00  0.00     0.040 A 
ATOM     70  C   UNL A   1      44.809  23.133  24.202  1.00  0.00     0.040 A 
ATOM     71  F   UNL A   1      44.370  25.258  24.993  1.00  0.00    -0.206 F 
ATOM     72  C   UNL A   1      44.668  21.756  24.256  1.00  0.00     0.006 A 
ENDBRANCH  51  65
BRANCH  52  73
ATOM     73  C   UNL A   1      40.204  30.388  32.395  1.00  0.00     0.057 A 
ATOM     74  C   UNL A   1      39.291  29.363  32.734  1.00  0.00     0.134 A 
ATOM     75  C   UNL A   1      39.807  31.690  32.721  1.00  0.00     0.134 A 
ATOM     76  F   UNL A   1      39.578  28.081  32.451  1.00  0.00    -0.206 F 
ATOM     77  C   UNL A   1      38.116  29.606  33.456  1.00  0.00     0.040 A 
ATOM     78  C   UNL A   1      38.610  31.950  33.408  1.00  0.00     0.040 A 
ATOM     79  F   UNL A   1      40.600  32.738  32.467  1.00  0.00    -0.206 F 
ATOM     80  C   UNL A   1      37.782  30.905  33.812  1.00  0.00     0.006 A 
ENDBRANCH  52  73
BRANCH  64  81
ATOM     81  C   UNL A   1      45.088  25.002  32.812  1.00  0.00     0.057 A 
ATOM     82  C   UNL A   1      46.355  25.249  33.357  1.00  0.00     0.134 A 
ATOM     83  C   UNL A   1      44.565  23.718  33.063  1.00  0.00     0.134 A 
ATOM     84  F   UNL A   1      47.040  26.361  33.054  1.00  0.00    -0.206 F 
ATOM     85  C   UNL A   1      46.984  24.347  34.218  1.00  0.00     0.040 A 
ATOM     86  C   UNL A   1      45.214  22.784  33.867  1.00  0.00     0.040 A 
ATOM     87  F   UNL A   1      43.397  23.301  32.557  1.00  0.00    -0.206 F 
ATOM     88  C   UNL A   1      46.410  23.112  34.481  1.00  0.00     0.006 A 
ENDBRANCH  64  81
ENDBRANCH  38  39
ENDBRANCH  31  33
ENDBRANCH  30  31
ENDBRANCH  29  30
ENDBRANCH   1  29
TORSDOF 14
ENDMDL
MODEL 2
REMARK VINA RESULT:     -13.3      3.472      8.911
REMARK SMILES Cc1cccc(-n2ncc(C(=O)Nc3cccc(C(=O)OCCOC(=O)c4ccc(-c5c6nc(c(-c7c(F)cccc7F)c7ccc([nH]7)c(-c7c(F)cccc7F)c7nc(c(-c8c(F)cccc8F)c8ccc5[nH]8)C=C7)C=C6)cc4)c3C)c2C)c1
REMARK SMILES IDX 22 1 21 2 19 3 20 4 18 5 14 6 15 7 81 8 16 9 82 10 17 11
REMARK SMILES IDX 13 12 11 13 12 14 10 16 7 17 8 18 83 19 9 20 84 21 6 22 1 23
REMARK SMILES IDX 2 24 3 25 85 26 4 27 5 28 23 29 24 30 25 31 26 32 27 33
REMARK SMILES IDX 28 34 80 35 29 36 79 37 30 38 31 39 32 40 73 41 33 42 78 43
REMARK SMILES IDX 72 44 74 45 34 46 77 47 71 48 70 49 35 51 61 52 44 53 60 54
REMARK SMILES IDX 45 55 48 56 59 57 75 58 46 59 47 60 58 62 76 63 49 64 36 65
REMARK SMILES IDX 37 66 42 67 38 68 39 69 41 70 43 71 40 72 62 73 63 74 68 75
REMARK SMILES IDX 64 76 65 77 67 78 69 79 66 80 50 81 51 82 56 83 52 84 53 85
REMARK SMILES IDX 55 86 57 87 54 88
REMARK H PARENT 13 15 74 50 48 61
REMARK Flexibility Score: inf
ROOT
ATOM      1  C   UNL A   1      38.077  21.543  25.375  1.00  0.00     0.275 C 
ENDROOT
BRANCH   1   2
ATOM      2  O   UNL A   1      36.758  21.820  25.867  1.00  0.00    -0.458 OA
BRANCH   2   3
ATOM      3  C   UNL A   1      36.238  23.059  25.746  1.00  0.00     0.338 C 
ATOM      4  O   UNL A   1      36.837  24.080  25.449  1.00  0.00    -0.246 OA
BRANCH   3   5
ATOM      5  C   UNL A   1      34.766  22.962  25.922  1.00  0.00     0.065 A 
ATOM      6  C   UNL A   1      32.455  22.810  25.187  1.00  0.00     0.045 A 
ATOM      7  C   UNL A   1      32.067  22.587  26.514  1.00  0.00     0.026 A 
ATOM      8  C   UNL A   1      33.831  22.905  24.861  1.00  0.00    -0.013 A 
ATOM      9  C   UNL A   1      32.996  22.639  27.547  1.00  0.00     0.003 A 
ATOM     10  C   UNL A   1      34.240  22.991  23.413  1.00  0.00     0.047 C 
ATOM     11  C   UNL A   1      34.334  22.863  27.256  1.00  0.00     0.016 A 
BRANCH   6  12
ATOM     12  N   UNL A   1      31.492  22.924  24.163  1.00  0.00    -0.322 N 
ATOM     13  C   UNL A   1      30.873  24.019  23.594  1.00  0.00     0.259 C 
ATOM     14  O   UNL A   1      29.884  23.801  22.889  1.00  0.00    -0.269 OA
ATOM     15  H   UNL A   1      31.207  22.062  23.785  1.00  0.00     0.170 HD
BRANCH  13  16
ATOM     16  C   UNL A   1      31.413  25.367  23.740  1.00  0.00     0.081 A 
ATOM     17  N   UNL A   1      32.056  27.317  24.605  1.00  0.00    -0.237 N 
ATOM     18  N   UNL A   1      32.335  27.415  23.282  1.00  0.00    -0.175 NA
ATOM     19  C   UNL A   1      31.328  26.169  24.876  1.00  0.00     0.054 A 
ATOM     20  C   UNL A   1      31.966  26.241  22.779  1.00  0.00     0.149 A 
ATOM     21  C   UNL A   1      30.498  25.970  26.099  1.00  0.00     0.068 C 
BRANCH  17  22
ATOM     22  C   UNL A   1      32.479  28.344  25.488  1.00  0.00     0.065 A 
ATOM     23  C   UNL A   1      31.299  31.818  26.491  1.00  0.00     0.044 C 
ATOM     24  C   UNL A   1      32.117  30.564  26.406  1.00  0.00    -0.049 A 
ATOM     25  C   UNL A   1      33.202  30.366  27.269  1.00  0.00     0.003 A 
ATOM     26  C   UNL A   1      31.785  29.561  25.488  1.00  0.00     0.031 A 
ATOM     27  C   UNL A   1      33.935  29.179  27.228  1.00  0.00     0.002 A 
ATOM     28  C   UNL A   1      33.569  28.161  26.345  1.00  0.00     0.028 A 
ENDBRANCH  17  22
ENDBRANCH  13  16
ENDBRANCH   6  12
ENDBRANCH   3   5
ENDBRANCH   2   3
ENDBRANCH   1   2
BRANCH   1  29
ATOM     29  C   UNL A   1      39.337  21.838  26.222  1.00  0.00     0.275 C 
BRANCH  29  30
ATOM     30  O   UNL A   1      39.589  23.143  26.812  1.00  0.00    -0.458 OA
BRANCH  30  31
ATOM     31  C   UNL A   1      40.677  23.941  26.720  1.00  0.00     0.338 C 
ATOM     32  O   UNL A   1      41.690  23.640  26.105  1.00  0.00    -0.246 OA
BRANCH  31  33
ATOM     33  C   UNL A   1      40.554  25.261  27.328  1.00  0.00     0.060 A 
ATOM     34  C   UNL A   1      40.721  26.393  26.516  1.00  0.00     0.016 A 
ATOM     35  C   UNL A   1      40.138  25.352  28.648  1.00  0.00     0.016 A 
ATOM     36  C   UNL A   1      40.396  27.641  26.998  1.00  0.00     0.010 A 
ATOM     37  C   UNL A   1      39.649  26.549  29.081  1.00  0.00     0.010 A 
ATOM     38  C   UNL A   1      39.882  27.684  28.287  1.00  0.00    -0.014 A 
BRANCH  38  39
ATOM     39  C   UNL A   1      39.986  28.879  29.088  1.00  0.00     0.031 A 
ATOM     40  C   UNL A   1      38.899  29.848  29.049  1.00  0.00     0.074 A 
ATOM     41  C   UNL A   1      41.080  28.809  29.880  1.00  0.00     0.049 A 
ATOM     42  N   UNL A   1      39.051  31.106  29.237  1.00  0.00    -0.248 NA
ATOM     43  C   UNL A   1      37.529  29.486  28.683  1.00  0.00     0.031 C 
ATOM     44  C   UNL A   1      41.493  29.512  31.072  1.00  0.00     0.029 A 
ATOM     45  N   UNL A   1      42.187  27.990  29.587  1.00  0.00    -0.354 N 
ATOM     46  C   UNL A   1      37.790  31.596  29.498  1.00  0.00     0.074 A 
ATOM     47  C   UNL A   1      36.887  30.641  28.903  1.00  0.00     0.031 C 
ATOM     48  C   UNL A   1      42.826  29.343  31.217  1.00  0.00     0.029 A 
ATOM     49  C   UNL A   1      43.331  28.635  30.041  1.00  0.00     0.049 A 
ATOM     50  H   UNL A   1      42.157  27.114  29.139  1.00  0.00     0.167 HD
ATOM     51  C   UNL A   1      37.670  32.576  30.442  1.00  0.00     0.037 A 
ATOM     52  C   UNL A   1      44.135  29.141  29.056  1.00  0.00     0.037 A 
ATOM     53  C   UNL A   1      39.006  32.898  30.973  1.00  0.00     0.049 A 
ATOM     54  C   UNL A   1      43.958  30.643  28.920  1.00  0.00     0.074 A 
ATOM     55  C   UNL A   1      39.703  32.489  32.099  1.00  0.00     0.029 A 
ATOM     56  N   UNL A   1      39.964  33.389  30.103  1.00  0.00    -0.354 N 
ATOM     57  N   UNL A   1      43.025  31.334  29.520  1.00  0.00    -0.248 NA
ATOM     58  C   UNL A   1      44.785  31.467  28.046  1.00  0.00     0.031 C 
ATOM     59  C   UNL A   1      41.098  32.712  31.866  1.00  0.00     0.029 A 
ATOM     60  C   UNL A   1      41.248  33.245  30.598  1.00  0.00     0.049 A 
ATOM     61  H   UNL A   1      39.756  33.794  29.230  1.00  0.00     0.167 HD
ATOM     62  C   UNL A   1      43.133  32.650  29.186  1.00  0.00     0.074 A 
ATOM     63  C   UNL A   1      44.212  32.670  28.206  1.00  0.00     0.031 C 
ATOM     64  C   UNL A   1      42.356  33.632  29.735  1.00  0.00     0.037 A 
BRANCH  51  65
ATOM     65  C   UNL A   1      36.380  32.982  31.126  1.00  0.00     0.057 A 
ATOM     66  C   UNL A   1      35.507  33.898  30.505  1.00  0.00     0.134 A 
ATOM     67  C   UNL A   1      35.932  32.527  32.382  1.00  0.00     0.134 A 
ATOM     68  F   UNL A   1      35.733  34.357  29.267  1.00  0.00    -0.206 F 
ATOM     69  C   UNL A   1      34.344  34.389  31.114  1.00  0.00     0.040 A 
ATOM     70  C   UNL A   1      34.787  33.036  33.019  1.00  0.00     0.040 A 
ATOM     71  F   UNL A   1      36.540  31.531  33.033  1.00  0.00    -0.206 F 
ATOM     72  C   UNL A   1      33.991  33.978  32.389  1.00  0.00     0.006 A 
ENDBRANCH  51  65
BRANCH  52  73
ATOM     73  C   UNL A   1      44.335  28.189  27.898  1.00  0.00     0.057 A 
ATOM     74  C   UNL A   1      43.743  28.487  26.649  1.00  0.00     0.134 A 
ATOM     75  C   UNL A   1      45.290  27.165  27.890  1.00  0.00     0.134 A 
ATOM     76  F   UNL A   1      42.807  29.447  26.556  1.00  0.00    -0.206 F 
ATOM     77  C   UNL A   1      44.159  27.888  25.454  1.00  0.00     0.040 A 
ATOM     78  C   UNL A   1      45.685  26.528  26.703  1.00  0.00     0.040 A 
ATOM     79  F   UNL A   1      45.932  26.811  29.011  1.00  0.00    -0.206 F 
ATOM     80  C   UNL A   1      45.149  26.916  25.477  1.00  0.00     0.006 A 
ENDBRANCH  52  73
BRANCH  64  81
ATOM     81  C   UNL A   1      42.596  35.088  29.449  1.00  0.00     0.057 A 
ATOM     82  C   UNL A   1      43.485  35.858  30.209  1.00  0.00     0.134 A 
ATOM     83  C   UNL A   1      41.876  35.796  28.466  1.00  0.00     0.134 A 
ATOM     84  F   UNL A   1      44.105  35.350  31.285  1.00  0.00    -0.206 F 
ATOM     85  C   UNL A   1      43.757  37.195  29.910  1.00  0.00     0.040 A 
ATOM     86  C   UNL A   1      42.090  37.146  28.202  1.00  0.00     0.040 A 
ATOM     87  F   UNL A   1      40.939  35.221  27.701  1.00  0.00    -0.206 F 
ATOM     88  C   UNL A   1      43.063  37.842  28.899  1.00  0.00     0.006 A 
ENDBRANCH  64  81
ENDBRANCH  38  39
ENDBRANCH  31  33
ENDBRANCH  30  31
ENDBRANCH  29  30
ENDBRANCH   1  29
TORSDOF 14
ENDMDL
MODEL 3
REMARK VINA RESULT:     -13.2      2.216      3.605
REMARK SMILES Cc1cccc(-n2ncc(C(=O)Nc3cccc(C(=O)OCCOC(=O)c4ccc(-c5c6nc(c(-c7c(F)cccc7F)c7ccc([nH]7)c(-c7c(F)cccc7F)c7nc(c(-c8c(F)cccc8F)c8ccc5[nH]8)C=C7)C=C6)cc4)c3C)c2C)c1
REMARK SMILES IDX 22 1 21 2 19 3 20 4 18 5 14 6 15 7 81 8 16 9 82 10 17 11
REMARK SMILES IDX 13 12 11 13 12 14 10 16 7 17 8 18 83 19 9 20 84 21 6 22 1 23
REMARK SMILES IDX 2 24 3 25 85 26 4 27 5 28 23 29 24 30 25 31 26 32 27 33
REMARK SMILES IDX 28 34 80 35 29 36 79 37 30 38 31 39 32 40 73 41 33 42 78 43
REMARK SMILES IDX 72 44 74 45 34 46 77 47 71 48 70 49 35 51 61 52 44 53 60 54
REMARK SMILES IDX 45 55 48 56 59 57 75 58 46 59 47 60 58 62 76 63 49 64 36 65
REMARK SMILES IDX 37 66 42 67 38 68 39 69 41 70 43 71 40 72 62 73 63 74 68 75
REMARK SMILES IDX 64 76 65 77 67 78 69 79 66 80 50 81 51 82 56 83 52 84 53 85
REMARK SMILES IDX 55 86 57 87 54 88
REMARK H PARENT 13 15 74 50 48 61
REMARK Flexibility Score: inf
ROOT
ATOM      1  C   UNL A   1      32.437  29.678  25.050  1.00  0.00     0.275 C 
ENDROOT
BRANCH   1   2
ATOM      2  O   UNL A   1      32.432  28.377  24.444  1.00  0.00    -0.458 OA
BRANCH   2   3
ATOM      3  C   UNL A   1      31.293  27.880  23.919  1.00  0.00     0.338 C 
ATOM      4  O   UNL A   1      30.530  28.446  23.153  1.00  0.00    -0.246 OA
BRANCH   3   5
ATOM      5  C   UNL A   1      31.172  26.460  24.339  1.00  0.00     0.065 A 
ATOM      6  C   UNL A   1      31.244  24.050  24.037  1.00  0.00     0.045 A 
ATOM      7  C   UNL A   1      31.068  23.891  25.417  1.00  0.00     0.026 A 
ATOM      8  C   UNL A   1      31.395  25.349  23.491  1.00  0.00    -0.013 A 
ATOM      9  C   UNL A   1      30.855  24.991  26.241  1.00  0.00     0.003 A 
ATOM     10  C   UNL A   1      31.737  25.498  22.030  1.00  0.00     0.047 C 
ATOM     11  C   UNL A   1      30.870  26.267  25.697  1.00  0.00     0.016 A 
BRANCH   6  12
ATOM     12  N   UNL A   1      31.291  22.930  23.182  1.00  0.00    -0.322 N 
ATOM     13  C   UNL A   1      32.270  21.984  22.950  1.00  0.00     0.259 C 
ATOM     14  O   UNL A   1      32.127  21.262  21.959  1.00  0.00    -0.269 OA
ATOM     15  H   UNL A   1      30.473  22.798  22.651  1.00  0.00     0.170 HD
BRANCH  13  16
ATOM     16  C   UNL A   1      33.374  21.779  23.881  1.00  0.00     0.081 A 
ATOM     17  N   UNL A   1      35.309  22.000  24.964  1.00  0.00    -0.237 N 
ATOM     18  N   UNL A   1      34.715  20.919  25.528  1.00  0.00    -0.175 NA
ATOM     19  C   UNL A   1      34.611  22.423  23.844  1.00  0.00     0.054 A 
ATOM     20  C   UNL A   1      33.555  20.808  24.889  1.00  0.00     0.149 A 
ATOM     21  C   UNL A   1      35.190  23.269  22.762  1.00  0.00     0.068 C 
BRANCH  17  22
ATOM     22  C   UNL A   1      36.508  22.511  25.524  1.00  0.00     0.065 A 
ATOM     23  C   UNL A   1      40.037  21.253  26.179  1.00  0.00     0.044 C 
ATOM     24  C   UNL A   1      38.830  22.141  26.135  1.00  0.00    -0.049 A 
ATOM     25  C   UNL A   1      38.924  23.483  26.526  1.00  0.00     0.003 A 
ATOM     26  C   UNL A   1      37.604  21.651  25.671  1.00  0.00     0.031 A 
ATOM     27  C   UNL A   1      37.816  24.327  26.439  1.00  0.00     0.002 A 
ATOM     28  C   UNL A   1      36.608  23.847  25.928  1.00  0.00     0.028 A 
ENDBRANCH  17  22
ENDBRANCH  13  16
ENDBRANCH   6  12
ENDBRANCH   3   5
ENDBRANCH   2   3
ENDBRANCH   1   2
BRANCH   1  29
ATOM     29  C   UNL A   1      32.229  29.865  26.571  1.00  0.00     0.275 C 
BRANCH  29  30
ATOM     30  O   UNL A   1      33.342  30.014  27.495  1.00  0.00    -0.458 OA
BRANCH  30  31
ATOM     31  C   UNL A   1      34.037  31.120  27.845  1.00  0.00     0.338 C 
ATOM     32  O   UNL A   1      33.560  32.245  27.859  1.00  0.00    -0.246 OA
BRANCH  31  33
ATOM     33  C   UNL A   1      35.401  30.896  28.309  1.00  0.00     0.060 A 
ATOM     34  C   UNL A   1      36.373  31.869  28.031  1.00  0.00     0.016 A 
ATOM     35  C   UNL A   1      35.659  29.805  29.125  1.00  0.00     0.016 A 
ATOM     36  C   UNL A   1      37.607  31.803  28.638  1.00  0.00     0.010 A 
ATOM     37  C   UNL A   1      36.804  29.818  29.863  1.00  0.00     0.010 A 
ATOM     38  C   UNL A   1      37.795  30.756  29.530  1.00  0.00    -0.014 A 
BRANCH  38  39
ATOM     39  C   UNL A   1      39.116  30.261  29.826  1.00  0.00     0.031 A 
ATOM     40  C   UNL A   1      39.483  28.925  29.379  1.00  0.00     0.074 A 
ATOM     41  C   UNL A   1      39.862  31.242  30.382  1.00  0.00     0.049 A 
ATOM     42  N   UNL A   1      40.331  28.173  29.978  1.00  0.00    -0.248 NA
ATOM     43  C   UNL A   1      38.832  28.262  28.247  1.00  0.00     0.031 C 
ATOM     44  C   UNL A   1      41.282  31.431  30.565  1.00  0.00     0.029 A 
ATOM     45  N   UNL A   1      39.300  32.354  31.039  1.00  0.00    -0.354 N 
ATOM     46  C   UNL A   1      40.673  27.200  29.064  1.00  0.00     0.074 A 
ATOM     47  C   UNL A   1      39.564  27.146  28.143  1.00  0.00     0.031 C 
ATOM     48  C   UNL A   1      41.460  32.371  31.521  1.00  0.00     0.029 A 
ATOM     49  C   UNL A   1      40.152  32.716  32.076  1.00  0.00     0.049 A 
ATOM     50  H   UNL A   1      38.453  32.798  30.806  1.00  0.00     0.167 HD
ATOM     51  C   UNL A   1      41.974  26.789  29.030  1.00  0.00     0.037 A 
ATOM     52  C   UNL A   1      39.685  32.426  33.330  1.00  0.00     0.037 A 
ATOM     53  C   UNL A   1      42.738  27.523  30.053  1.00  0.00     0.049 A 
ATOM     54  C   UNL A   1      40.356  31.185  33.892  1.00  0.00     0.074 A 
ATOM     55  C   UNL A   1      43.540  28.653  30.009  1.00  0.00     0.029 A 
ATOM     56  N   UNL A   1      42.378  27.377  31.381  1.00  0.00    -0.354 N 
ATOM     57  N   UNL A   1      41.126  30.384  33.202  1.00  0.00    -0.248 NA
ATOM     58  C   UNL A   1      40.156  30.721  35.260  1.00  0.00     0.031 C 
ATOM     59  C   UNL A   1      43.617  29.198  31.331  1.00  0.00     0.029 A 
ATOM     60  C   UNL A   1      42.856  28.406  32.173  1.00  0.00     0.049 A 
ATOM     61  H   UNL A   1      41.841  26.626  31.724  1.00  0.00     0.167 HD
ATOM     62  C   UNL A   1      41.562  29.364  33.992  1.00  0.00     0.074 A 
ATOM     63  C   UNL A   1      40.871  29.585  35.255  1.00  0.00     0.031 C 
ATOM     64  C   UNL A   1      42.462  28.422  33.576  1.00  0.00     0.037 A 
BRANCH  51  65
ATOM     65  C   UNL A   1      42.623  26.023  27.893  1.00  0.00     0.057 A 
ATOM     66  C   UNL A   1      42.398  24.640  27.751  1.00  0.00     0.134 A 
ATOM     67  C   UNL A   1      43.475  26.567  26.912  1.00  0.00     0.134 A 
ATOM     68  F   UNL A   1      41.538  23.982  28.541  1.00  0.00    -0.206 F 
ATOM     69  C   UNL A   1      43.032  23.850  26.783  1.00  0.00     0.040 A 
ATOM     70  C   UNL A   1      44.145  25.783  25.957  1.00  0.00     0.040 A 
ATOM     71  F   UNL A   1      43.663  27.884  26.786  1.00  0.00    -0.206 F 
ATOM     72  C   UNL A   1      43.932  24.415  25.895  1.00  0.00     0.006 A 
ENDBRANCH  51  65
BRANCH  52  73
ATOM     73  C   UNL A   1      38.228  32.780  33.524  1.00  0.00     0.057 A 
ATOM     74  C   UNL A   1      37.866  34.135  33.705  1.00  0.00     0.134 A 
ATOM     75  C   UNL A   1      37.173  31.897  33.269  1.00  0.00     0.134 A 
ATOM     76  F   UNL A   1      38.806  35.058  33.965  1.00  0.00    -0.206 F 
ATOM     77  C   UNL A   1      36.556  34.597  33.525  1.00  0.00     0.040 A 
ATOM     78  C   UNL A   1      35.849  32.343  33.128  1.00  0.00     0.040 A 
ATOM     79  F   UNL A   1      37.400  30.593  33.060  1.00  0.00    -0.206 F 
ATOM     80  C   UNL A   1      35.544  33.699  33.216  1.00  0.00     0.006 A 
ENDBRANCH  52  73
BRANCH  64  81
ATOM     81  C   UNL A   1      43.028  27.394  34.514  1.00  0.00     0.057 A 
ATOM     82  C   UNL A   1      42.271  26.309  34.972  1.00  0.00     0.134 A 
ATOM     83  C   UNL A   1      44.319  27.503  35.068  1.00  0.00     0.134 A 
ATOM     84  F   UNL A   1      40.972  26.182  34.659  1.00  0.00    -0.206 F 
ATOM     85  C   UNL A   1      42.810  25.318  35.795  1.00  0.00     0.040 A 
ATOM     86  C   UNL A   1      44.846  26.556  35.942  1.00  0.00     0.040 A 
ATOM     87  F   UNL A   1      45.144  28.520  34.787  1.00  0.00    -0.206 F 
ATOM     88  C   UNL A   1      44.105  25.436  36.278  1.00  0.00     0.006 A 
ENDBRANCH  64  81
ENDBRANCH  38  39
ENDBRANCH  31  33
ENDBRANCH  30  31
ENDBRANCH  29  30
ENDBRANCH   1  29
TORSDOF 14
ENDMDL
