MODEL 1
REMARK VINA RESULT:     -10.5      0.000      0.000
REMARK SMILES CC(C)[C@@H](NC(=O)[C@H]1CCCO1)C(=O)OCCOC(=O)c1ccc(-c2c3nc(c(-c4c(F)cccc4F)c4ccc([nH]4)c(-c4c(F)cccc4F)c4nc(c(-c5c(F)cccc5F)c5ccc2[nH]5)C=C4)C=C3)cc1
REMARK SMILES IDX 16 1 15 2 13 3 14 4 4 5 2 6 1 7 3 8 5 9 6 10 7 12 8 13 9 14
REMARK SMILES IDX 12 15 10 16 11 17 17 18 18 19 19 20 20 21 21 22 22 23 74 24
REMARK SMILES IDX 23 25 73 26 24 27 25 28 26 29 67 30 27 31 72 32 66 33 68 34
REMARK SMILES IDX 28 35 71 36 65 37 64 38 29 40 55 41 38 42 54 43 39 44 42 45
REMARK SMILES IDX 53 46 69 47 40 48 41 49 52 51 70 52 43 53 30 54 31 55 36 56
REMARK SMILES IDX 32 57 33 58 35 59 37 60 34 61 56 62 57 63 62 64 58 65 59 66
REMARK SMILES IDX 61 67 63 68 60 69 44 70 45 71 50 72 46 73 47 74 49 75 51 76
REMARK SMILES IDX 48 77
REMARK H PARENT 5 11 68 39 42 50
REMARK Flexibility Score: inf
ROOT
ATOM      1  C   UNL A   1      37.789  20.033  25.002  1.00  0.00     0.274 C 
ENDROOT
BRANCH   1   2
ATOM      2  O   UNL A   1      36.904  21.099  24.572  1.00  0.00    -0.461 OA
BRANCH   2   3
ATOM      3  C   UNL A   1      36.390  21.991  25.443  1.00  0.00     0.329 C 
ATOM      4  O   UNL A   1      37.057  22.844  26.014  1.00  0.00    -0.250 OA
BRANCH   3   5
ATOM      5  C   UNL A   1      34.898  21.714  25.777  1.00  0.00     0.194 C 
BRANCH   5   6
ATOM      6  C   UNL A   1      34.378  22.740  26.845  1.00  0.00     0.017 C 
ATOM      7  C   UNL A   1      33.687  23.947  26.189  1.00  0.00     0.010 C 
ATOM      8  C   UNL A   1      33.378  22.153  27.856  1.00  0.00     0.010 C 
ENDBRANCH   5   6
BRANCH   5   9
ATOM      9  N   UNL A   1      33.954  21.663  24.633  1.00  0.00    -0.340 N 
ATOM     10  C   UNL A   1      33.036  20.737  24.221  1.00  0.00     0.249 C 
ATOM     11  H   UNL A   1      33.997  22.457  24.053  1.00  0.00     0.164 HD
ATOM     12  O   UNL A   1      32.104  21.169  23.535  1.00  0.00    -0.272 OA
BRANCH  10  13
ATOM     13  C   UNL A   1      33.222  19.226  24.477  1.00  0.00     0.207 C 
ATOM     14  C   UNL A   1      32.552  18.301  23.470  1.00  0.00     0.044 C 
ATOM     15  O   UNL A   1      34.589  18.789  24.545  1.00  0.00    -0.368 OA
ATOM     16  C   UNL A   1      33.570  17.214  23.191  1.00  0.00     0.032 C 
ATOM     17  C   UNL A   1      34.572  17.381  24.304  1.00  0.00     0.161 C 
ENDBRANCH  10  13
ENDBRANCH   5   9
ENDBRANCH   3   5
ENDBRANCH   2   3
ENDBRANCH   1   2
BRANCH   1  18
ATOM     18  C   UNL A   1      39.235  20.380  25.381  1.00  0.00     0.275 C 
BRANCH  18  19
ATOM     19  O   UNL A   1      39.964  19.199  25.764  1.00  0.00    -0.458 OA
BRANCH  19  20
ATOM     20  C   UNL A   1      41.289  19.435  25.958  1.00  0.00     0.338 C 
ATOM     21  O   UNL A   1      42.195  18.643  25.765  1.00  0.00    -0.246 OA
BRANCH  20  22
ATOM     22  C   UNL A   1      41.520  20.810  26.472  1.00  0.00     0.060 A 
ATOM     23  C   UNL A   1      42.012  21.838  25.660  1.00  0.00     0.016 A 
ATOM     24  C   UNL A   1      41.331  21.045  27.835  1.00  0.00     0.016 A 
ATOM     25  C   UNL A   1      42.338  23.084  26.211  1.00  0.00     0.010 A 
ATOM     26  C   UNL A   1      41.620  22.300  28.381  1.00  0.00     0.010 A 
ATOM     27  C   UNL A   1      42.152  23.325  27.581  1.00  0.00    -0.014 A 
BRANCH  27  28
ATOM     28  C   UNL A   1      42.560  24.612  28.211  1.00  0.00     0.031 A 
ATOM     29  C   UNL A   1      41.536  25.696  28.438  1.00  0.00     0.074 A 
ATOM     30  C   UNL A   1      43.845  24.840  28.541  1.00  0.00     0.049 A 
ATOM     31  N   UNL A   1      41.708  26.935  28.825  1.00  0.00    -0.248 NA
ATOM     32  C   UNL A   1      40.133  25.335  28.185  1.00  0.00     0.031 C 
ATOM     33  C   UNL A   1      44.940  23.881  28.397  1.00  0.00     0.029 A 
ATOM     34  N   UNL A   1      44.450  25.965  29.049  1.00  0.00    -0.354 N 
ATOM     35  C   UNL A   1      40.443  27.512  28.831  1.00  0.00     0.074 A 
ATOM     36  C   UNL A   1      39.516  26.490  28.392  1.00  0.00     0.031 C 
ATOM     37  C   UNL A   1      46.083  24.459  28.806  1.00  0.00     0.029 A 
ATOM     38  C   UNL A   1      45.810  25.840  29.193  1.00  0.00     0.049 A 
ATOM     39  H   UNL A   1      43.955  26.782  29.287  1.00  0.00     0.167 HD
ATOM     40  C   UNL A   1      40.083  28.773  29.175  1.00  0.00     0.037 A 
ATOM     41  C   UNL A   1      46.738  26.742  29.566  1.00  0.00     0.037 A 
ATOM     42  C   UNL A   1      40.997  29.789  29.632  1.00  0.00     0.049 A 
ATOM     43  C   UNL A   1      46.319  28.145  29.914  1.00  0.00     0.074 A 
ATOM     44  C   UNL A   1      40.721  31.091  30.016  1.00  0.00     0.029 A 
ATOM     45  N   UNL A   1      42.366  29.617  29.771  1.00  0.00    -0.354 N 
ATOM     46  N   UNL A   1      45.122  28.678  29.910  1.00  0.00    -0.248 NA
ATOM     47  C   UNL A   1      47.387  29.073  30.318  1.00  0.00     0.031 C 
ATOM     48  C   UNL A   1      41.926  31.716  30.356  1.00  0.00     0.029 A 
ATOM     49  C   UNL A   1      42.947  30.790  30.226  1.00  0.00     0.049 A 
ATOM     50  H   UNL A   1      42.853  28.784  29.575  1.00  0.00     0.167 HD
ATOM     51  C   UNL A   1      45.287  29.989  30.339  1.00  0.00     0.074 A 
ATOM     52  C   UNL A   1      46.699  30.169  30.605  1.00  0.00     0.031 C 
ATOM     53  C   UNL A   1      44.351  30.958  30.498  1.00  0.00     0.037 A 
BRANCH  40  54
ATOM     54  C   UNL A   1      38.631  29.136  29.047  1.00  0.00     0.057 A 
ATOM     55  C   UNL A   1      37.751  29.064  30.135  1.00  0.00     0.134 A 
ATOM     56  C   UNL A   1      38.115  29.596  27.829  1.00  0.00     0.134 A 
ATOM     57  F   UNL A   1      38.179  28.620  31.328  1.00  0.00    -0.206 F 
ATOM     58  C   UNL A   1      36.406  29.411  30.009  1.00  0.00     0.040 A 
ATOM     59  C   UNL A   1      36.777  29.971  27.697  1.00  0.00     0.040 A 
ATOM     60  F   UNL A   1      38.906  29.697  26.749  1.00  0.00    -0.206 F 
ATOM     61  C   UNL A   1      35.916  29.873  28.788  1.00  0.00     0.006 A 
ENDBRANCH  40  54
BRANCH  41  62
ATOM     62  C   UNL A   1      48.169  26.351  29.629  1.00  0.00     0.057 A 
ATOM     63  C   UNL A   1      48.723  25.827  30.802  1.00  0.00     0.134 A 
ATOM     64  C   UNL A   1      49.018  26.508  28.526  1.00  0.00     0.134 A 
ATOM     65  F   UNL A   1      47.965  25.679  31.898  1.00  0.00    -0.206 F 
ATOM     66  C   UNL A   1      50.073  25.484  30.883  1.00  0.00     0.040 A 
ATOM     67  C   UNL A   1      50.364  26.145  28.586  1.00  0.00     0.040 A 
ATOM     68  F   UNL A   1      48.547  27.005  27.373  1.00  0.00    -0.206 F 
ATOM     69  C   UNL A   1      50.898  25.638  29.769  1.00  0.00     0.006 A 
ENDBRANCH  41  62
BRANCH  53  70
ATOM     70  C   UNL A   1      44.820  32.281  31.032  1.00  0.00     0.057 A 
ATOM     71  C   UNL A   1      44.874  32.553  32.405  1.00  0.00     0.134 A 
ATOM     72  C   UNL A   1      45.232  33.294  30.156  1.00  0.00     0.134 A 
ATOM     73  F   UNL A   1      44.480  31.630  33.297  1.00  0.00    -0.206 F 
ATOM     74  C   UNL A   1      45.291  33.795  32.888  1.00  0.00     0.040 A 
ATOM     75  C   UNL A   1      45.675  34.532  30.627  1.00  0.00     0.040 A 
ATOM     76  F   UNL A   1      45.214  33.098  28.830  1.00  0.00    -0.206 F 
ATOM     77  C   UNL A   1      45.696  34.787  31.997  1.00  0.00     0.006 A 
ENDBRANCH  53  70
ENDBRANCH  27  28
ENDBRANCH  20  22
ENDBRANCH  19  20
ENDBRANCH  18  19
ENDBRANCH   1  18
TORSDOF 14
ENDMDL
MODEL 2
REMARK VINA RESULT:     -10.4      5.049     10.304
REMARK SMILES CC(C)[C@@H](NC(=O)[C@H]1CCCO1)C(=O)OCCOC(=O)c1ccc(-c2c3nc(c(-c4c(F)cccc4F)c4ccc([nH]4)c(-c4c(F)cccc4F)c4nc(c(-c5c(F)cccc5F)c5ccc2[nH]5)C=C4)C=C3)cc1
REMARK SMILES IDX 16 1 15 2 13 3 14 4 4 5 2 6 1 7 3 8 5 9 6 10 7 12 8 13 9 14
REMARK SMILES IDX 12 15 10 16 11 17 17 18 18 19 19 20 20 21 21 22 22 23 74 24
REMARK SMILES IDX 23 25 73 26 24 27 25 28 26 29 67 30 27 31 72 32 66 33 68 34
REMARK SMILES IDX 28 35 71 36 65 37 64 38 29 40 55 41 38 42 54 43 39 44 42 45
REMARK SMILES IDX 53 46 69 47 40 48 41 49 52 51 70 52 43 53 30 54 31 55 36 56
REMARK SMILES IDX 32 57 33 58 35 59 37 60 34 61 56 62 57 63 62 64 58 65 59 66
REMARK SMILES IDX 61 67 63 68 60 69 44 70 45 71 50 72 46 73 47 74 49 75 51 76
REMARK SMILES IDX 48 77
REMARK H PARENT 5 11 68 39 42 50
REMARK Flexibility Score: inf
ROOT
ATOM      1  C   UNL A   1      46.463  22.961  24.254  1.00  0.00     0.274 C 
ENDROOT
BRANCH   1   2
ATOM      2  O   UNL A   1      46.900  24.252  24.750  1.00  0.00    -0.461 OA
BRANCH   2   3
ATOM      3  C   UNL A   1      46.950  24.525  26.070  1.00  0.00     0.329 C 
ATOM      4  O   UNL A   1      46.840  23.675  26.944  1.00  0.00    -0.250 OA
BRANCH   3   5
ATOM      5  C   UNL A   1      46.991  26.050  26.367  1.00  0.00     0.194 C 
BRANCH   5   6
ATOM      6  C   UNL A   1      48.381  26.451  26.976  1.00  0.00     0.017 C 
ATOM      7  C   UNL A   1      48.357  26.435  28.515  1.00  0.00     0.010 C 
ATOM      8  C   UNL A   1      49.549  25.548  26.543  1.00  0.00     0.010 C 
ENDBRANCH   5   6
BRANCH   5   9
ATOM      9  N   UNL A   1      46.658  26.960  25.243  1.00  0.00    -0.340 N 
ATOM     10  C   UNL A   1      46.488  28.315  25.158  1.00  0.00     0.249 C 
ATOM     11  H   UNL A   1      46.537  26.495  24.384  1.00  0.00     0.164 HD
ATOM     12  O   UNL A   1      46.678  28.814  24.045  1.00  0.00    -0.272 OA
BRANCH  10  13
ATOM     13  C   UNL A   1      45.954  29.151  26.341  1.00  0.00     0.207 C 
ATOM     14  C   UNL A   1      46.857  30.285  26.805  1.00  0.00     0.044 C 
ATOM     15  O   UNL A   1      44.668  29.753  26.123  1.00  0.00    -0.368 OA
ATOM     16  C   UNL A   1      45.929  31.459  27.045  1.00  0.00     0.032 C 
ATOM     17  C   UNL A   1      44.562  30.824  27.062  1.00  0.00     0.161 C 
ENDBRANCH  10  13
ENDBRANCH   5   9
ENDBRANCH   3   5
ENDBRANCH   2   3
ENDBRANCH   1   2
BRANCH   1  18
ATOM     18  C   UNL A   1      44.988  22.775  23.874  1.00  0.00     0.275 C 
BRANCH  18  19
ATOM     19  O   UNL A   1      44.191  23.876  24.350  1.00  0.00    -0.458 OA
BRANCH  19  20
ATOM     20  C   UNL A   1      43.138  23.476  25.112  1.00  0.00     0.338 C 
ATOM     21  O   UNL A   1      42.584  22.392  25.059  1.00  0.00    -0.246 OA
BRANCH  20  22
ATOM     22  C   UNL A   1      42.705  24.555  26.037  1.00  0.00     0.060 A 
ATOM     23  C   UNL A   1      43.296  25.823  26.035  1.00  0.00     0.016 A 
ATOM     24  C   UNL A   1      41.744  24.249  27.003  1.00  0.00     0.016 A 
ATOM     25  C   UNL A   1      42.949  26.770  27.008  1.00  0.00     0.010 A 
ATOM     26  C   UNL A   1      41.368  25.206  27.952  1.00  0.00     0.010 A 
ATOM     27  C   UNL A   1      41.985  26.468  27.982  1.00  0.00    -0.014 A 
BRANCH  27  28
ATOM     28  C   UNL A   1      41.650  27.423  29.074  1.00  0.00     0.031 A 
ATOM     29  C   UNL A   1      42.419  27.383  30.371  1.00  0.00     0.074 A 
ATOM     30  C   UNL A   1      40.636  28.298  28.937  1.00  0.00     0.049 A 
ATOM     31  N   UNL A   1      42.190  28.015  31.495  1.00  0.00    -0.248 NA
ATOM     32  C   UNL A   1      43.597  26.504  30.406  1.00  0.00     0.031 C 
ATOM     33  C   UNL A   1      39.817  28.465  27.737  1.00  0.00     0.029 A 
ATOM     34  N   UNL A   1      40.108  29.201  29.830  1.00  0.00    -0.354 N 
ATOM     35  C   UNL A   1      43.173  27.587  32.380  1.00  0.00     0.074 A 
ATOM     36  C   UNL A   1      43.990  26.628  31.666  1.00  0.00     0.031 C 
ATOM     37  C   UNL A   1      38.890  29.410  27.968  1.00  0.00     0.029 A 
ATOM     38  C   UNL A   1      39.018  29.879  29.345  1.00  0.00     0.049 A 
ATOM     39  H   UNL A   1      40.478  29.345  30.731  1.00  0.00     0.167 HD
ATOM     40  C   UNL A   1      43.381  27.960  33.666  1.00  0.00     0.037 A 
ATOM     41  C   UNL A   1      38.194  30.760  29.948  1.00  0.00     0.037 A 
ATOM     42  C   UNL A   1      42.585  28.929  34.377  1.00  0.00     0.049 A 
ATOM     43  C   UNL A   1      38.427  31.136  31.386  1.00  0.00     0.074 A 
ATOM     44  C   UNL A   1      42.731  29.381  35.678  1.00  0.00     0.029 A 
ATOM     45  N   UNL A   1      41.494  29.599  33.845  1.00  0.00    -0.354 N 
ATOM     46  N   UNL A   1      39.356  30.721  32.212  1.00  0.00    -0.248 NA
ATOM     47  C   UNL A   1      37.491  32.106  31.975  1.00  0.00     0.031 C 
ATOM     48  C   UNL A   1      41.709  30.299  35.944  1.00  0.00     0.029 A 
ATOM     49  C   UNL A   1      40.954  30.453  34.794  1.00  0.00     0.049 A 
ATOM     50  H   UNL A   1      41.154  29.486  32.928  1.00  0.00     0.167 HD
ATOM     51  C   UNL A   1      39.137  31.400  33.404  1.00  0.00     0.074 A 
ATOM     52  C   UNL A   1      37.994  32.262  33.191  1.00  0.00     0.031 C 
ATOM     53  C   UNL A   1      39.822  31.316  34.571  1.00  0.00     0.037 A 
BRANCH  40  54
ATOM     54  C   UNL A   1      44.510  27.299  34.403  1.00  0.00     0.057 A 
ATOM     55  C   UNL A   1      45.787  27.871  34.471  1.00  0.00     0.134 A 
ATOM     56  C   UNL A   1      44.308  26.090  35.082  1.00  0.00     0.134 A 
ATOM     57  F   UNL A   1      46.052  29.022  33.833  1.00  0.00    -0.206 F 
ATOM     58  C   UNL A   1      46.828  27.253  35.166  1.00  0.00     0.040 A 
ATOM     59  C   UNL A   1      45.334  25.475  35.801  1.00  0.00     0.040 A 
ATOM     60  F   UNL A   1      43.107  25.492  35.065  1.00  0.00    -0.206 F 
ATOM     61  C   UNL A   1      46.601  26.054  35.839  1.00  0.00     0.006 A 
ENDBRANCH  40  54
BRANCH  41  62
ATOM     62  C   UNL A   1      37.061  31.350  29.194  1.00  0.00     0.057 A 
ATOM     63  C   UNL A   1      37.132  32.653  28.686  1.00  0.00     0.134 A 
ATOM     64  C   UNL A   1      35.876  30.635  28.977  1.00  0.00     0.134 A 
ATOM     65  F   UNL A   1      38.230  33.394  28.885  1.00  0.00    -0.206 F 
ATOM     66  C   UNL A   1      36.061  33.229  28.002  1.00  0.00     0.040 A 
ATOM     67  C   UNL A   1      34.807  31.191  28.273  1.00  0.00     0.040 A 
ATOM     68  F   UNL A   1      35.746  29.383  29.438  1.00  0.00    -0.206 F 
ATOM     69  C   UNL A   1      34.895  32.495  27.789  1.00  0.00     0.006 A 
ENDBRANCH  41  62
BRANCH  53  70
ATOM     70  C   UNL A   1      39.385  32.218  35.689  1.00  0.00     0.057 A 
ATOM     71  C   UNL A   1      39.888  33.516  35.838  1.00  0.00     0.134 A 
ATOM     72  C   UNL A   1      38.437  31.781  36.625  1.00  0.00     0.134 A 
ATOM     73  F   UNL A   1      40.807  33.991  34.984  1.00  0.00    -0.206 F 
ATOM     74  C   UNL A   1      39.488  34.337  36.895  1.00  0.00     0.040 A 
ATOM     75  C   UNL A   1      38.011  32.601  37.671  1.00  0.00     0.040 A 
ATOM     76  F   UNL A   1      37.908  30.552  36.536  1.00  0.00    -0.206 F 
ATOM     77  C   UNL A   1      38.545  33.881  37.813  1.00  0.00     0.006 A 
ENDBRANCH  53  70
ENDBRANCH  27  28
ENDBRANCH  20  22
ENDBRANCH  19  20
ENDBRANCH  18  19
ENDBRANCH   1  18
TORSDOF 14
ENDMDL
MODEL 3
REMARK VINA RESULT:     -10.4      2.910      7.512
REMARK SMILES CC(C)[C@@H](NC(=O)[C@H]1CCCO1)C(=O)OCCOC(=O)c1ccc(-c2c3nc(c(-c4c(F)cccc4F)c4ccc([nH]4)c(-c4c(F)cccc4F)c4nc(c(-c5c(F)cccc5F)c5ccc2[nH]5)C=C4)C=C3)cc1
REMARK SMILES IDX 16 1 15 2 13 3 14 4 4 5 2 6 1 7 3 8 5 9 6 10 7 12 8 13 9 14
REMARK SMILES IDX 12 15 10 16 11 17 17 18 18 19 19 20 20 21 21 22 22 23 74 24
REMARK SMILES IDX 23 25 73 26 24 27 25 28 26 29 67 30 27 31 72 32 66 33 68 34
REMARK SMILES IDX 28 35 71 36 65 37 64 38 29 40 55 41 38 42 54 43 39 44 42 45
REMARK SMILES IDX 53 46 69 47 40 48 41 49 52 51 70 52 43 53 30 54 31 55 36 56
REMARK SMILES IDX 32 57 33 58 35 59 37 60 34 61 56 62 57 63 62 64 58 65 59 66
REMARK SMILES IDX 61 67 63 68 60 69 44 70 45 71 50 72 46 73 47 74 49 75 51 76
REMARK SMILES IDX 48 77
REMARK H PARENT 5 11 68 39 42 50
REMARK Flexibility Score: inf
ROOT
ATOM      1  C   UNL A   1      31.805  28.987  27.063  1.00  0.00     0.274 C 
ENDROOT
BRANCH   1   2
ATOM      2  O   UNL A   1      32.232  28.011  26.079  1.00  0.00    -0.461 OA
BRANCH   2   3
ATOM      3  C   UNL A   1      31.591  26.834  25.922  1.00  0.00     0.329 C 
ATOM      4  O   UNL A   1      31.406  26.036  26.831  1.00  0.00    -0.250 OA
BRANCH   3   5
ATOM      5  C   UNL A   1      31.264  26.521  24.436  1.00  0.00     0.194 C 
BRANCH   5   6
ATOM      6  C   UNL A   1      30.048  27.386  23.950  1.00  0.00     0.017 C 
ATOM      7  C   UNL A   1      30.295  27.987  22.555  1.00  0.00     0.010 C 
ATOM      8  C   UNL A   1      28.714  26.623  23.873  1.00  0.00     0.010 C 
ENDBRANCH   5   6
BRANCH   5   9
ATOM      9  N   UNL A   1      32.381  26.640  23.465  1.00  0.00    -0.340 N 
ATOM     10  C   UNL A   1      33.318  25.755  23.008  1.00  0.00     0.249 C 
ATOM     11  H   UNL A   1      32.463  27.538  23.070  1.00  0.00     0.164 HD
ATOM     12  O   UNL A   1      33.797  26.002  21.897  1.00  0.00    -0.272 OA
BRANCH  10  13
ATOM     13  C   UNL A   1      33.849  24.597  23.880  1.00  0.00     0.207 C 
ATOM     14  C   UNL A   1      34.536  23.467  23.126  1.00  0.00     0.044 C 
ATOM     15  O   UNL A   1      34.776  24.990  24.905  1.00  0.00    -0.368 OA
ATOM     16  C   UNL A   1      35.763  23.129  23.948  1.00  0.00     0.032 C 
ATOM     17  C   UNL A   1      35.498  23.811  25.266  1.00  0.00     0.161 C 
ENDBRANCH  10  13
ENDBRANCH   5   9
ENDBRANCH   3   5
ENDBRANCH   2   3
ENDBRANCH   1   2
BRANCH   1  18
ATOM     18  C   UNL A   1      32.629  30.270  27.238  1.00  0.00     0.275 C 
BRANCH  18  19
ATOM     19  O   UNL A   1      34.039  29.988  27.172  1.00  0.00    -0.458 OA
BRANCH  19  20
ATOM     20  C   UNL A   1      34.757  30.658  28.113  1.00  0.00     0.338 C 
ATOM     21  O   UNL A   1      34.400  31.656  28.713  1.00  0.00    -0.246 OA
BRANCH  20  22
ATOM     22  C   UNL A   1      36.087  30.028  28.323  1.00  0.00     0.060 A 
ATOM     23  C   UNL A   1      36.470  29.484  29.554  1.00  0.00     0.016 A 
ATOM     24  C   UNL A   1      37.012  30.077  27.278  1.00  0.00     0.016 A 
ATOM     25  C   UNL A   1      37.776  29.017  29.748  1.00  0.00     0.010 A 
ATOM     26  C   UNL A   1      38.306  29.576  27.458  1.00  0.00     0.010 A 
ATOM     27  C   UNL A   1      38.711  29.065  28.702  1.00  0.00    -0.014 A 
BRANCH  27  28
ATOM     28  C   UNL A   1      40.127  28.648  28.899  1.00  0.00     0.031 A 
ATOM     29  C   UNL A   1      41.133  29.633  29.438  1.00  0.00     0.074 A 
ATOM     30  C   UNL A   1      40.534  27.410  28.559  1.00  0.00     0.049 A 
ATOM     31  N   UNL A   1      42.435  29.523  29.539  1.00  0.00    -0.248 NA
ATOM     32  C   UNL A   1      40.601  30.917  29.917  1.00  0.00     0.031 C 
ATOM     33  C   UNL A   1      39.672  26.346  28.044  1.00  0.00     0.029 A 
ATOM     34  N   UNL A   1      41.787  26.846  28.579  1.00  0.00    -0.354 N 
ATOM     35  C   UNL A   1      42.880  30.732  30.061  1.00  0.00     0.074 A 
ATOM     36  C   UNL A   1      41.711  31.567  30.240  1.00  0.00     0.031 C 
ATOM     37  C   UNL A   1      40.422  25.259  27.795  1.00  0.00     0.029 A 
ATOM     38  C   UNL A   1      41.820  25.565  28.086  1.00  0.00     0.049 A 
ATOM     39  H   UNL A   1      42.585  27.316  28.914  1.00  0.00     0.167 HD
ATOM     40  C   UNL A   1      44.144  31.113  30.370  1.00  0.00     0.037 A 
ATOM     41  C   UNL A   1      42.861  24.737  27.864  1.00  0.00     0.037 A 
ATOM     42  C   UNL A   1      45.310  30.280  30.214  1.00  0.00     0.049 A 
ATOM     43  C   UNL A   1      44.259  25.193  28.186  1.00  0.00     0.074 A 
ATOM     44  C   UNL A   1      46.630  30.576  30.515  1.00  0.00     0.029 A 
ATOM     45  N   UNL A   1      45.298  28.985  29.719  1.00  0.00    -0.354 N 
ATOM     46  N   UNL A   1      44.666  26.339  28.674  1.00  0.00    -0.248 NA
ATOM     47  C   UNL A   1      45.343  24.233  27.923  1.00  0.00     0.031 C 
ATOM     48  C   UNL A   1      47.419  29.473  30.170  1.00  0.00     0.029 A 
ATOM     49  C   UNL A   1      46.585  28.474  29.697  1.00  0.00     0.049 A 
ATOM     50  H   UNL A   1      44.492  28.501  29.427  1.00  0.00     0.167 HD
ATOM     51  C   UNL A   1      46.045  26.228  28.805  1.00  0.00     0.074 A 
ATOM     52  C   UNL A   1      46.404  24.900  28.357  1.00  0.00     0.031 C 
ATOM     53  C   UNL A   1      46.934  27.147  29.259  1.00  0.00     0.037 A 
BRANCH  40  54
ATOM     54  C   UNL A   1      44.338  32.508  30.890  1.00  0.00     0.057 A 
ATOM     55  C   UNL A   1      44.326  32.797  32.260  1.00  0.00     0.134 A 
ATOM     56  C   UNL A   1      44.573  33.572  30.009  1.00  0.00     0.134 A 
ATOM     57  F   UNL A   1      44.095  31.826  33.159  1.00  0.00    -0.206 F 
ATOM     58  C   UNL A   1      44.516  34.095  32.735  1.00  0.00     0.040 A 
ATOM     59  C   UNL A   1      44.789  34.870  30.472  1.00  0.00     0.040 A 
ATOM     60  F   UNL A   1      44.605  33.363  28.684  1.00  0.00    -0.206 F 
ATOM     61  C   UNL A   1      44.755  35.136  31.839  1.00  0.00     0.006 A 
ENDBRANCH  40  54
BRANCH  41  62
ATOM     62  C   UNL A   1      42.625  23.385  27.301  1.00  0.00     0.057 A 
ATOM     63  C   UNL A   1      42.328  22.298  28.133  1.00  0.00     0.134 A 
ATOM     64  C   UNL A   1      42.708  23.141  25.925  1.00  0.00     0.134 A 
ATOM     65  F   UNL A   1      42.262  22.465  29.461  1.00  0.00    -0.206 F 
ATOM     66  C   UNL A   1      42.135  21.016  27.618  1.00  0.00     0.040 A 
ATOM     67  C   UNL A   1      42.492  21.869  25.395  1.00  0.00     0.040 A 
ATOM     68  F   UNL A   1      42.988  24.141  25.076  1.00  0.00    -0.206 F 
ATOM     69  C   UNL A   1      42.211  20.799  26.243  1.00  0.00     0.006 A 
ENDBRANCH  41  62
BRANCH  53  70
ATOM     70  C   UNL A   1      48.373  26.725  29.339  1.00  0.00     0.057 A 
ATOM     71  C   UNL A   1      48.878  26.006  30.430  1.00  0.00     0.134 A 
ATOM     72  C   UNL A   1      49.263  27.037  28.303  1.00  0.00     0.134 A 
ATOM     73  F   UNL A   1      48.081  25.687  31.461  1.00  0.00    -0.206 F 
ATOM     74  C   UNL A   1      50.223  25.639  30.502  1.00  0.00     0.040 A 
ATOM     75  C   UNL A   1      50.605  26.654  28.352  1.00  0.00     0.040 A 
ATOM     76  F   UNL A   1      48.844  27.716  27.225  1.00  0.00    -0.206 F 
ATOM     77  C   UNL A   1      51.089  25.960  29.459  1.00  0.00     0.006 A 
ENDBRANCH  53  70
ENDBRANCH  27  28
ENDBRANCH  20  22
ENDBRANCH  19  20
ENDBRANCH  18  19
ENDBRANCH   1  18
TORSDOF 14
ENDMDL
