MODEL 1
REMARK VINA RESULT:     -10.9      0.000      0.000
REMARK SMILES C[C@@H](CS(=O)(=O)[C@@H]1CCC[C@H](S(C)(=O)=O)C1)C(=O)OCCOC(=O)c1ccc(-c2c3nc(c(-c4c(F)cccc4F)c4ccc([nH]4)c(-c4c(F)cccc4F)c4nc(c(-c5c(F)cccc5F)c5ccc2[nH]5)C=C4)C=C3)cc1
REMARK SMILES IDX 20 1 19 2 17 3 18 4 2 5 1 6 3 7 4 8 5 9 6 10 7 11 8 12 16 13
REMARK SMILES IDX 9 14 11 15 10 16 12 17 13 18 14 19 15 20 21 21 22 22 23 23
REMARK SMILES IDX 24 24 25 25 26 26 78 27 27 28 77 29 28 30 29 31 30 32 71 33
REMARK SMILES IDX 31 34 76 35 70 36 72 37 32 38 75 39 69 40 68 41 33 43 59 44
REMARK SMILES IDX 42 45 58 46 43 47 46 48 57 49 73 50 44 51 45 52 56 54 74 55
REMARK SMILES IDX 47 56 34 57 35 58 40 59 36 60 37 61 39 62 41 63 38 64 60 65
REMARK SMILES IDX 61 66 66 67 62 68 63 69 65 70 67 71 64 72 48 73 49 74 54 75
REMARK SMILES IDX 50 76 51 77 53 78 55 79 52 80
REMARK H PARENT 72 42 46 53
REMARK Flexibility Score: inf
ROOT
ATOM      1  C   UNL A   1      31.401  29.249  24.868  1.00  0.00     0.274 C 
ENDROOT
BRANCH   1   2
ATOM      2  O   UNL A   1      30.352  29.607  23.946  1.00  0.00    -0.462 OA
BRANCH   2   3
ATOM      3  C   UNL A   1      30.207  28.811  22.859  1.00  0.00     0.309 C 
ATOM      4  O   UNL A   1      29.899  29.184  21.734  1.00  0.00    -0.252 OA
BRANCH   3   5
ATOM      5  C   UNL A   1      30.476  27.349  23.170  1.00  0.00     0.111 C 
ATOM      6  C   UNL A   1      29.314  26.611  23.838  1.00  0.00     0.021 C 
BRANCH   5   7
ATOM      7  C   UNL A   1      31.132  26.627  21.998  1.00  0.00     0.152 C 
BRANCH   7   8
ATOM      8  S   UNL A   1      32.895  26.374  22.046  1.00  0.00     0.154 S 
ATOM      9  O   UNL A   1      33.275  25.636  20.859  1.00  0.00    -0.229 OA
ATOM     10  O   UNL A   1      33.489  27.674  22.303  1.00  0.00    -0.229 OA
BRANCH   8  11
ATOM     11  C   UNL A   1      33.219  25.343  23.485  1.00  0.00     0.110 C 
ATOM     12  C   UNL A   1      33.354  26.175  24.763  1.00  0.00     0.020 C 
ATOM     13  C   UNL A   1      34.455  24.470  23.259  1.00  0.00     0.039 C 
ATOM     14  C   UNL A   1      33.651  25.298  25.974  1.00  0.00     0.003 C 
ATOM     15  C   UNL A   1      34.725  23.572  24.474  1.00  0.00     0.109 C 
ATOM     16  C   UNL A   1      34.873  24.410  25.746  1.00  0.00     0.020 C 
BRANCH  15  17
ATOM     17  S   UNL A   1      36.157  22.530  24.156  1.00  0.00     0.150 S 
ATOM     18  C   UNL A   1      37.401  23.111  25.285  1.00  0.00     0.158 C 
ATOM     19  O   UNL A   1      35.810  21.184  24.572  1.00  0.00    -0.229 OA
ATOM     20  O   UNL A   1      36.628  22.796  22.812  1.00  0.00    -0.229 OA
ENDBRANCH  15  17
ENDBRANCH   8  11
ENDBRANCH   7   8
ENDBRANCH   5   7
ENDBRANCH   3   5
ENDBRANCH   2   3
ENDBRANCH   1   2
BRANCH   1  21
ATOM     21  C   UNL A   1      31.600  30.344  25.918  1.00  0.00     0.275 C 
BRANCH  21  22
ATOM     22  O   UNL A   1      32.999  30.594  26.152  1.00  0.00    -0.458 OA
BRANCH  22  23
ATOM     23  C   UNL A   1      33.267  31.619  26.994  1.00  0.00     0.338 C 
ATOM     24  O   UNL A   1      32.562  32.578  27.256  1.00  0.00    -0.246 OA
BRANCH  23  25
ATOM     25  C   UNL A   1      34.515  31.328  27.712  1.00  0.00     0.060 A 
ATOM     26  C   UNL A   1      34.687  30.040  28.223  1.00  0.00     0.016 A 
ATOM     27  C   UNL A   1      35.478  32.313  27.932  1.00  0.00     0.016 A 
ATOM     28  C   UNL A   1      35.820  29.719  28.956  1.00  0.00     0.010 A 
ATOM     29  C   UNL A   1      36.628  31.987  28.659  1.00  0.00     0.010 A 
ATOM     30  C   UNL A   1      36.804  30.688  29.172  1.00  0.00    -0.014 A 
BRANCH  30  31
ATOM     31  C   UNL A   1      38.024  30.327  29.927  1.00  0.00     0.031 A 
ATOM     32  C   UNL A   1      39.052  29.430  29.310  1.00  0.00     0.074 A 
ATOM     33  C   UNL A   1      38.203  30.827  31.163  1.00  0.00     0.049 A 
ATOM     34  N   UNL A   1      40.118  28.904  29.854  1.00  0.00    -0.248 NA
ATOM     35  C   UNL A   1      38.858  29.078  27.895  1.00  0.00     0.031 C 
ATOM     36  C   UNL A   1      37.296  31.756  31.840  1.00  0.00     0.029 A 
ATOM     37  N   UNL A   1      39.206  30.615  32.075  1.00  0.00    -0.354 N 
ATOM     38  C   UNL A   1      40.710  28.138  28.860  1.00  0.00     0.074 A 
ATOM     39  C   UNL A   1      39.885  28.266  27.677  1.00  0.00     0.031 C 
ATOM     40  C   UNL A   1      37.776  32.022  33.065  1.00  0.00     0.029 A 
ATOM     41  C   UNL A   1      38.991  31.243  33.277  1.00  0.00     0.049 A 
ATOM     42  H   UNL A   1      40.000  30.065  31.886  1.00  0.00     0.167 HD
ATOM     43  C   UNL A   1      41.836  27.393  28.935  1.00  0.00     0.037 A 
ATOM     44  C   UNL A   1      39.673  31.161  34.434  1.00  0.00     0.037 A 
ATOM     45  C   UNL A   1      42.661  27.288  30.110  1.00  0.00     0.049 A 
ATOM     46  C   UNL A   1      40.878  30.268  34.510  1.00  0.00     0.074 A 
ATOM     47  C   UNL A   1      43.841  26.584  30.276  1.00  0.00     0.029 A 
ATOM     48  N   UNL A   1      42.389  27.905  31.321  1.00  0.00    -0.354 N 
ATOM     49  N   UNL A   1      41.426  29.540  33.567  1.00  0.00    -0.248 NA
ATOM     50  C   UNL A   1      41.548  30.170  35.813  1.00  0.00     0.031 C 
ATOM     51  C   UNL A   1      44.261  26.742  31.600  1.00  0.00     0.029 A 
ATOM     52  C   UNL A   1      43.362  27.574  32.248  1.00  0.00     0.049 A 
ATOM     53  H   UNL A   1      41.618  28.491  31.496  1.00  0.00     0.167 HD
ATOM     54  C   UNL A   1      42.507  28.902  34.161  1.00  0.00     0.074 A 
ATOM     55  C   UNL A   1      42.550  29.347  35.539  1.00  0.00     0.031 C 
ATOM     56  C   UNL A   1      43.380  28.022  33.616  1.00  0.00     0.037 A 
BRANCH  43  57
ATOM     57  C   UNL A   1      42.231  26.605  27.725  1.00  0.00     0.057 A 
ATOM     58  C   UNL A   1      43.084  27.127  26.746  1.00  0.00     0.134 A 
ATOM     59  C   UNL A   1      41.794  25.283  27.568  1.00  0.00     0.134 A 
ATOM     60  F   UNL A   1      43.525  28.392  26.832  1.00  0.00    -0.206 F 
ATOM     61  C   UNL A   1      43.484  26.363  25.647  1.00  0.00     0.040 A 
ATOM     62  C   UNL A   1      42.201  24.505  26.483  1.00  0.00     0.040 A 
ATOM     63  F   UNL A   1      40.976  24.726  28.472  1.00  0.00    -0.206 F 
ATOM     64  C   UNL A   1      43.049  25.045  25.519  1.00  0.00     0.006 A 
ENDBRANCH  43  57
BRANCH  44  65
ATOM     65  C   UNL A   1      39.194  31.894  35.632  1.00  0.00     0.057 A 
ATOM     66  C   UNL A   1      39.654  33.181  35.927  1.00  0.00     0.134 A 
ATOM     67  C   UNL A   1      38.279  31.313  36.519  1.00  0.00     0.134 A 
ATOM     68  F   UNL A   1      40.550  33.778  35.127  1.00  0.00    -0.206 F 
ATOM     69  C   UNL A   1      39.231  33.862  37.069  1.00  0.00     0.040 A 
ATOM     70  C   UNL A   1      37.829  31.992  37.651  1.00  0.00     0.040 A 
ATOM     71  F   UNL A   1      37.804  30.080  36.291  1.00  0.00    -0.206 F 
ATOM     72  C   UNL A   1      38.311  33.268  37.933  1.00  0.00     0.006 A 
ENDBRANCH  44  65
BRANCH  56  73
ATOM     73  C   UNL A   1      44.455  27.491  34.514  1.00  0.00     0.057 A 
ATOM     74  C   UNL A   1      45.667  28.172  34.685  1.00  0.00     0.134 A 
ATOM     75  C   UNL A   1      44.266  26.308  35.237  1.00  0.00     0.134 A 
ATOM     76  F   UNL A   1      45.911  29.304  34.007  1.00  0.00    -0.206 F 
ATOM     77  C   UNL A   1      46.662  27.684  35.532  1.00  0.00     0.040 A 
ATOM     78  C   UNL A   1      45.245  25.819  36.103  1.00  0.00     0.040 A 
ATOM     79  F   UNL A   1      43.124  25.612  35.120  1.00  0.00    -0.206 F 
ATOM     80  C   UNL A   1      46.449  26.507  36.248  1.00  0.00     0.006 A 
ENDBRANCH  56  73
ENDBRANCH  30  31
ENDBRANCH  23  25
ENDBRANCH  22  23
ENDBRANCH  21  22
ENDBRANCH   1  21
TORSDOF 15
ENDMDL
MODEL 2
REMARK VINA RESULT:     -10.8      1.898      3.785
REMARK SMILES C[C@@H](CS(=O)(=O)[C@@H]1CCC[C@H](S(C)(=O)=O)C1)C(=O)OCCOC(=O)c1ccc(-c2c3nc(c(-c4c(F)cccc4F)c4ccc([nH]4)c(-c4c(F)cccc4F)c4nc(c(-c5c(F)cccc5F)c5ccc2[nH]5)C=C4)C=C3)cc1
REMARK SMILES IDX 20 1 19 2 17 3 18 4 2 5 1 6 3 7 4 8 5 9 6 10 7 11 8 12 16 13
REMARK SMILES IDX 9 14 11 15 10 16 12 17 13 18 14 19 15 20 21 21 22 22 23 23
REMARK SMILES IDX 24 24 25 25 26 26 78 27 27 28 77 29 28 30 29 31 30 32 71 33
REMARK SMILES IDX 31 34 76 35 70 36 72 37 32 38 75 39 69 40 68 41 33 43 59 44
REMARK SMILES IDX 42 45 58 46 43 47 46 48 57 49 73 50 44 51 45 52 56 54 74 55
REMARK SMILES IDX 47 56 34 57 35 58 40 59 36 60 37 61 39 62 41 63 38 64 60 65
REMARK SMILES IDX 61 66 66 67 62 68 63 69 65 70 67 71 64 72 48 73 49 74 54 75
REMARK SMILES IDX 50 76 51 77 53 78 55 79 52 80
REMARK H PARENT 72 42 46 53
REMARK Flexibility Score: inf
ROOT
ATOM      1  C   UNL A   1      31.483  31.608  26.520  1.00  0.00     0.274 C 
ENDROOT
BRANCH   1   2
ATOM      2  O   UNL A   1      32.774  30.970  26.456  1.00  0.00    -0.462 OA
BRANCH   2   3
ATOM      3  C   UNL A   1      32.828  29.676  26.858  1.00  0.00     0.309 C 
ATOM      4  O   UNL A   1      31.943  29.075  27.454  1.00  0.00    -0.252 OA
BRANCH   3   5
ATOM      5  C   UNL A   1      34.139  29.007  26.485  1.00  0.00     0.111 C 
ATOM      6  C   UNL A   1      35.252  29.151  27.525  1.00  0.00     0.021 C 
BRANCH   5   7
ATOM      7  C   UNL A   1      33.925  27.600  25.936  1.00  0.00     0.152 C 
BRANCH   7   8
ATOM      8  S   UNL A   1      33.270  27.432  24.287  1.00  0.00     0.154 S 
ATOM      9  O   UNL A   1      33.663  28.600  23.527  1.00  0.00    -0.229 OA
ATOM     10  O   UNL A   1      33.660  26.112  23.825  1.00  0.00    -0.229 OA
BRANCH   8  11
ATOM     11  C   UNL A   1      31.478  27.435  24.451  1.00  0.00     0.110 C 
ATOM     12  C   UNL A   1      30.874  26.068  24.120  1.00  0.00     0.020 C 
ATOM     13  C   UNL A   1      30.858  28.539  23.592  1.00  0.00     0.039 C 
ATOM     14  C   UNL A   1      29.354  26.084  24.239  1.00  0.00     0.003 C 
ATOM     15  C   UNL A   1      29.330  28.561  23.744  1.00  0.00     0.109 C 
ATOM     16  C   UNL A   1      28.730  27.196  23.398  1.00  0.00     0.020 C 
BRANCH  15  17
ATOM     17  S   UNL A   1      28.639  29.895  22.755  1.00  0.00     0.150 S 
ATOM     18  C   UNL A   1      29.067  31.380  23.632  1.00  0.00     0.158 C 
ATOM     19  O   UNL A   1      29.370  29.923  21.502  1.00  0.00    -0.229 OA
ATOM     20  O   UNL A   1      27.195  29.779  22.771  1.00  0.00    -0.229 OA
ENDBRANCH  15  17
ENDBRANCH   8  11
ENDBRANCH   7   8
ENDBRANCH   5   7
ENDBRANCH   3   5
ENDBRANCH   2   3
ENDBRANCH   1   2
BRANCH   1  21
ATOM     21  C   UNL A   1      31.622  33.080  26.913  1.00  0.00     0.275 C 
BRANCH  21  22
ATOM     22  O   UNL A   1      33.004  33.442  27.100  1.00  0.00    -0.458 OA
BRANCH  22  23
ATOM     23  C   UNL A   1      33.276  34.097  28.253  1.00  0.00     0.338 C 
ATOM     24  O   UNL A   1      32.586  34.922  28.827  1.00  0.00    -0.246 OA
BRANCH  23  25
ATOM     25  C   UNL A   1      34.501  33.537  28.838  1.00  0.00     0.060 A 
ATOM     26  C   UNL A   1      34.389  32.361  29.582  1.00  0.00     0.016 A 
ATOM     27  C   UNL A   1      35.732  34.179  28.710  1.00  0.00     0.016 A 
ATOM     28  C   UNL A   1      35.500  31.812  30.203  1.00  0.00     0.010 A 
ATOM     29  C   UNL A   1      36.857  33.619  29.324  1.00  0.00     0.010 A 
ATOM     30  C   UNL A   1      36.746  32.432  30.071  1.00  0.00    -0.014 A 
BRANCH  30  31
ATOM     31  C   UNL A   1      37.932  31.821  30.711  1.00  0.00     0.031 A 
ATOM     32  C   UNL A   1      38.728  30.783  29.982  1.00  0.00     0.074 A 
ATOM     33  C   UNL A   1      38.292  32.221  31.944  1.00  0.00     0.049 A 
ATOM     34  N   UNL A   1      39.717  30.049  30.418  1.00  0.00    -0.248 NA
ATOM     35  C   UNL A   1      38.367  30.539  28.577  1.00  0.00     0.031 C 
ATOM     36  C   UNL A   1      37.625  33.266  32.723  1.00  0.00     0.029 A 
ATOM     37  N   UNL A   1      39.304  31.788  32.762  1.00  0.00    -0.354 N 
ATOM     38  C   UNL A   1      40.081  29.236  29.354  1.00  0.00     0.074 A 
ATOM     39  C   UNL A   1      39.207  29.567  28.248  1.00  0.00     0.031 C 
ATOM     40  C   UNL A   1      38.236  33.383  33.912  1.00  0.00     0.029 A 
ATOM     41  C   UNL A   1      39.300  32.388  33.997  1.00  0.00     0.049 A 
ATOM     42  H   UNL A   1      39.968  31.114  32.490  1.00  0.00     0.167 HD
ATOM     43  C   UNL A   1      41.054  28.297  29.312  1.00  0.00     0.037 A 
ATOM     44  C   UNL A   1      40.040  32.129  35.091  1.00  0.00     0.037 A 
ATOM     45  C   UNL A   1      41.932  27.990  30.411  1.00  0.00     0.049 A 
ATOM     46  C   UNL A   1      41.063  31.031  35.038  1.00  0.00     0.074 A 
ATOM     47  C   UNL A   1      42.970  27.076  30.455  1.00  0.00     0.029 A 
ATOM     48  N   UNL A   1      41.869  28.587  31.660  1.00  0.00    -0.354 N 
ATOM     49  N   UNL A   1      41.395  30.261  34.030  1.00  0.00    -0.248 NA
ATOM     50  C   UNL A   1      41.800  30.752  36.278  1.00  0.00     0.031 C 
ATOM     51  C   UNL A   1      43.511  27.094  31.745  1.00  0.00     0.029 A 
ATOM     52  C   UNL A   1      42.832  28.042  32.492  1.00  0.00     0.049 A 
ATOM     53  H   UNL A   1      41.234  29.294  31.917  1.00  0.00     0.167 HD
ATOM     54  C   UNL A   1      42.381  29.412  34.511  1.00  0.00     0.074 A 
ATOM     55  C   UNL A   1      42.609  29.775  35.895  1.00  0.00     0.031 C 
ATOM     56  C   UNL A   1      43.035  28.414  33.868  1.00  0.00     0.037 A 
BRANCH  43  57
ATOM     57  C   UNL A   1      41.205  27.508  28.048  1.00  0.00     0.057 A 
ATOM     58  C   UNL A   1      40.532  26.300  27.844  1.00  0.00     0.134 A 
ATOM     59  C   UNL A   1      41.995  27.998  26.999  1.00  0.00     0.134 A 
ATOM     60  F   UNL A   1      39.772  25.771  28.816  1.00  0.00    -0.206 F 
ATOM     61  C   UNL A   1      40.642  25.599  26.640  1.00  0.00     0.040 A 
ATOM     62  C   UNL A   1      42.100  27.316  25.786  1.00  0.00     0.040 A 
ATOM     63  F   UNL A   1      42.665  29.152  27.134  1.00  0.00    -0.206 F 
ATOM     64  C   UNL A   1      41.422  26.113  25.604  1.00  0.00     0.006 A 
ENDBRANCH  43  57
BRANCH  44  65
ATOM     65  C   UNL A   1      39.796  32.879  36.348  1.00  0.00     0.057 A 
ATOM     66  C   UNL A   1      40.553  34.007  36.679  1.00  0.00     0.134 A 
ATOM     67  C   UNL A   1      38.809  32.472  37.255  1.00  0.00     0.134 A 
ATOM     68  F   UNL A   1      41.529  34.430  35.861  1.00  0.00    -0.206 F 
ATOM     69  C   UNL A   1      40.348  34.697  37.875  1.00  0.00     0.040 A 
ATOM     70  C   UNL A   1      38.578  33.166  38.442  1.00  0.00     0.040 A 
ATOM     71  F   UNL A   1      38.052  31.396  36.994  1.00  0.00    -0.206 F 
ATOM     72  C   UNL A   1      39.354  34.279  38.759  1.00  0.00     0.006 A 
ENDBRANCH  44  65
BRANCH  56  73
ATOM     73  C   UNL A   1      44.058  27.656  34.656  1.00  0.00     0.057 A 
ATOM     74  C   UNL A   1      45.376  28.115  34.775  1.00  0.00     0.134 A 
ATOM     75  C   UNL A   1      43.717  26.476  35.327  1.00  0.00     0.134 A 
ATOM     76  F   UNL A   1      45.766  29.232  34.141  1.00  0.00    -0.206 F 
ATOM     77  C   UNL A   1      46.325  27.415  35.520  1.00  0.00     0.040 A 
ATOM     78  C   UNL A   1      44.651  25.778  36.092  1.00  0.00     0.040 A 
ATOM     79  F   UNL A   1      42.469  25.988  35.256  1.00  0.00    -0.206 F 
ATOM     80  C   UNL A   1      45.961  26.246  36.187  1.00  0.00     0.006 A 
ENDBRANCH  56  73
ENDBRANCH  30  31
ENDBRANCH  23  25
ENDBRANCH  22  23
ENDBRANCH  21  22
ENDBRANCH   1  21
TORSDOF 15
ENDMDL
MODEL 3
REMARK VINA RESULT:     -10.7      1.700      2.495
REMARK SMILES C[C@@H](CS(=O)(=O)[C@@H]1CCC[C@H](S(C)(=O)=O)C1)C(=O)OCCOC(=O)c1ccc(-c2c3nc(c(-c4c(F)cccc4F)c4ccc([nH]4)c(-c4c(F)cccc4F)c4nc(c(-c5c(F)cccc5F)c5ccc2[nH]5)C=C4)C=C3)cc1
REMARK SMILES IDX 20 1 19 2 17 3 18 4 2 5 1 6 3 7 4 8 5 9 6 10 7 11 8 12 16 13
REMARK SMILES IDX 9 14 11 15 10 16 12 17 13 18 14 19 15 20 21 21 22 22 23 23
REMARK SMILES IDX 24 24 25 25 26 26 78 27 27 28 77 29 28 30 29 31 30 32 71 33
REMARK SMILES IDX 31 34 76 35 70 36 72 37 32 38 75 39 69 40 68 41 33 43 59 44
REMARK SMILES IDX 42 45 58 46 43 47 46 48 57 49 73 50 44 51 45 52 56 54 74 55
REMARK SMILES IDX 47 56 34 57 35 58 40 59 36 60 37 61 39 62 41 63 38 64 60 65
REMARK SMILES IDX 61 66 66 67 62 68 63 69 65 70 67 71 64 72 48 73 49 74 54 75
REMARK SMILES IDX 50 76 51 77 53 78 55 79 52 80
REMARK H PARENT 72 42 46 53
REMARK Flexibility Score: inf
ROOT
ATOM      1  C   UNL A   1      31.583  31.343  26.490  1.00  0.00     0.274 C 
ENDROOT
BRANCH   1   2
ATOM      2  O   UNL A   1      32.484  30.568  27.306  1.00  0.00    -0.462 OA
BRANCH   2   3
ATOM      3  C   UNL A   1      32.492  29.230  27.092  1.00  0.00     0.309 C 
ATOM      4  O   UNL A   1      31.562  28.464  27.311  1.00  0.00    -0.252 OA
BRANCH   3   5
ATOM      5  C   UNL A   1      33.814  28.741  26.525  1.00  0.00     0.111 C 
ATOM      6  C   UNL A   1      35.041  29.086  27.370  1.00  0.00     0.021 C 
BRANCH   5   7
ATOM      7  C   UNL A   1      33.727  27.297  26.042  1.00  0.00     0.152 C 
BRANCH   7   8
ATOM      8  S   UNL A   1      33.240  27.002  24.354  1.00  0.00     0.154 S 
ATOM      9  O   UNL A   1      31.795  26.924  24.311  1.00  0.00    -0.229 OA
ATOM     10  O   UNL A   1      33.929  27.996  23.549  1.00  0.00    -0.229 OA
BRANCH   8  11
ATOM     11  C   UNL A   1      33.910  25.393  23.907  1.00  0.00     0.110 C 
ATOM     12  C   UNL A   1      33.094  24.724  22.798  1.00  0.00     0.020 C 
ATOM     13  C   UNL A   1      34.018  24.490  25.137  1.00  0.00     0.039 C 
ATOM     14  C   UNL A   1      33.653  23.352  22.439  1.00  0.00     0.003 C 
ATOM     15  C   UNL A   1      34.609  23.122  24.767  1.00  0.00     0.109 C 
ATOM     16  C   UNL A   1      33.780  22.453  23.668  1.00  0.00     0.020 C 
BRANCH  15  17
ATOM     17  S   UNL A   1      34.761  22.104  26.242  1.00  0.00     0.150 S 
ATOM     18  C   UNL A   1      33.436  20.927  26.120  1.00  0.00     0.158 C 
ATOM     19  O   UNL A   1      35.999  21.357  26.122  1.00  0.00    -0.229 OA
ATOM     20  O   UNL A   1      34.503  22.935  27.401  1.00  0.00    -0.229 OA
ENDBRANCH  15  17
ENDBRANCH   8  11
ENDBRANCH   7   8
ENDBRANCH   5   7
ENDBRANCH   3   5
ENDBRANCH   2   3
ENDBRANCH   1   2
BRANCH   1  21
ATOM     21  C   UNL A   1      31.606  32.816  26.902  1.00  0.00     0.275 C 
BRANCH  21  22
ATOM     22  O   UNL A   1      32.954  33.316  26.978  1.00  0.00    -0.458 OA
BRANCH  22  23
ATOM     23  C   UNL A   1      33.250  34.007  28.103  1.00  0.00     0.338 C 
ATOM     24  O   UNL A   1      32.579  34.862  28.655  1.00  0.00    -0.246 OA
BRANCH  23  25
ATOM     25  C   UNL A   1      34.473  33.450  28.694  1.00  0.00     0.060 A 
ATOM     26  C   UNL A   1      34.359  32.278  29.444  1.00  0.00     0.016 A 
ATOM     27  C   UNL A   1      35.705  34.092  28.566  1.00  0.00     0.016 A 
ATOM     28  C   UNL A   1      35.469  31.732  30.071  1.00  0.00     0.010 A 
ATOM     29  C   UNL A   1      36.828  33.535  29.186  1.00  0.00     0.010 A 
ATOM     30  C   UNL A   1      36.715  32.352  29.938  1.00  0.00    -0.014 A 
BRANCH  30  31
ATOM     31  C   UNL A   1      37.900  31.745  30.584  1.00  0.00     0.031 A 
ATOM     32  C   UNL A   1      38.706  30.714  29.856  1.00  0.00     0.074 A 
ATOM     33  C   UNL A   1      38.249  32.141  31.822  1.00  0.00     0.049 A 
ATOM     34  N   UNL A   1      39.697  29.983  30.297  1.00  0.00    -0.248 NA
ATOM     35  C   UNL A   1      38.357  30.475  28.448  1.00  0.00     0.031 C 
ATOM     36  C   UNL A   1      37.570  33.179  32.601  1.00  0.00     0.029 A 
ATOM     37  N   UNL A   1      39.257  31.710  32.645  1.00  0.00    -0.354 N 
ATOM     38  C   UNL A   1      40.073  29.177  29.232  1.00  0.00     0.074 A 
ATOM     39  C   UNL A   1      39.205  29.509  28.121  1.00  0.00     0.031 C 
ATOM     40  C   UNL A   1      38.172  33.293  33.795  1.00  0.00     0.029 A 
ATOM     41  C   UNL A   1      39.240  32.304  33.883  1.00  0.00     0.049 A 
ATOM     42  H   UNL A   1      39.926  31.040  32.376  1.00  0.00     0.167 HD
ATOM     43  C   UNL A   1      41.051  28.244  29.193  1.00  0.00     0.037 A 
ATOM     44  C   UNL A   1      39.973  32.044  34.982  1.00  0.00     0.037 A 
ATOM     45  C   UNL A   1      41.922  27.936  30.296  1.00  0.00     0.049 A 
ATOM     46  C   UNL A   1      41.003  30.951  34.931  1.00  0.00     0.074 A 
ATOM     47  C   UNL A   1      42.965  27.028  30.344  1.00  0.00     0.029 A 
ATOM     48  N   UNL A   1      41.847  28.527  31.547  1.00  0.00    -0.354 N 
ATOM     49  N   UNL A   1      41.347  30.188  33.922  1.00  0.00    -0.248 NA
ATOM     50  C   UNL A   1      41.732  30.670  36.175  1.00  0.00     0.031 C 
ATOM     51  C   UNL A   1      43.497  27.042  31.638  1.00  0.00     0.029 A 
ATOM     52  C   UNL A   1      42.806  27.983  32.385  1.00  0.00     0.049 A 
ATOM     53  H   UNL A   1      41.207  29.230  31.803  1.00  0.00     0.167 HD
ATOM     54  C   UNL A   1      42.334  29.341  34.406  1.00  0.00     0.074 A 
ATOM     55  C   UNL A   1      42.550  29.699  35.793  1.00  0.00     0.031 C 
ATOM     56  C   UNL A   1      42.997  28.350  33.764  1.00  0.00     0.037 A 
BRANCH  43  57
ATOM     57  C   UNL A   1      41.216  27.462  27.926  1.00  0.00     0.057 A 
ATOM     58  C   UNL A   1      42.043  27.901  26.886  1.00  0.00     0.134 A 
ATOM     59  C   UNL A   1      40.579  26.224  27.771  1.00  0.00     0.134 A 
ATOM     60  F   UNL A   1      42.668  29.085  26.968  1.00  0.00    -0.206 F 
ATOM     61  C   UNL A   1      42.226  27.138  25.731  1.00  0.00     0.040 A 
ATOM     62  C   UNL A   1      40.768  25.444  26.629  1.00  0.00     0.040 A 
ATOM     63  F   UNL A   1      39.774  25.748  28.733  1.00  0.00    -0.206 F 
ATOM     64  C   UNL A   1      41.594  25.901  25.605  1.00  0.00     0.006 A 
ENDBRANCH  43  57
BRANCH  44  65
ATOM     65  C   UNL A   1      39.716  32.786  36.240  1.00  0.00     0.057 A 
ATOM     66  C   UNL A   1      38.732  32.369  37.141  1.00  0.00     0.134 A 
ATOM     67  C   UNL A   1      40.438  33.943  36.559  1.00  0.00     0.134 A 
ATOM     68  F   UNL A   1      37.990  31.282  36.876  1.00  0.00    -0.206 F 
ATOM     69  C   UNL A   1      38.464  33.082  38.310  1.00  0.00     0.040 A 
ATOM     70  C   UNL A   1      40.198  34.652  37.736  1.00  0.00     0.040 A 
ATOM     71  F   UNL A   1      41.394  34.395  35.734  1.00  0.00    -0.206 F 
ATOM     72  C   UNL A   1      39.203  34.225  38.613  1.00  0.00     0.006 A 
ENDBRANCH  44  65
BRANCH  56  73
ATOM     73  C   UNL A   1      44.019  27.594  34.556  1.00  0.00     0.057 A 
ATOM     74  C   UNL A   1      45.338  28.050  34.671  1.00  0.00     0.134 A 
ATOM     75  C   UNL A   1      43.675  26.419  35.234  1.00  0.00     0.134 A 
ATOM     76  F   UNL A   1      45.731  29.162  34.031  1.00  0.00    -0.206 F 
ATOM     77  C   UNL A   1      46.285  27.352  35.420  1.00  0.00     0.040 A 
ATOM     78  C   UNL A   1      44.607  25.723  36.003  1.00  0.00     0.040 A 
ATOM     79  F   UNL A   1      42.425  25.935  35.166  1.00  0.00    -0.206 F 
ATOM     80  C   UNL A   1      45.918  26.188  36.094  1.00  0.00     0.006 A 
ENDBRANCH  56  73
ENDBRANCH  30  31
ENDBRANCH  23  25
ENDBRANCH  22  23
ENDBRANCH  21  22
ENDBRANCH   1  21
TORSDOF 15
ENDMDL
