MODEL 1
REMARK VINA RESULT:     -12.1      0.000      0.000
REMARK SMILES O=C(OCCOC(=O)[C@H](Cc1ccccn1)[C@H]1CCS(=O)(=O)C1)c1ccc(-c2c3nc(c(-c4c(F)cccc4F)c4ccc([nH]4)c(-c4c(F)cccc4F)c4nc(c(-c5c(F)cccc5F)c5ccc2[nH]5)C=C4)C=C3)cc1
REMARK SMILES IDX 4 1 3 2 2 3 1 4 24 5 25 6 77 7 26 8 76 9 27 10 28 11 29 12
REMARK SMILES IDX 70 13 30 14 75 15 69 16 71 17 31 18 74 19 68 20 67 21 32 23
REMARK SMILES IDX 58 24 41 25 57 26 42 27 45 28 56 29 72 30 43 31 44 32 55 34
REMARK SMILES IDX 73 35 46 36 33 37 34 38 39 39 35 40 36 41 38 42 40 43 37 44
REMARK SMILES IDX 59 45 60 46 65 47 61 48 62 49 64 50 66 51 63 52 47 53 48 54
REMARK SMILES IDX 53 55 49 56 50 57 52 58 54 59 51 60 5 61 6 62 7 63 8 64 9 65
REMARK SMILES IDX 10 66 11 67 12 68 16 69 13 70 15 71 14 72 17 73 18 74 23 75
REMARK SMILES IDX 19 76 20 77 21 78 22 79
REMARK H PARENT 71 22 45 33
REMARK Flexibility Score: inf
ROOT
ATOM      1  C   UNL A   1      33.318  28.761  24.805  1.00  0.00     0.275 C 
ENDROOT
BRANCH   1   2
ATOM      2  O   UNL A   1      32.828  30.068  25.106  1.00  0.00    -0.458 OA
BRANCH   2   3
ATOM      3  C   UNL A   1      32.636  30.538  26.354  1.00  0.00     0.338 C 
ATOM      4  O   UNL A   1      31.549  30.983  26.703  1.00  0.00    -0.246 OA
BRANCH   3   5
ATOM      5  C   UNL A   1      33.756  30.656  27.319  1.00  0.00     0.060 A 
ATOM      6  C   UNL A   1      34.652  29.408  28.045  1.00  0.00     0.016 A 
ATOM      7  C   UNL A   1      34.351  32.252  27.615  1.00  0.00     0.016 A 
ATOM      8  C   UNL A   1      36.100  29.528  28.828  1.00  0.00     0.010 A 
ATOM      9  C   UNL A   1      36.089  32.445  28.567  1.00  0.00     0.010 A 
ATOM     10  C   UNL A   1      36.900  30.934  29.129  1.00  0.00    -0.014 A 
BRANCH  10  11
ATOM     11  C   UNL A   1      38.162  30.687  29.913  1.00  0.00     0.031 A 
ATOM     12  C   UNL A   1      39.118  29.707  29.332  1.00  0.00     0.074 A 
ATOM     13  C   UNL A   1      38.553  31.411  31.008  1.00  0.00     0.049 A 
ATOM     14  N   UNL A   1      40.103  29.055  29.880  1.00  0.00    -0.248 NA
ATOM     15  C   UNL A   1      38.923  29.410  27.914  1.00  0.00     0.031 C 
ATOM     16  C   UNL A   1      37.824  32.522  31.653  1.00  0.00     0.029 A 
ATOM     17  N   UNL A   1      39.632  31.244  31.871  1.00  0.00    -0.354 N 
ATOM     18  C   UNL A   1      40.608  28.262  28.855  1.00  0.00     0.074 A 
ATOM     19  C   UNL A   1      39.739  28.397  27.722  1.00  0.00     0.031 C 
ATOM     20  C   UNL A   1      38.349  32.793  32.862  1.00  0.00     0.029 A 
ATOM     21  C   UNL A   1      39.449  31.880  33.097  1.00  0.00     0.049 A 
ATOM     22  H   UNL A   1      40.439  30.731  31.640  1.00  0.00     0.167 HD
ATOM     23  C   UNL A   1      41.762  27.570  28.817  1.00  0.00     0.037 A 
ATOM     24  C   UNL A   1      39.995  31.634  34.311  1.00  0.00     0.037 A 
ATOM     25  C   UNL A   1      42.667  27.525  29.922  1.00  0.00     0.049 A 
ATOM     26  C   UNL A   1      41.131  30.653  34.360  1.00  0.00     0.074 A 
ATOM     27  C   UNL A   1      43.890  26.896  30.008  1.00  0.00     0.029 A 
ATOM     28  N   UNL A   1      42.440  28.158  31.134  1.00  0.00    -0.354 N 
ATOM     29  N   UNL A   1      41.585  29.869  33.411  1.00  0.00    -0.248 NA
ATOM     30  C   UNL A   1      41.874  30.569  35.622  1.00  0.00     0.031 C 
ATOM     31  C   UNL A   1      44.380  27.100  31.300  1.00  0.00     0.029 A 
ATOM     32  C   UNL A   1      43.496  27.919  31.988  1.00  0.00     0.049 A 
ATOM     33  H   UNL A   1      41.645  28.698  31.351  1.00  0.00     0.167 HD
ATOM     34  C   UNL A   1      42.730  29.276  33.927  1.00  0.00     0.074 A 
ATOM     35  C   UNL A   1      42.870  29.764  35.285  1.00  0.00     0.031 C 
ATOM     36  C   UNL A   1      43.609  28.439  33.324  1.00  0.00     0.037 A 
BRANCH  23  37
ATOM     37  C   UNL A   1      42.096  26.855  27.542  1.00  0.00     0.057 A 
ATOM     38  C   UNL A   1      41.763  25.508  27.328  1.00  0.00     0.134 A 
ATOM     39  C   UNL A   1      42.778  27.521  26.521  1.00  0.00     0.134 A 
ATOM     40  F   UNL A   1      41.136  24.798  28.281  1.00  0.00    -0.206 F 
ATOM     41  C   UNL A   1      42.123  24.843  26.155  1.00  0.00     0.040 A 
ATOM     42  C   UNL A   1      43.104  26.880  25.325  1.00  0.00     0.040 A 
ATOM     43  F   UNL A   1      43.140  28.804  26.667  1.00  0.00    -0.206 F 
ATOM     44  C   UNL A   1      42.784  25.536  25.144  1.00  0.00     0.006 A 
ENDBRANCH  23  37
BRANCH  24  45
ATOM     45  C   UNL A   1      39.476  32.247  35.582  1.00  0.00     0.057 A 
ATOM     46  C   UNL A   1      38.484  31.616  36.342  1.00  0.00     0.134 A 
ATOM     47  C   UNL A   1      39.860  33.526  36.021  1.00  0.00     0.134 A 
ATOM     48  F   UNL A   1      38.010  30.422  35.963  1.00  0.00    -0.206 F 
ATOM     49  C   UNL A   1      37.896  32.231  37.458  1.00  0.00     0.040 A 
ATOM     50  C   UNL A   1      39.312  34.136  37.155  1.00  0.00     0.040 A 
ATOM     51  F   UNL A   1      40.731  34.264  35.333  1.00  0.00    -0.206 F 
ATOM     52  C   UNL A   1      38.315  33.493  37.871  1.00  0.00     0.006 A 
ENDBRANCH  24  45
BRANCH  36  53
ATOM     53  C   UNL A   1      44.852  28.104  34.088  1.00  0.00     0.057 A 
ATOM     54  C   UNL A   1      45.989  28.918  34.068  1.00  0.00     0.134 A 
ATOM     55  C   UNL A   1      44.900  26.935  34.861  1.00  0.00     0.134 A 
ATOM     56  F   UNL A   1      46.006  30.045  33.339  1.00  0.00    -0.206 F 
ATOM     57  C   UNL A   1      47.152  28.552  34.743  1.00  0.00     0.040 A 
ATOM     58  C   UNL A   1      46.038  26.585  35.581  1.00  0.00     0.040 A 
ATOM     59  F   UNL A   1      43.836  26.121  34.937  1.00  0.00    -0.206 F 
ATOM     60  C   UNL A   1      47.175  27.385  35.507  1.00  0.00     0.006 A 
ENDBRANCH  36  53
ENDBRANCH  10  11
ENDBRANCH   3   5
ENDBRANCH   2   3
ENDBRANCH   1   2
BRANCH   1  61
ATOM     61  C   UNL A   1      33.568  28.549  23.272  1.00  0.00     0.274 C 
BRANCH  61  62
ATOM     62  O   UNL A   1      32.444  28.027  22.459  1.00  0.00    -0.462 OA
BRANCH  62  63
ATOM     63  C   UNL A   1      31.213  28.607  22.487  1.00  0.00     0.309 C 
ATOM     64  O   UNL A   1      30.999  29.687  21.946  1.00  0.00    -0.252 OA
BRANCH  63  65
ATOM     65  C   UNL A   1      30.047  27.730  23.109  1.00  0.00     0.109 C 
BRANCH  65  66
ATOM     66  C   UNL A   1      28.474  28.313  23.003  1.00  0.00     0.071 C 
BRANCH  66  67
ATOM     67  C   UNL A   1      28.067  29.781  22.563  1.00  0.00     0.041 A 
ATOM     68  C   UNL A   1      27.841  30.860  23.416  1.00  0.00     0.024 A 
ATOM     69  N   UNL A   1      28.009  30.058  21.250  1.00  0.00    -0.261 NA
ATOM     70  C   UNL A   1      28.029  32.195  23.015  1.00  0.00     0.003 A 
ATOM     71  C   UNL A   1      28.029  31.379  20.860  1.00  0.00     0.111 A 
ATOM     72  C   UNL A   1      28.173  32.466  21.685  1.00  0.00     0.020 A 
ENDBRANCH  66  67
ENDBRANCH  65  66
BRANCH  65  73
ATOM     73  C   UNL A   1      30.243  26.653  24.362  1.00  0.00     0.020 C 
ATOM     74  C   UNL A   1      30.551  24.953  23.357  1.00  0.00     0.021 C 
ATOM     75  C   UNL A   1      31.026  26.325  26.426  1.00  0.00     0.141 C 
ATOM     76  C   UNL A   1      31.002  23.467  24.431  1.00  0.00     0.137 C 
ATOM     77  S   UNL A   1      31.535  24.056  26.502  1.00  0.00     0.150 S 
ATOM     78  O   UNL A   1      30.647  23.353  27.410  1.00  0.00    -0.229 OA
ATOM     79  O   UNL A   1      32.966  23.893  26.680  1.00  0.00    -0.229 OA
ENDBRANCH  65  73
ENDBRANCH  63  65
ENDBRANCH  62  63
ENDBRANCH  61  62
ENDBRANCH   1  61
TORSDOF 14
ENDMDL
MODEL 2
REMARK VINA RESULT:     -12.0      3.904      7.062
REMARK SMILES O=C(OCCOC(=O)[C@H](Cc1ccccn1)[C@H]1CCS(=O)(=O)C1)c1ccc(-c2c3nc(c(-c4c(F)cccc4F)c4ccc([nH]4)c(-c4c(F)cccc4F)c4nc(c(-c5c(F)cccc5F)c5ccc2[nH]5)C=C4)C=C3)cc1
REMARK SMILES IDX 4 1 3 2 2 3 1 4 24 5 25 6 77 7 26 8 76 9 27 10 28 11 29 12
REMARK SMILES IDX 70 13 30 14 75 15 69 16 71 17 31 18 74 19 68 20 67 21 32 23
REMARK SMILES IDX 58 24 41 25 57 26 42 27 45 28 56 29 72 30 43 31 44 32 55 34
REMARK SMILES IDX 73 35 46 36 33 37 34 38 39 39 35 40 36 41 38 42 40 43 37 44
REMARK SMILES IDX 59 45 60 46 65 47 61 48 62 49 64 50 66 51 63 52 47 53 48 54
REMARK SMILES IDX 53 55 49 56 50 57 52 58 54 59 51 60 5 61 6 62 7 63 8 64 9 65
REMARK SMILES IDX 10 66 11 67 12 68 16 69 13 70 15 71 14 72 17 73 18 74 23 75
REMARK SMILES IDX 19 76 20 77 21 78 22 79
REMARK H PARENT 71 22 45 33
REMARK Flexibility Score: inf
ROOT
ATOM      1  C   UNL A   1      31.421  26.020  22.168  1.00  0.00     0.275 C 
ENDROOT
BRANCH   1   2
ATOM      2  O   UNL A   1      30.261  26.473  22.867  1.00  0.00    -0.458 OA
BRANCH   2   3
ATOM      3  C   UNL A   1      30.193  27.626  23.558  1.00  0.00     0.338 C 
ATOM      4  O   UNL A   1      29.301  28.440  23.348  1.00  0.00    -0.246 OA
BRANCH   3   5
ATOM      5  C   UNL A   1      31.257  28.022  24.512  1.00  0.00     0.060 A 
ATOM      6  C   UNL A   1      32.589  29.041  24.235  1.00  0.00     0.016 A 
ATOM      7  C   UNL A   1      31.034  27.541  26.157  1.00  0.00     0.016 A 
ATOM      8  C   UNL A   1      33.562  29.759  25.358  1.00  0.00     0.010 A 
ATOM      9  C   UNL A   1      32.193  28.374  27.545  1.00  0.00     0.010 A 
ATOM     10  C   UNL A   1      33.461  29.529  26.984  1.00  0.00    -0.014 A 
BRANCH  10  11
ATOM     11  C   UNL A   1      34.536  30.293  27.711  1.00  0.00     0.031 A 
ATOM     12  C   UNL A   1      35.862  29.628  27.815  1.00  0.00     0.074 A 
ATOM     13  C   UNL A   1      34.424  31.593  28.124  1.00  0.00     0.049 A 
ATOM     14  N   UNL A   1      36.867  29.856  28.612  1.00  0.00    -0.248 NA
ATOM     15  C   UNL A   1      36.083  28.526  26.879  1.00  0.00     0.031 C 
ATOM     16  C   UNL A   1      33.250  32.478  27.984  1.00  0.00     0.029 A 
ATOM     17  N   UNL A   1      35.287  32.389  28.871  1.00  0.00    -0.354 N 
ATOM     18  C   UNL A   1      37.811  28.896  28.265  1.00  0.00     0.074 A 
ATOM     19  C   UNL A   1      37.209  28.005  27.316  1.00  0.00     0.031 C 
ATOM     20  C   UNL A   1      33.386  33.571  28.758  1.00  0.00     0.029 A 
ATOM     21  C   UNL A   1      34.648  33.477  29.463  1.00  0.00     0.049 A 
ATOM     22  H   UNL A   1      36.249  32.203  28.973  1.00  0.00     0.167 HD
ATOM     23  C   UNL A   1      39.110  28.826  28.616  1.00  0.00     0.037 A 
ATOM     24  C   UNL A   1      34.972  34.208  30.555  1.00  0.00     0.037 A 
ATOM     25  C   UNL A   1      39.721  29.780  29.487  1.00  0.00     0.049 A 
ATOM     26  C   UNL A   1      36.331  33.972  31.151  1.00  0.00     0.074 A 
ATOM     27  C   UNL A   1      41.035  29.854  29.896  1.00  0.00     0.029 A 
ATOM     28  N   UNL A   1      39.045  30.841  30.069  1.00  0.00    -0.354 N 
ATOM     29  N   UNL A   1      37.209  33.043  30.861  1.00  0.00    -0.248 NA
ATOM     30  C   UNL A   1      36.773  34.924  32.177  1.00  0.00     0.031 C 
ATOM     31  C   UNL A   1      41.142  30.931  30.778  1.00  0.00     0.029 A 
ATOM     32  C   UNL A   1      39.913  31.569  30.855  1.00  0.00     0.049 A 
ATOM     33  H   UNL A   1      38.090  31.044  29.941  1.00  0.00     0.167 HD
ATOM     34  C   UNL A   1      38.348  33.358  31.591  1.00  0.00     0.074 A 
ATOM     35  C   UNL A   1      38.026  34.541  32.364  1.00  0.00     0.031 C 
ATOM     36  C   UNL A   1      39.561  32.753  31.593  1.00  0.00     0.037 A 
BRANCH  23  37
ATOM     37  C   UNL A   1      39.924  27.712  28.031  1.00  0.00     0.057 A 
ATOM     38  C   UNL A   1      40.699  27.877  26.872  1.00  0.00     0.134 A 
ATOM     39  C   UNL A   1      39.917  26.449  28.628  1.00  0.00     0.134 A 
ATOM     40  F   UNL A   1      40.724  29.056  26.228  1.00  0.00    -0.206 F 
ATOM     41  C   UNL A   1      41.413  26.817  26.312  1.00  0.00     0.040 A 
ATOM     42  C   UNL A   1      40.663  25.393  28.105  1.00  0.00     0.040 A 
ATOM     43  F   UNL A   1      39.187  26.219  29.729  1.00  0.00    -0.206 F 
ATOM     44  C   UNL A   1      41.407  25.573  26.939  1.00  0.00     0.006 A 
ENDBRANCH  23  37
BRANCH  24  45
ATOM     45  C   UNL A   1      34.023  35.173  31.207  1.00  0.00     0.057 A 
ATOM     46  C   UNL A   1      33.681  36.384  30.594  1.00  0.00     0.134 A 
ATOM     47  C   UNL A   1      33.519  34.983  32.506  1.00  0.00     0.134 A 
ATOM     48  F   UNL A   1      34.168  36.681  29.382  1.00  0.00    -0.206 F 
ATOM     49  C   UNL A   1      32.902  37.354  31.242  1.00  0.00     0.040 A 
ATOM     50  C   UNL A   1      32.707  35.922  33.150  1.00  0.00     0.040 A 
ATOM     51  F   UNL A   1      33.845  33.911  33.227  1.00  0.00    -0.206 F 
ATOM     52  C   UNL A   1      32.406  37.121  32.523  1.00  0.00     0.006 A 
ENDBRANCH  24  45
BRANCH  36  53
ATOM     53  C   UNL A   1      40.652  33.434  32.359  1.00  0.00     0.057 A 
ATOM     54  C   UNL A   1      41.478  34.406  31.786  1.00  0.00     0.134 A 
ATOM     55  C   UNL A   1      40.871  33.102  33.703  1.00  0.00     0.134 A 
ATOM     56  F   UNL A   1      41.322  34.760  30.500  1.00  0.00    -0.206 F 
ATOM     57  C   UNL A   1      42.522  34.983  32.506  1.00  0.00     0.040 A 
ATOM     58  C   UNL A   1      41.877  33.708  34.447  1.00  0.00     0.040 A 
ATOM     59  F   UNL A   1      40.100  32.190  34.316  1.00  0.00    -0.206 F 
ATOM     60  C   UNL A   1      42.719  34.638  33.843  1.00  0.00     0.006 A 
ENDBRANCH  36  53
ENDBRANCH  10  11
ENDBRANCH   3   5
ENDBRANCH   2   3
ENDBRANCH   1   2
BRANCH   1  61
ATOM     61  C   UNL A   1      31.958  24.652  22.713  1.00  0.00     0.274 C 
BRANCH  61  62
ATOM     62  O   UNL A   1      31.022  23.811  23.496  1.00  0.00    -0.462 OA
BRANCH  62  63
ATOM     63  C   UNL A   1      31.469  22.862  24.364  1.00  0.00     0.309 C 
ATOM     64  O   UNL A   1      30.925  22.675  25.447  1.00  0.00    -0.252 OA
BRANCH  63  65
ATOM     65  C   UNL A   1      32.618  21.913  23.822  1.00  0.00     0.109 C 
BRANCH  65  66
ATOM     66  C   UNL A   1      32.171  20.494  23.040  1.00  0.00     0.071 C 
BRANCH  66  67
ATOM     67  C   UNL A   1      32.402  19.027  23.596  1.00  0.00     0.041 A 
ATOM     68  C   UNL A   1      32.929  17.952  22.882  1.00  0.00     0.024 A 
ATOM     69  N   UNL A   1      32.153  18.794  24.896  1.00  0.00    -0.261 NA
ATOM     70  C   UNL A   1      33.612  16.892  23.504  1.00  0.00     0.003 A 
ATOM     71  C   UNL A   1      32.689  17.662  25.470  1.00  0.00     0.111 A 
ATOM     72  C   UNL A   1      33.526  16.762  24.860  1.00  0.00     0.020 A 
ENDBRANCH  66  67
ENDBRANCH  65  66
BRANCH  65  73
ATOM     73  C   UNL A   1      34.153  21.830  24.460  1.00  0.00     0.020 C 
ATOM     74  C   UNL A   1      35.180  22.899  23.119  1.00  0.00     0.021 C 
ATOM     75  C   UNL A   1      35.394  21.770  26.313  1.00  0.00     0.141 C 
ATOM     76  C   UNL A   1      36.987  23.208  23.567  1.00  0.00     0.137 C 
ATOM     77  S   UNL A   1      37.426  22.712  25.684  1.00  0.00     0.150 S 
ATOM     78  O   UNL A   1      38.488  21.722  25.701  1.00  0.00    -0.229 OA
ATOM     79  O   UNL A   1      37.630  23.947  26.421  1.00  0.00    -0.229 OA
ENDBRANCH  65  73
ENDBRANCH  63  65
ENDBRANCH  62  63
ENDBRANCH  61  62
ENDBRANCH   1  61
TORSDOF 14
ENDMDL
MODEL 3
REMARK VINA RESULT:     -11.7      5.029      8.697
REMARK SMILES O=C(OCCOC(=O)[C@H](Cc1ccccn1)[C@H]1CCS(=O)(=O)C1)c1ccc(-c2c3nc(c(-c4c(F)cccc4F)c4ccc([nH]4)c(-c4c(F)cccc4F)c4nc(c(-c5c(F)cccc5F)c5ccc2[nH]5)C=C4)C=C3)cc1
REMARK SMILES IDX 4 1 3 2 2 3 1 4 24 5 25 6 77 7 26 8 76 9 27 10 28 11 29 12
REMARK SMILES IDX 70 13 30 14 75 15 69 16 71 17 31 18 74 19 68 20 67 21 32 23
REMARK SMILES IDX 58 24 41 25 57 26 42 27 45 28 56 29 72 30 43 31 44 32 55 34
REMARK SMILES IDX 73 35 46 36 33 37 34 38 39 39 35 40 36 41 38 42 40 43 37 44
REMARK SMILES IDX 59 45 60 46 65 47 61 48 62 49 64 50 66 51 63 52 47 53 48 54
REMARK SMILES IDX 53 55 49 56 50 57 52 58 54 59 51 60 5 61 6 62 7 63 8 64 9 65
REMARK SMILES IDX 10 66 11 67 12 68 16 69 13 70 15 71 14 72 17 73 18 74 23 75
REMARK SMILES IDX 19 76 20 77 21 78 22 79
REMARK H PARENT 71 22 45 33
REMARK Flexibility Score: inf
ROOT
ATOM      1  C   UNL A   1      39.277  19.791  25.820  1.00  0.00     0.275 C 
ENDROOT
BRANCH   1   2
ATOM      2  O   UNL A   1      40.385  18.931  25.550  1.00  0.00    -0.458 OA
BRANCH   2   3
ATOM      3  C   UNL A   1      41.668  19.240  25.821  1.00  0.00     0.338 C 
ATOM      4  O   UNL A   1      42.547  18.386  25.779  1.00  0.00    -0.246 OA
BRANCH   3   5
ATOM      5  C   UNL A   1      42.057  20.587  26.304  1.00  0.00     0.060 A 
ATOM      6  C   UNL A   1      42.367  21.982  25.385  1.00  0.00     0.016 A 
ATOM      7  C   UNL A   1      42.023  20.830  28.015  1.00  0.00     0.016 A 
ATOM      8  C   UNL A   1      42.452  23.542  25.916  1.00  0.00     0.010 A 
ATOM      9  C   UNL A   1      42.132  22.696  28.701  1.00  0.00     0.010 A 
ATOM     10  C   UNL A   1      42.339  24.016  27.488  1.00  0.00    -0.014 A 
BRANCH  10  11
ATOM     11  C   UNL A   1      42.514  25.505  27.623  1.00  0.00     0.031 A 
ATOM     12  C   UNL A   1      43.836  26.053  27.220  1.00  0.00     0.074 A 
ATOM     13  C   UNL A   1      41.507  26.383  27.925  1.00  0.00     0.049 A 
ATOM     14  N   UNL A   1      44.404  27.192  27.496  1.00  0.00    -0.248 NA
ATOM     15  C   UNL A   1      44.647  25.172  26.382  1.00  0.00     0.031 C 
ATOM     16  C   UNL A   1      40.095  26.062  28.213  1.00  0.00     0.029 A 
ATOM     17  N   UNL A   1      41.537  27.754  28.165  1.00  0.00    -0.354 N 
ATOM     18  C   UNL A   1      45.645  27.123  26.874  1.00  0.00     0.074 A 
ATOM     19  C   UNL A   1      45.804  25.797  26.350  1.00  0.00     0.031 C 
ATOM     20  C   UNL A   1      39.469  27.122  28.755  1.00  0.00     0.029 A 
ATOM     21  C   UNL A   1      40.423  28.206  28.870  1.00  0.00     0.049 A 
ATOM     22  H   UNL A   1      42.269  28.343  27.870  1.00  0.00     0.167 HD
ATOM     23  C   UNL A   1      46.532  28.111  26.651  1.00  0.00     0.037 A 
ATOM     24  C   UNL A   1      40.254  29.297  29.653  1.00  0.00     0.037 A 
ATOM     25  C   UNL A   1      46.314  29.452  27.094  1.00  0.00     0.049 A 
ATOM     26  C   UNL A   1      41.355  30.319  29.642  1.00  0.00     0.074 A 
ATOM     27  C   UNL A   1      47.109  30.562  26.905  1.00  0.00     0.029 A 
ATOM     28  N   UNL A   1      45.197  29.859  27.808  1.00  0.00    -0.354 N 
ATOM     29  N   UNL A   1      42.544  30.245  29.095  1.00  0.00    -0.248 NA
ATOM     30  C   UNL A   1      41.068  31.601  30.296  1.00  0.00     0.031 C 
ATOM     31  C   UNL A   1      46.499  31.634  27.558  1.00  0.00     0.029 A 
ATOM     32  C   UNL A   1      45.290  31.206  28.087  1.00  0.00     0.049 A 
ATOM     33  H   UNL A   1      44.451  29.274  28.075  1.00  0.00     0.167 HD
ATOM     34  C   UNL A   1      43.109  31.504  29.247  1.00  0.00     0.074 A 
ATOM     35  C   UNL A   1      42.143  32.303  29.974  1.00  0.00     0.031 C 
ATOM     36  C   UNL A   1      44.298  31.972  28.794  1.00  0.00     0.037 A 
BRANCH  23  37
ATOM     37  C   UNL A   1      47.771  27.766  25.881  1.00  0.00     0.057 A 
ATOM     38  C   UNL A   1      47.790  27.701  24.479  1.00  0.00     0.134 A 
ATOM     39  C   UNL A   1      48.960  27.477  26.557  1.00  0.00     0.134 A 
ATOM     40  F   UNL A   1      46.674  27.933  23.768  1.00  0.00    -0.206 F 
ATOM     41  C   UNL A   1      48.940  27.331  23.780  1.00  0.00     0.040 A 
ATOM     42  C   UNL A   1      50.128  27.151  25.867  1.00  0.00     0.040 A 
ATOM     43  F   UNL A   1      49.007  27.507  27.897  1.00  0.00    -0.206 F 
ATOM     44  C   UNL A   1      50.117  27.069  24.476  1.00  0.00     0.006 A 
ENDBRANCH  23  37
BRANCH  24  45
ATOM     45  C   UNL A   1      39.065  29.483  30.554  1.00  0.00     0.057 A 
ATOM     46  C   UNL A   1      37.960  30.242  30.152  1.00  0.00     0.134 A 
ATOM     47  C   UNL A   1      39.035  29.016  31.879  1.00  0.00     0.134 A 
ATOM     48  F   UNL A   1      37.930  30.784  28.927  1.00  0.00    -0.206 F 
ATOM     49  C   UNL A   1      36.900  30.536  31.024  1.00  0.00     0.040 A 
ATOM     50  C   UNL A   1      37.968  29.265  32.749  1.00  0.00     0.040 A 
ATOM     51  F   UNL A   1      40.067  28.356  32.406  1.00  0.00    -0.206 F 
ATOM     52  C   UNL A   1      36.899  30.040  32.326  1.00  0.00     0.006 A 
ENDBRANCH  24  45
BRANCH  36  53
ATOM     53  C   UNL A   1      44.555  33.436  28.965  1.00  0.00     0.057 A 
ATOM     54  C   UNL A   1      44.180  34.382  28.006  1.00  0.00     0.134 A 
ATOM     55  C   UNL A   1      45.193  33.900  30.125  1.00  0.00     0.134 A 
ATOM     56  F   UNL A   1      43.574  33.998  26.872  1.00  0.00    -0.206 F 
ATOM     57  C   UNL A   1      44.483  35.733  28.166  1.00  0.00     0.040 A 
ATOM     58  C   UNL A   1      45.455  35.252  30.319  1.00  0.00     0.040 A 
ATOM     59  F   UNL A   1      45.562  33.045  31.091  1.00  0.00    -0.206 F 
ATOM     60  C   UNL A   1      45.117  36.171  29.329  1.00  0.00     0.006 A 
ENDBRANCH  36  53
ENDBRANCH  10  11
ENDBRANCH   3   5
ENDBRANCH   2   3
ENDBRANCH   1   2
BRANCH   1  61
ATOM     61  C   UNL A   1      38.111  19.615  24.787  1.00  0.00     0.274 C 
BRANCH  61  62
ATOM     62  O   UNL A   1      36.779  20.149  25.158  1.00  0.00    -0.462 OA
BRANCH  62  63
ATOM     63  C   UNL A   1      36.315  21.324  24.652  1.00  0.00     0.309 C 
ATOM     64  O   UNL A   1      37.003  22.024  23.915  1.00  0.00    -0.252 OA
BRANCH  63  65
ATOM     65  C   UNL A   1      34.788  21.646  24.936  1.00  0.00     0.109 C 
BRANCH  65  66
ATOM     66  C   UNL A   1      33.847  20.454  25.654  1.00  0.00     0.071 C 
BRANCH  66  67
ATOM     67  C   UNL A   1      33.503  19.045  25.013  1.00  0.00     0.041 A 
ATOM     68  C   UNL A   1      34.317  18.316  24.148  1.00  0.00     0.024 A 
ATOM     69  N   UNL A   1      32.363  18.439  25.385  1.00  0.00    -0.261 NA
ATOM     70  C   UNL A   1      34.254  16.914  24.050  1.00  0.00     0.003 A 
ATOM     71  C   UNL A   1      32.231  17.089  25.140  1.00  0.00     0.111 A 
ATOM     72  C   UNL A   1      33.189  16.265  24.605  1.00  0.00     0.020 A 
ENDBRANCH  66  67
ENDBRANCH  65  66
BRANCH  65  73
ATOM     73  C   UNL A   1      33.878  22.739  24.071  1.00  0.00     0.020 C 
ATOM     74  C   UNL A   1      34.222  24.418  25.101  1.00  0.00     0.021 C 
ATOM     75  C   UNL A   1      33.140  23.364  22.060  1.00  0.00     0.141 C 
ATOM     76  C   UNL A   1      33.494  25.981  24.335  1.00  0.00     0.137 C 
ATOM     77  S   UNL A   1      32.826  25.662  22.243  1.00  0.00     0.150 S 
ATOM     78  O   UNL A   1      31.417  26.003  22.166  1.00  0.00    -0.229 OA
ATOM     79  O   UNL A   1      33.745  26.343  21.350  1.00  0.00    -0.229 OA
ENDBRANCH  65  73
ENDBRANCH  63  65
ENDBRANCH  62  63
ENDBRANCH  61  62
ENDBRANCH   1  61
TORSDOF 14
ENDMDL
