MODEL 1
REMARK VINA RESULT:      -9.5      0.000      0.000
REMARK SMILES CN(CC(=O)OCCOC(=O)c1ccc(-c2c3nc(c(-c4c(F)cccc4F)c4ccc([nH]4)c(-c4c(F)cccc4F)c4nc(c(-c5c(F)cccc5F)c5ccc2[nH]5)C=C4)C=C3)cc1)C(=O)c1ccccn1
REMARK SMILES IDX 7 1 6 2 4 3 5 4 3 5 2 6 1 7 66 8 67 9 68 10 69 11 73 12
REMARK SMILES IDX 70 13 72 14 71 15 8 16 9 17 10 18 11 19 12 20 13 21 65 22
REMARK SMILES IDX 14 23 64 24 15 25 16 26 17 27 58 28 18 29 63 30 57 31 59 32
REMARK SMILES IDX 19 33 62 34 56 35 55 36 20 38 46 39 29 40 45 41 30 42 33 43
REMARK SMILES IDX 44 44 60 45 31 46 32 47 43 49 61 50 34 51 21 52 22 53 27 54
REMARK SMILES IDX 23 55 24 56 26 57 28 58 25 59 47 60 48 61 53 62 49 63 50 64
REMARK SMILES IDX 52 65 54 66 51 67 35 68 36 69 41 70 37 71 38 72 40 73 42 74
REMARK SMILES IDX 39 75
REMARK H PARENT 59 37 33 48
REMARK Flexibility Score: inf
ROOT
ATOM      1  C   UNL A   1      41.782  20.243  26.517  1.00  0.00     0.274 C 
ENDROOT
BRANCH   1   2
ATOM      2  O   UNL A   1      42.389  19.545  25.402  1.00  0.00    -0.461 OA
BRANCH   2   3
ATOM      3  C   UNL A   1      43.117  18.442  25.726  1.00  0.00     0.325 C 
ATOM      4  O   UNL A   1      42.617  17.373  26.072  1.00  0.00    -0.250 OA
BRANCH   3   5
ATOM      5  C   UNL A   1      44.625  18.565  25.461  1.00  0.00     0.242 C 
BRANCH   5   6
ATOM      6  N   UNL A   1      45.131  19.471  24.428  1.00  0.00    -0.329 N 
ATOM      7  C   UNL A   1      44.838  19.097  23.056  1.00  0.00     0.147 C 
BRANCH   6   8
ATOM      8  C   UNL A   1      45.756  20.703  24.651  1.00  0.00     0.272 C 
ATOM      9  O   UNL A   1      46.976  20.853  24.548  1.00  0.00    -0.267 OA
BRANCH   8  10
ATOM     10  C   UNL A   1      44.975  21.897  25.075  1.00  0.00     0.128 A 
ATOM     11  C   UNL A   1      45.253  22.432  26.331  1.00  0.00     0.034 A 
ATOM     12  N   UNL A   1      44.093  22.439  24.191  1.00  0.00    -0.251 NA
ATOM     13  C   UNL A   1      44.546  23.559  26.738  1.00  0.00     0.004 A 
ATOM     14  C   UNL A   1      43.442  23.546  24.619  1.00  0.00     0.112 A 
ATOM     15  C   UNL A   1      43.621  24.129  25.868  1.00  0.00     0.020 A 
ENDBRANCH   8  10
ENDBRANCH   6   8
ENDBRANCH   5   6
ENDBRANCH   3   5
ENDBRANCH   2   3
ENDBRANCH   1   2
BRANCH   1  16
ATOM     16  C   UNL A   1      41.017  21.515  26.106  1.00  0.00     0.275 C 
BRANCH  16  17
ATOM     17  O   UNL A   1      39.766  21.695  26.812  1.00  0.00    -0.458 OA
BRANCH  17  18
ATOM     18  C   UNL A   1      39.160  22.852  26.484  1.00  0.00     0.338 C 
ATOM     19  O   UNL A   1      38.090  22.940  25.901  1.00  0.00    -0.246 OA
BRANCH  18  20
ATOM     20  C   UNL A   1      39.843  24.069  26.916  1.00  0.00     0.060 A 
ATOM     21  C   UNL A   1      39.982  24.291  28.289  1.00  0.00     0.016 A 
ATOM     22  C   UNL A   1      40.064  25.103  26.004  1.00  0.00     0.016 A 
ATOM     23  C   UNL A   1      40.316  25.557  28.759  1.00  0.00     0.010 A 
ATOM     24  C   UNL A   1      40.437  26.368  26.476  1.00  0.00     0.010 A 
ATOM     25  C   UNL A   1      40.552  26.602  27.855  1.00  0.00    -0.014 A 
BRANCH  25  26
ATOM     26  C   UNL A   1      41.049  27.895  28.376  1.00  0.00     0.031 A 
ATOM     27  C   UNL A   1      42.508  28.236  28.401  1.00  0.00     0.074 A 
ATOM     28  C   UNL A   1      40.130  28.790  28.779  1.00  0.00     0.049 A 
ATOM     29  N   UNL A   1      43.087  29.337  28.810  1.00  0.00    -0.248 NA
ATOM     30  C   UNL A   1      43.441  27.219  27.893  1.00  0.00     0.031 C 
ATOM     31  C   UNL A   1      38.682  28.570  28.754  1.00  0.00     0.029 A 
ATOM     32  N   UNL A   1      40.270  30.059  29.272  1.00  0.00    -0.354 N 
ATOM     33  C   UNL A   1      44.447  29.157  28.598  1.00  0.00     0.074 A 
ATOM     34  C   UNL A   1      44.611  27.829  28.042  1.00  0.00     0.031 C 
ATOM     35  C   UNL A   1      38.066  29.674  29.196  1.00  0.00     0.029 A 
ATOM     36  C   UNL A   1      39.074  30.658  29.573  1.00  0.00     0.049 A 
ATOM     37  H   UNL A   1      41.141  30.498  29.397  1.00  0.00     0.167 HD
ATOM     38  C   UNL A   1      45.457  30.023  28.847  1.00  0.00     0.037 A 
ATOM     39  C   UNL A   1      38.815  31.863  30.111  1.00  0.00     0.037 A 
ATOM     40  C   UNL A   1      45.283  31.334  29.424  1.00  0.00     0.049 A 
ATOM     41  C   UNL A   1      39.958  32.771  30.443  1.00  0.00     0.074 A 
ATOM     42  C   UNL A   1      46.248  32.274  29.743  1.00  0.00     0.029 A 
ATOM     43  N   UNL A   1      44.060  31.887  29.771  1.00  0.00    -0.354 N 
ATOM     44  N   UNL A   1      41.241  32.578  30.258  1.00  0.00    -0.248 NA
ATOM     45  C   UNL A   1      39.620  34.058  31.060  1.00  0.00     0.031 C 
ATOM     46  C   UNL A   1      45.610  33.385  30.311  1.00  0.00     0.029 A 
ATOM     47  C   UNL A   1      44.246  33.147  30.317  1.00  0.00     0.049 A 
ATOM     48  H   UNL A   1      43.187  31.448  29.649  1.00  0.00     0.167 HD
ATOM     49  C   UNL A   1      41.866  33.719  30.733  1.00  0.00     0.074 A 
ATOM     50  C   UNL A   1      40.818  34.608  31.197  1.00  0.00     0.031 C 
ATOM     51  C   UNL A   1      43.189  34.006  30.784  1.00  0.00     0.037 A 
BRANCH  38  52
ATOM     52  C   UNL A   1      46.851  29.584  28.512  1.00  0.00     0.057 A 
ATOM     53  C   UNL A   1      47.425  29.855  27.264  1.00  0.00     0.134 A 
ATOM     54  C   UNL A   1      47.653  28.947  29.468  1.00  0.00     0.134 A 
ATOM     55  F   UNL A   1      46.707  30.456  26.303  1.00  0.00    -0.206 F 
ATOM     56  C   UNL A   1      48.745  29.504  26.976  1.00  0.00     0.040 A 
ATOM     57  C   UNL A   1      48.978  28.604  29.197  1.00  0.00     0.040 A 
ATOM     58  F   UNL A   1      47.164  28.664  30.685  1.00  0.00    -0.206 F 
ATOM     59  C   UNL A   1      49.529  28.883  27.947  1.00  0.00     0.006 A 
ENDBRANCH  38  52
BRANCH  39  60
ATOM     60  C   UNL A   1      37.411  32.253  30.372  1.00  0.00     0.057 A 
ATOM     61  C   UNL A   1      36.670  32.963  29.424  1.00  0.00     0.134 A 
ATOM     62  C   UNL A   1      36.766  31.879  31.557  1.00  0.00     0.134 A 
ATOM     63  F   UNL A   1      37.241  33.357  28.277  1.00  0.00    -0.206 F 
ATOM     64  C   UNL A   1      35.331  33.287  29.643  1.00  0.00     0.040 A 
ATOM     65  C   UNL A   1      35.423  32.178  31.781  1.00  0.00     0.040 A 
ATOM     66  F   UNL A   1      37.426  31.188  32.498  1.00  0.00    -0.206 F 
ATOM     67  C   UNL A   1      34.702  32.887  30.822  1.00  0.00     0.006 A 
ENDBRANCH  39  60
BRANCH  51  68
ATOM     68  C   UNL A   1      43.560  35.336  31.361  1.00  0.00     0.057 A 
ATOM     69  C   UNL A   1      43.778  35.499  32.735  1.00  0.00     0.134 A 
ATOM     70  C   UNL A   1      43.693  36.461  30.540  1.00  0.00     0.134 A 
ATOM     71  F   UNL A   1      43.647  34.459  33.572  1.00  0.00    -0.206 F 
ATOM     72  C   UNL A   1      44.094  36.746  33.276  1.00  0.00     0.040 A 
ATOM     73  C   UNL A   1      44.025  37.709  31.068  1.00  0.00     0.040 A 
ATOM     74  F   UNL A   1      43.497  36.366  29.217  1.00  0.00    -0.206 F 
ATOM     75  C   UNL A   1      44.220  37.855  32.441  1.00  0.00     0.006 A 
ENDBRANCH  51  68
ENDBRANCH  25  26
ENDBRANCH  18  20
ENDBRANCH  17  18
ENDBRANCH  16  17
ENDBRANCH   1  16
TORSDOF 14
ENDMDL
MODEL 2
REMARK VINA RESULT:      -9.4      0.394      6.647
REMARK SMILES CN(CC(=O)OCCOC(=O)c1ccc(-c2c3nc(c(-c4c(F)cccc4F)c4ccc([nH]4)c(-c4c(F)cccc4F)c4nc(c(-c5c(F)cccc5F)c5ccc2[nH]5)C=C4)C=C3)cc1)C(=O)c1ccccn1
REMARK SMILES IDX 7 1 6 2 4 3 5 4 3 5 2 6 1 7 66 8 67 9 68 10 69 11 73 12
REMARK SMILES IDX 70 13 72 14 71 15 8 16 9 17 10 18 11 19 12 20 13 21 65 22
REMARK SMILES IDX 14 23 64 24 15 25 16 26 17 27 58 28 18 29 63 30 57 31 59 32
REMARK SMILES IDX 19 33 62 34 56 35 55 36 20 38 46 39 29 40 45 41 30 42 33 43
REMARK SMILES IDX 44 44 60 45 31 46 32 47 43 49 61 50 34 51 21 52 22 53 27 54
REMARK SMILES IDX 23 55 24 56 26 57 28 58 25 59 47 60 48 61 53 62 49 63 50 64
REMARK SMILES IDX 52 65 54 66 51 67 35 68 36 69 41 70 37 71 38 72 40 73 42 74
REMARK SMILES IDX 39 75
REMARK H PARENT 59 37 33 48
REMARK Flexibility Score: inf
ROOT
ATOM      1  C   UNL A   1      41.832  20.199  26.559  1.00  0.00     0.274 C 
ENDROOT
BRANCH   1   2
ATOM      2  O   UNL A   1      42.436  19.509  25.437  1.00  0.00    -0.461 OA
BRANCH   2   3
ATOM      3  C   UNL A   1      43.158  18.400  25.750  1.00  0.00     0.325 C 
ATOM      4  O   UNL A   1      42.653  17.328  26.080  1.00  0.00    -0.250 OA
BRANCH   3   5
ATOM      5  C   UNL A   1      44.668  18.521  25.493  1.00  0.00     0.242 C 
BRANCH   5   6
ATOM      6  N   UNL A   1      45.181  19.433  24.470  1.00  0.00    -0.329 N 
ATOM      7  C   UNL A   1      44.903  19.064  23.092  1.00  0.00     0.147 C 
BRANCH   6   8
ATOM      8  C   UNL A   1      45.799  20.667  24.704  1.00  0.00     0.272 C 
ATOM      9  O   UNL A   1      47.021  20.818  24.625  1.00  0.00    -0.267 OA
BRANCH   8  10
ATOM     10  C   UNL A   1      45.008  21.859  25.112  1.00  0.00     0.128 A 
ATOM     11  C   UNL A   1      45.262  22.396  26.373  1.00  0.00     0.034 A 
ATOM     12  N   UNL A   1      44.142  22.399  24.211  1.00  0.00    -0.251 NA
ATOM     13  C   UNL A   1      44.545  23.522  26.765  1.00  0.00     0.004 A 
ATOM     14  C   UNL A   1      43.481  23.505  24.626  1.00  0.00     0.112 A 
ATOM     15  C   UNL A   1      43.635  24.090  25.878  1.00  0.00     0.020 A 
ENDBRANCH   8  10
ENDBRANCH   6   8
ENDBRANCH   5   6
ENDBRANCH   3   5
ENDBRANCH   2   3
ENDBRANCH   1   2
BRANCH   1  16
ATOM     16  C   UNL A   1      41.062  21.472  26.159  1.00  0.00     0.275 C 
BRANCH  16  17
ATOM     17  O   UNL A   1      39.820  21.651  26.880  1.00  0.00    -0.458 OA
BRANCH  17  18
ATOM     18  C   UNL A   1      39.169  22.767  26.501  1.00  0.00     0.338 C 
ATOM     19  O   UNL A   1      38.109  22.786  25.893  1.00  0.00    -0.246 OA
BRANCH  18  20
ATOM     20  C   UNL A   1      39.787  24.028  26.906  1.00  0.00     0.060 A 
ATOM     21  C   UNL A   1      39.767  24.362  28.263  1.00  0.00     0.016 A 
ATOM     22  C   UNL A   1      40.099  24.990  25.943  1.00  0.00     0.016 A 
ATOM     23  C   UNL A   1      40.033  25.668  28.662  1.00  0.00     0.010 A 
ATOM     24  C   UNL A   1      40.403  26.295  26.348  1.00  0.00     0.010 A 
ATOM     25  C   UNL A   1      40.359  26.642  27.708  1.00  0.00    -0.014 A 
BRANCH  25  26
ATOM     26  C   UNL A   1      40.781  27.981  28.174  1.00  0.00     0.031 A 
ATOM     27  C   UNL A   1      39.798  29.001  28.663  1.00  0.00     0.074 A 
ATOM     28  C   UNL A   1      42.101  28.238  28.196  1.00  0.00     0.049 A 
ATOM     29  N   UNL A   1      40.025  30.207  29.119  1.00  0.00    -0.248 NA
ATOM     30  C   UNL A   1      38.378  28.618  28.654  1.00  0.00     0.031 C 
ATOM     31  C   UNL A   1      43.142  27.295  27.779  1.00  0.00     0.029 A 
ATOM     32  N   UNL A   1      42.792  29.350  28.593  1.00  0.00    -0.354 N 
ATOM     33  C   UNL A   1      38.784  30.726  29.464  1.00  0.00     0.074 A 
ATOM     34  C   UNL A   1      37.802  29.709  29.146  1.00  0.00     0.031 C 
ATOM     35  C   UNL A   1      44.342  27.864  27.959  1.00  0.00     0.029 A 
ATOM     36  C   UNL A   1      44.150  29.219  28.461  1.00  0.00     0.049 A 
ATOM     37  H   UNL A   1      42.358  30.162  28.940  1.00  0.00     0.167 HD
ATOM     38  C   UNL A   1      38.499  31.938  29.997  1.00  0.00     0.037 A 
ATOM     39  C   UNL A   1      45.136  30.101  28.701  1.00  0.00     0.037 A 
ATOM     40  C   UNL A   1      39.484  32.951  30.286  1.00  0.00     0.049 A 
ATOM     41  C   UNL A   1      44.785  31.460  29.221  1.00  0.00     0.074 A 
ATOM     42  C   UNL A   1      39.292  34.224  30.799  1.00  0.00     0.029 A 
ATOM     43  N   UNL A   1      40.849  32.806  30.086  1.00  0.00    -0.354 N 
ATOM     44  N   UNL A   1      43.606  31.945  29.521  1.00  0.00    -0.248 NA
ATOM     45  C   UNL A   1      45.897  32.394  29.431  1.00  0.00     0.031 C 
ATOM     46  C   UNL A   1      40.537  34.859  30.879  1.00  0.00     0.029 A 
ATOM     47  C   UNL A   1      41.508  33.971  30.447  1.00  0.00     0.049 A 
ATOM     48  H   UNL A   1      41.285  31.996  29.737  1.00  0.00     0.167 HD
ATOM     49  C   UNL A   1      43.831  33.240  29.960  1.00  0.00     0.074 A 
ATOM     50  C   UNL A   1      45.263  33.458  29.904  1.00  0.00     0.031 C 
ATOM     51  C   UNL A   1      42.932  34.168  30.368  1.00  0.00     0.037 A 
BRANCH  38  52
ATOM     52  C   UNL A   1      37.063  32.250  30.291  1.00  0.00     0.057 A 
ATOM     53  C   UNL A   1      36.495  31.976  31.541  1.00  0.00     0.134 A 
ATOM     54  C   UNL A   1      36.260  32.896  29.343  1.00  0.00     0.134 A 
ATOM     55  F   UNL A   1      37.211  31.353  32.489  1.00  0.00    -0.206 F 
ATOM     56  C   UNL A   1      35.176  32.328  31.837  1.00  0.00     0.040 A 
ATOM     57  C   UNL A   1      34.945  33.265  29.631  1.00  0.00     0.040 A 
ATOM     58  F   UNL A   1      36.746  33.192  28.128  1.00  0.00    -0.206 F 
ATOM     59  C   UNL A   1      34.399  32.982  30.882  1.00  0.00     0.006 A 
ENDBRANCH  38  52
BRANCH  39  60
ATOM     60  C   UNL A   1      46.539  29.711  28.432  1.00  0.00     0.057 A 
ATOM     61  C   UNL A   1      47.333  29.138  29.429  1.00  0.00     0.134 A 
ATOM     62  C   UNL A   1      47.097  29.856  27.157  1.00  0.00     0.134 A 
ATOM     63  F   UNL A   1      46.853  28.986  30.672  1.00  0.00    -0.206 F 
ATOM     64  C   UNL A   1      48.638  28.719  29.167  1.00  0.00     0.040 A 
ATOM     65  C   UNL A   1      48.393  29.424  26.876  1.00  0.00     0.040 A 
ATOM     66  F   UNL A   1      46.378  30.390  26.159  1.00  0.00    -0.206 F 
ATOM     67  C   UNL A   1      49.168  28.856  27.885  1.00  0.00     0.006 A 
ENDBRANCH  39  60
BRANCH  51  68
ATOM     68  C   UNL A   1      43.487  35.493  30.786  1.00  0.00     0.057 A 
ATOM     69  C   UNL A   1      43.659  36.534  29.864  1.00  0.00     0.134 A 
ATOM     70  C   UNL A   1      43.860  35.729  32.113  1.00  0.00     0.134 A 
ATOM     71  F   UNL A   1      43.335  36.360  28.573  1.00  0.00    -0.206 F 
ATOM     72  C   UNL A   1      44.204  37.760  30.247  1.00  0.00     0.040 A 
ATOM     73  C   UNL A   1      44.392  36.956  32.511  1.00  0.00     0.040 A 
ATOM     74  F   UNL A   1      43.720  34.770  33.040  1.00  0.00    -0.206 F 
ATOM     75  C   UNL A   1      44.571  37.973  31.575  1.00  0.00     0.006 A 
ENDBRANCH  51  68
ENDBRANCH  25  26
ENDBRANCH  18  20
ENDBRANCH  17  18
ENDBRANCH  16  17
ENDBRANCH   1  16
TORSDOF 14
ENDMDL
MODEL 3
REMARK VINA RESULT:      -9.4      4.632     11.698
REMARK SMILES CN(CC(=O)OCCOC(=O)c1ccc(-c2c3nc(c(-c4c(F)cccc4F)c4ccc([nH]4)c(-c4c(F)cccc4F)c4nc(c(-c5c(F)cccc5F)c5ccc2[nH]5)C=C4)C=C3)cc1)C(=O)c1ccccn1
REMARK SMILES IDX 7 1 6 2 4 3 5 4 3 5 2 6 1 7 66 8 67 9 68 10 69 11 73 12
REMARK SMILES IDX 70 13 72 14 71 15 8 16 9 17 10 18 11 19 12 20 13 21 65 22
REMARK SMILES IDX 14 23 64 24 15 25 16 26 17 27 58 28 18 29 63 30 57 31 59 32
REMARK SMILES IDX 19 33 62 34 56 35 55 36 20 38 46 39 29 40 45 41 30 42 33 43
REMARK SMILES IDX 44 44 60 45 31 46 32 47 43 49 61 50 34 51 21 52 22 53 27 54
REMARK SMILES IDX 23 55 24 56 26 57 28 58 25 59 47 60 48 61 53 62 49 63 50 64
REMARK SMILES IDX 52 65 54 66 51 67 35 68 36 69 41 70 37 71 38 72 40 73 42 74
REMARK SMILES IDX 39 75
REMARK H PARENT 59 37 33 48
REMARK Flexibility Score: inf
ROOT
ATOM      1  C   UNL A   1      35.201  32.399  28.113  1.00  0.00     0.274 C 
ENDROOT
BRANCH   1   2
ATOM      2  O   UNL A   1      33.763  32.537  28.005  1.00  0.00    -0.461 OA
BRANCH   2   3
ATOM      3  C   UNL A   1      33.292  33.813  28.031  1.00  0.00     0.325 C 
ATOM      4  O   UNL A   1      32.155  34.126  27.683  1.00  0.00    -0.250 OA
BRANCH   3   5
ATOM      5  C   UNL A   1      34.228  34.832  28.696  1.00  0.00     0.242 C 
BRANCH   5   6
ATOM      6  N   UNL A   1      33.687  35.954  29.466  1.00  0.00    -0.329 N 
ATOM      7  C   UNL A   1      33.571  37.215  28.755  1.00  0.00     0.147 C 
BRANCH   6   8
ATOM      8  C   UNL A   1      33.169  35.885  30.765  1.00  0.00     0.272 C 
ATOM      9  O   UNL A   1      32.148  36.490  31.101  1.00  0.00    -0.267 OA
BRANCH   8  10
ATOM     10  C   UNL A   1      33.860  35.107  31.829  1.00  0.00     0.128 A 
ATOM     11  C   UNL A   1      34.471  35.827  32.854  1.00  0.00     0.034 A 
ATOM     12  N   UNL A   1      33.795  33.748  31.782  1.00  0.00    -0.251 NA
ATOM     13  C   UNL A   1      35.107  35.117  33.868  1.00  0.00     0.004 A 
ATOM     14  C   UNL A   1      34.408  33.098  32.798  1.00  0.00     0.112 A 
ATOM     15  C   UNL A   1      35.078  33.726  33.842  1.00  0.00     0.020 A 
ENDBRANCH   8  10
ENDBRANCH   6   8
ENDBRANCH   5   6
ENDBRANCH   3   5
ENDBRANCH   2   3
ENDBRANCH   1   2
BRANCH   1  16
ATOM     16  C   UNL A   1      35.668  31.853  29.475  1.00  0.00     0.275 C 
BRANCH  16  17
ATOM     17  O   UNL A   1      35.592  30.411  29.581  1.00  0.00    -0.458 OA
BRANCH  17  18
ATOM     18  C   UNL A   1      36.429  29.925  30.516  1.00  0.00     0.338 C 
ATOM     19  O   UNL A   1      36.211  29.927  31.719  1.00  0.00    -0.246 OA
BRANCH  18  20
ATOM     20  C   UNL A   1      37.660  29.319  30.011  1.00  0.00     0.060 A 
ATOM     21  C   UNL A   1      38.623  28.918  30.940  1.00  0.00     0.016 A 
ATOM     22  C   UNL A   1      37.982  29.428  28.656  1.00  0.00     0.016 A 
ATOM     23  C   UNL A   1      39.922  28.648  30.524  1.00  0.00     0.010 A 
ATOM     24  C   UNL A   1      39.280  29.121  28.232  1.00  0.00     0.010 A 
ATOM     25  C   UNL A   1      40.258  28.741  29.166  1.00  0.00    -0.014 A 
BRANCH  25  26
ATOM     26  C   UNL A   1      41.605  28.307  28.734  1.00  0.00     0.031 A 
ATOM     27  C   UNL A   1      41.890  26.897  28.313  1.00  0.00     0.074 A 
ATOM     28  C   UNL A   1      42.566  29.246  28.677  1.00  0.00     0.049 A 
ATOM     29  N   UNL A   1      43.017  26.378  27.892  1.00  0.00    -0.248 NA
ATOM     30  C   UNL A   1      40.769  25.947  28.356  1.00  0.00     0.031 C 
ATOM     31  C   UNL A   1      42.377  30.656  29.025  1.00  0.00     0.029 A 
ATOM     32  N   UNL A   1      43.877  29.165  28.296  1.00  0.00    -0.354 N 
ATOM     33  C   UNL A   1      42.742  25.048  27.607  1.00  0.00     0.074 A 
ATOM     34  C   UNL A   1      41.344  24.831  27.922  1.00  0.00     0.031 C 
ATOM     35  C   UNL A   1      43.528  31.312  28.826  1.00  0.00     0.029 A 
ATOM     36  C   UNL A   1      44.540  30.362  28.378  1.00  0.00     0.049 A 
ATOM     37  H   UNL A   1      44.302  28.331  27.992  1.00  0.00     0.167 HD
ATOM     38  C   UNL A   1      43.583  24.101  27.126  1.00  0.00     0.037 A 
ATOM     39  C   UNL A   1      45.829  30.662  28.136  1.00  0.00     0.037 A 
ATOM     40  C   UNL A   1      44.980  24.323  26.839  1.00  0.00     0.049 A 
ATOM     41  C   UNL A   1      46.753  29.578  27.675  1.00  0.00     0.074 A 
ATOM     42  C   UNL A   1      45.923  23.419  26.378  1.00  0.00     0.029 A 
ATOM     43  N   UNL A   1      45.633  25.537  26.989  1.00  0.00    -0.354 N 
ATOM     44  N   UNL A   1      46.485  28.319  27.432  1.00  0.00    -0.248 NA
ATOM     45  C   UNL A   1      48.155  29.953  27.461  1.00  0.00     0.031 C 
ATOM     46  C   UNL A   1      47.154  24.080  26.279  1.00  0.00     0.029 A 
ATOM     47  C   UNL A   1      46.970  25.402  26.648  1.00  0.00     0.049 A 
ATOM     48  H   UNL A   1      45.210  26.371  27.296  1.00  0.00     0.167 HD
ATOM     49  C   UNL A   1      47.682  27.749  27.032  1.00  0.00     0.074 A 
ATOM     50  C   UNL A   1      48.674  28.806  27.048  1.00  0.00     0.031 C 
ATOM     51  C   UNL A   1      47.940  26.465  26.686  1.00  0.00     0.037 A 
BRANCH  38  52
ATOM     52  C   UNL A   1      43.028  22.729  26.890  1.00  0.00     0.057 A 
ATOM     53  C   UNL A   1      42.813  22.238  25.597  1.00  0.00     0.134 A 
ATOM     54  C   UNL A   1      42.772  21.864  27.962  1.00  0.00     0.134 A 
ATOM     55  F   UNL A   1      43.032  23.020  24.529  1.00  0.00    -0.206 F 
ATOM     56  C   UNL A   1      42.358  20.936  25.377  1.00  0.00     0.040 A 
ATOM     57  C   UNL A   1      42.330  20.556  27.755  1.00  0.00     0.040 A 
ATOM     58  F   UNL A   1      42.963  22.272  29.225  1.00  0.00    -0.206 F 
ATOM     59  C   UNL A   1      42.123  20.088  26.458  1.00  0.00     0.006 A 
ENDBRANCH  38  52
BRANCH  39  60
ATOM     60  C   UNL A   1      46.301  32.049  28.345  1.00  0.00     0.057 A 
ATOM     61  C   UNL A   1      46.179  33.013  27.339  1.00  0.00     0.134 A 
ATOM     62  C   UNL A   1      46.838  32.453  29.573  1.00  0.00     0.134 A 
ATOM     63  F   UNL A   1      45.683  32.679  26.140  1.00  0.00    -0.206 F 
ATOM     64  C   UNL A   1      46.574  34.334  27.549  1.00  0.00     0.040 A 
ATOM     65  C   UNL A   1      47.218  33.775  29.802  1.00  0.00     0.040 A 
ATOM     66  F   UNL A   1      46.970  31.573  30.576  1.00  0.00    -0.206 F 
ATOM     67  C   UNL A   1      47.088  34.719  28.786  1.00  0.00     0.006 A 
ENDBRANCH  39  60
BRANCH  51  68
ATOM     68  C   UNL A   1      49.350  26.151  26.296  1.00  0.00     0.057 A 
ATOM     69  C   UNL A   1      49.816  26.384  24.996  1.00  0.00     0.134 A 
ATOM     70  C   UNL A   1      50.245  25.605  27.223  1.00  0.00     0.134 A 
ATOM     71  F   UNL A   1      48.998  26.890  24.061  1.00  0.00    -0.206 F 
ATOM     72  C   UNL A   1      51.122  26.062  24.625  1.00  0.00     0.040 A 
ATOM     73  C   UNL A   1      51.558  25.294  26.867  1.00  0.00     0.040 A 
ATOM     74  F   UNL A   1      49.856  25.359  28.482  1.00  0.00    -0.206 F 
ATOM     75  C   UNL A   1      51.998  25.517  25.563  1.00  0.00     0.006 A 
ENDBRANCH  51  68
ENDBRANCH  25  26
ENDBRANCH  18  20
ENDBRANCH  17  18
ENDBRANCH  16  17
ENDBRANCH   1  16
TORSDOF 14
ENDMDL
