MODEL 1
REMARK VINA RESULT:     -10.6      0.000      0.000
REMARK SMILES C=C[C@@H](C)Oc1cnc2ccccc2c1C(=O)OCCOC(=O)c1ccc(-c2c3nc(c(-c4c(F)cccc4F)c4ccc([nH]4)c(-c4c(F)cccc4F)c4nc(c(-c5c(F)cccc5F)c5ccc2[nH]5)C=C4)C=C3)cc1
REMARK SMILES IDX 19 1 18 2 16 3 17 4 15 5 6 6 7 7 8 8 14 9 9 10 13 11 10 12
REMARK SMILES IDX 12 13 11 14 5 15 3 16 4 17 2 18 1 19 20 20 21 21 22 22 23 23
REMARK SMILES IDX 24 24 25 25 77 26 26 27 76 28 27 29 28 30 29 31 70 32 30 33
REMARK SMILES IDX 75 34 69 35 71 36 31 37 74 38 68 39 67 40 32 42 58 43 41 44
REMARK SMILES IDX 57 45 42 46 45 47 56 48 72 49 43 50 44 51 55 53 73 54 46 55
REMARK SMILES IDX 33 56 34 57 39 58 35 59 36 60 38 61 40 62 37 63 59 64 60 65
REMARK SMILES IDX 65 66 61 67 62 68 64 69 66 70 63 71 47 72 48 73 53 74 49 75
REMARK SMILES IDX 50 76 52 77 54 78 51 79
REMARK H PARENT 71 41 45 52
REMARK Flexibility Score: inf
ROOT
ATOM      1  C   UNL A   1      31.743  28.559  26.927  1.00  0.00     0.275 C 
ENDROOT
BRANCH   1   2
ATOM      2  O   UNL A   1      32.517  27.591  26.184  1.00  0.00    -0.458 OA
BRANCH   2   3
ATOM      3  C   UNL A   1      31.974  26.351  26.053  1.00  0.00     0.342 C 
ATOM      4  O   UNL A   1      31.273  25.782  26.875  1.00  0.00    -0.246 OA
BRANCH   3   5
ATOM      5  C   UNL A   1      32.349  25.750  24.748  1.00  0.00     0.113 A 
ATOM      6  C   UNL A   1      31.481  25.927  23.659  1.00  0.00     0.153 A 
ATOM      7  C   UNL A   1      31.906  25.432  22.443  1.00  0.00     0.159 A 
ATOM      8  N   UNL A   1      33.017  24.688  22.268  1.00  0.00    -0.252 NA
ATOM      9  C   UNL A   1      33.532  24.965  24.614  1.00  0.00     0.018 A 
ATOM     10  C   UNL A   1      33.794  24.445  23.328  1.00  0.00     0.071 A 
ATOM     11  C   UNL A   1      34.444  24.645  25.656  1.00  0.00     0.011 A 
ATOM     12  C   UNL A   1      34.906  23.642  23.126  1.00  0.00     0.029 A 
ATOM     13  C   UNL A   1      35.561  23.839  25.426  1.00  0.00     0.001 A 
ATOM     14  C   UNL A   1      35.788  23.329  24.158  1.00  0.00     0.002 A 
BRANCH   6  15
ATOM     15  O   UNL A   1      30.384  26.727  23.767  1.00  0.00    -0.484 OA
BRANCH  15  16
ATOM     16  C   UNL A   1      30.182  27.846  22.884  1.00  0.00     0.192 C 
ATOM     17  C   UNL A   1      31.387  28.780  22.848  1.00  0.00     0.057 C 
BRANCH  16  18
ATOM     18  C   UNL A   1      28.882  28.581  23.096  1.00  0.00     0.009 C 
ATOM     19  C   UNL A   1      28.439  29.599  22.344  1.00  0.00     0.008 C 
ENDBRANCH  16  18
ENDBRANCH  15  16
ENDBRANCH   6  15
ENDBRANCH   3   5
ENDBRANCH   2   3
ENDBRANCH   1   2
BRANCH   1  20
ATOM     20  C   UNL A   1      31.703  29.902  26.197  1.00  0.00     0.275 C 
BRANCH  20  21
ATOM     21  O   UNL A   1      33.038  30.435  26.111  1.00  0.00    -0.458 OA
BRANCH  21  22
ATOM     22  C   UNL A   1      33.307  31.458  26.954  1.00  0.00     0.338 C 
ATOM     23  O   UNL A   1      32.577  32.378  27.275  1.00  0.00    -0.246 OA
BRANCH  22  24
ATOM     24  C   UNL A   1      34.584  31.180  27.628  1.00  0.00     0.060 A 
ATOM     25  C   UNL A   1      34.808  29.857  27.984  1.00  0.00     0.016 A 
ATOM     26  C   UNL A   1      35.489  32.171  28.001  1.00  0.00     0.016 A 
ATOM     27  C   UNL A   1      35.940  29.503  28.711  1.00  0.00     0.010 A 
ATOM     28  C   UNL A   1      36.642  31.812  28.724  1.00  0.00     0.010 A 
ATOM     29  C   UNL A   1      36.875  30.472  29.088  1.00  0.00    -0.014 A 
BRANCH  29  30
ATOM     30  C   UNL A   1      38.015  30.050  29.950  1.00  0.00     0.031 A 
ATOM     31  C   UNL A   1      39.114  29.205  29.368  1.00  0.00     0.074 A 
ATOM     32  C   UNL A   1      38.148  30.535  31.202  1.00  0.00     0.049 A 
ATOM     33  N   UNL A   1      40.174  28.705  29.953  1.00  0.00    -0.248 NA
ATOM     34  C   UNL A   1      39.014  28.891  27.935  1.00  0.00     0.031 C 
ATOM     35  C   UNL A   1      37.214  31.451  31.858  1.00  0.00     0.029 A 
ATOM     36  N   UNL A   1      39.144  30.357  32.132  1.00  0.00    -0.354 N 
ATOM     37  C   UNL A   1      40.851  27.996  28.970  1.00  0.00     0.074 A 
ATOM     38  C   UNL A   1      40.082  28.127  27.750  1.00  0.00     0.031 C 
ATOM     39  C   UNL A   1      37.703  31.788  33.063  1.00  0.00     0.029 A 
ATOM     40  C   UNL A   1      38.945  31.054  33.301  1.00  0.00     0.049 A 
ATOM     41  H   UNL A   1      39.930  29.784  31.976  1.00  0.00     0.167 HD
ATOM     42  C   UNL A   1      42.006  27.295  29.073  1.00  0.00     0.037 A 
ATOM     43  C   UNL A   1      39.661  31.076  34.444  1.00  0.00     0.037 A 
ATOM     44  C   UNL A   1      42.786  27.177  30.278  1.00  0.00     0.049 A 
ATOM     45  C   UNL A   1      40.894  30.213  34.555  1.00  0.00     0.074 A 
ATOM     46  C   UNL A   1      43.935  26.435  30.493  1.00  0.00     0.029 A 
ATOM     47  N   UNL A   1      42.507  27.832  31.467  1.00  0.00    -0.354 N 
ATOM     48  N   UNL A   1      41.482  29.480  33.640  1.00  0.00    -0.248 NA
ATOM     49  C   UNL A   1      41.552  30.163  35.871  1.00  0.00     0.031 C 
ATOM     50  C   UNL A   1      44.329  26.608  31.823  1.00  0.00     0.029 A 
ATOM     51  C   UNL A   1      43.456  27.501  32.422  1.00  0.00     0.049 A 
ATOM     52  H   UNL A   1      41.748  28.442  31.612  1.00  0.00     0.167 HD
ATOM     53  C   UNL A   1      42.580  28.899  34.266  1.00  0.00     0.074 A 
ATOM     54  C   UNL A   1      42.602  29.397  35.624  1.00  0.00     0.031 C 
ATOM     55  C   UNL A   1      43.480  28.016  33.767  1.00  0.00     0.037 A 
BRANCH  42  56
ATOM     56  C   UNL A   1      42.477  26.553  27.857  1.00  0.00     0.057 A 
ATOM     57  C   UNL A   1      42.056  25.249  27.570  1.00  0.00     0.134 A 
ATOM     58  C   UNL A   1      43.328  27.176  26.935  1.00  0.00     0.134 A 
ATOM     59  F   UNL A   1      41.255  24.590  28.422  1.00  0.00    -0.206 F 
ATOM     60  C   UNL A   1      42.475  24.586  26.415  1.00  0.00     0.040 A 
ATOM     61  C   UNL A   1      43.732  26.535  25.763  1.00  0.00     0.040 A 
ATOM     62  F   UNL A   1      43.763  28.428  27.148  1.00  0.00    -0.206 F 
ATOM     63  C   UNL A   1      43.307  25.234  25.503  1.00  0.00     0.006 A 
ENDBRANCH  42  56
BRANCH  43  64
ATOM     64  C   UNL A   1      39.217  31.878  35.617  1.00  0.00     0.057 A 
ATOM     65  C   UNL A   1      38.305  31.366  36.551  1.00  0.00     0.134 A 
ATOM     66  C   UNL A   1      39.613  33.212  35.780  1.00  0.00     0.134 A 
ATOM     67  F   UNL A   1      37.859  30.107  36.438  1.00  0.00    -0.206 F 
ATOM     68  C   UNL A   1      37.777  32.159  37.574  1.00  0.00     0.040 A 
ATOM     69  C   UNL A   1      39.124  34.004  36.820  1.00  0.00     0.040 A 
ATOM     70  F   UNL A   1      40.476  33.773  34.919  1.00  0.00    -0.206 F 
ATOM     71  C   UNL A   1      38.189  33.482  37.710  1.00  0.00     0.006 A 
ENDBRANCH  43  64
BRANCH  55  72
ATOM     72  C   UNL A   1      44.583  27.565  34.682  1.00  0.00     0.057 A 
ATOM     73  C   UNL A   1      45.796  28.260  34.781  1.00  0.00     0.134 A 
ATOM     74  C   UNL A   1      44.424  26.430  35.488  1.00  0.00     0.134 A 
ATOM     75  F   UNL A   1      46.019  29.348  34.029  1.00  0.00    -0.206 F 
ATOM     76  C   UNL A   1      46.823  27.822  35.620  1.00  0.00     0.040 A 
ATOM     77  C   UNL A   1      45.432  26.001  36.354  1.00  0.00     0.040 A 
ATOM     78  F   UNL A   1      43.284  25.723  35.453  1.00  0.00    -0.206 F 
ATOM     79  C   UNL A   1      46.640  26.691  36.414  1.00  0.00     0.006 A 
ENDBRANCH  55  72
ENDBRANCH  29  30
ENDBRANCH  22  24
ENDBRANCH  21  22
ENDBRANCH  20  21
ENDBRANCH   1  20
TORSDOF 14
ENDMDL
MODEL 2
REMARK VINA RESULT:     -10.6      4.223      6.806
REMARK SMILES C=C[C@@H](C)Oc1cnc2ccccc2c1C(=O)OCCOC(=O)c1ccc(-c2c3nc(c(-c4c(F)cccc4F)c4ccc([nH]4)c(-c4c(F)cccc4F)c4nc(c(-c5c(F)cccc5F)c5ccc2[nH]5)C=C4)C=C3)cc1
REMARK SMILES IDX 19 1 18 2 16 3 17 4 15 5 6 6 7 7 8 8 14 9 9 10 13 11 10 12
REMARK SMILES IDX 12 13 11 14 5 15 3 16 4 17 2 18 1 19 20 20 21 21 22 22 23 23
REMARK SMILES IDX 24 24 25 25 77 26 26 27 76 28 27 29 28 30 29 31 70 32 30 33
REMARK SMILES IDX 75 34 69 35 71 36 31 37 74 38 68 39 67 40 32 42 58 43 41 44
REMARK SMILES IDX 57 45 42 46 45 47 56 48 72 49 43 50 44 51 55 53 73 54 46 55
REMARK SMILES IDX 33 56 34 57 39 58 35 59 36 60 38 61 40 62 37 63 59 64 60 65
REMARK SMILES IDX 65 66 61 67 62 68 64 69 66 70 63 71 47 72 48 73 53 74 49 75
REMARK SMILES IDX 50 76 52 77 54 78 51 79
REMARK H PARENT 71 41 45 52
REMARK Flexibility Score: inf
ROOT
ATOM      1  C   UNL A   1      36.577  22.586  23.660  1.00  0.00     0.275 C 
ENDROOT
BRANCH   1   2
ATOM      2  O   UNL A   1      35.406  23.073  24.354  1.00  0.00    -0.458 OA
BRANCH   2   3
ATOM      3  C   UNL A   1      34.392  23.540  23.578  1.00  0.00     0.342 C 
ATOM      4  O   UNL A   1      34.446  23.763  22.379  1.00  0.00    -0.246 OA
BRANCH   3   5
ATOM      5  C   UNL A   1      33.168  23.757  24.391  1.00  0.00     0.113 A 
ATOM      6  C   UNL A   1      32.197  22.742  24.418  1.00  0.00     0.153 A 
ATOM      7  C   UNL A   1      31.118  22.941  25.254  1.00  0.00     0.159 A 
ATOM      8  N   UNL A   1      30.876  24.084  25.929  1.00  0.00    -0.252 NA
ATOM      9  C   UNL A   1      32.954  24.985  25.082  1.00  0.00     0.018 A 
ATOM     10  C   UNL A   1      31.759  25.082  25.828  1.00  0.00     0.071 A 
ATOM     11  C   UNL A   1      33.817  26.114  25.065  1.00  0.00     0.011 A 
ATOM     12  C   UNL A   1      31.462  26.260  26.498  1.00  0.00     0.029 A 
ATOM     13  C   UNL A   1      33.500  27.286  25.755  1.00  0.00     0.001 A 
ATOM     14  C   UNL A   1      32.314  27.362  26.467  1.00  0.00     0.002 A 
BRANCH   6  15
ATOM     15  O   UNL A   1      32.427  21.545  23.811  1.00  0.00    -0.484 OA
BRANCH  15  16
ATOM     16  C   UNL A   1      32.523  20.326  24.570  1.00  0.00     0.192 C 
ATOM     17  C   UNL A   1      33.663  20.362  25.582  1.00  0.00     0.057 C 
BRANCH  16  18
ATOM     18  C   UNL A   1      32.527  19.069  23.734  1.00  0.00     0.009 C 
ATOM     19  C   UNL A   1      33.396  18.057  23.868  1.00  0.00     0.008 C 
ENDBRANCH  16  18
ENDBRANCH  15  16
ENDBRANCH   6  15
ENDBRANCH   3   5
ENDBRANCH   2   3
ENDBRANCH   1   2
BRANCH   1  20
ATOM     20  C   UNL A   1      37.110  21.312  24.316  1.00  0.00     0.275 C 
BRANCH  20  21
ATOM     21  O   UNL A   1      37.472  21.594  25.680  1.00  0.00    -0.458 OA
BRANCH  21  22
ATOM     22  C   UNL A   1      38.736  21.257  26.024  1.00  0.00     0.338 C 
ATOM     23  O   UNL A   1      39.341  20.237  25.749  1.00  0.00    -0.246 OA
BRANCH  22  24
ATOM     24  C   UNL A   1      39.383  22.433  26.622  1.00  0.00     0.060 A 
ATOM     25  C   UNL A   1      38.952  23.668  26.155  1.00  0.00     0.016 A 
ATOM     26  C   UNL A   1      40.443  22.355  27.523  1.00  0.00     0.016 A 
ATOM     27  C   UNL A   1      39.567  24.840  26.584  1.00  0.00     0.010 A 
ATOM     28  C   UNL A   1      41.056  23.541  27.968  1.00  0.00     0.010 A 
ATOM     29  C   UNL A   1      40.623  24.795  27.498  1.00  0.00    -0.014 A 
BRANCH  29  30
ATOM     30  C   UNL A   1      41.307  26.073  27.844  1.00  0.00     0.031 A 
ATOM     31  C   UNL A   1      42.689  26.343  27.317  1.00  0.00     0.074 A 
ATOM     32  C   UNL A   1      40.648  27.051  28.501  1.00  0.00     0.049 A 
ATOM     33  N   UNL A   1      43.469  27.375  27.526  1.00  0.00    -0.248 NA
ATOM     34  C   UNL A   1      43.264  25.325  26.426  1.00  0.00     0.031 C 
ATOM     35  C   UNL A   1      39.267  26.968  28.976  1.00  0.00     0.029 A 
ATOM     36  N   UNL A   1      41.040  28.323  28.846  1.00  0.00    -0.354 N 
ATOM     37  C   UNL A   1      44.636  27.117  26.819  1.00  0.00     0.074 A 
ATOM     38  C   UNL A   1      44.464  25.832  26.175  1.00  0.00     0.031 C 
ATOM     39  C   UNL A   1      38.915  28.150  29.510  1.00  0.00     0.029 A 
ATOM     40  C   UNL A   1      40.065  29.051  29.487  1.00  0.00     0.049 A 
ATOM     41  H   UNL A   1      41.937  28.680  28.651  1.00  0.00     0.167 HD
ATOM     42  C   UNL A   1      45.752  27.880  26.717  1.00  0.00     0.037 A 
ATOM     43  C   UNL A   1      40.103  30.288  30.022  1.00  0.00     0.037 A 
ATOM     44  C   UNL A   1      45.921  29.168  27.337  1.00  0.00     0.049 A 
ATOM     45  C   UNL A   1      41.390  31.074  29.969  1.00  0.00     0.074 A 
ATOM     46  C   UNL A   1      47.041  29.983  27.343  1.00  0.00     0.029 A 
ATOM     47  N   UNL A   1      44.939  29.837  28.049  1.00  0.00    -0.354 N 
ATOM     48  N   UNL A   1      42.517  30.784  29.364  1.00  0.00    -0.248 NA
ATOM     49  C   UNL A   1      41.416  32.353  30.696  1.00  0.00     0.031 C 
ATOM     50  C   UNL A   1      46.750  31.127  28.091  1.00  0.00     0.029 A 
ATOM     51  C   UNL A   1      45.431  31.050  28.507  1.00  0.00     0.049 A 
ATOM     52  H   UNL A   1      44.026  29.503  28.205  1.00  0.00     0.167 HD
ATOM     53  C   UNL A   1      43.374  31.848  29.625  1.00  0.00     0.074 A 
ATOM     54  C   UNL A   1      42.625  32.808  30.406  1.00  0.00     0.031 C 
ATOM     55  C   UNL A   1      44.672  32.008  29.268  1.00  0.00     0.037 A 
BRANCH  42  56
ATOM     56  C   UNL A   1      46.906  27.317  25.940  1.00  0.00     0.057 A 
ATOM     57  C   UNL A   1      47.052  27.530  24.564  1.00  0.00     0.134 A 
ATOM     58  C   UNL A   1      47.911  26.592  26.593  1.00  0.00     0.134 A 
ATOM     59  F   UNL A   1      46.115  28.202  23.877  1.00  0.00    -0.206 F 
ATOM     60  C   UNL A   1      48.151  27.031  23.863  1.00  0.00     0.040 A 
ATOM     61  C   UNL A   1      49.028  26.111  25.910  1.00  0.00     0.040 A 
ATOM     62  F   UNL A   1      47.833  26.358  27.913  1.00  0.00    -0.206 F 
ATOM     63  C   UNL A   1      49.147  26.327  24.538  1.00  0.00     0.006 A 
ENDBRANCH  42  56
BRANCH  43  64
ATOM     64  C   UNL A   1      38.921  30.860  30.725  1.00  0.00     0.057 A 
ATOM     65  C   UNL A   1      38.657  30.566  32.070  1.00  0.00     0.134 A 
ATOM     66  C   UNL A   1      37.971  31.632  30.044  1.00  0.00     0.134 A 
ATOM     67  F   UNL A   1      39.508  29.806  32.775  1.00  0.00    -0.206 F 
ATOM     68  C   UNL A   1      37.479  30.983  32.696  1.00  0.00     0.040 A 
ATOM     69  C   UNL A   1      36.809  32.089  30.668  1.00  0.00     0.040 A 
ATOM     70  F   UNL A   1      38.152  31.945  28.752  1.00  0.00    -0.206 F 
ATOM     71  C   UNL A   1      36.553  31.750  31.994  1.00  0.00     0.006 A 
ENDBRANCH  43  64
BRANCH  55  72
ATOM     72  C   UNL A   1      45.350  33.283  29.685  1.00  0.00     0.057 A 
ATOM     73  C   UNL A   1      45.326  34.432  28.883  1.00  0.00     0.134 A 
ATOM     74  C   UNL A   1      46.020  33.368  30.912  1.00  0.00     0.134 A 
ATOM     75  F   UNL A   1      44.711  34.416  27.691  1.00  0.00    -0.206 F 
ATOM     76  C   UNL A   1      45.974  35.607  29.270  1.00  0.00     0.040 A 
ATOM     77  C   UNL A   1      46.646  34.547  31.324  1.00  0.00     0.040 A 
ATOM     78  F   UNL A   1      46.073  32.310  31.736  1.00  0.00    -0.206 F 
ATOM     79  C   UNL A   1      46.633  35.667  30.497  1.00  0.00     0.006 A 
ENDBRANCH  55  72
ENDBRANCH  29  30
ENDBRANCH  22  24
ENDBRANCH  21  22
ENDBRANCH  20  21
ENDBRANCH   1  20
TORSDOF 14
ENDMDL
MODEL 3
REMARK VINA RESULT:     -10.6      4.252      8.976
REMARK SMILES C=C[C@@H](C)Oc1cnc2ccccc2c1C(=O)OCCOC(=O)c1ccc(-c2c3nc(c(-c4c(F)cccc4F)c4ccc([nH]4)c(-c4c(F)cccc4F)c4nc(c(-c5c(F)cccc5F)c5ccc2[nH]5)C=C4)C=C3)cc1
REMARK SMILES IDX 19 1 18 2 16 3 17 4 15 5 6 6 7 7 8 8 14 9 9 10 13 11 10 12
REMARK SMILES IDX 12 13 11 14 5 15 3 16 4 17 2 18 1 19 20 20 21 21 22 22 23 23
REMARK SMILES IDX 24 24 25 25 77 26 26 27 76 28 27 29 28 30 29 31 70 32 30 33
REMARK SMILES IDX 75 34 69 35 71 36 31 37 74 38 68 39 67 40 32 42 58 43 41 44
REMARK SMILES IDX 57 45 42 46 45 47 56 48 72 49 43 50 44 51 55 53 73 54 46 55
REMARK SMILES IDX 33 56 34 57 39 58 35 59 36 60 38 61 40 62 37 63 59 64 60 65
REMARK SMILES IDX 65 66 61 67 62 68 64 69 66 70 63 71 47 72 48 73 53 74 49 75
REMARK SMILES IDX 50 76 52 77 54 78 51 79
REMARK H PARENT 71 41 45 52
REMARK Flexibility Score: inf
ROOT
ATOM      1  C   UNL A   1      36.174  22.569  23.714  1.00  0.00     0.275 C 
ENDROOT
BRANCH   1   2
ATOM      2  O   UNL A   1      35.417  23.507  24.512  1.00  0.00    -0.458 OA
BRANCH   2   3
ATOM      3  C   UNL A   1      34.411  24.168  23.879  1.00  0.00     0.342 C 
ATOM      4  O   UNL A   1      34.402  24.515  22.708  1.00  0.00    -0.246 OA
BRANCH   3   5
ATOM      5  C   UNL A   1      33.285  24.427  24.812  1.00  0.00     0.113 A 
ATOM      6  C   UNL A   1      32.365  23.394  25.050  1.00  0.00     0.153 A 
ATOM      7  C   UNL A   1      31.386  23.642  25.991  1.00  0.00     0.159 A 
ATOM      8  N   UNL A   1      31.183  24.836  26.583  1.00  0.00    -0.252 NA
ATOM      9  C   UNL A   1      33.108  25.709  25.410  1.00  0.00     0.018 A 
ATOM     10  C   UNL A   1      32.008  25.844  26.284  1.00  0.00     0.071 A 
ATOM     11  C   UNL A   1      33.919  26.855  25.184  1.00  0.00     0.011 A 
ATOM     12  C   UNL A   1      31.748  27.071  26.876  1.00  0.00     0.029 A 
ATOM     13  C   UNL A   1      33.641  28.078  25.797  1.00  0.00     0.001 A 
ATOM     14  C   UNL A   1      32.547  28.188  26.640  1.00  0.00     0.002 A 
BRANCH   6  15
ATOM     15  O   UNL A   1      32.566  22.151  24.531  1.00  0.00    -0.484 OA
BRANCH  15  16
ATOM     16  C   UNL A   1      32.615  20.985  25.374  1.00  0.00     0.192 C 
ATOM     17  C   UNL A   1      33.655  21.114  26.482  1.00  0.00     0.057 C 
BRANCH  16  18
ATOM     18  C   UNL A   1      32.720  19.678  24.627  1.00  0.00     0.009 C 
ATOM     19  C   UNL A   1      32.528  18.465  25.164  1.00  0.00     0.008 C 
ENDBRANCH  16  18
ENDBRANCH  15  16
ENDBRANCH   6  15
ENDBRANCH   3   5
ENDBRANCH   2   3
ENDBRANCH   1   2
BRANCH   1  20
ATOM     20  C   UNL A   1      36.643  21.386  24.563  1.00  0.00     0.275 C 
BRANCH  20  21
ATOM     21  O   UNL A   1      37.215  21.878  25.789  1.00  0.00    -0.458 OA
BRANCH  21  22
ATOM     22  C   UNL A   1      38.487  21.486  26.031  1.00  0.00     0.338 C 
ATOM     23  O   UNL A   1      39.014  20.428  25.740  1.00  0.00    -0.246 OA
BRANCH  22  24
ATOM     24  C   UNL A   1      39.243  22.646  26.524  1.00  0.00     0.060 A 
ATOM     25  C   UNL A   1      38.783  23.891  26.115  1.00  0.00     0.016 A 
ATOM     26  C   UNL A   1      40.417  22.541  27.268  1.00  0.00     0.016 A 
ATOM     27  C   UNL A   1      39.483  25.046  26.445  1.00  0.00     0.010 A 
ATOM     28  C   UNL A   1      41.117  23.711  27.615  1.00  0.00     0.010 A 
ATOM     29  C   UNL A   1      40.656  24.976  27.203  1.00  0.00    -0.014 A 
BRANCH  29  30
ATOM     30  C   UNL A   1      41.416  26.236  27.441  1.00  0.00     0.031 A 
ATOM     31  C   UNL A   1      40.816  27.312  28.304  1.00  0.00     0.074 A 
ATOM     32  C   UNL A   1      42.689  26.363  27.016  1.00  0.00     0.049 A 
ATOM     33  N   UNL A   1      41.296  28.492  28.609  1.00  0.00    -0.248 NA
ATOM     34  C   UNL A   1      39.512  27.017  28.915  1.00  0.00     0.031 C 
ATOM     35  C   UNL A   1      43.434  25.354  26.264  1.00  0.00     0.029 A 
ATOM     36  N   UNL A   1      43.598  27.380  27.193  1.00  0.00    -0.354 N 
ATOM     37  C   UNL A   1      40.342  29.091  29.420  1.00  0.00     0.074 A 
ATOM     38  C   UNL A   1      39.254  28.147  29.560  1.00  0.00     0.031 C 
ATOM     39  C   UNL A   1      44.695  25.782  26.082  1.00  0.00     0.029 A 
ATOM     40  C   UNL A   1      44.830  27.128  26.635  1.00  0.00     0.049 A 
ATOM     41  H   UNL A   1      43.386  28.212  27.676  1.00  0.00     0.167 HD
ATOM     42  C   UNL A   1      40.367  30.319  29.995  1.00  0.00     0.037 A 
ATOM     43  C   UNL A   1      45.930  27.904  26.551  1.00  0.00     0.037 A 
ATOM     44  C   UNL A   1      41.454  31.255  29.877  1.00  0.00     0.049 A 
ATOM     45  C   UNL A   1      45.892  29.299  27.124  1.00  0.00     0.074 A 
ATOM     46  C   UNL A   1      41.539  32.547  30.369  1.00  0.00     0.029 A 
ATOM     47  N   UNL A   1      42.654  30.995  29.233  1.00  0.00    -0.354 N 
ATOM     48  N   UNL A   1      44.950  29.886  27.823  1.00  0.00    -0.248 NA
ATOM     49  C   UNL A   1      47.066  30.150  26.875  1.00  0.00     0.031 C 
ATOM     50  C   UNL A   1      42.773  33.083  29.991  1.00  0.00     0.029 A 
ATOM     51  C   UNL A   1      43.480  32.107  29.307  1.00  0.00     0.049 A 
ATOM     52  H   UNL A   1      42.886  30.148  28.790  1.00  0.00     0.167 HD
ATOM     53  C   UNL A   1      45.425  31.163  28.106  1.00  0.00     0.074 A 
ATOM     54  C   UNL A   1      46.754  31.251  27.542  1.00  0.00     0.031 C 
ATOM     55  C   UNL A   1      44.808  32.179  28.758  1.00  0.00     0.037 A 
BRANCH  42  56
ATOM     56  C   UNL A   1      39.154  30.745  30.769  1.00  0.00     0.057 A 
ATOM     57  C   UNL A   1      39.048  30.553  32.151  1.00  0.00     0.134 A 
ATOM     58  C   UNL A   1      38.099  31.403  30.124  1.00  0.00     0.134 A 
ATOM     59  F   UNL A   1      40.016  29.913  32.826  1.00  0.00    -0.206 F 
ATOM     60  C   UNL A   1      37.928  30.989  32.863  1.00  0.00     0.040 A 
ATOM     61  C   UNL A   1      36.988  31.868  30.827  1.00  0.00     0.040 A 
ATOM     62  F   UNL A   1      38.143  31.624  28.800  1.00  0.00    -0.206 F 
ATOM     63  C   UNL A   1      36.899  31.657  32.201  1.00  0.00     0.006 A 
ENDBRANCH  42  56
BRANCH  43  64
ATOM     64  C   UNL A   1      47.153  27.433  25.843  1.00  0.00     0.057 A 
ATOM     65  C   UNL A   1      47.295  27.576  24.456  1.00  0.00     0.134 A 
ATOM     66  C   UNL A   1      48.164  26.738  26.518  1.00  0.00     0.134 A 
ATOM     67  F   UNL A   1      46.348  28.203  23.741  1.00  0.00    -0.206 F 
ATOM     68  C   UNL A   1      48.371  27.014  23.765  1.00  0.00     0.040 A 
ATOM     69  C   UNL A   1      49.266  26.205  25.847  1.00  0.00     0.040 A 
ATOM     70  F   UNL A   1      48.091  26.555  27.845  1.00  0.00    -0.206 F 
ATOM     71  C   UNL A   1      49.362  26.328  24.463  1.00  0.00     0.006 A 
ENDBRANCH  43  64
BRANCH  55  72
ATOM     72  C   UNL A   1      45.580  33.457  28.929  1.00  0.00     0.057 A 
ATOM     73  C   UNL A   1      46.414  33.678  30.034  1.00  0.00     0.134 A 
ATOM     74  C   UNL A   1      45.504  34.473  27.967  1.00  0.00     0.134 A 
ATOM     75  F   UNL A   1      46.523  32.752  30.998  1.00  0.00    -0.206 F 
ATOM     76  C   UNL A   1      47.113  34.876  30.194  1.00  0.00     0.040 A 
ATOM     77  C   UNL A   1      46.223  35.662  28.101  1.00  0.00     0.040 A 
ATOM     78  F   UNL A   1      44.736  34.324  26.877  1.00  0.00    -0.206 F 
ATOM     79  C   UNL A   1      47.022  35.871  29.223  1.00  0.00     0.006 A 
ENDBRANCH  55  72
ENDBRANCH  29  30
ENDBRANCH  22  24
ENDBRANCH  21  22
ENDBRANCH  20  21
ENDBRANCH   1  20
TORSDOF 14
ENDMDL
