MODEL 1
REMARK VINA RESULT:     -11.1      0.000      0.000
REMARK SMILES O=C(OCCOC(=O)c1ccccc1C(=O)OC[C@@H]1C[C@H]2CC[C@@H]1C2)c1ccc(-c2c3nc(c(-c4c(F)cccc4F)c4ccc([nH]4)c(-c4c(F)cccc4F)c4nc(c(-c5c(F)cccc5F)c5ccc2[nH]5)C=C4)C=C3)cc1
REMARK SMILES IDX 5 1 4 2 3 3 2 4 1 5 26 6 27 7 79 8 28 9 78 10 29 11 30 12
REMARK SMILES IDX 31 13 72 14 32 15 77 16 71 17 73 18 33 19 76 20 70 21 69 22
REMARK SMILES IDX 34 24 60 25 43 26 59 27 44 28 47 29 58 30 74 31 45 32 46 33
REMARK SMILES IDX 57 35 75 36 48 37 35 38 36 39 41 40 37 41 38 42 40 43 42 44
REMARK SMILES IDX 39 45 61 46 62 47 67 48 63 49 64 50 66 51 68 52 65 53 49 54
REMARK SMILES IDX 50 55 55 56 51 57 52 58 54 59 56 60 53 61 6 62 7 63 8 64
REMARK SMILES IDX 9 65 10 66 14 67 11 68 13 69 12 70 15 71 16 72 17 73 18 74
REMARK SMILES IDX 19 75 20 76 24 77 21 78 23 79 25 80 22 81
REMARK H PARENT 73 23 47 34
REMARK Flexibility Score: inf
ROOT
ATOM      1  C   UNL A   1      38.124  21.170  25.314  1.00  0.00     0.275 C 
ENDROOT
BRANCH   1   2
ATOM      2  C   UNL A   1      38.516  19.761  24.883  1.00  0.00     0.275 C 
BRANCH   2   3
ATOM      3  O   UNL A   1      39.564  19.192  25.691  1.00  0.00    -0.458 OA
BRANCH   3   4
ATOM      4  C   UNL A   1      40.826  19.609  25.947  1.00  0.00     0.338 C 
ATOM      5  O   UNL A   1      41.746  18.858  25.613  1.00  0.00    -0.246 OA
BRANCH   4   6
ATOM      6  C   UNL A   1      41.218  20.905  26.615  1.00  0.00     0.060 A 
ATOM      7  C   UNL A   1      41.117  21.219  27.974  1.00  0.00     0.016 A 
ATOM      8  C   UNL A   1      41.773  21.892  25.772  1.00  0.00     0.016 A 
ATOM      9  C   UNL A   1      41.580  22.446  28.477  1.00  0.00     0.010 A 
ATOM     10  C   UNL A   1      42.228  23.123  26.265  1.00  0.00     0.010 A 
ATOM     11  C   UNL A   1      42.124  23.411  27.627  1.00  0.00    -0.014 A 
BRANCH  11  12
ATOM     12  C   UNL A   1      42.455  24.761  28.156  1.00  0.00     0.031 A 
ATOM     13  C   UNL A   1      43.875  25.073  28.444  1.00  0.00     0.074 A 
ATOM     14  C   UNL A   1      41.520  25.713  28.326  1.00  0.00     0.049 A 
ATOM     15  N   UNL A   1      44.383  26.188  28.882  1.00  0.00    -0.248 NA
ATOM     16  C   UNL A   1      44.845  23.990  28.224  1.00  0.00     0.031 C 
ATOM     17  C   UNL A   1      40.130  25.467  28.056  1.00  0.00     0.029 A 
ATOM     18  N   UNL A   1      41.534  27.025  28.715  1.00  0.00    -0.354 N 
ATOM     19  C   UNL A   1      45.736  25.942  29.009  1.00  0.00     0.074 A 
ATOM     20  C   UNL A   1      45.968  24.568  28.617  1.00  0.00     0.031 C 
ATOM     21  C   UNL A   1      39.406  26.584  28.192  1.00  0.00     0.029 A 
ATOM     22  C   UNL A   1      40.289  27.626  28.677  1.00  0.00     0.049 A 
ATOM     23  H   UNL A   1      42.352  27.496  28.996  1.00  0.00     0.167 HD
ATOM     24  C   UNL A   1      46.684  26.802  29.433  1.00  0.00     0.037 A 
ATOM     25  C   UNL A   1      39.895  28.866  29.022  1.00  0.00     0.037 A 
ATOM     26  C   UNL A   1      46.402  28.148  29.851  1.00  0.00     0.049 A 
ATOM     27  C   UNL A   1      40.965  29.779  29.543  1.00  0.00     0.074 A 
ATOM     28  C   UNL A   1      47.282  29.103  30.324  1.00  0.00     0.029 A 
ATOM     29  N   UNL A   1      45.136  28.726  29.865  1.00  0.00    -0.354 N 
ATOM     30  N   UNL A   1      42.251  29.541  29.647  1.00  0.00    -0.248 NA
ATOM     31  C   UNL A   1      40.552  31.103  30.018  1.00  0.00     0.031 C 
ATOM     32  C   UNL A   1      46.541  30.235  30.677  1.00  0.00     0.029 A 
ATOM     33  C   UNL A   1      45.206  30.014  30.369  1.00  0.00     0.049 A 
ATOM     34  H   UNL A   1      44.311  28.283  29.559  1.00  0.00     0.167 HD
ATOM     35  C   UNL A   1      42.806  30.682  30.195  1.00  0.00     0.074 A 
ATOM     36  C   UNL A   1      41.717  31.627  30.371  1.00  0.00     0.031 C 
ATOM     37  C   UNL A   1      44.096  30.921  30.531  1.00  0.00     0.037 A 
BRANCH  24  38
ATOM     38  C   UNL A   1      48.070  26.252  29.534  1.00  0.00     0.057 A 
ATOM     39  C   UNL A   1      48.558  25.675  30.714  1.00  0.00     0.134 A 
ATOM     40  C   UNL A   1      48.954  26.377  28.456  1.00  0.00     0.134 A 
ATOM     41  F   UNL A   1      47.772  25.570  31.797  1.00  0.00    -0.206 F 
ATOM     42  C   UNL A   1      49.888  25.269  30.827  1.00  0.00     0.040 A 
ATOM     43  C   UNL A   1      50.278  25.948  28.549  1.00  0.00     0.040 A 
ATOM     44  F   UNL A   1      48.552  26.941  27.308  1.00  0.00    -0.206 F 
ATOM     45  C   UNL A   1      50.750  25.402  29.740  1.00  0.00     0.006 A 
ENDBRANCH  24  38
BRANCH  25  46
ATOM     46  C   UNL A   1      38.465  29.287  28.949  1.00  0.00     0.057 A 
ATOM     47  C   UNL A   1      37.619  29.225  30.064  1.00  0.00     0.134 A 
ATOM     48  C   UNL A   1      37.892  29.740  27.750  1.00  0.00     0.134 A 
ATOM     49  F   UNL A   1      38.085  28.786  31.242  1.00  0.00    -0.206 F 
ATOM     50  C   UNL A   1      36.264  29.570  29.986  1.00  0.00     0.040 A 
ATOM     51  C   UNL A   1      36.550  30.120  27.665  1.00  0.00     0.040 A 
ATOM     52  F   UNL A   1      38.634  29.831  26.636  1.00  0.00    -0.206 F 
ATOM     53  C   UNL A   1      35.727  30.024  28.783  1.00  0.00     0.006 A 
ENDBRANCH  25  46
BRANCH  37  54
ATOM     54  C   UNL A   1      44.389  32.272  31.103  1.00  0.00     0.057 A 
ATOM     55  C   UNL A   1      44.682  33.370  30.286  1.00  0.00     0.134 A 
ATOM     56  C   UNL A   1      44.328  32.481  32.485  1.00  0.00     0.134 A 
ATOM     57  F   UNL A   1      44.777  33.225  28.956  1.00  0.00    -0.206 F 
ATOM     58  C   UNL A   1      44.921  34.632  30.828  1.00  0.00     0.040 A 
ATOM     59  C   UNL A   1      44.534  33.744  33.037  1.00  0.00     0.040 A 
ATOM     60  F   UNL A   1      44.050  31.465  33.316  1.00  0.00    -0.206 F 
ATOM     61  C   UNL A   1      44.835  34.822  32.207  1.00  0.00     0.006 A 
ENDBRANCH  37  54
ENDBRANCH  11  12
ENDBRANCH   4   6
ENDBRANCH   3   4
ENDBRANCH   2   3
ENDBRANCH   1   2
BRANCH   1  62
ATOM     62  O   UNL A   1      36.988  21.612  24.569  1.00  0.00    -0.458 OA
BRANCH  62  63
ATOM     63  C   UNL A   1      35.960  22.126  25.281  1.00  0.00     0.339 C 
ATOM     64  O   UNL A   1      36.013  22.914  26.203  1.00  0.00    -0.246 OA
BRANCH  63  65
ATOM     65  C   UNL A   1      34.699  21.646  24.701  1.00  0.00     0.074 A 
ATOM     66  C   UNL A   1      34.306  20.331  25.006  1.00  0.00     0.016 A 
ATOM     67  C   UNL A   1      33.900  22.433  23.878  1.00  0.00     0.074 A 
ATOM     68  C   UNL A   1      33.118  19.808  24.487  1.00  0.00     0.001 A 
ATOM     69  C   UNL A   1      32.799  21.837  23.237  1.00  0.00     0.016 A 
ATOM     70  C   UNL A   1      32.379  20.550  23.574  1.00  0.00     0.001 A 
BRANCH  67  71
ATOM     71  C   UNL A   1      33.986  23.912  23.806  1.00  0.00     0.339 C 
ATOM     72  O   UNL A   1      34.663  24.464  22.952  1.00  0.00    -0.246 OA
BRANCH  71  73
ATOM     73  O   UNL A   1      33.336  24.582  24.783  1.00  0.00    -0.462 OA
BRANCH  73  74
ATOM     74  C   UNL A   1      34.166  25.585  25.401  1.00  0.00     0.237 C 
BRANCH  74  75
ATOM     75  C   UNL A   1      33.456  26.931  25.301  1.00  0.00     0.030 C 
ATOM     76  C   UNL A   1      33.708  27.846  26.516  1.00  0.00     0.011 C 
ATOM     77  C   UNL A   1      31.902  26.875  25.248  1.00  0.00    -0.004 C 
ATOM     78  C   UNL A   1      32.290  28.333  26.871  1.00  0.00    -0.010 C 
ATOM     79  C   UNL A   1      31.413  28.186  24.628  1.00  0.00     0.004 C 
ATOM     80  C   UNL A   1      31.488  27.045  26.709  1.00  0.00     0.007 C 
ATOM     81  C   UNL A   1      31.741  29.205  25.724  1.00  0.00     0.004 C 
ENDBRANCH  74  75
ENDBRANCH  73  74
ENDBRANCH  71  73
ENDBRANCH  67  71
ENDBRANCH  63  65
ENDBRANCH  62  63
ENDBRANCH   1  62
TORSDOF 15
ENDMDL
MODEL 2
REMARK VINA RESULT:     -11.1      4.476      9.078
REMARK SMILES O=C(OCCOC(=O)c1ccccc1C(=O)OC[C@@H]1C[C@H]2CC[C@@H]1C2)c1ccc(-c2c3nc(c(-c4c(F)cccc4F)c4ccc([nH]4)c(-c4c(F)cccc4F)c4nc(c(-c5c(F)cccc5F)c5ccc2[nH]5)C=C4)C=C3)cc1
REMARK SMILES IDX 5 1 4 2 3 3 2 4 1 5 26 6 27 7 79 8 28 9 78 10 29 11 30 12
REMARK SMILES IDX 31 13 72 14 32 15 77 16 71 17 73 18 33 19 76 20 70 21 69 22
REMARK SMILES IDX 34 24 60 25 43 26 59 27 44 28 47 29 58 30 74 31 45 32 46 33
REMARK SMILES IDX 57 35 75 36 48 37 35 38 36 39 41 40 37 41 38 42 40 43 42 44
REMARK SMILES IDX 39 45 61 46 62 47 67 48 63 49 64 50 66 51 68 52 65 53 49 54
REMARK SMILES IDX 50 55 55 56 51 57 52 58 54 59 56 60 53 61 6 62 7 63 8 64
REMARK SMILES IDX 9 65 10 66 14 67 11 68 13 69 12 70 15 71 16 72 17 73 18 74
REMARK SMILES IDX 19 75 20 76 24 77 21 78 23 79 25 80 22 81
REMARK H PARENT 73 23 47 34
REMARK Flexibility Score: inf
ROOT
ATOM      1  C   UNL A   1      31.805  31.153  26.896  1.00  0.00     0.275 C 
ENDROOT
BRANCH   1   2
ATOM      2  C   UNL A   1      31.754  32.621  26.489  1.00  0.00     0.275 C 
BRANCH   2   3
ATOM      3  O   UNL A   1      32.107  33.519  27.560  1.00  0.00    -0.458 OA
BRANCH   3   4
ATOM      4  C   UNL A   1      33.304  34.003  27.967  1.00  0.00     0.338 C 
ATOM      5  O   UNL A   1      33.497  35.214  27.832  1.00  0.00    -0.246 OA
BRANCH   4   6
ATOM      6  C   UNL A   1      34.435  33.199  28.563  1.00  0.00     0.060 A 
ATOM      7  C   UNL A   1      34.420  31.842  28.897  1.00  0.00     0.016 A 
ATOM      8  C   UNL A   1      35.645  33.895  28.774  1.00  0.00     0.016 A 
ATOM      9  C   UNL A   1      35.567  31.197  29.388  1.00  0.00     0.010 A 
ATOM     10  C   UNL A   1      36.791  33.261  29.273  1.00  0.00     0.010 A 
ATOM     11  C   UNL A   1      36.756  31.903  29.593  1.00  0.00    -0.014 A 
BRANCH  11  12
ATOM     12  C   UNL A   1      37.904  31.239  30.265  1.00  0.00     0.031 A 
ATOM     13  C   UNL A   1      38.131  31.514  31.703  1.00  0.00     0.074 A 
ATOM     14  C   UNL A   1      38.700  30.365  29.623  1.00  0.00     0.049 A 
ATOM     15  N   UNL A   1      39.050  31.025  32.483  1.00  0.00    -0.248 NA
ATOM     16  C   UNL A   1      37.216  32.471  32.342  1.00  0.00     0.031 C 
ATOM     17  C   UNL A   1      38.522  30.055  28.231  1.00  0.00     0.029 A 
ATOM     18  N   UNL A   1      39.755  29.571  29.986  1.00  0.00    -0.354 N 
ATOM     19  C   UNL A   1      38.840  31.625  33.709  1.00  0.00     0.074 A 
ATOM     20  C   UNL A   1      37.716  32.526  33.566  1.00  0.00     0.031 C 
ATOM     21  C   UNL A   1      39.356  29.085  27.841  1.00  0.00     0.029 A 
ATOM     22  C   UNL A   1      40.224  28.773  28.958  1.00  0.00     0.049 A 
ATOM     23  H   UNL A   1      40.143  29.569  30.891  1.00  0.00     0.167 HD
ATOM     24  C   UNL A   1      39.547  31.435  34.841  1.00  0.00     0.037 A 
ATOM     25  C   UNL A   1      41.256  27.908  28.911  1.00  0.00     0.037 A 
ATOM     26  C   UNL A   1      40.683  30.558  34.928  1.00  0.00     0.049 A 
ATOM     27  C   UNL A   1      42.055  27.764  30.171  1.00  0.00     0.074 A 
ATOM     28  C   UNL A   1      41.492  30.305  36.019  1.00  0.00     0.029 A 
ATOM     29  N   UNL A   1      41.183  29.802  33.871  1.00  0.00    -0.354 N 
ATOM     30  N   UNL A   1      41.839  28.327  31.336  1.00  0.00    -0.248 NA
ATOM     31  C   UNL A   1      43.242  26.904  30.123  1.00  0.00     0.031 C 
ATOM     32  C   UNL A   1      42.514  29.444  35.607  1.00  0.00     0.029 A 
ATOM     33  C   UNL A   1      42.311  29.108  34.276  1.00  0.00     0.049 A 
ATOM     34  H   UNL A   1      40.792  29.766  32.968  1.00  0.00     0.167 HD
ATOM     35  C   UNL A   1      42.857  27.892  32.164  1.00  0.00     0.074 A 
ATOM     36  C   UNL A   1      43.674  26.988  31.373  1.00  0.00     0.031 C 
ATOM     37  C   UNL A   1      43.098  28.220  33.455  1.00  0.00     0.037 A 
BRANCH  24  38
ATOM     38  C   UNL A   1      39.140  32.264  36.016  1.00  0.00     0.057 A 
ATOM     39  C   UNL A   1      39.655  33.549  36.234  1.00  0.00     0.134 A 
ATOM     40  C   UNL A   1      38.279  31.734  36.984  1.00  0.00     0.134 A 
ATOM     41  F   UNL A   1      40.520  34.093  35.365  1.00  0.00    -0.206 F 
ATOM     42  C   UNL A   1      39.351  34.265  37.392  1.00  0.00     0.040 A 
ATOM     43  C   UNL A   1      37.946  32.453  38.132  1.00  0.00     0.040 A 
ATOM     44  F   UNL A   1      37.771  30.501  36.842  1.00  0.00    -0.206 F 
ATOM     45  C   UNL A   1      38.491  33.718  38.343  1.00  0.00     0.006 A 
ENDBRANCH  24  38
BRANCH  25  46
ATOM     46  C   UNL A   1      41.619  27.184  27.657  1.00  0.00     0.057 A 
ATOM     47  C   UNL A   1      42.393  27.783  26.656  1.00  0.00     0.134 A 
ATOM     48  C   UNL A   1      41.177  25.875  27.411  1.00  0.00     0.134 A 
ATOM     49  F   UNL A   1      42.838  29.039  26.808  1.00  0.00    -0.206 F 
ATOM     50  C   UNL A   1      42.692  27.125  25.457  1.00  0.00     0.040 A 
ATOM     51  C   UNL A   1      41.495  25.192  26.233  1.00  0.00     0.040 A 
ATOM     52  F   UNL A   1      40.431  25.227  28.319  1.00  0.00    -0.206 F 
ATOM     53  C   UNL A   1      42.245  25.823  25.245  1.00  0.00     0.006 A 
ENDBRANCH  25  46
BRANCH  37  54
ATOM     54  C   UNL A   1      44.288  27.570  34.089  1.00  0.00     0.057 A 
ATOM     55  C   UNL A   1      45.541  28.193  34.115  1.00  0.00     0.134 A 
ATOM     56  C   UNL A   1      44.161  26.328  34.720  1.00  0.00     0.134 A 
ATOM     57  F   UNL A   1      45.728  29.374  33.507  1.00  0.00    -0.206 F 
ATOM     58  C   UNL A   1      46.635  27.593  34.738  1.00  0.00     0.040 A 
ATOM     59  C   UNL A   1      45.238  25.733  35.372  1.00  0.00     0.040 A 
ATOM     60  F   UNL A   1      42.983  25.685  34.727  1.00  0.00    -0.206 F 
ATOM     61  C   UNL A   1      46.480  26.365  35.378  1.00  0.00     0.006 A 
ENDBRANCH  37  54
ENDBRANCH  11  12
ENDBRANCH   4   6
ENDBRANCH   3   4
ENDBRANCH   2   3
ENDBRANCH   1   2
BRANCH   1  62
ATOM     62  O   UNL A   1      31.927  30.328  25.736  1.00  0.00    -0.458 OA
BRANCH  62  63
ATOM     63  C   UNL A   1      32.825  29.319  25.803  1.00  0.00     0.339 C 
ATOM     64  O   UNL A   1      33.968  29.364  26.207  1.00  0.00    -0.246 OA
BRANCH  63  65
ATOM     65  C   UNL A   1      32.168  28.075  25.380  1.00  0.00     0.074 A 
ATOM     66  C   UNL A   1      31.298  27.458  26.296  1.00  0.00     0.016 A 
ATOM     67  C   UNL A   1      32.375  27.501  24.130  1.00  0.00     0.074 A 
ATOM     68  C   UNL A   1      30.640  26.272  25.960  1.00  0.00     0.001 A 
ATOM     69  C   UNL A   1      31.835  26.228  23.874  1.00  0.00     0.016 A 
ATOM     70  C   UNL A   1      30.934  25.636  24.760  1.00  0.00     0.001 A 
BRANCH  67  71
ATOM     71  C   UNL A   1      32.929  28.231  22.963  1.00  0.00     0.339 C 
ATOM     72  O   UNL A   1      34.009  27.924  22.482  1.00  0.00    -0.246 OA
BRANCH  71  73
ATOM     73  O   UNL A   1      32.199  29.284  22.534  1.00  0.00    -0.462 OA
BRANCH  73  74
ATOM     74  C   UNL A   1      30.880  28.893  22.107  1.00  0.00     0.237 C 
BRANCH  74  75
ATOM     75  C   UNL A   1      29.856  29.743  22.853  1.00  0.00     0.030 C 
ATOM     76  C   UNL A   1      28.608  28.951  23.290  1.00  0.00     0.011 C 
ATOM     77  C   UNL A   1      29.234  30.919  22.046  1.00  0.00    -0.004 C 
ATOM     78  C   UNL A   1      27.453  29.868  22.842  1.00  0.00    -0.010 C 
ATOM     79  C   UNL A   1      28.685  31.931  23.053  1.00  0.00     0.004 C 
ATOM     80  C   UNL A   1      27.951  30.319  21.472  1.00  0.00     0.007 C 
ATOM     81  C   UNL A   1      27.492  31.181  23.652  1.00  0.00     0.004 C 
ENDBRANCH  74  75
ENDBRANCH  73  74
ENDBRANCH  71  73
ENDBRANCH  67  71
ENDBRANCH  63  65
ENDBRANCH  62  63
ENDBRANCH   1  62
TORSDOF 15
ENDMDL
MODEL 3
REMARK VINA RESULT:     -11.0      4.068      8.756
REMARK SMILES O=C(OCCOC(=O)c1ccccc1C(=O)OC[C@@H]1C[C@H]2CC[C@@H]1C2)c1ccc(-c2c3nc(c(-c4c(F)cccc4F)c4ccc([nH]4)c(-c4c(F)cccc4F)c4nc(c(-c5c(F)cccc5F)c5ccc2[nH]5)C=C4)C=C3)cc1
REMARK SMILES IDX 5 1 4 2 3 3 2 4 1 5 26 6 27 7 79 8 28 9 78 10 29 11 30 12
REMARK SMILES IDX 31 13 72 14 32 15 77 16 71 17 73 18 33 19 76 20 70 21 69 22
REMARK SMILES IDX 34 24 60 25 43 26 59 27 44 28 47 29 58 30 74 31 45 32 46 33
REMARK SMILES IDX 57 35 75 36 48 37 35 38 36 39 41 40 37 41 38 42 40 43 42 44
REMARK SMILES IDX 39 45 61 46 62 47 67 48 63 49 64 50 66 51 68 52 65 53 49 54
REMARK SMILES IDX 50 55 55 56 51 57 52 58 54 59 56 60 53 61 6 62 7 63 8 64
REMARK SMILES IDX 9 65 10 66 14 67 11 68 13 69 12 70 15 71 16 72 17 73 18 74
REMARK SMILES IDX 19 75 20 76 24 77 21 78 23 79 25 80 22 81
REMARK H PARENT 73 23 47 34
REMARK Flexibility Score: inf
ROOT
ATOM      1  C   UNL A   1      32.270  30.782  26.532  1.00  0.00     0.275 C 
ENDROOT
BRANCH   1   2
ATOM      2  C   UNL A   1      31.429  31.980  26.959  1.00  0.00     0.275 C 
BRANCH   2   3
ATOM      3  O   UNL A   1      32.155  33.225  26.919  1.00  0.00    -0.458 OA
BRANCH   3   4
ATOM      4  C   UNL A   1      32.885  33.868  27.861  1.00  0.00     0.338 C 
ATOM      5  O   UNL A   1      32.419  34.916  28.316  1.00  0.00    -0.246 OA
BRANCH   4   6
ATOM      6  C   UNL A   1      34.224  33.431  28.403  1.00  0.00     0.060 A 
ATOM      7  C   UNL A   1      35.485  33.734  27.882  1.00  0.00     0.016 A 
ATOM      8  C   UNL A   1      34.191  32.656  29.582  1.00  0.00     0.016 A 
ATOM      9  C   UNL A   1      36.662  33.314  28.523  1.00  0.00     0.010 A 
ATOM     10  C   UNL A   1      35.361  32.225  30.223  1.00  0.00     0.010 A 
ATOM     11  C   UNL A   1      36.610  32.546  29.689  1.00  0.00    -0.014 A 
BRANCH  11  12
ATOM     12  C   UNL A   1      37.860  31.977  30.258  1.00  0.00     0.031 A 
ATOM     13  C   UNL A   1      38.424  30.758  29.633  1.00  0.00     0.074 A 
ATOM     14  C   UNL A   1      38.515  32.563  31.276  1.00  0.00     0.049 A 
ATOM     15  N   UNL A   1      39.512  30.117  29.950  1.00  0.00    -0.248 NA
ATOM     16  C   UNL A   1      37.663  30.178  28.517  1.00  0.00     0.031 C 
ATOM     17  C   UNL A   1      38.017  33.750  31.915  1.00  0.00     0.029 A 
ATOM     18  N   UNL A   1      39.686  32.319  31.942  1.00  0.00    -0.354 N 
ATOM     19  C   UNL A   1      39.563  29.043  29.085  1.00  0.00     0.074 A 
ATOM     20  C   UNL A   1      38.391  29.108  28.239  1.00  0.00     0.031 C 
ATOM     21  C   UNL A   1      38.885  34.211  32.823  1.00  0.00     0.029 A 
ATOM     22  C   UNL A   1      39.978  33.264  32.909  1.00  0.00     0.049 A 
ATOM     23  H   UNL A   1      40.264  31.546  31.751  1.00  0.00     0.167 HD
ATOM     24  C   UNL A   1      40.512  28.086  29.029  1.00  0.00     0.037 A 
ATOM     25  C   UNL A   1      40.997  33.344  33.786  1.00  0.00     0.037 A 
ATOM     26  C   UNL A   1      41.641  28.038  29.917  1.00  0.00     0.049 A 
ATOM     27  C   UNL A   1      42.003  32.234  33.735  1.00  0.00     0.074 A 
ATOM     28  C   UNL A   1      42.654  27.099  29.969  1.00  0.00     0.029 A 
ATOM     29  N   UNL A   1      41.896  28.962  30.927  1.00  0.00    -0.354 N 
ATOM     30  N   UNL A   1      42.052  31.224  32.899  1.00  0.00    -0.248 NA
ATOM     31  C   UNL A   1      43.069  32.242  34.742  1.00  0.00     0.031 C 
ATOM     32  C   UNL A   1      43.487  27.423  31.045  1.00  0.00     0.029 A 
ATOM     33  C   UNL A   1      43.033  28.597  31.628  1.00  0.00     0.049 A 
ATOM     34  H   UNL A   1      41.348  29.758  31.114  1.00  0.00     0.167 HD
ATOM     35  C   UNL A   1      43.152  30.475  33.271  1.00  0.00     0.074 A 
ATOM     36  C   UNL A   1      43.763  31.168  34.392  1.00  0.00     0.031 C 
ATOM     37  C   UNL A   1      43.607  29.315  32.742  1.00  0.00     0.037 A 
BRANCH  24  38
ATOM     38  C   UNL A   1      40.287  26.997  28.030  1.00  0.00     0.057 A 
ATOM     39  C   UNL A   1      39.535  25.853  28.332  1.00  0.00     0.134 A 
ATOM     40  C   UNL A   1      40.902  27.061  26.774  1.00  0.00     0.134 A 
ATOM     41  F   UNL A   1      38.961  25.714  29.536  1.00  0.00    -0.206 F 
ATOM     42  C   UNL A   1      39.429  24.796  27.428  1.00  0.00     0.040 A 
ATOM     43  C   UNL A   1      40.778  26.022  25.852  1.00  0.00     0.040 A 
ATOM     44  F   UNL A   1      41.652  28.119  26.436  1.00  0.00    -0.206 F 
ATOM     45  C   UNL A   1      40.048  24.882  26.182  1.00  0.00     0.006 A 
ENDBRANCH  24  38
BRANCH  25  46
ATOM     46  C   UNL A   1      41.083  34.443  34.794  1.00  0.00     0.057 A 
ATOM     47  C   UNL A   1      41.771  35.634  34.531  1.00  0.00     0.134 A 
ATOM     48  C   UNL A   1      40.501  34.321  36.065  1.00  0.00     0.134 A 
ATOM     49  F   UNL A   1      42.370  35.820  33.345  1.00  0.00    -0.206 F 
ATOM     50  C   UNL A   1      41.897  36.644  35.491  1.00  0.00     0.040 A 
ATOM     51  C   UNL A   1      40.590  35.335  37.024  1.00  0.00     0.040 A 
ATOM     52  F   UNL A   1      39.823  33.212  36.398  1.00  0.00    -0.206 F 
ATOM     53  C   UNL A   1      41.301  36.498  36.742  1.00  0.00     0.006 A 
ENDBRANCH  25  46
BRANCH  37  54
ATOM     54  C   UNL A   1      44.841  28.744  33.365  1.00  0.00     0.057 A 
ATOM     55  C   UNL A   1      44.777  27.805  34.402  1.00  0.00     0.134 A 
ATOM     56  C   UNL A   1      46.105  29.107  32.888  1.00  0.00     0.134 A 
ATOM     57  F   UNL A   1      43.593  27.437  34.916  1.00  0.00    -0.206 F 
ATOM     58  C   UNL A   1      45.933  27.255  34.952  1.00  0.00     0.040 A 
ATOM     59  C   UNL A   1      47.266  28.542  33.409  1.00  0.00     0.040 A 
ATOM     60  F   UNL A   1      46.227  30.002  31.895  1.00  0.00    -0.206 F 
ATOM     61  C   UNL A   1      47.181  27.616  34.447  1.00  0.00     0.006 A 
ENDBRANCH  37  54
ENDBRANCH  11  12
ENDBRANCH   4   6
ENDBRANCH   3   4
ENDBRANCH   2   3
ENDBRANCH   1   2
BRANCH   1  62
ATOM     62  O   UNL A   1      31.438  29.796  25.917  1.00  0.00    -0.458 OA
BRANCH  62  63
ATOM     63  C   UNL A   1      31.551  29.659  24.577  1.00  0.00     0.339 C 
ATOM     64  O   UNL A   1      32.556  29.446  23.931  1.00  0.00    -0.246 OA
BRANCH  63  65
ATOM     65  C   UNL A   1      30.208  29.719  23.983  1.00  0.00     0.074 A 
ATOM     66  C   UNL A   1      29.553  30.962  23.988  1.00  0.00     0.016 A 
ATOM     67  C   UNL A   1      29.580  28.608  23.430  1.00  0.00     0.074 A 
ATOM     68  C   UNL A   1      28.273  31.092  23.442  1.00  0.00     0.001 A 
ATOM     69  C   UNL A   1      28.234  28.722  23.036  1.00  0.00     0.016 A 
ATOM     70  C   UNL A   1      27.598  29.963  22.995  1.00  0.00     0.001 A 
BRANCH  67  71
ATOM     71  C   UNL A   1      30.290  27.376  23.010  1.00  0.00     0.339 C 
ATOM     72  O   UNL A   1      30.783  27.281  21.897  1.00  0.00    -0.246 OA
BRANCH  71  73
ATOM     73  O   UNL A   1      30.279  26.364  23.905  1.00  0.00    -0.462 OA
BRANCH  73  74
ATOM     74  C   UNL A   1      30.798  25.140  23.350  1.00  0.00     0.237 C 
BRANCH  74  75
ATOM     75  C   UNL A   1      32.080  24.775  24.092  1.00  0.00     0.030 C 
ATOM     76  C   UNL A   1      32.297  25.598  25.377  1.00  0.00     0.011 C 
ATOM     77  C   UNL A   1      33.406  25.021  23.315  1.00  0.00    -0.004 C 
ATOM     78  C   UNL A   1      33.767  26.042  25.249  1.00  0.00    -0.010 C 
ATOM     79  C   UNL A   1      34.484  24.139  23.950  1.00  0.00     0.004 C 
ATOM     80  C   UNL A   1      33.833  26.415  23.771  1.00  0.00     0.007 C 
ATOM     81  C   UNL A   1      34.688  24.805  25.313  1.00  0.00     0.004 C 
ENDBRANCH  74  75
ENDBRANCH  73  74
ENDBRANCH  71  73
ENDBRANCH  67  71
ENDBRANCH  63  65
ENDBRANCH  62  63
ENDBRANCH   1  62
TORSDOF 15
ENDMDL
