MODEL 1
REMARK VINA RESULT:     -10.5      0.000      0.000
REMARK SMILES C=CCN(CC(=O)OCCOC(=O)c1ccc(-c2c3nc(c(-c4c(F)cccc4F)c4ccc([nH]4)c(-c4c(F)cccc4F)c4nc(c(-c5c(F)cccc5F)c5ccc2[nH]5)C=C4)C=C3)cc1)c1ccc([N+](=O)[O-])cc1Br
REMARK SMILES IDX 9 1 8 2 6 3 7 4 5 5 4 6 3 7 2 8 1 9 68 10 69 11 76 12 70 13
REMARK SMILES IDX 75 14 77 15 71 16 72 17 73 18 74 19 10 20 11 21 12 22 13 23
REMARK SMILES IDX 14 24 15 25 67 26 16 27 66 28 17 29 18 30 19 31 60 32 20 33
REMARK SMILES IDX 65 34 59 35 61 36 21 37 64 38 58 39 57 40 22 42 48 43 31 44
REMARK SMILES IDX 47 45 32 46 35 47 46 48 62 49 33 50 34 51 45 53 63 54 36 55
REMARK SMILES IDX 23 56 24 57 29 58 25 59 26 60 28 61 30 62 27 63 49 64 50 65
REMARK SMILES IDX 55 66 51 67 52 68 54 69 56 70 53 71 37 72 38 73 43 74 39 75
REMARK SMILES IDX 40 76 42 77 44 78 41 79
REMARK H PARENT 61 41 35 52
REMARK Flexibility Score: inf
ROOT
ATOM      1  C   UNL A   1      32.409  27.306  26.366  1.00  0.00     0.274 C 
ENDROOT
BRANCH   1   2
ATOM      2  O   UNL A   1      31.381  26.467  26.923  1.00  0.00    -0.461 OA
BRANCH   2   3
ATOM      3  C   UNL A   1      31.384  25.172  26.501  1.00  0.00     0.325 C 
ATOM      4  O   UNL A   1      30.956  24.229  27.163  1.00  0.00    -0.250 OA
BRANCH   3   5
ATOM      5  C   UNL A   1      31.953  24.967  25.100  1.00  0.00     0.239 C 
BRANCH   5   6
ATOM      6  N   UNL A   1      30.968  24.931  24.011  1.00  0.00    -0.356 N 
BRANCH   6   7
ATOM      7  C   UNL A   1      30.737  23.689  23.292  1.00  0.00     0.144 C 
BRANCH   7   8
ATOM      8  C   UNL A   1      31.907  22.782  23.543  1.00  0.00    -0.014 C 
ATOM      9  C   UNL A   1      32.158  21.649  22.874  1.00  0.00     0.006 C 
ENDBRANCH   7   8
ENDBRANCH   6   7
BRANCH   6  10
ATOM     10  C   UNL A   1      30.306  26.093  23.647  1.00  0.00     0.052 A 
ATOM     11  C   UNL A   1      28.964  26.259  24.032  1.00  0.00     0.034 A 
ATOM     12  C   UNL A   1      30.894  27.117  22.873  1.00  0.00     0.048 A 
ATOM     13  C   UNL A   1      28.214  27.366  23.622  1.00  0.00     0.088 A 
ATOM     14  C   UNL A   1      30.161  28.237  22.464  1.00  0.00     0.103 A 
ATOM     15  Br  UNL A   1      32.731  27.076  22.366  1.00  0.00    -0.048 Br
ATOM     16  C   UNL A   1      28.816  28.342  22.827  1.00  0.00     0.270 A 
BRANCH  16  17
ATOM     17  N   UNL A   1      28.029  29.481  22.352  1.00  0.00     0.062 N 
ATOM     18  O   UNL A   1      28.335  29.980  21.261  1.00  0.00    -0.258 OA
ATOM     19  O   UNL A   1      27.109  29.883  23.080  1.00  0.00    -0.258 OA
ENDBRANCH  16  17
ENDBRANCH   6  10
ENDBRANCH   5   6
ENDBRANCH   3   5
ENDBRANCH   2   3
ENDBRANCH   1   2
BRANCH   1  20
ATOM     20  C   UNL A   1      31.895  28.727  26.148  1.00  0.00     0.275 C 
BRANCH  20  21
ATOM     21  O   UNL A   1      32.998  29.636  25.983  1.00  0.00    -0.458 OA
BRANCH  21  22
ATOM     22  C   UNL A   1      32.974  30.717  26.792  1.00  0.00     0.338 C 
ATOM     23  O   UNL A   1      32.118  31.587  26.844  1.00  0.00    -0.246 OA
BRANCH  22  24
ATOM     24  C   UNL A   1      34.197  30.777  27.604  1.00  0.00     0.060 A 
ATOM     25  C   UNL A   1      34.965  31.943  27.686  1.00  0.00     0.016 A 
ATOM     26  C   UNL A   1      34.632  29.595  28.205  1.00  0.00     0.016 A 
ATOM     27  C   UNL A   1      36.206  31.908  28.330  1.00  0.00     0.010 A 
ATOM     28  C   UNL A   1      35.844  29.575  28.887  1.00  0.00     0.010 A 
ATOM     29  C   UNL A   1      36.653  30.721  28.930  1.00  0.00    -0.014 A 
BRANCH  29  30
ATOM     30  C   UNL A   1      37.970  30.630  29.604  1.00  0.00     0.031 A 
ATOM     31  C   UNL A   1      39.069  29.817  28.987  1.00  0.00     0.074 A 
ATOM     32  C   UNL A   1      38.139  31.194  30.814  1.00  0.00     0.049 A 
ATOM     33  N   UNL A   1      40.193  29.405  29.516  1.00  0.00    -0.248 NA
ATOM     34  C   UNL A   1      38.873  29.403  27.588  1.00  0.00     0.031 C 
ATOM     35  C   UNL A   1      37.153  32.025  31.504  1.00  0.00     0.029 A 
ATOM     36  N   UNL A   1      39.190  31.117  31.692  1.00  0.00    -0.354 N 
ATOM     37  C   UNL A   1      40.824  28.659  28.529  1.00  0.00     0.074 A 
ATOM     38  C   UNL A   1      39.959  28.673  27.368  1.00  0.00     0.031 C 
ATOM     39  C   UNL A   1      37.635  32.362  32.711  1.00  0.00     0.029 A 
ATOM     40  C   UNL A   1      38.936  31.725  32.896  1.00  0.00     0.049 A 
ATOM     41  H   UNL A   1      40.041  30.671  31.479  1.00  0.00     0.167 HD
ATOM     42  C   UNL A   1      42.013  28.015  28.593  1.00  0.00     0.037 A 
ATOM     43  C   UNL A   1      39.647  31.727  34.039  1.00  0.00     0.037 A 
ATOM     44  C   UNL A   1      42.871  28.011  29.751  1.00  0.00     0.049 A 
ATOM     45  C   UNL A   1      40.943  30.973  34.102  1.00  0.00     0.074 A 
ATOM     46  C   UNL A   1      44.100  27.394  29.914  1.00  0.00     0.029 A 
ATOM     47  N   UNL A   1      42.585  28.658  30.942  1.00  0.00    -0.354 N 
ATOM     48  N   UNL A   1      41.522  30.251  33.173  1.00  0.00    -0.248 NA
ATOM     49  C   UNL A   1      41.678  31.023  35.372  1.00  0.00     0.031 C 
ATOM     50  C   UNL A   1      44.546  27.650  31.216  1.00  0.00     0.029 A 
ATOM     51  C   UNL A   1      43.610  28.450  31.850  1.00  0.00     0.049 A 
ATOM     52  H   UNL A   1      41.774  29.188  31.118  1.00  0.00     0.167 HD
ATOM     53  C   UNL A   1      42.696  29.776  33.738  1.00  0.00     0.074 A 
ATOM     54  C   UNL A   1      42.750  30.294  35.091  1.00  0.00     0.031 C 
ATOM     55  C   UNL A   1      43.644  28.981  33.187  1.00  0.00     0.037 A 
BRANCH  42  56
ATOM     56  C   UNL A   1      42.447  27.242  27.386  1.00  0.00     0.057 A 
ATOM     57  C   UNL A   1      43.228  27.822  26.381  1.00  0.00     0.134 A 
ATOM     58  C   UNL A   1      42.113  25.888  27.249  1.00  0.00     0.134 A 
ATOM     59  F   UNL A   1      43.572  29.117  26.450  1.00  0.00    -0.206 F 
ATOM     60  C   UNL A   1      43.653  27.086  25.272  1.00  0.00     0.040 A 
ATOM     61  C   UNL A   1      42.545  25.138  26.154  1.00  0.00     0.040 A 
ATOM     62  F   UNL A   1      41.368  25.273  28.180  1.00  0.00    -0.206 F 
ATOM     63  C   UNL A   1      43.316  25.738  25.161  1.00  0.00     0.006 A 
ENDBRANCH  42  56
BRANCH  43  64
ATOM     64  C   UNL A   1      39.120  32.447  35.221  1.00  0.00     0.057 A 
ATOM     65  C   UNL A   1      38.344  31.787  36.179  1.00  0.00     0.134 A 
ATOM     66  C   UNL A   1      39.415  33.797  35.441  1.00  0.00     0.134 A 
ATOM     67  F   UNL A   1      38.015  30.498  36.010  1.00  0.00    -0.206 F 
ATOM     68  C   UNL A   1      37.879  32.445  37.318  1.00  0.00     0.040 A 
ATOM     69  C   UNL A   1      38.973  34.463  36.585  1.00  0.00     0.040 A 
ATOM     70  F   UNL A   1      40.159  34.481  34.559  1.00  0.00    -0.206 F 
ATOM     71  C   UNL A   1      38.202  33.785  37.527  1.00  0.00     0.006 A 
ENDBRANCH  43  64
BRANCH  55  72
ATOM     72  C   UNL A   1      44.834  28.657  34.037  1.00  0.00     0.057 A 
ATOM     73  C   UNL A   1      45.962  29.484  34.067  1.00  0.00     0.134 A 
ATOM     74  C   UNL A   1      44.833  27.523  34.857  1.00  0.00     0.134 A 
ATOM     75  F   UNL A   1      46.024  30.577  33.292  1.00  0.00    -0.206 F 
ATOM     76  C   UNL A   1      47.059  29.185  34.876  1.00  0.00     0.040 A 
ATOM     77  C   UNL A   1      45.917  27.221  35.682  1.00  0.00     0.040 A 
ATOM     78  F   UNL A   1      43.778  26.695  34.873  1.00  0.00    -0.206 F 
ATOM     79  C   UNL A   1      47.035  28.054  35.690  1.00  0.00     0.006 A 
ENDBRANCH  55  72
ENDBRANCH  29  30
ENDBRANCH  22  24
ENDBRANCH  21  22
ENDBRANCH  20  21
ENDBRANCH   1  20
TORSDOF 16
ENDMDL
MODEL 2
REMARK VINA RESULT:     -10.2      4.383      8.929
REMARK SMILES C=CCN(CC(=O)OCCOC(=O)c1ccc(-c2c3nc(c(-c4c(F)cccc4F)c4ccc([nH]4)c(-c4c(F)cccc4F)c4nc(c(-c5c(F)cccc5F)c5ccc2[nH]5)C=C4)C=C3)cc1)c1ccc([N+](=O)[O-])cc1Br
REMARK SMILES IDX 9 1 8 2 6 3 7 4 5 5 4 6 3 7 2 8 1 9 68 10 69 11 76 12 70 13
REMARK SMILES IDX 75 14 77 15 71 16 72 17 73 18 74 19 10 20 11 21 12 22 13 23
REMARK SMILES IDX 14 24 15 25 67 26 16 27 66 28 17 29 18 30 19 31 60 32 20 33
REMARK SMILES IDX 65 34 59 35 61 36 21 37 64 38 58 39 57 40 22 42 48 43 31 44
REMARK SMILES IDX 47 45 32 46 35 47 46 48 62 49 33 50 34 51 45 53 63 54 36 55
REMARK SMILES IDX 23 56 24 57 29 58 25 59 26 60 28 61 30 62 27 63 49 64 50 65
REMARK SMILES IDX 55 66 51 67 52 68 54 69 56 70 53 71 37 72 38 73 43 74 39 75
REMARK SMILES IDX 40 76 42 77 44 78 41 79
REMARK H PARENT 61 41 35 52
REMARK Flexibility Score: inf
ROOT
ATOM      1  C   UNL A   1      36.495  22.590  23.505  1.00  0.00     0.274 C 
ENDROOT
BRANCH   1   2
ATOM      2  O   UNL A   1      35.887  23.702  24.187  1.00  0.00    -0.461 OA
BRANCH   2   3
ATOM      3  C   UNL A   1      34.660  24.078  23.727  1.00  0.00     0.325 C 
ATOM      4  O   UNL A   1      34.399  24.279  22.543  1.00  0.00    -0.250 OA
BRANCH   3   5
ATOM      5  C   UNL A   1      33.595  24.216  24.811  1.00  0.00     0.239 C 
BRANCH   5   6
ATOM      6  N   UNL A   1      32.470  23.277  24.721  1.00  0.00    -0.356 N 
BRANCH   6   7
ATOM      7  C   UNL A   1      31.108  23.786  24.712  1.00  0.00     0.144 C 
BRANCH   7   8
ATOM      8  C   UNL A   1      30.662  23.947  26.137  1.00  0.00    -0.014 C 
ATOM      9  C   UNL A   1      30.095  22.986  26.877  1.00  0.00     0.006 C 
ENDBRANCH   7   8
ENDBRANCH   6   7
BRANCH   6  10
ATOM     10  C   UNL A   1      32.715  21.913  24.698  1.00  0.00     0.052 A 
ATOM     11  C   UNL A   1      32.389  21.184  23.541  1.00  0.00     0.034 A 
ATOM     12  C   UNL A   1      33.246  21.196  25.792  1.00  0.00     0.048 A 
ATOM     13  C   UNL A   1      32.528  19.794  23.485  1.00  0.00     0.088 A 
ATOM     14  C   UNL A   1      33.403  19.806  25.748  1.00  0.00     0.103 A 
ATOM     15  Br  UNL A   1      33.828  22.065  27.386  1.00  0.00    -0.048 Br
ATOM     16  C   UNL A   1      33.022  19.112  24.598  1.00  0.00     0.270 A 
BRANCH  16  17
ATOM     17  N   UNL A   1      33.128  17.652  24.568  1.00  0.00     0.062 N 
ATOM     18  O   UNL A   1      34.129  17.157  24.032  1.00  0.00    -0.258 OA
ATOM     19  O   UNL A   1      32.202  17.001  25.073  1.00  0.00    -0.258 OA
ENDBRANCH  16  17
ENDBRANCH   6  10
ENDBRANCH   5   6
ENDBRANCH   3   5
ENDBRANCH   2   3
ENDBRANCH   1   2
BRANCH   1  20
ATOM     20  C   UNL A   1      36.631  21.388  24.436  1.00  0.00     0.275 C 
BRANCH  20  21
ATOM     21  O   UNL A   1      37.122  21.808  25.721  1.00  0.00    -0.458 OA
BRANCH  21  22
ATOM     22  C   UNL A   1      38.438  21.589  25.929  1.00  0.00     0.338 C 
ATOM     23  O   UNL A   1      39.057  20.552  25.748  1.00  0.00    -0.246 OA
BRANCH  22  24
ATOM     24  C   UNL A   1      39.073  22.786  26.499  1.00  0.00     0.060 A 
ATOM     25  C   UNL A   1      38.640  24.074  26.167  1.00  0.00     0.016 A 
ATOM     26  C   UNL A   1      40.200  22.599  27.300  1.00  0.00     0.016 A 
ATOM     27  C   UNL A   1      39.377  25.182  26.597  1.00  0.00     0.010 A 
ATOM     28  C   UNL A   1      40.904  23.705  27.767  1.00  0.00     0.010 A 
ATOM     29  C   UNL A   1      40.515  25.002  27.396  1.00  0.00    -0.014 A 
BRANCH  29  30
ATOM     30  C   UNL A   1      41.340  26.144  27.857  1.00  0.00     0.031 A 
ATOM     31  C   UNL A   1      40.707  27.246  28.655  1.00  0.00     0.074 A 
ATOM     32  C   UNL A   1      42.626  26.234  27.474  1.00  0.00     0.049 A 
ATOM     33  N   UNL A   1      41.174  28.435  28.940  1.00  0.00    -0.248 NA
ATOM     34  C   UNL A   1      39.364  26.979  29.194  1.00  0.00     0.031 C 
ATOM     35  C   UNL A   1      43.356  25.216  26.719  1.00  0.00     0.029 A 
ATOM     36  N   UNL A   1      43.534  27.250  27.637  1.00  0.00    -0.354 N 
ATOM     37  C   UNL A   1      40.173  29.069  29.665  1.00  0.00     0.074 A 
ATOM     38  C   UNL A   1      39.073  28.135  29.777  1.00  0.00     0.031 C 
ATOM     39  C   UNL A   1      44.593  25.669  26.460  1.00  0.00     0.029 A 
ATOM     40  C   UNL A   1      44.720  27.026  26.984  1.00  0.00     0.049 A 
ATOM     41  H   UNL A   1      43.351  28.058  28.169  1.00  0.00     0.167 HD
ATOM     42  C   UNL A   1      40.174  30.320  30.183  1.00  0.00     0.037 A 
ATOM     43  C   UNL A   1      45.773  27.841  26.785  1.00  0.00     0.037 A 
ATOM     44  C   UNL A   1      41.276  31.242  30.073  1.00  0.00     0.049 A 
ATOM     45  C   UNL A   1      45.736  29.239  27.330  1.00  0.00     0.074 A 
ATOM     46  C   UNL A   1      41.378  32.530  30.569  1.00  0.00     0.029 A 
ATOM     47  N   UNL A   1      42.468  30.966  29.422  1.00  0.00    -0.354 N 
ATOM     48  N   UNL A   1      44.779  29.838  27.995  1.00  0.00    -0.248 NA
ATOM     49  C   UNL A   1      46.920  30.075  27.091  1.00  0.00     0.031 C 
ATOM     50  C   UNL A   1      42.626  33.043  30.196  1.00  0.00     0.029 A 
ATOM     51  C   UNL A   1      43.310  32.064  29.495  1.00  0.00     0.049 A 
ATOM     52  H   UNL A   1      42.685  30.117  28.974  1.00  0.00     0.167 HD
ATOM     53  C   UNL A   1      45.248  31.115  28.268  1.00  0.00     0.074 A 
ATOM     54  C   UNL A   1      46.579  31.203  27.701  1.00  0.00     0.031 C 
ATOM     55  C   UNL A   1      44.632  32.124  28.929  1.00  0.00     0.037 A 
BRANCH  42  56
ATOM     56  C   UNL A   1      38.937  30.776  30.894  1.00  0.00     0.057 A 
ATOM     57  C   UNL A   1      37.895  31.422  30.219  1.00  0.00     0.134 A 
ATOM     58  C   UNL A   1      38.769  30.527  32.262  1.00  0.00     0.134 A 
ATOM     59  F   UNL A   1      38.002  31.697  28.910  1.00  0.00    -0.206 F 
ATOM     60  C   UNL A   1      36.732  31.817  30.883  1.00  0.00     0.040 A 
ATOM     61  C   UNL A   1      37.604  30.903  32.933  1.00  0.00     0.040 A 
ATOM     62  F   UNL A   1      39.730  29.909  32.965  1.00  0.00    -0.206 F 
ATOM     63  C   UNL A   1      36.582  31.553  32.244  1.00  0.00     0.006 A 
ENDBRANCH  42  56
BRANCH  43  64
ATOM     64  C   UNL A   1      46.932  27.353  26.003  1.00  0.00     0.057 A 
ATOM     65  C   UNL A   1      47.972  26.652  26.621  1.00  0.00     0.134 A 
ATOM     66  C   UNL A   1      47.005  27.539  24.618  1.00  0.00     0.134 A 
ATOM     67  F   UNL A   1      47.963  26.461  27.947  1.00  0.00    -0.206 F 
ATOM     68  C   UNL A   1      49.048  26.150  25.886  1.00  0.00     0.040 A 
ATOM     69  C   UNL A   1      48.064  27.027  23.868  1.00  0.00     0.040 A 
ATOM     70  F   UNL A   1      46.034  28.200  23.971  1.00  0.00    -0.206 F 
ATOM     71  C   UNL A   1      49.090  26.330  24.504  1.00  0.00     0.006 A 
ENDBRANCH  43  64
BRANCH  55  72
ATOM     72  C   UNL A   1      45.408  33.393  29.103  1.00  0.00     0.057 A 
ATOM     73  C   UNL A   1      45.311  34.444  28.184  1.00  0.00     0.134 A 
ATOM     74  C   UNL A   1      46.234  33.573  30.219  1.00  0.00     0.134 A 
ATOM     75  F   UNL A   1      44.547  34.322  27.090  1.00  0.00    -0.206 F 
ATOM     76  C   UNL A   1      46.023  35.631  28.364  1.00  0.00     0.040 A 
ATOM     77  C   UNL A   1      46.938  34.761  30.417  1.00  0.00     0.040 A 
ATOM     78  F   UNL A   1      46.363  32.602  31.134  1.00  0.00    -0.206 F 
ATOM     79  C   UNL A   1      46.835  35.793  29.485  1.00  0.00     0.006 A 
ENDBRANCH  55  72
ENDBRANCH  29  30
ENDBRANCH  22  24
ENDBRANCH  21  22
ENDBRANCH  20  21
ENDBRANCH   1  20
TORSDOF 16
ENDMDL
MODEL 3
REMARK VINA RESULT:     -10.2      1.815      3.508
REMARK SMILES C=CCN(CC(=O)OCCOC(=O)c1ccc(-c2c3nc(c(-c4c(F)cccc4F)c4ccc([nH]4)c(-c4c(F)cccc4F)c4nc(c(-c5c(F)cccc5F)c5ccc2[nH]5)C=C4)C=C3)cc1)c1ccc([N+](=O)[O-])cc1Br
REMARK SMILES IDX 9 1 8 2 6 3 7 4 5 5 4 6 3 7 2 8 1 9 68 10 69 11 76 12 70 13
REMARK SMILES IDX 75 14 77 15 71 16 72 17 73 18 74 19 10 20 11 21 12 22 13 23
REMARK SMILES IDX 14 24 15 25 67 26 16 27 66 28 17 29 18 30 19 31 60 32 20 33
REMARK SMILES IDX 65 34 59 35 61 36 21 37 64 38 58 39 57 40 22 42 48 43 31 44
REMARK SMILES IDX 47 45 32 46 35 47 46 48 62 49 33 50 34 51 45 53 63 54 36 55
REMARK SMILES IDX 23 56 24 57 29 58 25 59 26 60 28 61 30 62 27 63 49 64 50 65
REMARK SMILES IDX 55 66 51 67 52 68 54 69 56 70 53 71 37 72 38 73 43 74 39 75
REMARK SMILES IDX 40 76 42 77 44 78 41 79
REMARK H PARENT 61 41 35 52
REMARK Flexibility Score: inf
ROOT
ATOM      1  C   UNL A   1      31.833  28.012  25.971  1.00  0.00     0.274 C 
ENDROOT
BRANCH   1   2
ATOM      2  O   UNL A   1      31.178  26.987  25.201  1.00  0.00    -0.461 OA
BRANCH   2   3
ATOM      3  C   UNL A   1      31.298  25.719  25.684  1.00  0.00     0.325 C 
ATOM      4  O   UNL A   1      31.368  25.439  26.879  1.00  0.00    -0.250 OA
BRANCH   3   5
ATOM      5  C   UNL A   1      31.319  24.635  24.610  1.00  0.00     0.239 C 
BRANCH   5   6
ATOM      6  N   UNL A   1      32.632  24.037  24.335  1.00  0.00    -0.356 N 
BRANCH   6   7
ATOM      7  C   UNL A   1      33.747  24.892  23.962  1.00  0.00     0.144 C 
BRANCH   7   8
ATOM      8  C   UNL A   1      33.489  25.415  22.578  1.00  0.00    -0.014 C 
ATOM      9  C   UNL A   1      33.338  26.708  22.262  1.00  0.00     0.006 C 
ENDBRANCH   7   8
ENDBRANCH   6   7
BRANCH   6  10
ATOM     10  C   UNL A   1      32.782  22.660  24.384  1.00  0.00     0.052 A 
ATOM     11  C   UNL A   1      32.364  21.891  23.284  1.00  0.00     0.034 A 
ATOM     12  C   UNL A   1      33.304  21.970  25.500  1.00  0.00     0.048 A 
ATOM     13  C   UNL A   1      32.405  20.494  23.306  1.00  0.00     0.088 A 
ATOM     14  C   UNL A   1      33.363  20.572  25.533  1.00  0.00     0.103 A 
ATOM     15  Br  UNL A   1      34.004  22.885  27.019  1.00  0.00    -0.048 Br
ATOM     16  C   UNL A   1      32.893  19.843  24.439  1.00  0.00     0.270 A 
BRANCH  16  17
ATOM     17  N   UNL A   1      32.897  18.380  24.493  1.00  0.00     0.062 N 
ATOM     18  O   UNL A   1      31.924  17.819  25.014  1.00  0.00    -0.258 OA
ATOM     19  O   UNL A   1      33.883  17.794  24.022  1.00  0.00    -0.258 OA
ENDBRANCH  16  17
ENDBRANCH   6  10
ENDBRANCH   5   6
ENDBRANCH   3   5
ENDBRANCH   2   3
ENDBRANCH   1   2
BRANCH   1  20
ATOM     20  C   UNL A   1      31.979  29.295  25.156  1.00  0.00     0.275 C 
BRANCH  20  21
ATOM     21  O   UNL A   1      33.144  30.024  25.582  1.00  0.00    -0.458 OA
BRANCH  21  22
ATOM     22  C   UNL A   1      32.956  30.825  26.654  1.00  0.00     0.338 C 
ATOM     23  O   UNL A   1      31.977  31.507  26.909  1.00  0.00    -0.246 OA
BRANCH  22  24
ATOM     24  C   UNL A   1      34.160  30.842  27.497  1.00  0.00     0.060 A 
ATOM     25  C   UNL A   1      34.895  32.015  27.701  1.00  0.00     0.016 A 
ATOM     26  C   UNL A   1      34.613  29.622  28.001  1.00  0.00     0.016 A 
ATOM     27  C   UNL A   1      36.122  31.953  28.368  1.00  0.00     0.010 A 
ATOM     28  C   UNL A   1      35.811  29.571  28.707  1.00  0.00     0.010 A 
ATOM     29  C   UNL A   1      36.588  30.729  28.871  1.00  0.00    -0.014 A 
BRANCH  29  30
ATOM     30  C   UNL A   1      37.891  30.610  29.566  1.00  0.00     0.031 A 
ATOM     31  C   UNL A   1      38.990  29.791  28.955  1.00  0.00     0.074 A 
ATOM     32  C   UNL A   1      38.048  31.155  30.786  1.00  0.00     0.049 A 
ATOM     33  N   UNL A   1      40.099  29.357  29.497  1.00  0.00    -0.248 NA
ATOM     34  C   UNL A   1      38.812  29.400  27.547  1.00  0.00     0.031 C 
ATOM     35  C   UNL A   1      37.061  31.989  31.471  1.00  0.00     0.029 A 
ATOM     36  N   UNL A   1      39.083  31.052  31.680  1.00  0.00    -0.354 N 
ATOM     37  C   UNL A   1      40.737  28.616  28.510  1.00  0.00     0.074 A 
ATOM     38  C   UNL A   1      39.892  28.659  27.335  1.00  0.00     0.031 C 
ATOM     39  C   UNL A   1      37.527  32.303  32.691  1.00  0.00     0.029 A 
ATOM     40  C   UNL A   1      38.816  31.646  32.888  1.00  0.00     0.049 A 
ATOM     41  H   UNL A   1      39.932  30.597  31.475  1.00  0.00     0.167 HD
ATOM     42  C   UNL A   1      41.916  27.956  28.585  1.00  0.00     0.037 A 
ATOM     43  C   UNL A   1      39.508  31.622  34.043  1.00  0.00     0.037 A 
ATOM     44  C   UNL A   1      42.754  27.923  29.756  1.00  0.00     0.049 A 
ATOM     45  C   UNL A   1      40.792  30.849  34.117  1.00  0.00     0.074 A 
ATOM     46  C   UNL A   1      43.972  27.288  29.931  1.00  0.00     0.029 A 
ATOM     47  N   UNL A   1      42.457  28.557  30.952  1.00  0.00    -0.354 N 
ATOM     48  N   UNL A   1      41.377  30.133  33.187  1.00  0.00    -0.248 NA
ATOM     49  C   UNL A   1      41.507  30.872  35.400  1.00  0.00     0.031 C 
ATOM     50  C   UNL A   1      44.400  27.519  31.243  1.00  0.00     0.029 A 
ATOM     51  C   UNL A   1      43.464  28.322  31.873  1.00  0.00     0.049 A 
ATOM     52  H   UNL A   1      41.650  29.095  31.122  1.00  0.00     0.167 HD
ATOM     53  C   UNL A   1      42.535  29.634  33.765  1.00  0.00     0.074 A 
ATOM     54  C   UNL A   1      42.574  30.132  35.126  1.00  0.00     0.031 C 
ATOM     55  C   UNL A   1      43.482  28.834  33.219  1.00  0.00     0.037 A 
BRANCH  42  56
ATOM     56  C   UNL A   1      42.360  27.193  27.374  1.00  0.00     0.057 A 
ATOM     57  C   UNL A   1      43.083  27.803  26.343  1.00  0.00     0.134 A 
ATOM     58  C   UNL A   1      42.096  25.823  27.258  1.00  0.00     0.134 A 
ATOM     59  F   UNL A   1      43.358  29.116  26.391  1.00  0.00    -0.206 F 
ATOM     60  C   UNL A   1      43.518  27.079  25.231  1.00  0.00     0.040 A 
ATOM     61  C   UNL A   1      42.539  25.085  26.160  1.00  0.00     0.040 A 
ATOM     62  F   UNL A   1      41.409  25.178  28.215  1.00  0.00    -0.206 F 
ATOM     63  C   UNL A   1      43.251  25.714  25.141  1.00  0.00     0.006 A 
ENDBRANCH  42  56
BRANCH  43  64
ATOM     64  C   UNL A   1      38.971  32.332  35.226  1.00  0.00     0.057 A 
ATOM     65  C   UNL A   1      38.276  31.643  36.225  1.00  0.00     0.134 A 
ATOM     66  C   UNL A   1      39.176  33.705  35.406  1.00  0.00     0.134 A 
ATOM     67  F   UNL A   1      38.035  30.331  36.096  1.00  0.00    -0.206 F 
ATOM     68  C   UNL A   1      37.804  32.295  37.364  1.00  0.00     0.040 A 
ATOM     69  C   UNL A   1      38.727  34.366  36.549  1.00  0.00     0.040 A 
ATOM     70  F   UNL A   1      39.840  34.417  34.483  1.00  0.00    -0.206 F 
ATOM     71  C   UNL A   1      38.037  33.659  37.533  1.00  0.00     0.006 A 
ENDBRANCH  43  64
BRANCH  55  72
ATOM     72  C   UNL A   1      44.653  28.482  34.083  1.00  0.00     0.057 A 
ATOM     73  C   UNL A   1      45.787  29.299  34.151  1.00  0.00     0.134 A 
ATOM     74  C   UNL A   1      44.627  27.331  34.879  1.00  0.00     0.134 A 
ATOM     75  F   UNL A   1      45.873  30.407  33.401  1.00  0.00    -0.206 F 
ATOM     76  C   UNL A   1      46.866  28.973  34.975  1.00  0.00     0.040 A 
ATOM     77  C   UNL A   1      45.693  27.003  35.717  1.00  0.00     0.040 A 
ATOM     78  F   UNL A   1      43.565  26.512  34.858  1.00  0.00    -0.206 F 
ATOM     79  C   UNL A   1      46.818  27.825  35.764  1.00  0.00     0.006 A 
ENDBRANCH  55  72
ENDBRANCH  29  30
ENDBRANCH  22  24
ENDBRANCH  21  22
ENDBRANCH  20  21
ENDBRANCH   1  20
TORSDOF 16
ENDMDL
