MODEL 1
REMARK VINA RESULT:     -11.8      0.000      0.000
REMARK SMILES O=C(OCCOC(=O)c1ccc(-c2c3nc(c(-c4c(F)cccc4F)c4ccc([nH]4)c(-c4c(F)cccc4F)c4nc(c(-c5c(F)cccc5F)c5ccc2[nH]5)C=C4)C=C3)cc1)C1=Cc2cc(S(F)(F)(F)(F)F)ccc2O[C@H]1C(F)(F)F
REMARK SMILES IDX 5 1 4 2 3 3 2 4 1 5 63 6 64 7 78 8 65 9 77 10 66 11 76 12
REMARK SMILES IDX 67 13 75 14 74 15 79 16 80 17 81 18 82 19 68 20 69 21 70 22
REMARK SMILES IDX 71 23 72 24 73 25 6 26 7 27 8 28 9 29 10 30 62 31 11 32
REMARK SMILES IDX 61 33 12 34 13 35 14 36 55 37 15 38 60 39 54 40 56 41 16 42
REMARK SMILES IDX 59 43 53 44 52 45 17 47 43 48 26 49 42 50 27 51 30 52 41 53
REMARK SMILES IDX 57 54 28 55 29 56 40 58 58 59 31 60 18 61 19 62 24 63 20 64
REMARK SMILES IDX 21 65 23 66 25 67 22 68 44 69 45 70 50 71 46 72 47 73 49 74
REMARK SMILES IDX 51 75 48 76 32 77 33 78 38 79 34 80 35 81 37 82 39 83 36 84
REMARK H PARENT 56 46 30 57
REMARK Flexibility Score: inf
ROOT
ATOM      1  C   UNL A   1      32.331  29.599  27.255  1.00  0.00     0.275 C 
ENDROOT
BRANCH   1   2
ATOM      2  C   UNL A   1      31.809  28.172  27.296  1.00  0.00     0.275 C 
BRANCH   2   3
ATOM      3  O   UNL A   1      32.367  27.434  26.219  1.00  0.00    -0.459 OA
BRANCH   3   4
ATOM      4  C   UNL A   1      31.517  26.728  25.326  1.00  0.00     0.338 C 
ATOM      5  O   UNL A   1      30.372  26.337  25.715  1.00  0.00    -0.246 OA
BRANCH   4   6
ATOM      6  C   UNL A   1      31.977  26.439  23.907  1.00  0.00     0.087 C 
ATOM      7  C   UNL A   1      32.935  25.501  23.680  1.00  0.00     0.027 C 
ATOM      8  C   UNL A   1      31.368  27.200  22.740  1.00  0.00     0.316 C 
ATOM      9  C   UNL A   1      33.545  24.740  24.846  1.00  0.00     0.019 A 
ATOM     10  O   UNL A   1      31.386  24.584  25.827  1.00  0.00    -0.475 OA
ATOM     11  C   UNL A   1      34.919  24.564  24.877  1.00  0.00     0.036 A 
ATOM     12  C   UNL A   1      32.766  24.249  25.803  1.00  0.00     0.128 A 
ATOM     13  C   UNL A   1      35.352  23.598  25.816  1.00  0.00     0.107 A 
ATOM     14  C   UNL A   1      33.283  23.421  26.770  1.00  0.00     0.048 A 
ATOM     15  C   UNL A   1      34.623  23.155  26.825  1.00  0.00     0.028 A 
BRANCH   8  16
ATOM     16  C   UNL A   1      30.331  28.182  23.263  1.00  0.00     0.430 C 
ATOM     17  F   UNL A   1      29.938  28.871  22.195  1.00  0.00    -0.167 F 
ATOM     18  F   UNL A   1      29.273  27.621  23.843  1.00  0.00    -0.167 F 
ATOM     19  F   UNL A   1      30.927  29.001  24.124  1.00  0.00    -0.167 F 
ENDBRANCH   8  16
BRANCH  13  20
ATOM     20  S   UNL A   1      37.020  22.924  25.623  1.00  0.00     0.310 S 
ATOM     21  F   UNL A   1      37.223  23.662  24.234  1.00  0.00    -0.094 F 
ATOM     22  F   UNL A   1      36.409  21.718  24.815  1.00  0.00    -0.094 F 
ATOM     23  F   UNL A   1      38.454  22.346  25.455  1.00  0.00    -0.094 F 
ATOM     24  F   UNL A   1      37.628  24.209  26.311  1.00  0.00    -0.094 F 
ATOM     25  F   UNL A   1      35.583  23.579  25.702  1.00  0.00    -0.094 F 
ENDBRANCH  13  20
ENDBRANCH   4   6
ENDBRANCH   3   4
ENDBRANCH   2   3
ENDBRANCH   1   2
BRANCH   1  26
ATOM     26  O   UNL A   1      33.744  29.583  27.120  1.00  0.00    -0.458 OA
BRANCH  26  27
ATOM     27  C   UNL A   1      34.544  30.436  27.926  1.00  0.00     0.338 C 
ATOM     28  O   UNL A   1      34.060  31.521  28.377  1.00  0.00    -0.246 OA
BRANCH  27  29
ATOM     29  C   UNL A   1      35.979  30.051  28.248  1.00  0.00     0.060 A 
ATOM     30  C   UNL A   1      36.943  30.295  27.284  1.00  0.00     0.016 A 
ATOM     31  C   UNL A   1      36.297  29.511  29.419  1.00  0.00     0.016 A 
ATOM     32  C   UNL A   1      38.182  29.663  27.540  1.00  0.00     0.010 A 
ATOM     33  C   UNL A   1      37.566  29.037  29.648  1.00  0.00     0.010 A 
ATOM     34  C   UNL A   1      38.553  29.191  28.715  1.00  0.00    -0.014 A 
BRANCH  34  35
ATOM     35  C   UNL A   1      40.001  28.836  29.016  1.00  0.00     0.031 A 
ATOM     36  C   UNL A   1      40.815  29.755  29.680  1.00  0.00     0.074 A 
ATOM     37  C   UNL A   1      40.430  27.596  28.578  1.00  0.00     0.049 A 
ATOM     38  N   UNL A   1      42.093  29.603  30.032  1.00  0.00    -0.248 NA
ATOM     39  C   UNL A   1      40.370  31.087  30.117  1.00  0.00     0.031 C 
ATOM     40  C   UNL A   1      39.613  26.660  27.914  1.00  0.00     0.029 A 
ATOM     41  N   UNL A   1      41.689  27.048  28.694  1.00  0.00    -0.354 N 
ATOM     42  C   UNL A   1      42.527  30.693  30.669  1.00  0.00     0.074 A 
ATOM     43  C   UNL A   1      41.427  31.664  30.728  1.00  0.00     0.031 C 
ATOM     44  C   UNL A   1      40.370  25.569  27.624  1.00  0.00     0.029 A 
ATOM     45  C   UNL A   1      41.673  25.805  28.102  1.00  0.00     0.049 A 
ATOM     46  H   UNL A   1      42.466  27.472  29.125  1.00  0.00     0.167 HD
ATOM     47  C   UNL A   1      43.797  30.913  31.206  1.00  0.00     0.037 A 
ATOM     48  C   UNL A   1      42.725  24.911  27.975  1.00  0.00     0.037 A 
ATOM     49  C   UNL A   1      44.837  30.001  31.116  1.00  0.00     0.049 A 
ATOM     50  C   UNL A   1      44.012  25.156  28.460  1.00  0.00     0.074 A 
ATOM     51  C   UNL A   1      46.122  30.204  31.658  1.00  0.00     0.029 A 
ATOM     52  N   UNL A   1      44.828  28.768  30.503  1.00  0.00    -0.354 N 
ATOM     53  N   UNL A   1      44.436  26.228  29.132  1.00  0.00    -0.248 NA
ATOM     54  C   UNL A   1      45.143  24.231  28.303  1.00  0.00     0.031 C 
ATOM     55  C   UNL A   1      46.879  29.113  31.368  1.00  0.00     0.029 A 
ATOM     56  C   UNL A   1      46.081  28.211  30.639  1.00  0.00     0.049 A 
ATOM     57  H   UNL A   1      44.060  28.357  30.047  1.00  0.00     0.167 HD
ATOM     58  C   UNL A   1      45.725  26.093  29.446  1.00  0.00     0.074 A 
ATOM     59  C   UNL A   1      46.201  24.811  28.911  1.00  0.00     0.031 C 
ATOM     60  C   UNL A   1      46.524  26.987  30.162  1.00  0.00     0.037 A 
BRANCH  47  61
ATOM     61  C   UNL A   1      44.053  32.226  31.928  1.00  0.00     0.057 A 
ATOM     62  C   UNL A   1      44.473  33.338  31.218  1.00  0.00     0.134 A 
ATOM     63  C   UNL A   1      43.797  32.295  33.229  1.00  0.00     0.134 A 
ATOM     64  F   UNL A   1      44.496  33.383  29.888  1.00  0.00    -0.206 F 
ATOM     65  C   UNL A   1      44.875  34.421  32.034  1.00  0.00     0.040 A 
ATOM     66  C   UNL A   1      44.091  33.435  33.940  1.00  0.00     0.040 A 
ATOM     67  F   UNL A   1      43.253  31.252  33.850  1.00  0.00    -0.206 F 
ATOM     68  C   UNL A   1      44.564  34.553  33.312  1.00  0.00     0.006 A 
ENDBRANCH  47  61
BRANCH  48  69
ATOM     69  C   UNL A   1      42.464  23.591  27.267  1.00  0.00     0.057 A 
ATOM     70  C   UNL A   1      42.069  22.486  28.003  1.00  0.00     0.134 A 
ATOM     71  C   UNL A   1      42.690  23.505  25.961  1.00  0.00     0.134 A 
ATOM     72  F   UNL A   1      41.592  22.572  29.241  1.00  0.00    -0.206 F 
ATOM     73  C   UNL A   1      42.220  21.258  27.317  1.00  0.00     0.040 A 
ATOM     74  C   UNL A   1      42.688  22.285  25.331  1.00  0.00     0.040 A 
ATOM     75  F   UNL A   1      42.921  24.610  25.259  1.00  0.00    -0.206 F 
ATOM     76  C   UNL A   1      42.365  21.142  26.009  1.00  0.00     0.006 A 
ENDBRANCH  48  69
BRANCH  60  77
ATOM     77  C   UNL A   1      47.967  26.596  30.434  1.00  0.00     0.057 A 
ATOM     78  C   UNL A   1      48.943  26.987  29.533  1.00  0.00     0.134 A 
ATOM     79  C   UNL A   1      48.273  25.892  31.518  1.00  0.00     0.134 A 
ATOM     80  F   UNL A   1      48.731  27.894  28.582  1.00  0.00    -0.206 F 
ATOM     81  C   UNL A   1      50.186  26.337  29.715  1.00  0.00     0.040 A 
ATOM     82  C   UNL A   1      49.544  25.402  31.698  1.00  0.00     0.040 A 
ATOM     83  F   UNL A   1      47.340  25.661  32.438  1.00  0.00    -0.206 F 
ATOM     84  C   UNL A   1      50.544  25.701  30.816  1.00  0.00     0.006 A 
ENDBRANCH  60  77
ENDBRANCH  34  35
ENDBRANCH  27  29
ENDBRANCH  26  27
ENDBRANCH   1  26
TORSDOF 13
ENDMDL
MODEL 2
REMARK VINA RESULT:     -11.7      1.687      6.193
REMARK SMILES O=C(OCCOC(=O)c1ccc(-c2c3nc(c(-c4c(F)cccc4F)c4ccc([nH]4)c(-c4c(F)cccc4F)c4nc(c(-c5c(F)cccc5F)c5ccc2[nH]5)C=C4)C=C3)cc1)C1=Cc2cc(S(F)(F)(F)(F)F)ccc2O[C@H]1C(F)(F)F
REMARK SMILES IDX 5 1 4 2 3 3 2 4 1 5 63 6 64 7 78 8 65 9 77 10 66 11 76 12
REMARK SMILES IDX 67 13 75 14 74 15 79 16 80 17 81 18 82 19 68 20 69 21 70 22
REMARK SMILES IDX 71 23 72 24 73 25 6 26 7 27 8 28 9 29 10 30 62 31 11 32
REMARK SMILES IDX 61 33 12 34 13 35 14 36 55 37 15 38 60 39 54 40 56 41 16 42
REMARK SMILES IDX 59 43 53 44 52 45 17 47 43 48 26 49 42 50 27 51 30 52 41 53
REMARK SMILES IDX 57 54 28 55 29 56 40 58 58 59 31 60 18 61 19 62 24 63 20 64
REMARK SMILES IDX 21 65 23 66 25 67 22 68 44 69 45 70 50 71 46 72 47 73 49 74
REMARK SMILES IDX 51 75 48 76 32 77 33 78 38 79 34 80 35 81 37 82 39 83 36 84
REMARK H PARENT 56 46 30 57
REMARK Flexibility Score: inf
ROOT
ATOM      1  C   UNL A   1      32.151  29.607  26.942  1.00  0.00     0.275 C 
ENDROOT
BRANCH   1   2
ATOM      2  C   UNL A   1      31.967  28.116  27.178  1.00  0.00     0.275 C 
BRANCH   2   3
ATOM      3  O   UNL A   1      32.464  27.396  26.061  1.00  0.00    -0.459 OA
BRANCH   3   4
ATOM      4  C   UNL A   1      31.567  26.692  25.213  1.00  0.00     0.338 C 
ATOM      5  O   UNL A   1      30.415  26.367  25.638  1.00  0.00    -0.246 OA
BRANCH   4   6
ATOM      6  C   UNL A   1      31.987  26.329  23.798  1.00  0.00     0.087 C 
ATOM      7  C   UNL A   1      32.923  25.364  23.593  1.00  0.00     0.027 C 
ATOM      8  C   UNL A   1      31.360  27.044  22.612  1.00  0.00     0.316 C 
ATOM      9  C   UNL A   1      33.550  24.649  24.779  1.00  0.00     0.019 A 
ATOM     10  O   UNL A   1      31.415  24.577  25.819  1.00  0.00    -0.475 OA
ATOM     11  C   UNL A   1      34.921  24.450  24.784  1.00  0.00     0.036 A 
ATOM     12  C   UNL A   1      32.788  24.217  25.777  1.00  0.00     0.128 A 
ATOM     13  C   UNL A   1      35.362  23.523  25.758  1.00  0.00     0.107 A 
ATOM     14  C   UNL A   1      33.316  23.428  26.769  1.00  0.00     0.048 A 
ATOM     15  C   UNL A   1      34.652  23.141  26.804  1.00  0.00     0.028 A 
BRANCH   8  16
ATOM     16  C   UNL A   1      30.353  28.067  23.112  1.00  0.00     0.430 C 
ATOM     17  F   UNL A   1      29.990  28.753  22.031  1.00  0.00    -0.167 F 
ATOM     18  F   UNL A   1      29.273  27.551  23.692  1.00  0.00    -0.167 F 
ATOM     19  F   UNL A   1      30.970  28.879  23.965  1.00  0.00    -0.167 F 
ENDBRANCH   8  16
BRANCH  13  20
ATOM     20  S   UNL A   1      37.014  22.812  25.556  1.00  0.00     0.310 S 
ATOM     21  F   UNL A   1      37.217  23.527  24.155  1.00  0.00    -0.094 F 
ATOM     22  F   UNL A   1      36.369  21.608  24.771  1.00  0.00    -0.094 F 
ATOM     23  F   UNL A   1      38.433  22.202  25.380  1.00  0.00    -0.094 F 
ATOM     24  F   UNL A   1      37.656  24.093  26.220  1.00  0.00    -0.094 F 
ATOM     25  F   UNL A   1      35.592  23.497  25.641  1.00  0.00    -0.094 F 
ENDBRANCH  13  20
ENDBRANCH   4   6
ENDBRANCH   3   4
ENDBRANCH   2   3
ENDBRANCH   1   2
BRANCH   1  26
ATOM     26  O   UNL A   1      33.506  29.870  26.612  1.00  0.00    -0.458 OA
BRANCH  26  27
ATOM     27  C   UNL A   1      34.311  30.651  27.483  1.00  0.00     0.338 C 
ATOM     28  O   UNL A   1      33.928  31.812  27.830  1.00  0.00    -0.246 OA
BRANCH  27  29
ATOM     29  C   UNL A   1      35.630  30.100  28.000  1.00  0.00     0.060 A 
ATOM     30  C   UNL A   1      35.645  29.554  29.273  1.00  0.00     0.016 A 
ATOM     31  C   UNL A   1      36.726  30.130  27.251  1.00  0.00     0.016 A 
ATOM     32  C   UNL A   1      36.944  29.325  29.783  1.00  0.00     0.010 A 
ATOM     33  C   UNL A   1      37.941  29.762  27.775  1.00  0.00     0.010 A 
ATOM     34  C   UNL A   1      38.039  29.271  29.047  1.00  0.00    -0.014 A 
BRANCH  34  35
ATOM     35  C   UNL A   1      39.338  28.692  29.584  1.00  0.00     0.031 A 
ATOM     36  C   UNL A   1      39.920  27.592  28.952  1.00  0.00     0.074 A 
ATOM     37  C   UNL A   1      39.860  29.304  30.710  1.00  0.00     0.049 A 
ATOM     38  N   UNL A   1      41.055  26.972  29.280  1.00  0.00    -0.248 NA
ATOM     39  C   UNL A   1      39.349  26.920  27.775  1.00  0.00     0.031 C 
ATOM     40  C   UNL A   1      39.284  30.419  31.349  1.00  0.00     0.029 A 
ATOM     41  N   UNL A   1      40.998  28.961  31.408  1.00  0.00    -0.354 N 
ATOM     42  C   UNL A   1      41.295  25.972  28.430  1.00  0.00     0.074 A 
ATOM     43  C   UNL A   1      40.200  25.921  27.453  1.00  0.00     0.031 C 
ATOM     44  C   UNL A   1      40.056  30.738  32.421  1.00  0.00     0.029 A 
ATOM     45  C   UNL A   1      41.127  29.826  32.471  1.00  0.00     0.049 A 
ATOM     46  H   UNL A   1      41.611  28.225  31.185  1.00  0.00     0.167 HD
ATOM     47  C   UNL A   1      42.388  25.103  28.428  1.00  0.00     0.037 A 
ATOM     48  C   UNL A   1      42.117  29.836  33.441  1.00  0.00     0.037 A 
ATOM     49  C   UNL A   1      43.401  25.141  29.374  1.00  0.00     0.049 A 
ATOM     50  C   UNL A   1      43.179  28.929  33.475  1.00  0.00     0.074 A 
ATOM     51  C   UNL A   1      44.513  24.276  29.383  1.00  0.00     0.029 A 
ATOM     52  N   UNL A   1      43.517  25.991  30.452  1.00  0.00    -0.354 N 
ATOM     53  N   UNL A   1      43.442  27.955  32.602  1.00  0.00    -0.248 NA
ATOM     54  C   UNL A   1      44.215  28.910  34.516  1.00  0.00     0.031 C 
ATOM     55  C   UNL A   1      45.285  24.595  30.456  1.00  0.00     0.029 A 
ATOM     56  C   UNL A   1      44.667  25.661  31.136  1.00  0.00     0.049 A 
ATOM     57  H   UNL A   1      42.888  26.708  30.691  1.00  0.00     0.167 HD
ATOM     58  C   UNL A   1      44.554  27.309  32.955  1.00  0.00     0.074 A 
ATOM     59  C   UNL A   1      45.064  27.909  34.195  1.00  0.00     0.031 C 
ATOM     60  C   UNL A   1      45.167  26.246  32.290  1.00  0.00     0.037 A 
BRANCH  47  61
ATOM     61  C   UNL A   1      42.472  24.057  27.328  1.00  0.00     0.057 A 
ATOM     62  C   UNL A   1      41.846  22.832  27.488  1.00  0.00     0.134 A 
ATOM     63  C   UNL A   1      43.091  24.373  26.197  1.00  0.00     0.134 A 
ATOM     64  F   UNL A   1      41.008  22.570  28.487  1.00  0.00    -0.206 F 
ATOM     65  C   UNL A   1      42.179  21.884  26.492  1.00  0.00     0.040 A 
ATOM     66  C   UNL A   1      43.263  23.433  25.209  1.00  0.00     0.040 A 
ATOM     67  F   UNL A   1      43.550  25.608  26.020  1.00  0.00    -0.206 F 
ATOM     68  C   UNL A   1      42.722  22.183  25.324  1.00  0.00     0.006 A 
ENDBRANCH  47  61
BRANCH  48  69
ATOM     69  C   UNL A   1      42.042  30.893  34.532  1.00  0.00     0.057 A 
ATOM     70  C   UNL A   1      41.325  30.634  35.688  1.00  0.00     0.134 A 
ATOM     71  C   UNL A   1      42.607  32.076  34.322  1.00  0.00     0.134 A 
ATOM     72  F   UNL A   1      40.961  29.409  36.057  1.00  0.00    -0.206 F 
ATOM     73  C   UNL A   1      41.015  31.791  36.442  1.00  0.00     0.040 A 
ATOM     74  C   UNL A   1      42.368  33.126  35.175  1.00  0.00     0.040 A 
ATOM     75  F   UNL A   1      43.411  32.246  33.277  1.00  0.00    -0.206 F 
ATOM     76  C   UNL A   1      41.620  32.957  36.307  1.00  0.00     0.006 A 
ENDBRANCH  48  69
BRANCH  60  77
ATOM     77  C   UNL A   1      46.461  25.694  32.865  1.00  0.00     0.057 A 
ATOM     78  C   UNL A   1      47.663  26.223  32.425  1.00  0.00     0.134 A 
ATOM     79  C   UNL A   1      46.427  24.724  33.772  1.00  0.00     0.134 A 
ATOM     80  F   UNL A   1      47.746  27.349  31.722  1.00  0.00    -0.206 F 
ATOM     81  C   UNL A   1      48.795  25.458  32.792  1.00  0.00     0.040 A 
ATOM     82  C   UNL A   1      47.585  24.112  34.186  1.00  0.00     0.040 A 
ATOM     83  F   UNL A   1      45.259  24.342  34.283  1.00  0.00    -0.206 F 
ATOM     84  C   UNL A   1      48.805  24.545  33.746  1.00  0.00     0.006 A 
ENDBRANCH  60  77
ENDBRANCH  34  35
ENDBRANCH  27  29
ENDBRANCH  26  27
ENDBRANCH   1  26
TORSDOF 13
ENDMDL
MODEL 3
REMARK VINA RESULT:     -11.7      3.385      7.846
REMARK SMILES O=C(OCCOC(=O)c1ccc(-c2c3nc(c(-c4c(F)cccc4F)c4ccc([nH]4)c(-c4c(F)cccc4F)c4nc(c(-c5c(F)cccc5F)c5ccc2[nH]5)C=C4)C=C3)cc1)C1=Cc2cc(S(F)(F)(F)(F)F)ccc2O[C@H]1C(F)(F)F
REMARK SMILES IDX 5 1 4 2 3 3 2 4 1 5 63 6 64 7 78 8 65 9 77 10 66 11 76 12
REMARK SMILES IDX 67 13 75 14 74 15 79 16 80 17 81 18 82 19 68 20 69 21 70 22
REMARK SMILES IDX 71 23 72 24 73 25 6 26 7 27 8 28 9 29 10 30 62 31 11 32
REMARK SMILES IDX 61 33 12 34 13 35 14 36 55 37 15 38 60 39 54 40 56 41 16 42
REMARK SMILES IDX 59 43 53 44 52 45 17 47 43 48 26 49 42 50 27 51 30 52 41 53
REMARK SMILES IDX 57 54 28 55 29 56 40 58 58 59 31 60 18 61 19 62 24 63 20 64
REMARK SMILES IDX 21 65 23 66 25 67 22 68 44 69 45 70 50 71 46 72 47 73 49 74
REMARK SMILES IDX 51 75 48 76 32 77 33 78 38 79 34 80 35 81 37 82 39 83 36 84
REMARK H PARENT 56 46 30 57
REMARK Flexibility Score: inf
ROOT
ATOM      1  C   UNL A   1      37.264  21.954  24.446  1.00  0.00     0.275 C 
ENDROOT
BRANCH   1   2
ATOM      2  C   UNL A   1      36.253  22.777  23.664  1.00  0.00     0.275 C 
BRANCH   2   3
ATOM      3  O   UNL A   1      35.154  23.100  24.504  1.00  0.00    -0.459 OA
BRANCH   3   4
ATOM      4  C   UNL A   1      33.826  22.934  24.030  1.00  0.00     0.338 C 
ATOM      5  O   UNL A   1      33.611  22.755  22.790  1.00  0.00    -0.246 OA
BRANCH   4   6
ATOM      6  C   UNL A   1      32.661  22.971  25.006  1.00  0.00     0.087 C 
ATOM      7  C   UNL A   1      32.227  24.161  25.502  1.00  0.00     0.027 C 
ATOM      8  C   UNL A   1      31.981  21.678  25.428  1.00  0.00     0.316 C 
ATOM      9  C   UNL A   1      32.908  25.453  25.081  1.00  0.00     0.019 A 
ATOM     10  O   UNL A   1      33.029  24.623  22.858  1.00  0.00    -0.475 OA
ATOM     11  C   UNL A   1      33.203  26.394  26.054  1.00  0.00     0.036 A 
ATOM     12  C   UNL A   1      33.196  25.670  23.803  1.00  0.00     0.128 A 
ATOM     13  C   UNL A   1      33.544  27.666  25.536  1.00  0.00     0.107 A 
ATOM     14  C   UNL A   1      33.656  26.895  23.388  1.00  0.00     0.048 A 
ATOM     15  C   UNL A   1      33.914  27.892  24.288  1.00  0.00     0.028 A 
BRANCH   8  16
ATOM     16  C   UNL A   1      32.652  20.503  24.734  1.00  0.00     0.430 C 
ATOM     17  F   UNL A   1      32.153  19.421  25.326  1.00  0.00    -0.167 F 
ATOM     18  F   UNL A   1      32.437  20.431  23.424  1.00  0.00    -0.167 F 
ATOM     19  F   UNL A   1      33.959  20.572  24.967  1.00  0.00    -0.167 F 
ENDBRANCH   8  16
BRANCH  13  20
ATOM     20  S   UNL A   1      33.471  29.081  26.661  1.00  0.00     0.310 S 
ATOM     21  F   UNL A   1      32.900  28.190  27.842  1.00  0.00    -0.094 F 
ATOM     22  F   UNL A   1      31.979  29.323  26.215  1.00  0.00    -0.094 F 
ATOM     23  F   UNL A   1      33.406  30.296  27.630  1.00  0.00    -0.094 F 
ATOM     24  F   UNL A   1      34.915  28.739  27.199  1.00  0.00    -0.094 F 
ATOM     25  F   UNL A   1      33.510  27.778  25.767  1.00  0.00    -0.094 F 
ENDBRANCH  13  20
ENDBRANCH   4   6
ENDBRANCH   3   4
ENDBRANCH   2   3
ENDBRANCH   1   2
BRANCH   1  26
ATOM     26  O   UNL A   1      37.448  22.528  25.732  1.00  0.00    -0.458 OA
BRANCH  26  27
ATOM     27  C   UNL A   1      38.756  22.669  26.266  1.00  0.00     0.338 C 
ATOM     28  O   UNL A   1      39.525  21.659  26.338  1.00  0.00    -0.246 OA
BRANCH  27  29
ATOM     29  C   UNL A   1      39.237  24.026  26.752  1.00  0.00     0.060 A 
ATOM     30  C   UNL A   1      39.781  24.889  25.815  1.00  0.00     0.016 A 
ATOM     31  C   UNL A   1      39.128  24.376  28.029  1.00  0.00     0.016 A 
ATOM     32  C   UNL A   1      40.453  25.998  26.381  1.00  0.00     0.010 A 
ATOM     33  C   UNL A   1      39.692  25.542  28.485  1.00  0.00     0.010 A 
ATOM     34  C   UNL A   1      40.299  26.413  27.625  1.00  0.00    -0.014 A 
BRANCH  34  35
ATOM     35  C   UNL A   1      40.770  27.786  28.076  1.00  0.00     0.031 A 
ATOM     36  C   UNL A   1      42.136  28.079  28.094  1.00  0.00     0.074 A 
ATOM     37  C   UNL A   1      39.784  28.673  28.470  1.00  0.00     0.049 A 
ATOM     38  N   UNL A   1      42.716  29.227  28.446  1.00  0.00    -0.248 NA
ATOM     39  C   UNL A   1      43.187  27.127  27.707  1.00  0.00     0.031 C 
ATOM     40  C   UNL A   1      38.405  28.389  28.448  1.00  0.00     0.029 A 
ATOM     41  N   UNL A   1      39.941  29.956  28.946  1.00  0.00    -0.354 N 
ATOM     42  C   UNL A   1      44.041  29.131  28.314  1.00  0.00     0.074 A 
ATOM     43  C   UNL A   1      44.363  27.778  27.842  1.00  0.00     0.031 C 
ATOM     44  C   UNL A   1      37.741  29.479  28.914  1.00  0.00     0.029 A 
ATOM     45  C   UNL A   1      38.694  30.464  29.235  1.00  0.00     0.049 A 
ATOM     46  H   UNL A   1      40.797  30.428  29.061  1.00  0.00     0.167 HD
ATOM     47  C   UNL A   1      44.993  30.121  28.566  1.00  0.00     0.037 A 
ATOM     48  C   UNL A   1      38.385  31.712  29.751  1.00  0.00     0.037 A 
ATOM     49  C   UNL A   1      44.680  31.385  29.041  1.00  0.00     0.049 A 
ATOM     50  C   UNL A   1      39.342  32.682  30.060  1.00  0.00     0.074 A 
ATOM     51  C   UNL A   1      45.626  32.397  29.294  1.00  0.00     0.029 A 
ATOM     52  N   UNL A   1      43.435  31.884  29.353  1.00  0.00    -0.354 N 
ATOM     53  N   UNL A   1      40.662  32.602  29.890  1.00  0.00    -0.248 NA
ATOM     54  C   UNL A   1      39.028  33.997  30.636  1.00  0.00     0.031 C 
ATOM     55  C   UNL A   1      44.963  33.488  29.760  1.00  0.00     0.029 A 
ATOM     56  C   UNL A   1      43.591  33.175  29.808  1.00  0.00     0.049 A 
ATOM     57  H   UNL A   1      42.582  31.402  29.266  1.00  0.00     0.167 HD
ATOM     58  C   UNL A   1      41.246  33.735  30.282  1.00  0.00     0.074 A 
ATOM     59  C   UNL A   1      40.205  34.646  30.775  1.00  0.00     0.031 C 
ATOM     60  C   UNL A   1      42.606  34.048  30.245  1.00  0.00     0.037 A 
BRANCH  47  61
ATOM     61  C   UNL A   1      46.455  29.794  28.305  1.00  0.00     0.057 A 
ATOM     62  C   UNL A   1      47.017  30.067  27.069  1.00  0.00     0.134 A 
ATOM     63  C   UNL A   1      47.186  29.313  29.303  1.00  0.00     0.134 A 
ATOM     64  F   UNL A   1      46.396  30.777  26.131  1.00  0.00    -0.206 F 
ATOM     65  C   UNL A   1      48.311  29.523  26.895  1.00  0.00     0.040 A 
ATOM     66  C   UNL A   1      48.488  28.927  29.093  1.00  0.00     0.040 A 
ATOM     67  F   UNL A   1      46.653  29.204  30.517  1.00  0.00    -0.206 F 
ATOM     68  C   UNL A   1      49.090  29.112  27.880  1.00  0.00     0.006 A 
ENDBRANCH  47  61
BRANCH  48  69
ATOM     69  C   UNL A   1      36.922  32.045  29.996  1.00  0.00     0.057 A 
ATOM     70  C   UNL A   1      36.169  32.612  28.981  1.00  0.00     0.134 A 
ATOM     71  C   UNL A   1      36.411  31.850  31.206  1.00  0.00     0.134 A 
ATOM     72  F   UNL A   1      36.543  32.595  27.705  1.00  0.00    -0.206 F 
ATOM     73  C   UNL A   1      34.966  33.211  29.425  1.00  0.00     0.040 A 
ATOM     74  C   UNL A   1      35.172  32.346  31.530  1.00  0.00     0.040 A 
ATOM     75  F   UNL A   1      37.106  31.170  32.113  1.00  0.00    -0.206 F 
ATOM     76  C   UNL A   1      34.396  32.970  30.592  1.00  0.00     0.006 A 
ENDBRANCH  48  69
BRANCH  60  77
ATOM     77  C   UNL A   1      43.034  35.429  30.711  1.00  0.00     0.057 A 
ATOM     78  C   UNL A   1      43.147  36.443  29.774  1.00  0.00     0.134 A 
ATOM     79  C   UNL A   1      43.294  35.648  31.996  1.00  0.00     0.134 A 
ATOM     80  F   UNL A   1      42.662  36.345  28.539  1.00  0.00    -0.206 F 
ATOM     81  C   UNL A   1      43.822  37.592  30.249  1.00  0.00     0.040 A 
ATOM     82  C   UNL A   1      43.827  36.845  32.408  1.00  0.00     0.040 A 
ATOM     83  F   UNL A   1      43.033  34.699  32.891  1.00  0.00    -0.206 F 
ATOM     84  C   UNL A   1      44.019  37.871  31.525  1.00  0.00     0.006 A 
ENDBRANCH  60  77
ENDBRANCH  34  35
ENDBRANCH  27  29
ENDBRANCH  26  27
ENDBRANCH   1  26
TORSDOF 13
ENDMDL
