MODEL 1
REMARK VINA RESULT:     -13.3      0.000      0.000
REMARK SMILES Cc1cccc(CNC(=O)N[C@@H](CC2=c3ccccc3=NC2)C(=O)OCCOC(=O)c2ccc(-c3c4nc(c(-c5c(F)cccc5F)c5ccc([nH]5)c(-c5c(F)cccc5F)c5nc(c(-c6c(F)cccc6F)c6ccc3[nH]6)C=C5)C=C4)cc2)c1
REMARK SMILES IDX 26 1 25 2 23 3 24 4 12 5 11 6 8 7 9 8 10 10 7 12 6 13 1 14
REMARK SMILES IDX 2 15 3 16 85 17 4 18 5 19 13 20 14 21 15 22 22 23 16 24
REMARK SMILES IDX 20 25 21 26 17 27 19 28 18 29 27 30 28 31 29 32 30 33 31 34
REMARK SMILES IDX 32 35 84 36 33 37 83 38 34 39 35 40 36 41 77 42 37 43 82 44
REMARK SMILES IDX 76 45 78 46 38 47 81 48 75 49 74 50 39 52 65 53 48 54 64 55
REMARK SMILES IDX 49 56 52 57 63 58 79 59 50 60 51 61 62 63 80 64 53 65 40 66
REMARK SMILES IDX 41 67 46 68 42 69 43 70 45 71 47 72 44 73 66 74 67 75 72 76
REMARK SMILES IDX 68 77 69 78 71 79 73 80 70 81 54 82 55 83 60 84 56 85 57 86
REMARK SMILES IDX 59 87 61 88 58 89
REMARK H PARENT 8 9 11 11 78 51 52 62
REMARK Flexibility Score: inf
ROOT
ATOM      1  C   UNL A   1      33.652  30.432  27.064  1.00  0.00     0.274 C 
ENDROOT
BRANCH   1   2
ATOM      2  O   UNL A   1      32.542  29.700  27.624  1.00  0.00    -0.461 OA
BRANCH   2   3
ATOM      3  C   UNL A   1      32.327  28.325  27.160  1.00  0.00     0.329 C 
ATOM      4  O   UNL A   1      31.443  27.894  27.970  1.00  0.00    -0.250 OA
BRANCH   3   5
ATOM      5  C   UNL A   1      33.196  27.485  25.339  1.00  0.00     0.198 C 
BRANCH   5   6
ATOM      6  N   UNL A   1      34.034  28.237  24.102  1.00  0.00    -0.324 N 
ATOM      7  N   UNL A   1      32.788  28.916  22.172  1.00  0.00    -0.334 N 
ATOM      8  C   UNL A   1      33.899  28.665  22.851  1.00  0.00     0.315 C 
ATOM      9  H   UNL A   1      33.003  29.154  21.241  1.00  0.00     0.165 HD
ATOM     10  O   UNL A   1      34.960  28.864  22.247  1.00  0.00    -0.249 OA
ATOM     11  H   UNL A   1      34.948  28.435  24.410  1.00  0.00     0.166 HD
BRANCH   7  12
ATOM     12  C   UNL A   1      31.352  28.946  22.378  1.00  0.00     0.153 C 
BRANCH  12  13
ATOM     13  C   UNL A   1      30.738  27.619  22.798  1.00  0.00    -0.028 A 
ATOM     14  C   UNL A   1      31.675  23.899  22.656  1.00  0.00     0.044 C 
ATOM     15  C   UNL A   1      30.967  25.182  22.988  1.00  0.00    -0.051 A 
ATOM     16  C   UNL A   1      29.886  25.154  23.876  1.00  0.00     0.003 A 
ATOM     17  C   UNL A   1      31.394  26.415  22.465  1.00  0.00     0.009 A 
ATOM     18  C   UNL A   1      29.203  26.327  24.184  1.00  0.00     0.001 A 
ATOM     19  C   UNL A   1      29.603  27.542  23.623  1.00  0.00     0.005 A 
ENDBRANCH  12  13
ENDBRANCH   7  12
ENDBRANCH   5   6
BRANCH   5  20
ATOM     20  C   UNL A   1      34.114  25.935  25.002  1.00  0.00     0.070 C 
BRANCH  20  21
ATOM     21  C   UNL A   1      33.897  24.514  25.547  1.00  0.00    -0.037 C 
ATOM     22  C   UNL A   1      32.898  23.877  26.170  1.00  0.00     0.001 A 
ATOM     23  C   UNL A   1      34.931  23.471  25.169  1.00  0.00     0.174 C 
ATOM     24  C   UNL A   1      31.708  24.204  26.886  1.00  0.00     0.010 A 
ATOM     25  C   UNL A   1      33.049  22.518  25.595  1.00  0.00     0.065 A 
ATOM     26  N   UNL A   1      34.197  22.194  25.089  1.00  0.00    -0.280 NA
ATOM     27  C   UNL A   1      30.632  23.403  26.783  1.00  0.00     0.001 A 
ATOM     28  C   UNL A   1      31.811  21.713  25.469  1.00  0.00     0.028 A 
ATOM     29  C   UNL A   1      30.666  22.201  25.972  1.00  0.00     0.002 A 
ENDBRANCH  20  21
ENDBRANCH   5  20
ENDBRANCH   3   5
ENDBRANCH   2   3
ENDBRANCH   1   2
BRANCH   1  30
ATOM     30  C   UNL A   1      34.052  31.570  28.014  1.00  0.00     0.275 C 
BRANCH  30  31
ATOM     31  O   UNL A   1      35.379  32.125  27.785  1.00  0.00    -0.458 OA
BRANCH  31  32
ATOM     32  C   UNL A   1      36.464  31.829  28.553  1.00  0.00     0.338 C 
ATOM     33  O   UNL A   1      37.171  32.661  29.095  1.00  0.00    -0.246 OA
BRANCH  32  34
ATOM     34  C   UNL A   1      36.910  30.431  28.428  1.00  0.00     0.060 A 
ATOM     35  C   UNL A   1      36.830  29.395  29.900  1.00  0.00     0.016 A 
ATOM     36  C   UNL A   1      38.129  30.070  27.177  1.00  0.00     0.016 A 
ATOM     37  C   UNL A   1      38.107  28.151  30.229  1.00  0.00     0.010 A 
ATOM     38  C   UNL A   1      39.402  28.817  27.492  1.00  0.00     0.010 A 
ATOM     39  C   UNL A   1      39.405  27.905  29.040  1.00  0.00    -0.014 A 
BRANCH  39  40
ATOM     40  C   UNL A   1      40.795  27.601  29.390  1.00  0.00     0.031 A 
ATOM     41  C   UNL A   1      41.418  26.461  28.710  1.00  0.00     0.074 A 
ATOM     42  C   UNL A   1      41.530  28.613  29.900  1.00  0.00     0.049 A 
ATOM     43  N   UNL A   1      42.473  26.527  27.971  1.00  0.00    -0.248 NA
ATOM     44  C   UNL A   1      40.787  25.140  28.774  1.00  0.00     0.031 C 
ATOM     45  C   UNL A   1      42.966  28.840  29.816  1.00  0.00     0.029 A 
ATOM     46  N   UNL A   1      41.110  29.639  30.717  1.00  0.00    -0.354 N 
ATOM     47  C   UNL A   1      42.760  25.239  27.582  1.00  0.00     0.074 A 
ATOM     48  C   UNL A   1      41.619  24.432  28.007  1.00  0.00     0.031 C 
ATOM     49  C   UNL A   1      43.323  29.756  30.736  1.00  0.00     0.029 A 
ATOM     50  C   UNL A   1      42.145  30.088  31.523  1.00  0.00     0.049 A 
ATOM     51  H   UNL A   1      40.195  30.006  30.728  1.00  0.00     0.167 HD
ATOM     52  C   UNL A   1      44.011  24.731  27.737  1.00  0.00     0.037 A 
ATOM     53  C   UNL A   1      42.012  29.882  32.865  1.00  0.00     0.037 A 
ATOM     54  C   UNL A   1      44.723  25.357  28.833  1.00  0.00     0.049 A 
ATOM     55  C   UNL A   1      42.790  28.650  33.280  1.00  0.00     0.074 A 
ATOM     56  C   UNL A   1      45.568  26.446  28.941  1.00  0.00     0.029 A 
ATOM     57  N   UNL A   1      44.346  25.017  30.129  1.00  0.00    -0.354 N 
ATOM     58  N   UNL A   1      43.210  27.731  32.448  1.00  0.00    -0.248 NA
ATOM     59  C   UNL A   1      43.234  28.405  34.647  1.00  0.00     0.031 C 
ATOM     60  C   UNL A   1      45.615  26.815  30.317  1.00  0.00     0.029 A 
ATOM     61  C   UNL A   1      44.839  25.925  31.048  1.00  0.00     0.049 A 
ATOM     62  H   UNL A   1      43.801  24.232  30.360  1.00  0.00     0.167 HD
ATOM     63  C   UNL A   1      43.988  26.827  33.110  1.00  0.00     0.074 A 
ATOM     64  C   UNL A   1      43.974  27.294  34.485  1.00  0.00     0.031 C 
ATOM     65  C   UNL A   1      44.590  25.770  32.482  1.00  0.00     0.037 A 
BRANCH  52  66
ATOM     66  C   UNL A   1      44.565  23.953  26.578  1.00  0.00     0.057 A 
ATOM     67  C   UNL A   1      44.262  22.596  26.397  1.00  0.00     0.134 A 
ATOM     68  C   UNL A   1      45.482  24.492  25.644  1.00  0.00     0.134 A 
ATOM     69  F   UNL A   1      43.403  21.963  27.209  1.00  0.00    -0.206 F 
ATOM     70  C   UNL A   1      44.851  21.823  25.386  1.00  0.00     0.040 A 
ATOM     71  C   UNL A   1      46.072  23.731  24.629  1.00  0.00     0.040 A 
ATOM     72  F   UNL A   1      45.852  25.780  25.682  1.00  0.00    -0.206 F 
ATOM     73  C   UNL A   1      45.762  22.386  24.502  1.00  0.00     0.006 A 
ENDBRANCH  52  66
BRANCH  53  74
ATOM     74  C   UNL A   1      40.667  30.336  33.349  1.00  0.00     0.057 A 
ATOM     75  C   UNL A   1      40.460  31.733  33.397  1.00  0.00     0.134 A 
ATOM     76  C   UNL A   1      39.518  29.538  33.325  1.00  0.00     0.134 A 
ATOM     77  F   UNL A   1      41.513  32.564  33.439  1.00  0.00    -0.206 F 
ATOM     78  C   UNL A   1      39.194  32.308  33.255  1.00  0.00     0.040 A 
ATOM     79  C   UNL A   1      38.237  30.108  33.223  1.00  0.00     0.040 A 
ATOM     80  F   UNL A   1      39.611  28.202  33.251  1.00  0.00    -0.206 F 
ATOM     81  C   UNL A   1      38.081  31.490  33.129  1.00  0.00     0.006 A 
ENDBRANCH  53  74
BRANCH  65  82
ATOM     82  C   UNL A   1      45.098  24.548  33.214  1.00  0.00     0.057 A 
ATOM     83  C   UNL A   1      44.404  23.327  33.257  1.00  0.00     0.134 A 
ATOM     84  C   UNL A   1      46.387  24.513  33.788  1.00  0.00     0.134 A 
ATOM     85  F   UNL A   1      43.251  23.145  32.600  1.00  0.00    -0.206 F 
ATOM     86  C   UNL A   1      44.894  22.199  33.925  1.00  0.00     0.040 A 
ATOM     87  C   UNL A   1      46.919  23.370  34.392  1.00  0.00     0.040 A 
ATOM     88  F   UNL A   1      47.206  25.574  33.755  1.00  0.00    -0.206 F 
ATOM     89  C   UNL A   1      46.159  22.216  34.492  1.00  0.00     0.006 A 
ENDBRANCH  65  82
ENDBRANCH  39  40
ENDBRANCH  32  34
ENDBRANCH  31  32
ENDBRANCH  30  31
ENDBRANCH   1  30
TORSDOF 16
ENDMDL
MODEL 2
REMARK VINA RESULT:     -13.3      3.610      8.829
REMARK SMILES Cc1cccc(CNC(=O)N[C@@H](CC2=c3ccccc3=NC2)C(=O)OCCOC(=O)c2ccc(-c3c4nc(c(-c5c(F)cccc5F)c5ccc([nH]5)c(-c5c(F)cccc5F)c5nc(c(-c6c(F)cccc6F)c6ccc3[nH]6)C=C5)C=C4)cc2)c1
REMARK SMILES IDX 26 1 25 2 23 3 24 4 12 5 11 6 8 7 9 8 10 10 7 12 6 13 1 14
REMARK SMILES IDX 2 15 3 16 85 17 4 18 5 19 13 20 14 21 15 22 22 23 16 24
REMARK SMILES IDX 20 25 21 26 17 27 19 28 18 29 27 30 28 31 29 32 30 33 31 34
REMARK SMILES IDX 32 35 84 36 33 37 83 38 34 39 35 40 36 41 77 42 37 43 82 44
REMARK SMILES IDX 76 45 78 46 38 47 81 48 75 49 74 50 39 52 65 53 48 54 64 55
REMARK SMILES IDX 49 56 52 57 63 58 79 59 50 60 51 61 62 63 80 64 53 65 40 66
REMARK SMILES IDX 41 67 46 68 42 69 43 70 45 71 47 72 44 73 66 74 67 75 72 76
REMARK SMILES IDX 68 77 69 78 71 79 73 80 70 81 54 82 55 83 60 84 56 85 57 86
REMARK SMILES IDX 59 87 61 88 58 89
REMARK H PARENT 8 9 11 11 78 51 52 62
REMARK Flexibility Score: inf
ROOT
ATOM      1  C   UNL A   1      37.878  21.973  25.785  1.00  0.00     0.274 C 
ENDROOT
BRANCH   1   2
ATOM      2  O   UNL A   1      37.523  22.002  24.388  1.00  0.00    -0.461 OA
BRANCH   2   3
ATOM      3  C   UNL A   1      36.466  22.930  23.971  1.00  0.00     0.329 C 
ATOM      4  O   UNL A   1      36.642  23.004  22.712  1.00  0.00    -0.250 OA
BRANCH   3   5
ATOM      5  C   UNL A   1      34.894  23.686  25.288  1.00  0.00     0.198 C 
BRANCH   5   6
ATOM      6  N   UNL A   1      34.227  23.007  26.664  1.00  0.00    -0.324 N 
ATOM      7  N   UNL A   1      32.235  21.701  26.401  1.00  0.00    -0.334 N 
ATOM      8  C   UNL A   1      33.150  22.361  27.099  1.00  0.00     0.315 C 
ATOM      9  H   UNL A   1      31.516  21.384  26.994  1.00  0.00     0.165 HD
ATOM     10  O   UNL A   1      32.992  22.370  28.326  1.00  0.00    -0.249 OA
ATOM     11  H   UNL A   1      34.852  23.127  27.414  1.00  0.00     0.166 HD
BRANCH   7  12
ATOM     12  C   UNL A   1      31.968  21.303  25.031  1.00  0.00     0.153 C 
BRANCH  12  13
ATOM     13  C   UNL A   1      31.822  22.455  24.048  1.00  0.00    -0.028 A 
ATOM     14  C   UNL A   1      29.947  25.799  23.869  1.00  0.00     0.044 C 
ATOM     15  C   UNL A   1      30.889  24.672  23.555  1.00  0.00    -0.051 A 
ATOM     16  C   UNL A   1      31.785  24.807  22.490  1.00  0.00     0.003 A 
ATOM     17  C   UNL A   1      30.922  23.502  24.335  1.00  0.00     0.009 A 
ATOM     18  C   UNL A   1      32.653  23.768  22.169  1.00  0.00     0.001 A 
ATOM     19  C   UNL A   1      32.647  22.590  22.919  1.00  0.00     0.005 A 
ENDBRANCH  12  13
ENDBRANCH   7  12
ENDBRANCH   5   6
BRANCH   5  20
ATOM     20  C   UNL A   1      34.520  25.355  25.946  1.00  0.00     0.070 C 
BRANCH  20  21
ATOM     21  C   UNL A   1      33.620  26.466  25.380  1.00  0.00    -0.037 C 
ATOM     22  C   UNL A   1      32.673  27.269  25.880  1.00  0.00     0.001 A 
ATOM     23  C   UNL A   1      33.940  26.961  23.982  1.00  0.00     0.174 C 
ATOM     24  C   UNL A   1      31.829  27.336  27.029  1.00  0.00     0.010 A 
ATOM     25  C   UNL A   1      32.927  28.500  25.092  1.00  0.00     0.065 A 
ATOM     26  N   UNL A   1      33.563  28.386  23.970  1.00  0.00    -0.280 NA
ATOM     27  C   UNL A   1      31.518  28.535  27.553  1.00  0.00     0.001 A 
ATOM     28  C   UNL A   1      32.603  29.786  25.754  1.00  0.00     0.028 A 
ATOM     29  C   UNL A   1      32.009  29.764  26.959  1.00  0.00     0.002 A 
ENDBRANCH  20  21
ENDBRANCH   5  20
ENDBRANCH   3   5
ENDBRANCH   2   3
ENDBRANCH   1   2
BRANCH   1  30
ATOM     30  C   UNL A   1      39.297  21.407  25.945  1.00  0.00     0.275 C 
BRANCH  30  31
ATOM     31  O   UNL A   1      39.920  21.665  27.236  1.00  0.00    -0.458 OA
BRANCH  31  32
ATOM     32  C   UNL A   1      40.730  22.732  27.484  1.00  0.00     0.338 C 
ATOM     33  O   UNL A   1      41.819  22.658  28.025  1.00  0.00    -0.246 OA
BRANCH  32  34
ATOM     34  C   UNL A   1      40.055  24.031  27.327  1.00  0.00     0.060 A 
ATOM     35  C   UNL A   1      40.750  25.196  26.141  1.00  0.00     0.016 A 
ATOM     36  C   UNL A   1      39.153  24.658  28.732  1.00  0.00     0.016 A 
ATOM     37  C   UNL A   1      40.744  26.977  26.478  1.00  0.00     0.010 A 
ATOM     38  C   UNL A   1      39.130  26.441  29.069  1.00  0.00     0.010 A 
ATOM     39  C   UNL A   1      39.970  27.577  27.960  1.00  0.00    -0.014 A 
BRANCH  39  40
ATOM     40  C   UNL A   1      40.472  28.703  28.753  1.00  0.00     0.031 A 
ATOM     41  C   UNL A   1      39.497  29.725  29.148  1.00  0.00     0.074 A 
ATOM     42  C   UNL A   1      41.608  28.497  29.452  1.00  0.00     0.049 A 
ATOM     43  N   UNL A   1      39.216  30.049  30.364  1.00  0.00    -0.248 NA
ATOM     44  C   UNL A   1      38.693  30.401  28.126  1.00  0.00     0.031 C 
ATOM     45  C   UNL A   1      42.046  29.111  30.698  1.00  0.00     0.029 A 
ATOM     46  N   UNL A   1      42.690  27.719  29.103  1.00  0.00    -0.354 N 
ATOM     47  C   UNL A   1      38.310  31.082  30.296  1.00  0.00     0.074 A 
ATOM     48  C   UNL A   1      37.928  31.183  28.890  1.00  0.00     0.031 C 
ATOM     49  C   UNL A   1      43.364  28.887  30.862  1.00  0.00     0.029 A 
ATOM     50  C   UNL A   1      43.856  28.204  29.675  1.00  0.00     0.049 A 
ATOM     51  H   UNL A   1      42.642  26.923  28.524  1.00  0.00     0.167 HD
ATOM     52  C   UNL A   1      38.511  32.226  31.001  1.00  0.00     0.037 A 
ATOM     53  C   UNL A   1      44.802  28.692  28.822  1.00  0.00     0.037 A 
ATOM     54  C   UNL A   1      39.916  32.479  31.243  1.00  0.00     0.049 A 
ATOM     55  C   UNL A   1      44.710  30.203  28.755  1.00  0.00     0.074 A 
ATOM     56  C   UNL A   1      40.797  32.156  32.259  1.00  0.00     0.029 A 
ATOM     57  N   UNL A   1      40.690  32.918  30.173  1.00  0.00    -0.354 N 
ATOM     58  N   UNL A   1      43.671  30.894  29.151  1.00  0.00    -0.248 NA
ATOM     59  C   UNL A   1      45.812  31.055  28.324  1.00  0.00     0.031 C 
ATOM     60  C   UNL A   1      42.117  32.315  31.746  1.00  0.00     0.029 A 
ATOM     61  C   UNL A   1      42.039  32.779  30.439  1.00  0.00     0.049 A 
ATOM     62  H   UNL A   1      40.323  33.282  29.335  1.00  0.00     0.167 HD
ATOM     63  C   UNL A   1      43.950  32.228  29.085  1.00  0.00     0.074 A 
ATOM     64  C   UNL A   1      45.304  32.277  28.561  1.00  0.00     0.031 C 
ATOM     65  C   UNL A   1      43.056  33.190  29.469  1.00  0.00     0.037 A 
BRANCH  52  66
ATOM     66  C   UNL A   1      37.316  32.787  31.719  1.00  0.00     0.057 A 
ATOM     67  C   UNL A   1      36.970  32.356  33.008  1.00  0.00     0.134 A 
ATOM     68  C   UNL A   1      36.419  33.713  31.136  1.00  0.00     0.134 A 
ATOM     69  F   UNL A   1      37.736  31.484  33.678  1.00  0.00    -0.206 F 
ATOM     70  C   UNL A   1      35.802  32.787  33.655  1.00  0.00     0.040 A 
ATOM     71  C   UNL A   1      35.254  34.152  31.773  1.00  0.00     0.040 A 
ATOM     72  F   UNL A   1      36.630  34.226  29.915  1.00  0.00    -0.206 F 
ATOM     73  C   UNL A   1      34.937  33.682  33.038  1.00  0.00     0.006 A 
ENDBRANCH  52  66
BRANCH  53  74
ATOM     74  C   UNL A   1      45.067  27.728  27.704  1.00  0.00     0.057 A 
ATOM     75  C   UNL A   1      44.541  28.079  26.440  1.00  0.00     0.134 A 
ATOM     76  C   UNL A   1      46.109  26.796  27.706  1.00  0.00     0.134 A 
ATOM     77  F   UNL A   1      43.527  28.955  26.357  1.00  0.00    -0.206 F 
ATOM     78  C   UNL A   1      45.129  27.665  25.242  1.00  0.00     0.040 A 
ATOM     79  C   UNL A   1      46.682  26.340  26.505  1.00  0.00     0.040 A 
ATOM     80  F   UNL A   1      46.693  26.420  28.853  1.00  0.00    -0.206 F 
ATOM     81  C   UNL A   1      46.230  26.820  25.276  1.00  0.00     0.006 A 
ENDBRANCH  53  74
BRANCH  65  82
ATOM     82  C   UNL A   1      43.152  34.636  29.036  1.00  0.00     0.057 A 
ATOM     83  C   UNL A   1      43.336  35.702  29.933  1.00  0.00     0.134 A 
ATOM     84  C   UNL A   1      43.208  34.997  27.673  1.00  0.00     0.134 A 
ATOM     85  F   UNL A   1      43.490  35.502  31.248  1.00  0.00    -0.206 F 
ATOM     86  C   UNL A   1      43.439  37.035  29.516  1.00  0.00     0.040 A 
ATOM     87  C   UNL A   1      43.386  36.315  27.242  1.00  0.00     0.040 A 
ATOM     88  F   UNL A   1      43.131  34.083  26.695  1.00  0.00    -0.206 F 
ATOM     89  C   UNL A   1      43.469  37.345  28.166  1.00  0.00     0.006 A 
ENDBRANCH  65  82
ENDBRANCH  39  40
ENDBRANCH  32  34
ENDBRANCH  31  32
ENDBRANCH  30  31
ENDBRANCH   1  30
TORSDOF 16
ENDMDL
MODEL 3
REMARK VINA RESULT:     -13.1      1.067      2.195
REMARK SMILES Cc1cccc(CNC(=O)N[C@@H](CC2=c3ccccc3=NC2)C(=O)OCCOC(=O)c2ccc(-c3c4nc(c(-c5c(F)cccc5F)c5ccc([nH]5)c(-c5c(F)cccc5F)c5nc(c(-c6c(F)cccc6F)c6ccc3[nH]6)C=C5)C=C4)cc2)c1
REMARK SMILES IDX 26 1 25 2 23 3 24 4 12 5 11 6 8 7 9 8 10 10 7 12 6 13 1 14
REMARK SMILES IDX 2 15 3 16 85 17 4 18 5 19 13 20 14 21 15 22 22 23 16 24
REMARK SMILES IDX 20 25 21 26 17 27 19 28 18 29 27 30 28 31 29 32 30 33 31 34
REMARK SMILES IDX 32 35 84 36 33 37 83 38 34 39 35 40 36 41 77 42 37 43 82 44
REMARK SMILES IDX 76 45 78 46 38 47 81 48 75 49 74 50 39 52 65 53 48 54 64 55
REMARK SMILES IDX 49 56 52 57 63 58 79 59 50 60 51 61 62 63 80 64 53 65 40 66
REMARK SMILES IDX 41 67 46 68 42 69 43 70 45 71 47 72 44 73 66 74 67 75 72 76
REMARK SMILES IDX 68 77 69 78 71 79 73 80 70 81 54 82 55 83 60 84 56 85 57 86
REMARK SMILES IDX 59 87 61 88 58 89
REMARK H PARENT 8 9 11 11 78 51 52 62
REMARK Flexibility Score: inf
ROOT
ATOM      1  C   UNL A   1      33.623  30.372  27.017  1.00  0.00     0.274 C 
ENDROOT
BRANCH   1   2
ATOM      2  O   UNL A   1      32.421  29.764  27.532  1.00  0.00    -0.461 OA
BRANCH   2   3
ATOM      3  C   UNL A   1      32.158  28.365  27.178  1.00  0.00     0.329 C 
ATOM      4  O   UNL A   1      31.237  28.041  27.996  1.00  0.00    -0.250 OA
BRANCH   3   5
ATOM      5  C   UNL A   1      33.032  27.339  25.457  1.00  0.00     0.198 C 
BRANCH   5   6
ATOM      6  N   UNL A   1      33.492  27.943  23.966  1.00  0.00    -0.324 N 
ATOM      7  N   UNL A   1      31.926  27.755  22.163  1.00  0.00    -0.334 N 
ATOM      8  C   UNL A   1      33.121  27.986  22.691  1.00  0.00     0.315 C 
ATOM      9  H   UNL A   1      31.973  27.796  21.180  1.00  0.00     0.165 HD
ATOM     10  O   UNL A   1      34.014  28.295  21.894  1.00  0.00    -0.249 OA
ATOM     11  H   UNL A   1      34.333  28.445  24.071  1.00  0.00     0.166 HD
BRANCH   7  12
ATOM     12  C   UNL A   1      30.570  27.461  22.588  1.00  0.00     0.153 C 
BRANCH  12  13
ATOM     13  C   UNL A   1      29.750  28.675  22.997  1.00  0.00    -0.028 A 
ATOM     14  C   UNL A   1      30.277  31.888  25.030  1.00  0.00     0.044 C 
ATOM     15  C   UNL A   1      29.671  30.856  24.123  1.00  0.00    -0.051 A 
ATOM     16  C   UNL A   1      28.459  31.137  23.482  1.00  0.00     0.003 A 
ATOM     17  C   UNL A   1      30.314  29.632  23.867  1.00  0.00     0.009 A 
ATOM     18  C   UNL A   1      27.870  30.188  22.652  1.00  0.00     0.001 A 
ATOM     19  C   UNL A   1      28.492  28.956  22.440  1.00  0.00     0.005 A 
ENDBRANCH  12  13
ENDBRANCH   7  12
ENDBRANCH   5   6
BRANCH   5  20
ATOM     20  C   UNL A   1      34.307  26.031  25.307  1.00  0.00     0.070 C 
BRANCH  20  21
ATOM     21  C   UNL A   1      34.159  24.501  25.269  1.00  0.00    -0.037 C 
ATOM     22  C   UNL A   1      34.804  23.498  24.662  1.00  0.00     0.001 A 
ATOM     23  C   UNL A   1      33.199  23.882  26.268  1.00  0.00     0.174 C 
ATOM     24  C   UNL A   1      35.710  23.316  23.575  1.00  0.00     0.010 A 
ATOM     25  C   UNL A   1      34.700  22.447  25.703  1.00  0.00     0.065 A 
ATOM     26  N   UNL A   1      33.763  22.558  26.591  1.00  0.00    -0.280 NA
ATOM     27  C   UNL A   1      36.656  22.363  23.652  1.00  0.00     0.001 A 
ATOM     28  C   UNL A   1      35.804  21.459  25.757  1.00  0.00     0.028 A 
ATOM     29  C   UNL A   1      36.759  21.502  24.814  1.00  0.00     0.002 A 
ENDBRANCH  20  21
ENDBRANCH   5  20
ENDBRANCH   3   5
ENDBRANCH   2   3
ENDBRANCH   1   2
BRANCH   1  30
ATOM     30  C   UNL A   1      34.046  31.534  27.928  1.00  0.00     0.275 C 
BRANCH  30  31
ATOM     31  O   UNL A   1      35.382  32.057  27.677  1.00  0.00    -0.458 OA
BRANCH  31  32
ATOM     32  C   UNL A   1      36.467  31.755  28.443  1.00  0.00     0.338 C 
ATOM     33  O   UNL A   1      37.184  32.583  28.977  1.00  0.00    -0.246 OA
BRANCH  32  34
ATOM     34  C   UNL A   1      36.898  30.352  28.325  1.00  0.00     0.060 A 
ATOM     35  C   UNL A   1      36.820  29.327  29.805  1.00  0.00     0.016 A 
ATOM     36  C   UNL A   1      38.103  29.970  27.067  1.00  0.00     0.016 A 
ATOM     37  C   UNL A   1      38.089  28.074  30.133  1.00  0.00     0.010 A 
ATOM     38  C   UNL A   1      39.367  28.707  27.381  1.00  0.00     0.010 A 
ATOM     39  C   UNL A   1      39.374  27.807  28.935  1.00  0.00    -0.014 A 
BRANCH  39  40
ATOM     40  C   UNL A   1      40.764  27.492  29.277  1.00  0.00     0.031 A 
ATOM     41  C   UNL A   1      41.357  26.316  28.631  1.00  0.00     0.074 A 
ATOM     42  C   UNL A   1      41.523  28.508  29.737  1.00  0.00     0.049 A 
ATOM     43  N   UNL A   1      42.401  26.336  27.874  1.00  0.00    -0.248 NA
ATOM     44  C   UNL A   1      40.705  25.010  28.753  1.00  0.00     0.031 C 
ATOM     45  C   UNL A   1      42.962  28.707  29.624  1.00  0.00     0.029 A 
ATOM     46  N   UNL A   1      41.133  29.572  30.522  1.00  0.00    -0.354 N 
ATOM     47  C   UNL A   1      42.661  25.030  27.530  1.00  0.00     0.074 A 
ATOM     48  C   UNL A   1      41.513  24.259  28.001  1.00  0.00     0.031 C 
ATOM     49  C   UNL A   1      43.348  29.651  30.504  1.00  0.00     0.029 A 
ATOM     50  C   UNL A   1      42.187  30.032  31.295  1.00  0.00     0.049 A 
ATOM     51  H   UNL A   1      40.225  29.954  30.532  1.00  0.00     0.167 HD
ATOM     52  C   UNL A   1      43.905  24.507  27.686  1.00  0.00     0.037 A 
ATOM     53  C   UNL A   1      42.071  29.879  32.646  1.00  0.00     0.037 A 
ATOM     54  C   UNL A   1      44.644  25.161  28.747  1.00  0.00     0.049 A 
ATOM     55  C   UNL A   1      42.835  28.650  33.096  1.00  0.00     0.074 A 
ATOM     56  C   UNL A   1      45.509  26.237  28.802  1.00  0.00     0.029 A 
ATOM     57  N   UNL A   1      44.282  24.876  30.060  1.00  0.00    -0.354 N 
ATOM     58  N   UNL A   1      43.226  27.693  32.292  1.00  0.00    -0.248 NA
ATOM     59  C   UNL A   1      43.295  28.448  34.464  1.00  0.00     0.031 C 
ATOM     60  C   UNL A   1      45.584  26.656  30.162  1.00  0.00     0.029 A 
ATOM     61  C   UNL A   1      44.804  25.808  30.937  1.00  0.00     0.049 A 
ATOM     62  H   UNL A   1      43.727  24.109  30.329  1.00  0.00     0.167 HD
ATOM     63  C   UNL A   1      43.999  26.801  32.976  1.00  0.00     0.074 A 
ATOM     64  C   UNL A   1      44.014  27.319  34.333  1.00  0.00     0.031 C 
ATOM     65  C   UNL A   1      44.574  25.712  32.380  1.00  0.00     0.037 A 
BRANCH  52  66
ATOM     66  C   UNL A   1      44.429  23.676  26.549  1.00  0.00     0.057 A 
ATOM     67  C   UNL A   1      45.287  24.219  25.582  1.00  0.00     0.134 A 
ATOM     68  C   UNL A   1      44.043  22.333  26.321  1.00  0.00     0.134 A 
ATOM     69  F   UNL A   1      45.734  25.479  25.680  1.00  0.00    -0.206 F 
ATOM     70  C   UNL A   1      45.704  23.495  24.455  1.00  0.00     0.040 A 
ATOM     71  C   UNL A   1      44.456  21.600  25.204  1.00  0.00     0.040 A 
ATOM     72  F   UNL A   1      43.240  21.677  27.171  1.00  0.00    -0.206 F 
ATOM     73  C   UNL A   1      45.285  22.184  24.259  1.00  0.00     0.006 A 
ENDBRANCH  52  66
BRANCH  53  74
ATOM     74  C   UNL A   1      40.742  30.374  33.131  1.00  0.00     0.057 A 
ATOM     75  C   UNL A   1      40.563  31.775  33.142  1.00  0.00     0.134 A 
ATOM     76  C   UNL A   1      39.577  29.599  33.144  1.00  0.00     0.134 A 
ATOM     77  F   UNL A   1      41.634  32.585  33.149  1.00  0.00    -0.206 F 
ATOM     78  C   UNL A   1      39.308  32.372  32.998  1.00  0.00     0.040 A 
ATOM     79  C   UNL A   1      38.306  30.192  33.040  1.00  0.00     0.040 A 
ATOM     80  F   UNL A   1      39.642  28.260  33.107  1.00  0.00    -0.206 F 
ATOM     81  C   UNL A   1      38.177  31.574  32.908  1.00  0.00     0.006 A 
ENDBRANCH  53  74
BRANCH  65  82
ATOM     82  C   UNL A   1      45.072  24.508  33.150  1.00  0.00     0.057 A 
ATOM     83  C   UNL A   1      44.388  23.282  33.198  1.00  0.00     0.134 A 
ATOM     84  C   UNL A   1      46.345  24.497  33.760  1.00  0.00     0.134 A 
ATOM     85  F   UNL A   1      43.255  23.076  32.513  1.00  0.00    -0.206 F 
ATOM     86  C   UNL A   1      44.869  22.172  33.901  1.00  0.00     0.040 A 
ATOM     87  C   UNL A   1      46.870  23.371  34.401  1.00  0.00     0.040 A 
ATOM     88  F   UNL A   1      47.155  25.565  33.728  1.00  0.00    -0.206 F 
ATOM     89  C   UNL A   1      46.118  22.212  34.502  1.00  0.00     0.006 A 
ENDBRANCH  65  82
ENDBRANCH  39  40
ENDBRANCH  32  34
ENDBRANCH  31  32
ENDBRANCH  30  31
ENDBRANCH   1  30
TORSDOF 16
ENDMDL
