MODEL 1
REMARK VINA RESULT:     -12.9      0.000      0.000
REMARK SMILES O=C1NC(=S)S/C1=C\c1ccc(OCc2cn(-c3ccc(C(=O)OCCOC(=O)c4ccc(-c5c6nc(c(-c7c(F)cccc7F)c7ccc([nH]7)c(-c7c(F)cccc7F)c7nc(c(-c8c(F)cccc8F)c8ccc5[nH]8)C=C7)C=C6)cc4)cc3)nn2)cc1
REMARK SMILES IDX 24 1 22 2 23 3 21 4 18 5 19 6 85 7 20 8 84 9 17 10 15 11
REMARK SMILES IDX 16 12 87 13 86 14 14 15 13 16 12 17 9 18 10 19 89 20 11 21
REMARK SMILES IDX 88 22 8 23 1 24 2 25 3 26 7 27 4 28 6 30 5 31 25 32 26 33
REMARK SMILES IDX 27 34 28 35 29 36 30 37 31 38 83 39 32 40 82 41 33 42 34 43
REMARK SMILES IDX 35 44 76 45 36 46 81 47 75 48 77 49 37 50 80 51 74 52 73 53
REMARK SMILES IDX 38 55 64 56 47 57 63 58 48 59 51 60 62 61 78 62 49 63 50 64
REMARK SMILES IDX 61 66 79 67 52 68 39 69 40 70 45 71 41 72 42 73 44 74 46 75
REMARK SMILES IDX 43 76 65 77 66 78 71 79 67 80 68 81 70 82 72 83 69 84 53 85
REMARK SMILES IDX 54 86 59 87 55 88 56 89 58 90 60 91 57 92
REMARK H PARENT 3 29 77 54 51 65
REMARK Flexibility Score: inf
ROOT
ATOM      1  O   UNL A   1      42.487  19.032  25.354  1.00  0.00    -0.458 OA
ENDROOT
BRANCH   1   2
ATOM      2  C   UNL A   1      41.914  19.339  26.543  1.00  0.00     0.338 C 
ATOM      3  O   UNL A   1      42.323  19.020  27.652  1.00  0.00    -0.246 OA
BRANCH   2   4
ATOM      4  C   UNL A   1      40.746  20.225  26.338  1.00  0.00     0.060 A 
ATOM      5  C   UNL A   1      38.558  21.859  25.765  1.00  0.00     0.066 A 
ATOM      6  C   UNL A   1      38.523  20.499  25.423  1.00  0.00     0.029 A 
ATOM      7  C   UNL A   1      39.654  22.383  26.463  1.00  0.00     0.029 A 
ATOM      8  C   UNL A   1      39.628  19.693  25.686  1.00  0.00     0.018 A 
ATOM      9  C   UNL A   1      40.741  21.558  26.765  1.00  0.00     0.018 A 
BRANCH   5  10
ATOM     10  N   UNL A   1      37.510  22.699  25.325  1.00  0.00    -0.220 N 
ATOM     11  C   UNL A   1      35.745  23.525  24.340  1.00  0.00     0.120 A 
ATOM     12  C   UNL A   1      36.749  22.592  24.182  1.00  0.00     0.144 A 
ATOM     13  N   UNL A   1      35.945  24.182  25.524  1.00  0.00    -0.131 NA
ATOM     14  N   UNL A   1      37.014  23.679  26.111  1.00  0.00    -0.062 NA
BRANCH  11  15
ATOM     15  C   UNL A   1      34.527  23.794  23.519  1.00  0.00     0.289 C 
BRANCH  15  16
ATOM     16  O   UNL A   1      34.252  25.181  23.266  1.00  0.00    -0.487 OA
BRANCH  16  17
ATOM     17  C   UNL A   1      32.993  25.647  23.532  1.00  0.00     0.119 A 
ATOM     18  C   UNL A   1      30.339  26.553  23.682  1.00  0.00    -0.024 A 
ATOM     19  C   UNL A   1      30.630  25.333  23.066  1.00  0.00     0.012 A 
ATOM     20  C   UNL A   1      31.368  27.266  24.302  1.00  0.00     0.012 A 
ATOM     21  C   UNL A   1      31.954  24.887  22.992  1.00  0.00     0.047 A 
ATOM     22  C   UNL A   1      32.684  26.802  24.248  1.00  0.00     0.047 A 
BRANCH  18  23
ATOM     23  C   UNL A   1      28.981  27.098  23.667  1.00  0.00     0.029 C 
ATOM     24  O   UNL A   1      26.313  28.262  23.736  1.00  0.00    -0.268 OA
ATOM     25  C   UNL A   1      27.244  28.782  23.143  1.00  0.00     0.263 C 
ATOM     26  N   UNL A   1      27.173  29.966  22.465  1.00  0.00    -0.307 N 
ATOM     27  C   UNL A   1      28.627  28.239  23.059  1.00  0.00     0.080 C 
ATOM     28  C   UNL A   1      28.297  30.423  21.849  1.00  0.00     0.145 C 
ATOM     29  H   UNL A   1      26.331  30.475  22.423  1.00  0.00     0.171 HD
ATOM     30  S   UNL A   1      29.611  29.302  22.115  1.00  0.00    -0.055 SA
ATOM     31  S   UNL A   1      28.360  31.834  20.986  1.00  0.00    -0.052 S 
ENDBRANCH  18  23
ENDBRANCH  16  17
ENDBRANCH  15  16
ENDBRANCH  11  15
ENDBRANCH   5  10
ENDBRANCH   2   4
ENDBRANCH   1   2
BRANCH   1  32
ATOM     32  C   UNL A   1      43.892  18.747  25.410  1.00  0.00     0.275 C 
BRANCH  32  33
ATOM     33  C   UNL A   1      44.601  19.238  24.157  1.00  0.00     0.275 C 
BRANCH  33  34
ATOM     34  O   UNL A   1      44.462  20.647  23.972  1.00  0.00    -0.458 OA
BRANCH  34  35
ATOM     35  C   UNL A   1      45.462  21.389  24.503  1.00  0.00     0.338 C 
ATOM     36  O   UNL A   1      46.654  21.134  24.508  1.00  0.00    -0.246 OA
BRANCH  35  37
ATOM     37  C   UNL A   1      44.879  22.446  25.334  1.00  0.00     0.060 A 
ATOM     38  C   UNL A   1      44.007  23.357  24.730  1.00  0.00     0.016 A 
ATOM     39  C   UNL A   1      45.411  22.672  26.613  1.00  0.00     0.016 A 
ATOM     40  C   UNL A   1      43.748  24.552  25.373  1.00  0.00     0.010 A 
ATOM     41  C   UNL A   1      45.172  23.872  27.239  1.00  0.00     0.010 A 
ATOM     42  C   UNL A   1      44.382  24.819  26.594  1.00  0.00    -0.014 A 
BRANCH  42  43
ATOM     43  C   UNL A   1      44.057  26.051  27.288  1.00  0.00     0.031 A 
ATOM     44  C   UNL A   1      45.005  27.149  26.977  1.00  0.00     0.074 A 
ATOM     45  C   UNL A   1      42.915  26.220  27.983  1.00  0.00     0.049 A 
ATOM     46  N   UNL A   1      45.782  27.779  27.791  1.00  0.00    -0.248 NA
ATOM     47  C   UNL A   1      45.225  27.485  25.558  1.00  0.00     0.031 C 
ATOM     48  C   UNL A   1      41.779  25.300  28.072  1.00  0.00     0.029 A 
ATOM     49  N   UNL A   1      42.478  27.314  28.667  1.00  0.00    -0.354 N 
ATOM     50  C   UNL A   1      46.438  28.733  27.019  1.00  0.00     0.074 A 
ATOM     51  C   UNL A   1      46.207  28.379  25.646  1.00  0.00     0.031 C 
ATOM     52  C   UNL A   1      40.709  25.961  28.571  1.00  0.00     0.029 A 
ATOM     53  C   UNL A   1      41.116  27.307  28.943  1.00  0.00     0.049 A 
ATOM     54  H   UNL A   1      43.075  28.046  28.942  1.00  0.00     0.167 HD
ATOM     55  C   UNL A   1      46.875  29.894  27.574  1.00  0.00     0.037 A 
ATOM     56  C   UNL A   1      40.373  28.359  29.376  1.00  0.00     0.037 A 
ATOM     57  C   UNL A   1      46.997  29.766  29.005  1.00  0.00     0.049 A 
ATOM     58  C   UNL A   1      41.307  29.386  29.899  1.00  0.00     0.074 A 
ATOM     59  C   UNL A   1      47.707  28.939  29.854  1.00  0.00     0.029 A 
ATOM     60  N   UNL A   1      46.021  30.347  29.776  1.00  0.00    -0.354 N 
ATOM     61  N   UNL A   1      41.987  29.265  31.003  1.00  0.00    -0.248 NA
ATOM     62  C   UNL A   1      41.806  30.385  28.967  1.00  0.00     0.031 C 
ATOM     63  C   UNL A   1      46.842  28.714  30.965  1.00  0.00     0.029 A 
ATOM     64  C   UNL A   1      45.682  29.463  30.764  1.00  0.00     0.049 A 
ATOM     65  H   UNL A   1      45.634  31.242  29.642  1.00  0.00     0.167 HD
ATOM     66  C   UNL A   1      43.224  29.820  30.712  1.00  0.00     0.074 A 
ATOM     67  C   UNL A   1      43.016  30.594  29.491  1.00  0.00     0.031 C 
ATOM     68  C   UNL A   1      44.354  29.360  31.322  1.00  0.00     0.037 A 
BRANCH  55  69
ATOM     69  C   UNL A   1      46.761  31.240  26.893  1.00  0.00     0.057 A 
ATOM     70  C   UNL A   1      47.883  32.089  26.887  1.00  0.00     0.134 A 
ATOM     71  C   UNL A   1      45.545  31.861  26.538  1.00  0.00     0.134 A 
ATOM     72  F   UNL A   1      49.100  31.625  27.210  1.00  0.00    -0.206 F 
ATOM     73  C   UNL A   1      47.783  33.465  26.653  1.00  0.00     0.040 A 
ATOM     74  C   UNL A   1      45.444  33.224  26.250  1.00  0.00     0.040 A 
ATOM     75  F   UNL A   1      44.371  31.221  26.546  1.00  0.00    -0.206 F 
ATOM     76  C   UNL A   1      46.558  34.040  26.345  1.00  0.00     0.006 A 
ENDBRANCH  55  69
BRANCH  56  77
ATOM     77  C   UNL A   1      38.945  28.674  29.132  1.00  0.00     0.057 A 
ATOM     78  C   UNL A   1      38.019  28.684  30.187  1.00  0.00     0.134 A 
ATOM     79  C   UNL A   1      38.507  29.243  27.925  1.00  0.00     0.134 A 
ATOM     80  F   UNL A   1      38.351  28.197  31.391  1.00  0.00    -0.206 F 
ATOM     81  C   UNL A   1      36.748  29.260  30.059  1.00  0.00     0.040 A 
ATOM     82  C   UNL A   1      37.237  29.812  27.782  1.00  0.00     0.040 A 
ATOM     83  F   UNL A   1      39.328  29.352  26.870  1.00  0.00    -0.206 F 
ATOM     84  C   UNL A   1      36.358  29.839  28.856  1.00  0.00     0.006 A 
ENDBRANCH  56  77
BRANCH  68  85
ATOM     85  C   UNL A   1      44.194  28.490  32.537  1.00  0.00     0.057 A 
ATOM     86  C   UNL A   1      44.038  28.970  33.846  1.00  0.00     0.134 A 
ATOM     87  C   UNL A   1      44.067  27.110  32.348  1.00  0.00     0.134 A 
ATOM     88  F   UNL A   1      44.045  30.283  34.114  1.00  0.00    -0.206 F 
ATOM     89  C   UNL A   1      43.817  28.105  34.922  1.00  0.00     0.040 A 
ATOM     90  C   UNL A   1      43.808  26.240  33.409  1.00  0.00     0.040 A 
ATOM     91  F   UNL A   1      44.153  26.584  31.116  1.00  0.00    -0.206 F 
ATOM     92  C   UNL A   1      43.695  26.737  34.705  1.00  0.00     0.006 A 
ENDBRANCH  68  85
ENDBRANCH  42  43
ENDBRANCH  35  37
ENDBRANCH  34  35
ENDBRANCH  33  34
ENDBRANCH  32  33
ENDBRANCH   1  32
TORSDOF 16
ENDMDL
MODEL 2
REMARK VINA RESULT:     -12.3      4.915     10.349
REMARK SMILES O=C1NC(=S)S/C1=C\c1ccc(OCc2cn(-c3ccc(C(=O)OCCOC(=O)c4ccc(-c5c6nc(c(-c7c(F)cccc7F)c7ccc([nH]7)c(-c7c(F)cccc7F)c7nc(c(-c8c(F)cccc8F)c8ccc5[nH]8)C=C7)C=C6)cc4)cc3)nn2)cc1
REMARK SMILES IDX 24 1 22 2 23 3 21 4 18 5 19 6 85 7 20 8 84 9 17 10 15 11
REMARK SMILES IDX 16 12 87 13 86 14 14 15 13 16 12 17 9 18 10 19 89 20 11 21
REMARK SMILES IDX 88 22 8 23 1 24 2 25 3 26 7 27 4 28 6 30 5 31 25 32 26 33
REMARK SMILES IDX 27 34 28 35 29 36 30 37 31 38 83 39 32 40 82 41 33 42 34 43
REMARK SMILES IDX 35 44 76 45 36 46 81 47 75 48 77 49 37 50 80 51 74 52 73 53
REMARK SMILES IDX 38 55 64 56 47 57 63 58 48 59 51 60 62 61 78 62 49 63 50 64
REMARK SMILES IDX 61 66 79 67 52 68 39 69 40 70 45 71 41 72 42 73 44 74 46 75
REMARK SMILES IDX 43 76 65 77 66 78 71 79 67 80 68 81 70 82 72 83 69 84 53 85
REMARK SMILES IDX 54 86 59 87 55 88 56 89 58 90 60 91 57 92
REMARK H PARENT 3 29 77 54 51 65
REMARK Flexibility Score: inf
ROOT
ATOM      1  O   UNL A   1      32.616  35.050  29.407  1.00  0.00    -0.458 OA
ENDROOT
BRANCH   1   2
ATOM      2  C   UNL A   1      33.645  34.865  28.545  1.00  0.00     0.338 C 
ATOM      3  O   UNL A   1      34.498  35.689  28.242  1.00  0.00    -0.246 OA
BRANCH   2   4
ATOM      4  C   UNL A   1      33.674  33.462  28.072  1.00  0.00     0.060 A 
ATOM      5  C   UNL A   1      33.584  30.784  27.297  1.00  0.00     0.066 A 
ATOM      6  C   UNL A   1      32.459  31.601  27.116  1.00  0.00     0.029 A 
ATOM      7  C   UNL A   1      34.778  31.325  27.793  1.00  0.00     0.029 A 
ATOM      8  C   UNL A   1      32.499  32.931  27.529  1.00  0.00     0.018 A 
ATOM      9  C   UNL A   1      34.826  32.672  28.163  1.00  0.00     0.018 A 
BRANCH   5  10
ATOM     10  N   UNL A   1      33.466  29.398  27.047  1.00  0.00    -0.220 N 
ATOM     11  C   UNL A   1      32.718  27.386  26.645  1.00  0.00     0.120 A 
ATOM     12  C   UNL A   1      32.371  28.583  27.237  1.00  0.00     0.144 A 
ATOM     13  N   UNL A   1      33.994  27.493  26.162  1.00  0.00    -0.131 NA
ATOM     14  N   UNL A   1      34.439  28.710  26.411  1.00  0.00    -0.062 NA
BRANCH  11  15
ATOM     15  C   UNL A   1      31.910  26.157  26.388  1.00  0.00     0.289 C 
BRANCH  15  16
ATOM     16  O   UNL A   1      32.605  24.914  26.581  1.00  0.00    -0.487 OA
BRANCH  16  17
ATOM     17  C   UNL A   1      32.504  23.961  25.605  1.00  0.00     0.119 A 
ATOM     18  C   UNL A   1      32.260  21.737  23.907  1.00  0.00    -0.024 A 
ATOM     19  C   UNL A   1      31.323  21.951  24.922  1.00  0.00     0.012 A 
ATOM     20  C   UNL A   1      33.258  22.689  23.690  1.00  0.00     0.012 A 
ATOM     21  C   UNL A   1      31.450  23.059  25.766  1.00  0.00     0.047 A 
ATOM     22  C   UNL A   1      33.364  23.807  24.520  1.00  0.00     0.047 A 
BRANCH  18  23
ATOM     23  C   UNL A   1      32.218  20.524  23.089  1.00  0.00     0.029 C 
ATOM     24  O   UNL A   1      32.266  18.119  21.449  1.00  0.00    -0.268 OA
ATOM     25  C   UNL A   1      32.490  18.104  22.649  1.00  0.00     0.263 C 
ATOM     26  N   UNL A   1      32.810  16.987  23.369  1.00  0.00    -0.307 N 
ATOM     27  C   UNL A   1      32.474  19.290  23.546  1.00  0.00     0.080 C 
ATOM     28  C   UNL A   1      33.033  17.125  24.704  1.00  0.00     0.145 C 
ATOM     29  H   UNL A   1      32.878  16.107  22.933  1.00  0.00     0.171 HD
ATOM     30  S   UNL A   1      32.842  18.800  25.163  1.00  0.00    -0.055 SA
ATOM     31  S   UNL A   1      33.420  15.864  25.703  1.00  0.00    -0.052 S 
ENDBRANCH  18  23
ENDBRANCH  16  17
ENDBRANCH  15  16
ENDBRANCH  11  15
ENDBRANCH   5  10
ENDBRANCH   2   4
ENDBRANCH   1   2
BRANCH   1  32
ATOM     32  C   UNL A   1      32.830  36.059  30.404  1.00  0.00     0.275 C 
BRANCH  32  33
ATOM     33  C   UNL A   1      32.615  35.501  31.803  1.00  0.00     0.275 C 
BRANCH  33  34
ATOM     34  O   UNL A   1      33.628  34.565  32.175  1.00  0.00    -0.458 OA
BRANCH  34  35
ATOM     35  C   UNL A   1      34.612  35.075  32.952  1.00  0.00     0.338 C 
ATOM     36  O   UNL A   1      34.702  36.210  33.386  1.00  0.00    -0.246 OA
BRANCH  35  37
ATOM     37  C   UNL A   1      35.729  34.128  32.984  1.00  0.00     0.060 A 
ATOM     38  C   UNL A   1      37.016  34.630  33.201  1.00  0.00     0.016 A 
ATOM     39  C   UNL A   1      35.517  32.815  32.538  1.00  0.00     0.016 A 
ATOM     40  C   UNL A   1      38.100  33.840  32.869  1.00  0.00     0.010 A 
ATOM     41  C   UNL A   1      36.596  32.040  32.184  1.00  0.00     0.010 A 
ATOM     42  C   UNL A   1      37.875  32.576  32.309  1.00  0.00    -0.014 A 
BRANCH  42  43
ATOM     43  C   UNL A   1      39.019  31.733  32.019  1.00  0.00     0.031 A 
ATOM     44  C   UNL A   1      39.806  31.401  33.233  1.00  0.00     0.074 A 
ATOM     45  C   UNL A   1      39.225  31.167  30.814  1.00  0.00     0.049 A 
ATOM     46  N   UNL A   1      41.037  31.694  33.485  1.00  0.00    -0.248 NA
ATOM     47  C   UNL A   1      39.089  30.799  34.372  1.00  0.00     0.031 C 
ATOM     48  C   UNL A   1      38.329  31.181  29.656  1.00  0.00     0.029 A 
ATOM     49  N   UNL A   1      40.239  30.353  30.408  1.00  0.00    -0.354 N 
ATOM     50  C   UNL A   1      41.308  31.131  34.728  1.00  0.00     0.074 A 
ATOM     51  C   UNL A   1      40.042  30.773  35.302  1.00  0.00     0.031 C 
ATOM     52  C   UNL A   1      38.728  30.236  28.774  1.00  0.00     0.029 A 
ATOM     53  C   UNL A   1      39.965  29.637  29.249  1.00  0.00     0.049 A 
ATOM     54  H   UNL A   1      41.091  30.278  30.894  1.00  0.00     0.167 HD
ATOM     55  C   UNL A   1      42.571  30.748  35.055  1.00  0.00     0.037 A 
ATOM     56  C   UNL A   1      40.671  28.583  28.763  1.00  0.00     0.037 A 
ATOM     57  C   UNL A   1      43.542  31.409  34.219  1.00  0.00     0.049 A 
ATOM     58  C   UNL A   1      41.997  28.583  29.429  1.00  0.00     0.074 A 
ATOM     59  C   UNL A   1      43.868  32.725  33.956  1.00  0.00     0.029 A 
ATOM     60  N   UNL A   1      44.114  30.673  33.213  1.00  0.00    -0.354 N 
ATOM     61  N   UNL A   1      42.932  29.460  29.202  1.00  0.00    -0.248 NA
ATOM     62  C   UNL A   1      42.131  27.837  30.671  1.00  0.00     0.031 C 
ATOM     63  C   UNL A   1      44.217  32.754  32.574  1.00  0.00     0.029 A 
ATOM     64  C   UNL A   1      44.146  31.449  32.086  1.00  0.00     0.049 A 
ATOM     65  H   UNL A   1      44.444  29.748  33.287  1.00  0.00     0.167 HD
ATOM     66  C   UNL A   1      43.494  29.700  30.447  1.00  0.00     0.074 A 
ATOM     67  C   UNL A   1      43.043  28.594  31.287  1.00  0.00     0.031 C 
ATOM     68  C   UNL A   1      44.023  30.921  30.749  1.00  0.00     0.037 A 
BRANCH  55  69
ATOM     69  C   UNL A   1      42.888  29.472  35.803  1.00  0.00     0.057 A 
ATOM     70  C   UNL A   1      43.866  29.511  36.815  1.00  0.00     0.134 A 
ATOM     71  C   UNL A   1      42.529  28.177  35.374  1.00  0.00     0.134 A 
ATOM     72  F   UNL A   1      44.299  30.680  37.310  1.00  0.00    -0.206 F 
ATOM     73  C   UNL A   1      44.509  28.359  37.282  1.00  0.00     0.040 A 
ATOM     74  C   UNL A   1      43.127  27.018  35.873  1.00  0.00     0.040 A 
ATOM     75  F   UNL A   1      41.660  27.954  34.383  1.00  0.00    -0.206 F 
ATOM     76  C   UNL A   1      44.149  27.108  36.802  1.00  0.00     0.006 A 
ENDBRANCH  55  69
BRANCH  56  77
ATOM     77  C   UNL A   1      40.209  27.416  27.975  1.00  0.00     0.057 A 
ATOM     78  C   UNL A   1      40.744  27.144  26.707  1.00  0.00     0.134 A 
ATOM     79  C   UNL A   1      39.446  26.387  28.553  1.00  0.00     0.134 A 
ATOM     80  F   UNL A   1      41.516  28.046  26.084  1.00  0.00    -0.206 F 
ATOM     81  C   UNL A   1      40.563  25.910  26.068  1.00  0.00     0.040 A 
ATOM     82  C   UNL A   1      39.250  25.154  27.922  1.00  0.00     0.040 A 
ATOM     83  F   UNL A   1      38.944  26.505  29.790  1.00  0.00    -0.206 F 
ATOM     84  C   UNL A   1      39.825  24.905  26.682  1.00  0.00     0.006 A 
ENDBRANCH  56  77
BRANCH  68  85
ATOM     85  C   UNL A   1      44.285  31.873  29.616  1.00  0.00     0.057 A 
ATOM     86  C   UNL A   1      43.354  32.800  29.123  1.00  0.00     0.134 A 
ATOM     87  C   UNL A   1      45.580  31.936  29.091  1.00  0.00     0.134 A 
ATOM     88  F   UNL A   1      42.117  32.885  29.631  1.00  0.00    -0.206 F 
ATOM     89  C   UNL A   1      43.689  33.711  28.116  1.00  0.00     0.040 A 
ATOM     90  C   UNL A   1      45.937  32.867  28.114  1.00  0.00     0.040 A 
ATOM     91  F   UNL A   1      46.538  31.115  29.552  1.00  0.00    -0.206 F 
ATOM     92  C   UNL A   1      44.985  33.750  27.613  1.00  0.00     0.006 A 
ENDBRANCH  68  85
ENDBRANCH  42  43
ENDBRANCH  35  37
ENDBRANCH  34  35
ENDBRANCH  33  34
ENDBRANCH  32  33
ENDBRANCH   1  32
TORSDOF 16
ENDMDL
MODEL 3
REMARK VINA RESULT:     -12.2      4.905     10.622
REMARK SMILES O=C1NC(=S)S/C1=C\c1ccc(OCc2cn(-c3ccc(C(=O)OCCOC(=O)c4ccc(-c5c6nc(c(-c7c(F)cccc7F)c7ccc([nH]7)c(-c7c(F)cccc7F)c7nc(c(-c8c(F)cccc8F)c8ccc5[nH]8)C=C7)C=C6)cc4)cc3)nn2)cc1
REMARK SMILES IDX 24 1 22 2 23 3 21 4 18 5 19 6 85 7 20 8 84 9 17 10 15 11
REMARK SMILES IDX 16 12 87 13 86 14 14 15 13 16 12 17 9 18 10 19 89 20 11 21
REMARK SMILES IDX 88 22 8 23 1 24 2 25 3 26 7 27 4 28 6 30 5 31 25 32 26 33
REMARK SMILES IDX 27 34 28 35 29 36 30 37 31 38 83 39 32 40 82 41 33 42 34 43
REMARK SMILES IDX 35 44 76 45 36 46 81 47 75 48 77 49 37 50 80 51 74 52 73 53
REMARK SMILES IDX 38 55 64 56 47 57 63 58 48 59 51 60 62 61 78 62 49 63 50 64
REMARK SMILES IDX 61 66 79 67 52 68 39 69 40 70 45 71 41 72 42 73 44 74 46 75
REMARK SMILES IDX 43 76 65 77 66 78 71 79 67 80 68 81 70 82 72 83 69 84 53 85
REMARK SMILES IDX 54 86 59 87 55 88 56 89 58 90 60 91 57 92
REMARK H PARENT 3 29 77 54 51 65
REMARK Flexibility Score: inf
ROOT
ATOM      1  O   UNL A   1      33.424  33.980  29.100  1.00  0.00    -0.458 OA
ENDROOT
BRANCH   1   2
ATOM      2  C   UNL A   1      34.185  33.403  28.138  1.00  0.00     0.338 C 
ATOM      3  O   UNL A   1      35.311  33.743  27.800  1.00  0.00    -0.246 OA
BRANCH   2   4
ATOM      4  C   UNL A   1      33.507  32.204  27.594  1.00  0.00     0.060 A 
ATOM      5  C   UNL A   1      32.371  29.929  26.446  1.00  0.00     0.066 A 
ATOM      6  C   UNL A   1      33.651  29.859  27.018  1.00  0.00     0.029 A 
ATOM      7  C   UNL A   1      31.630  31.116  26.518  1.00  0.00     0.029 A 
ATOM      8  C   UNL A   1      34.225  31.003  27.566  1.00  0.00     0.018 A 
ATOM      9  C   UNL A   1      32.195  32.249  27.110  1.00  0.00     0.018 A 
BRANCH   5  10
ATOM     10  N   UNL A   1      31.883  28.812  25.732  1.00  0.00    -0.220 N 
ATOM     11  C   UNL A   1      30.842  26.991  25.124  1.00  0.00     0.120 A 
ATOM     12  C   UNL A   1      31.346  27.645  26.229  1.00  0.00     0.144 A 
ATOM     13  N   UNL A   1      31.117  27.741  24.013  1.00  0.00    -0.131 NA
ATOM     14  N   UNL A   1      31.748  28.838  24.388  1.00  0.00    -0.062 NA
BRANCH  11  15
ATOM     15  C   UNL A   1      30.014  25.754  25.018  1.00  0.00     0.289 C 
BRANCH  15  16
ATOM     16  O   UNL A   1      30.289  24.744  26.002  1.00  0.00    -0.487 OA
BRANCH  16  17
ATOM     17  C   UNL A   1      31.480  24.076  25.924  1.00  0.00     0.119 A 
ATOM     18  C   UNL A   1      33.746  22.478  25.475  1.00  0.00    -0.024 A 
ATOM     19  C   UNL A   1      33.099  23.096  24.402  1.00  0.00     0.012 A 
ATOM     20  C   UNL A   1      33.310  22.741  26.776  1.00  0.00     0.012 A 
ATOM     21  C   UNL A   1      31.970  23.889  24.630  1.00  0.00     0.047 A 
ATOM     22  C   UNL A   1      32.197  23.555  26.999  1.00  0.00     0.047 A 
BRANCH  18  23
ATOM     23  C   UNL A   1      34.854  21.549  25.252  1.00  0.00     0.029 C 
ATOM     24  O   UNL A   1      37.050  19.663  24.933  1.00  0.00    -0.268 OA
ATOM     25  C   UNL A   1      35.878  19.332  24.849  1.00  0.00     0.263 C 
ATOM     26  N   UNL A   1      35.442  18.056  24.623  1.00  0.00    -0.307 N 
ATOM     27  C   UNL A   1      34.710  20.242  24.992  1.00  0.00     0.080 C 
ATOM     28  C   UNL A   1      34.100  17.839  24.553  1.00  0.00     0.145 C 
ATOM     29  H   UNL A   1      36.081  17.315  24.513  1.00  0.00     0.171 HD
ATOM     30  S   UNL A   1      33.246  19.344  24.792  1.00  0.00    -0.055 SA
ATOM     31  S   UNL A   1      33.427  16.352  24.276  1.00  0.00    -0.052 S 
ENDBRANCH  18  23
ENDBRANCH  16  17
ENDBRANCH  15  16
ENDBRANCH  11  15
ENDBRANCH   5  10
ENDBRANCH   2   4
ENDBRANCH   1   2
BRANCH   1  32
ATOM     32  C   UNL A   1      33.640  35.385  29.287  1.00  0.00     0.275 C 
BRANCH  32  33
ATOM     33  C   UNL A   1      32.722  35.942  30.365  1.00  0.00     0.275 C 
BRANCH  33  34
ATOM     34  O   UNL A   1      32.548  35.032  31.452  1.00  0.00    -0.458 OA
BRANCH  34  35
ATOM     35  C   UNL A   1      33.171  35.394  32.598  1.00  0.00     0.338 C 
ATOM     36  O   UNL A   1      32.899  36.332  33.327  1.00  0.00    -0.246 OA
BRANCH  35  37
ATOM     37  C   UNL A   1      34.425  34.644  32.714  1.00  0.00     0.060 A 
ATOM     38  C   UNL A   1      35.611  35.362  32.888  1.00  0.00     0.016 A 
ATOM     39  C   UNL A   1      34.431  33.280  32.382  1.00  0.00     0.016 A 
ATOM     40  C   UNL A   1      36.812  34.730  32.627  1.00  0.00     0.010 A 
ATOM     41  C   UNL A   1      35.624  32.661  32.098  1.00  0.00     0.010 A 
ATOM     42  C   UNL A   1      36.800  33.404  32.178  1.00  0.00    -0.014 A 
BRANCH  42  43
ATOM     43  C   UNL A   1      38.068  32.733  31.964  1.00  0.00     0.031 A 
ATOM     44  C   UNL A   1      38.879  32.635  33.204  1.00  0.00     0.074 A 
ATOM     45  C   UNL A   1      38.380  32.107  30.813  1.00  0.00     0.049 A 
ATOM     46  N   UNL A   1      40.043  33.142  33.431  1.00  0.00    -0.248 NA
ATOM     47  C   UNL A   1      38.249  32.025  34.389  1.00  0.00     0.031 C 
ATOM     48  C   UNL A   1      37.511  31.879  29.657  1.00  0.00     0.029 A 
ATOM     49  N   UNL A   1      39.517  31.434  30.480  1.00  0.00    -0.354 N 
ATOM     50  C   UNL A   1      40.382  32.737  34.719  1.00  0.00     0.074 A 
ATOM     51  C   UNL A   1      39.180  32.230  35.320  1.00  0.00     0.031 C 
ATOM     52  C   UNL A   1      38.069  30.938  28.860  1.00  0.00     0.029 A 
ATOM     53  C   UNL A   1      39.378  30.588  29.386  1.00  0.00     0.049 A 
ATOM     54  H   UNL A   1      40.363  31.538  30.972  1.00  0.00     0.167 HD
ATOM     55  C   UNL A   1      41.684  32.590  35.080  1.00  0.00     0.037 A 
ATOM     56  C   UNL A   1      40.251  29.623  28.995  1.00  0.00     0.037 A 
ATOM     57  C   UNL A   1      42.551  33.324  34.192  1.00  0.00     0.049 A 
ATOM     58  C   UNL A   1      41.549  29.891  29.660  1.00  0.00     0.074 A 
ATOM     59  C   UNL A   1      42.667  34.649  33.816  1.00  0.00     0.029 A 
ATOM     60  N   UNL A   1      43.248  32.606  33.253  1.00  0.00    -0.354 N 
ATOM     61  N   UNL A   1      42.336  30.884  29.360  1.00  0.00    -0.248 NA
ATOM     62  C   UNL A   1      41.781  29.285  30.963  1.00  0.00     0.031 C 
ATOM     63  C   UNL A   1      43.028  34.616  32.438  1.00  0.00     0.029 A 
ATOM     64  C   UNL A   1      43.173  33.279  32.064  1.00  0.00     0.049 A 
ATOM     65  H   UNL A   1      43.720  31.755  33.408  1.00  0.00     0.167 HD
ATOM     66  C   UNL A   1      42.833  31.316  30.581  1.00  0.00     0.074 A 
ATOM     67  C   UNL A   1      42.551  30.227  31.513  1.00  0.00     0.031 C 
ATOM     68  C   UNL A   1      43.157  32.626  30.777  1.00  0.00     0.037 A 
BRANCH  55  69
ATOM     69  C   UNL A   1      42.189  31.449  35.936  1.00  0.00     0.057 A 
ATOM     70  C   UNL A   1      43.103  31.735  36.967  1.00  0.00     0.134 A 
ATOM     71  C   UNL A   1      42.079  30.083  35.602  1.00  0.00     0.134 A 
ATOM     72  F   UNL A   1      43.306  32.996  37.378  1.00  0.00    -0.206 F 
ATOM     73  C   UNL A   1      43.919  30.753  37.541  1.00  0.00     0.040 A 
ATOM     74  C   UNL A   1      42.849  29.088  36.208  1.00  0.00     0.040 A 
ATOM     75  F   UNL A   1      41.302  29.637  34.609  1.00  0.00    -0.206 F 
ATOM     76  C   UNL A   1      43.802  29.426  37.153  1.00  0.00     0.006 A 
ENDBRANCH  55  69
BRANCH  56  77
ATOM     77  C   UNL A   1      39.992  28.334  28.310  1.00  0.00     0.057 A 
ATOM     78  C   UNL A   1      40.560  28.057  27.057  1.00  0.00     0.134 A 
ATOM     79  C   UNL A   1      39.421  27.240  28.981  1.00  0.00     0.134 A 
ATOM     80  F   UNL A   1      41.162  29.024  26.351  1.00  0.00    -0.206 F 
ATOM     81  C   UNL A   1      40.591  26.762  26.520  1.00  0.00     0.040 A 
ATOM     82  C   UNL A   1      39.437  25.944  28.452  1.00  0.00     0.040 A 
ATOM     83  F   UNL A   1      38.911  27.370  30.214  1.00  0.00    -0.206 F 
ATOM     84  C   UNL A   1      40.039  25.698  27.225  1.00  0.00     0.006 A 
ENDBRANCH  56  77
BRANCH  68  85
ATOM     85  C   UNL A   1      43.281  33.509  29.567  1.00  0.00     0.057 A 
ATOM     86  C   UNL A   1      42.273  34.366  29.098  1.00  0.00     0.134 A 
ATOM     87  C   UNL A   1      44.523  33.583  28.927  1.00  0.00     0.134 A 
ATOM     88  F   UNL A   1      41.081  34.440  29.707  1.00  0.00    -0.206 F 
ATOM     89  C   UNL A   1      42.482  35.218  28.009  1.00  0.00     0.040 A 
ATOM     90  C   UNL A   1      44.756  34.457  27.864  1.00  0.00     0.040 A 
ATOM     91  F   UNL A   1      45.550  32.831  29.354  1.00  0.00    -0.206 F 
ATOM     92  C   UNL A   1      43.729  35.270  27.393  1.00  0.00     0.006 A 
ENDBRANCH  68  85
ENDBRANCH  42  43
ENDBRANCH  35  37
ENDBRANCH  34  35
ENDBRANCH  33  34
ENDBRANCH  32  33
ENDBRANCH   1  32
TORSDOF 16
ENDMDL
