MODEL 1
REMARK VINA RESULT:      -9.7      0.000      0.000
REMARK SMILES N#C[C@H]1CN(C(=O)[C@H]([NH3+])CC(=O)OCCOC(=O)c2ccc(-c3c4nc(c(-c5c(F)cccc5F)c5ccc([nH]5)c(-c5c(F)cccc5F)c5nc(c(-c6c(F)cccc6F)c6ccc3[nH]6)C=C5)C=C4)cc2)CCO1
REMARK SMILES IDX 14 1 13 2 11 3 12 4 10 5 8 6 6 7 7 8 5 9 3 10 4 11 75 12
REMARK SMILES IDX 74 13 73 14 2 15 1 16 9 17 15 21 16 22 17 23 18 24 19 25
REMARK SMILES IDX 20 26 72 27 21 28 71 29 22 30 23 31 24 32 65 33 25 34 70 35
REMARK SMILES IDX 64 36 66 37 26 38 69 39 63 40 62 41 27 43 53 44 36 45 52 46
REMARK SMILES IDX 37 47 40 48 51 49 67 50 38 51 39 52 50 54 68 55 41 56 28 57
REMARK SMILES IDX 29 58 34 59 30 60 31 61 33 62 35 63 32 64 54 65 55 66 60 67
REMARK SMILES IDX 56 68 57 69 59 70 61 71 58 72 42 73 43 74 48 75 44 76 45 77
REMARK SMILES IDX 47 78 49 79 46 80
REMARK H PARENT 9 18 9 19 9 20 66 42 40 53
REMARK Flexibility Score: inf
ROOT
ATOM      1  C   UNL A   1      46.246  22.770  24.049  1.00  0.00     0.274 C 
ENDROOT
BRANCH   1   2
ATOM      2  O   UNL A   1      46.646  21.736  24.966  1.00  0.00    -0.462 OA
BRANCH   2   3
ATOM      3  C   UNL A   1      46.211  20.489  24.672  1.00  0.00     0.312 C 
ATOM      4  O   UNL A   1      46.916  19.575  24.259  1.00  0.00    -0.252 OA
BRANCH   3   5
ATOM      5  C   UNL A   1      44.716  20.353  24.762  1.00  0.00     0.198 C 
BRANCH   5   6
ATOM      6  C   UNL A   1      44.149  18.993  25.180  1.00  0.00     0.282 C 
BRANCH   6   7
ATOM      7  C   UNL A   1      42.710  19.172  25.743  1.00  0.00     0.281 C 
ATOM      8  O   UNL A   1      41.956  18.198  25.815  1.00  0.00    -0.268 OA
BRANCH   7   9
ATOM      9  N   UNL A   1      42.277  20.439  26.123  1.00  0.00    -0.332 N 
ATOM     10  C   UNL A   1      39.984  21.162  26.529  1.00  0.00     0.240 C 
ATOM     11  C   UNL A   1      41.171  21.218  25.547  1.00  0.00     0.167 C 
ATOM     12  O   UNL A   1      40.387  21.778  27.775  1.00  0.00    -0.360 OA
ATOM     13  C   UNL A   1      41.498  21.072  28.368  1.00  0.00     0.183 C 
ATOM     14  C   UNL A   1      42.706  20.988  27.415  1.00  0.00     0.148 C 
BRANCH  10  15
ATOM     15  C   UNL A   1      38.809  21.831  25.944  1.00  0.00     0.096 C 
ATOM     16  N   UNL A   1      37.893  22.410  25.536  1.00  0.00    -0.195 NA
ENDBRANCH  10  15
ENDBRANCH   7   9
ENDBRANCH   6   7
BRANCH   6  17
ATOM     17  N   UNL A   1      44.956  18.204  26.123  1.00  0.00    -0.347 N 
ATOM     18  H   UNL A   1      44.429  18.058  26.984  1.00  0.00     0.345 HD
ATOM     19  H   UNL A   1      45.819  18.706  26.335  1.00  0.00     0.345 HD
ATOM     20  H   UNL A   1      45.182  17.301  25.706  1.00  0.00     0.345 HD
ENDBRANCH   6  17
ENDBRANCH   5   6
ENDBRANCH   3   5
ENDBRANCH   2   3
ENDBRANCH   1   2
BRANCH   1  21
ATOM     21  C   UNL A   1      45.927  24.081  24.774  1.00  0.00     0.275 C 
BRANCH  21  22
ATOM     22  O   UNL A   1      44.954  23.902  25.824  1.00  0.00    -0.458 OA
BRANCH  22  23
ATOM     23  C   UNL A   1      43.684  24.221  25.480  1.00  0.00     0.338 C 
ATOM     24  O   UNL A   1      43.044  23.774  24.542  1.00  0.00    -0.246 OA
BRANCH  23  25
ATOM     25  C   UNL A   1      43.068  25.094  26.487  1.00  0.00     0.060 A 
ATOM     26  C   UNL A   1      43.627  26.359  26.677  1.00  0.00     0.016 A 
ATOM     27  C   UNL A   1      42.065  24.634  27.339  1.00  0.00     0.016 A 
ATOM     28  C   UNL A   1      43.206  27.167  27.724  1.00  0.00     0.010 A 
ATOM     29  C   UNL A   1      41.619  25.461  28.379  1.00  0.00     0.010 A 
ATOM     30  C   UNL A   1      42.194  26.728  28.585  1.00  0.00    -0.014 A 
BRANCH  30  31
ATOM     31  C   UNL A   1      41.772  27.612  29.700  1.00  0.00     0.031 A 
ATOM     32  C   UNL A   1      42.501  27.587  31.013  1.00  0.00     0.074 A 
ATOM     33  C   UNL A   1      40.759  28.478  29.504  1.00  0.00     0.049 A 
ATOM     34  N   UNL A   1      42.249  28.254  32.111  1.00  0.00    -0.248 NA
ATOM     35  C   UNL A   1      43.663  26.691  31.107  1.00  0.00     0.031 C 
ATOM     36  C   UNL A   1      40.003  28.623  28.258  1.00  0.00     0.029 A 
ATOM     37  N   UNL A   1      40.197  29.406  30.343  1.00  0.00    -0.354 N 
ATOM     38  C   UNL A   1      43.203  27.843  33.033  1.00  0.00     0.074 A 
ATOM     39  C   UNL A   1      44.023  26.848  32.374  1.00  0.00     0.031 C 
ATOM     40  C   UNL A   1      39.093  29.597  28.407  1.00  0.00     0.029 A 
ATOM     41  C   UNL A   1      39.154  30.096  29.776  1.00  0.00     0.049 A 
ATOM     42  H   UNL A   1      40.510  29.562  31.263  1.00  0.00     0.167 HD
ATOM     43  C   UNL A   1      43.379  28.261  34.311  1.00  0.00     0.037 A 
ATOM     44  C   UNL A   1      38.318  31.007  30.307  1.00  0.00     0.037 A 
ATOM     45  C   UNL A   1      42.561  29.261  34.954  1.00  0.00     0.049 A 
ATOM     46  C   UNL A   1      38.497  31.406  31.744  1.00  0.00     0.074 A 
ATOM     47  C   UNL A   1      42.665  29.764  36.239  1.00  0.00     0.029 A 
ATOM     48  N   UNL A   1      41.486  29.908  34.360  1.00  0.00    -0.354 N 
ATOM     49  N   UNL A   1      39.402  31.010  32.607  1.00  0.00    -0.248 NA
ATOM     50  C   UNL A   1      37.539  32.380  32.281  1.00  0.00     0.031 C 
ATOM     51  C   UNL A   1      41.618  30.669  36.443  1.00  0.00     0.029 A 
ATOM     52  C   UNL A   1      40.901  30.783  35.263  1.00  0.00     0.049 A 
ATOM     53  H   UNL A   1      41.183  29.765  33.434  1.00  0.00     0.167 HD
ATOM     54  C   UNL A   1      39.136  31.703  33.781  1.00  0.00     0.074 A 
ATOM     55  C   UNL A   1      38.003  32.564  33.507  1.00  0.00     0.031 C 
ATOM     56  C   UNL A   1      39.769  31.630  34.978  1.00  0.00     0.037 A 
BRANCH  43  57
ATOM     57  C   UNL A   1      44.472  27.611  35.111  1.00  0.00     0.057 A 
ATOM     58  C   UNL A   1      44.259  26.448  35.864  1.00  0.00     0.134 A 
ATOM     59  C   UNL A   1      45.770  28.141  35.103  1.00  0.00     0.134 A 
ATOM     60  F   UNL A   1      43.039  25.893  35.926  1.00  0.00    -0.206 F 
ATOM     61  C   UNL A   1      45.288  25.853  36.599  1.00  0.00     0.040 A 
ATOM     62  C   UNL A   1      46.813  27.538  35.807  1.00  0.00     0.040 A 
ATOM     63  F   UNL A   1      46.050  29.248  34.398  1.00  0.00    -0.206 F 
ATOM     64  C   UNL A   1      46.572  26.394  36.566  1.00  0.00     0.006 A 
ENDBRANCH  43  57
BRANCH  44  65
ATOM     65  C   UNL A   1      37.222  31.582  29.486  1.00  0.00     0.057 A 
ATOM     66  C   UNL A   1      37.313  32.872  28.950  1.00  0.00     0.134 A 
ATOM     67  C   UNL A   1      36.049  30.859  29.227  1.00  0.00     0.134 A 
ATOM     68  F   UNL A   1      38.401  33.622  29.177  1.00  0.00    -0.206 F 
ATOM     69  C   UNL A   1      36.272  33.431  28.208  1.00  0.00     0.040 A 
ATOM     70  C   UNL A   1      35.014  31.394  28.460  1.00  0.00     0.040 A 
ATOM     71  F   UNL A   1      35.899  29.616  29.707  1.00  0.00    -0.206 F 
ATOM     72  C   UNL A   1      35.120  32.688  27.956  1.00  0.00     0.006 A 
ENDBRANCH  44  65
BRANCH  56  73
ATOM     73  C   UNL A   1      39.266  32.538  36.065  1.00  0.00     0.057 A 
ATOM     74  C   UNL A   1      39.746  33.845  36.227  1.00  0.00     0.134 A 
ATOM     75  C   UNL A   1      38.293  32.093  36.970  1.00  0.00     0.134 A 
ATOM     76  F   UNL A   1      40.689  34.329  35.404  1.00  0.00    -0.206 F 
ATOM     77  C   UNL A   1      39.311  34.659  37.275  1.00  0.00     0.040 A 
ATOM     78  C   UNL A   1      37.823  32.911  37.999  1.00  0.00     0.040 A 
ATOM     79  F   UNL A   1      37.779  30.858  36.869  1.00  0.00    -0.206 F 
ATOM     80  C   UNL A   1      38.343  34.193  38.162  1.00  0.00     0.006 A 
ENDBRANCH  56  73
ENDBRANCH  30  31
ENDBRANCH  23  25
ENDBRANCH  22  23
ENDBRANCH  21  22
ENDBRANCH   1  21
TORSDOF 16
ENDMDL
MODEL 2
REMARK VINA RESULT:      -9.7      4.804      9.770
REMARK SMILES N#C[C@H]1CN(C(=O)[C@H]([NH3+])CC(=O)OCCOC(=O)c2ccc(-c3c4nc(c(-c5c(F)cccc5F)c5ccc([nH]5)c(-c5c(F)cccc5F)c5nc(c(-c6c(F)cccc6F)c6ccc3[nH]6)C=C5)C=C4)cc2)CCO1
REMARK SMILES IDX 14 1 13 2 11 3 12 4 10 5 8 6 6 7 7 8 5 9 3 10 4 11 75 12
REMARK SMILES IDX 74 13 73 14 2 15 1 16 9 17 15 21 16 22 17 23 18 24 19 25
REMARK SMILES IDX 20 26 72 27 21 28 71 29 22 30 23 31 24 32 65 33 25 34 70 35
REMARK SMILES IDX 64 36 66 37 26 38 69 39 63 40 62 41 27 43 53 44 36 45 52 46
REMARK SMILES IDX 37 47 40 48 51 49 67 50 38 51 39 52 50 54 68 55 41 56 28 57
REMARK SMILES IDX 29 58 34 59 30 60 31 61 33 62 35 63 32 64 54 65 55 66 60 67
REMARK SMILES IDX 56 68 57 69 59 70 61 71 58 72 42 73 43 74 48 75 44 76 45 77
REMARK SMILES IDX 47 78 49 79 46 80
REMARK H PARENT 9 18 9 19 9 20 66 42 40 53
REMARK Flexibility Score: inf
ROOT
ATOM      1  C   UNL A   1      31.582  31.834  26.773  1.00  0.00     0.274 C 
ENDROOT
BRANCH   1   2
ATOM      2  O   UNL A   1      32.571  30.811  26.985  1.00  0.00    -0.462 OA
BRANCH   2   3
ATOM      3  C   UNL A   1      32.143  29.537  26.821  1.00  0.00     0.312 C 
ATOM      4  O   UNL A   1      32.333  28.623  27.615  1.00  0.00    -0.252 OA
BRANCH   3   5
ATOM      5  C   UNL A   1      31.518  29.297  25.475  1.00  0.00     0.198 C 
BRANCH   5   6
ATOM      6  C   UNL A   1      32.448  28.933  24.314  1.00  0.00     0.282 C 
BRANCH   6   7
ATOM      7  C   UNL A   1      32.044  27.549  23.729  1.00  0.00     0.281 C 
ATOM      8  O   UNL A   1      31.243  27.491  22.792  1.00  0.00    -0.268 OA
BRANCH   7   9
ATOM      9  N   UNL A   1      32.564  26.389  24.296  1.00  0.00    -0.332 N 
ATOM     10  C   UNL A   1      31.326  24.450  25.102  1.00  0.00     0.240 C 
ATOM     11  C   UNL A   1      32.111  25.709  25.518  1.00  0.00     0.167 C 
ATOM     12  O   UNL A   1      32.217  23.566  24.381  1.00  0.00    -0.360 OA
ATOM     13  C   UNL A   1      32.722  24.200  23.186  1.00  0.00     0.183 C 
ATOM     14  C   UNL A   1      33.442  25.527  23.494  1.00  0.00     0.148 C 
BRANCH  10  15
ATOM     15  C   UNL A   1      30.750  23.794  26.289  1.00  0.00     0.096 C 
ATOM     16  N   UNL A   1      30.296  23.346  27.255  1.00  0.00    -0.195 NA
ENDBRANCH  10  15
ENDBRANCH   7   9
ENDBRANCH   6   7
BRANCH   6  17
ATOM     17  N   UNL A   1      33.891  28.952  24.594  1.00  0.00    -0.347 N 
ATOM     18  H   UNL A   1      34.396  28.545  23.806  1.00  0.00     0.345 HD
ATOM     19  H   UNL A   1      34.082  28.408  25.436  1.00  0.00     0.345 HD
ATOM     20  H   UNL A   1      34.199  29.914  24.734  1.00  0.00     0.345 HD
ENDBRANCH   6  17
ENDBRANCH   5   6
ENDBRANCH   3   5
ENDBRANCH   2   3
ENDBRANCH   1   2
BRANCH   1  21
ATOM     21  C   UNL A   1      32.195  33.237  26.822  1.00  0.00     0.275 C 
BRANCH  21  22
ATOM     22  O   UNL A   1      32.156  33.804  28.148  1.00  0.00    -0.458 OA
BRANCH  22  23
ATOM     23  C   UNL A   1      33.200  34.611  28.450  1.00  0.00     0.338 C 
ATOM     24  O   UNL A   1      33.191  35.829  28.514  1.00  0.00    -0.246 OA
BRANCH  23  25
ATOM     25  C   UNL A   1      34.372  33.826  28.859  1.00  0.00     0.060 A 
ATOM     26  C   UNL A   1      34.149  32.672  29.611  1.00  0.00     0.016 A 
ATOM     27  C   UNL A   1      35.671  34.288  28.651  1.00  0.00     0.016 A 
ATOM     28  C   UNL A   1      35.212  31.979  30.173  1.00  0.00     0.010 A 
ATOM     29  C   UNL A   1      36.747  33.574  29.194  1.00  0.00     0.010 A 
ATOM     30  C   UNL A   1      36.524  32.420  29.968  1.00  0.00    -0.014 A 
BRANCH  30  31
ATOM     31  C   UNL A   1      37.638  31.662  30.590  1.00  0.00     0.031 A 
ATOM     32  C   UNL A   1      37.988  31.867  32.037  1.00  0.00     0.074 A 
ATOM     33  C   UNL A   1      38.300  30.747  29.856  1.00  0.00     0.049 A 
ATOM     34  N   UNL A   1      38.953  31.329  32.737  1.00  0.00    -0.248 NA
ATOM     35  C   UNL A   1      37.147  32.806  32.793  1.00  0.00     0.031 C 
ATOM     36  C   UNL A   1      38.021  30.430  28.454  1.00  0.00     0.029 A 
ATOM     37  N   UNL A   1      39.333  29.908  30.188  1.00  0.00    -0.354 N 
ATOM     38  C   UNL A   1      38.852  31.878  34.009  1.00  0.00     0.074 A 
ATOM     39  C   UNL A   1      37.747  32.813  33.977  1.00  0.00     0.031 C 
ATOM     40  C   UNL A   1      38.847  29.452  28.053  1.00  0.00     0.029 A 
ATOM     41  C   UNL A   1      39.755  29.122  29.144  1.00  0.00     0.049 A 
ATOM     42  H   UNL A   1      39.733  29.873  31.086  1.00  0.00     0.167 HD
ATOM     43  C   UNL A   1      39.610  31.621  35.103  1.00  0.00     0.037 A 
ATOM     44  C   UNL A   1      40.781  28.254  29.064  1.00  0.00     0.037 A 
ATOM     45  C   UNL A   1      40.703  30.679  35.127  1.00  0.00     0.049 A 
ATOM     46  C   UNL A   1      41.643  28.035  30.275  1.00  0.00     0.074 A 
ATOM     47  C   UNL A   1      41.524  30.336  36.188  1.00  0.00     0.029 A 
ATOM     48  N   UNL A   1      41.129  29.931  34.038  1.00  0.00    -0.354 N 
ATOM     49  N   UNL A   1      41.539  28.560  31.472  1.00  0.00    -0.248 NA
ATOM     50  C   UNL A   1      42.765  27.102  30.123  1.00  0.00     0.031 C 
ATOM     51  C   UNL A   1      42.482  29.429  35.725  1.00  0.00     0.029 A 
ATOM     52  C   UNL A   1      42.218  29.151  34.394  1.00  0.00     0.049 A 
ATOM     53  H   UNL A   1      40.717  29.952  33.144  1.00  0.00     0.167 HD
ATOM     54  C   UNL A   1      42.567  28.004  32.222  1.00  0.00     0.074 A 
ATOM     55  C   UNL A   1      43.263  27.080  31.350  1.00  0.00     0.031 C 
ATOM     56  C   UNL A   1      42.906  28.240  33.513  1.00  0.00     0.037 A 
BRANCH  43  57
ATOM     57  C   UNL A   1      39.310  32.397  36.355  1.00  0.00     0.057 A 
ATOM     58  C   UNL A   1      38.391  31.947  37.313  1.00  0.00     0.134 A 
ATOM     59  C   UNL A   1      39.977  33.601  36.621  1.00  0.00     0.134 A 
ATOM     60  F   UNL A   1      37.709  30.809  37.118  1.00  0.00    -0.206 F 
ATOM     61  C   UNL A   1      38.128  32.679  38.474  1.00  0.00     0.040 A 
ATOM     62  C   UNL A   1      39.745  34.325  37.792  1.00  0.00     0.040 A 
ATOM     63  F   UNL A   1      40.876  34.089  35.752  1.00  0.00    -0.206 F 
ATOM     64  C   UNL A   1      38.812  33.868  38.719  1.00  0.00     0.006 A 
ENDBRANCH  43  57
BRANCH  44  65
ATOM     65  C   UNL A   1      41.064  27.549  27.787  1.00  0.00     0.057 A 
ATOM     66  C   UNL A   1      40.540  26.279  27.525  1.00  0.00     0.134 A 
ATOM     67  C   UNL A   1      41.878  28.126  26.803  1.00  0.00     0.134 A 
ATOM     68  F   UNL A   1      39.769  25.665  28.435  1.00  0.00    -0.206 F 
ATOM     69  C   UNL A   1      40.832  25.597  26.342  1.00  0.00     0.040 A 
ATOM     70  C   UNL A   1      42.152  27.469  25.603  1.00  0.00     0.040 A 
ATOM     71  F   UNL A   1      42.409  29.344  26.989  1.00  0.00    -0.206 F 
ATOM     72  C   UNL A   1      41.636  26.196  25.374  1.00  0.00     0.006 A 
ENDBRANCH  44  65
BRANCH  56  73
ATOM     73  C   UNL A   1      44.062  27.452  34.063  1.00  0.00     0.057 A 
ATOM     74  C   UNL A   1      45.381  27.925  34.007  1.00  0.00     0.134 A 
ATOM     75  C   UNL A   1      43.853  26.197  34.649  1.00  0.00     0.134 A 
ATOM     76  F   UNL A   1      45.653  29.113  33.446  1.00  0.00    -0.206 F 
ATOM     77  C   UNL A   1      46.452  27.159  34.470  1.00  0.00     0.040 A 
ATOM     78  C   UNL A   1      44.913  25.438  35.150  1.00  0.00     0.040 A 
ATOM     79  F   UNL A   1      42.617  25.686  34.748  1.00  0.00    -0.206 F 
ATOM     80  C   UNL A   1      46.218  25.913  35.048  1.00  0.00     0.006 A 
ENDBRANCH  56  73
ENDBRANCH  30  31
ENDBRANCH  23  25
ENDBRANCH  22  23
ENDBRANCH  21  22
ENDBRANCH   1  21
TORSDOF 16
ENDMDL
MODEL 3
REMARK VINA RESULT:      -9.6      2.781      7.686
REMARK SMILES N#C[C@H]1CN(C(=O)[C@H]([NH3+])CC(=O)OCCOC(=O)c2ccc(-c3c4nc(c(-c5c(F)cccc5F)c5ccc([nH]5)c(-c5c(F)cccc5F)c5nc(c(-c6c(F)cccc6F)c6ccc3[nH]6)C=C5)C=C4)cc2)CCO1
REMARK SMILES IDX 14 1 13 2 11 3 12 4 10 5 8 6 6 7 7 8 5 9 3 10 4 11 75 12
REMARK SMILES IDX 74 13 73 14 2 15 1 16 9 17 15 21 16 22 17 23 18 24 19 25
REMARK SMILES IDX 20 26 72 27 21 28 71 29 22 30 23 31 24 32 65 33 25 34 70 35
REMARK SMILES IDX 64 36 66 37 26 38 69 39 63 40 62 41 27 43 53 44 36 45 52 46
REMARK SMILES IDX 37 47 40 48 51 49 67 50 38 51 39 52 50 54 68 55 41 56 28 57
REMARK SMILES IDX 29 58 34 59 30 60 31 61 33 62 35 63 32 64 54 65 55 66 60 67
REMARK SMILES IDX 56 68 57 69 59 70 61 71 58 72 42 73 43 74 48 75 44 76 45 77
REMARK SMILES IDX 47 78 49 79 46 80
REMARK H PARENT 9 18 9 19 9 20 66 42 40 53
REMARK Flexibility Score: inf
ROOT
ATOM      1  C   UNL A   1      41.047  21.398  26.288  1.00  0.00     0.274 C 
ENDROOT
BRANCH   1   2
ATOM      2  O   UNL A   1      39.612  21.469  26.224  1.00  0.00    -0.462 OA
BRANCH   2   3
ATOM      3  C   UNL A   1      38.998  20.424  25.622  1.00  0.00     0.312 C 
ATOM      4  O   UNL A   1      39.479  19.305  25.488  1.00  0.00    -0.252 OA
BRANCH   3   5
ATOM      5  C   UNL A   1      37.689  20.801  24.984  1.00  0.00     0.198 C 
BRANCH   5   6
ATOM      6  C   UNL A   1      37.033  22.112  25.427  1.00  0.00     0.282 C 
BRANCH   6   7
ATOM      7  C   UNL A   1      35.593  22.203  24.845  1.00  0.00     0.281 C 
ATOM      8  O   UNL A   1      35.377  22.908  23.855  1.00  0.00    -0.268 OA
BRANCH   7   9
ATOM      9  N   UNL A   1      34.556  21.518  25.473  1.00  0.00    -0.332 N 
ATOM     10  C   UNL A   1      32.234  22.225  25.697  1.00  0.00     0.240 C 
ATOM     11  C   UNL A   1      33.579  22.055  26.430  1.00  0.00     0.167 C 
ATOM     12  O   UNL A   1      31.782  20.925  25.251  1.00  0.00    -0.360 OA
ATOM     13  C   UNL A   1      32.728  20.334  24.333  1.00  0.00     0.183 C 
ATOM     14  C   UNL A   1      34.135  20.214  24.947  1.00  0.00     0.148 C 
BRANCH  10  15
ATOM     15  C   UNL A   1      31.249  22.871  26.582  1.00  0.00     0.096 C 
ATOM     16  N   UNL A   1      30.430  23.320  27.266  1.00  0.00    -0.195 NA
ENDBRANCH  10  15
ENDBRANCH   7   9
ENDBRANCH   6   7
BRANCH   6  17
ATOM     17  N   UNL A   1      37.768  23.350  25.130  1.00  0.00    -0.347 N 
ATOM     18  H   UNL A   1      37.418  23.754  24.261  1.00  0.00     0.345 HD
ATOM     19  H   UNL A   1      38.761  23.141  25.030  1.00  0.00     0.345 HD
ATOM     20  H   UNL A   1      37.636  24.016  25.891  1.00  0.00     0.345 HD
ENDBRANCH   6  17
ENDBRANCH   5   6
ENDBRANCH   3   5
ENDBRANCH   2   3
ENDBRANCH   1   2
BRANCH   1  21
ATOM     21  C   UNL A   1      41.689  22.789  26.266  1.00  0.00     0.275 C 
BRANCH  21  22
ATOM     22  O   UNL A   1      40.726  23.837  26.499  1.00  0.00    -0.458 OA
BRANCH  22  23
ATOM     23  C   UNL A   1      41.151  25.080  26.170  1.00  0.00     0.338 C 
ATOM     24  O   UNL A   1      41.659  25.427  25.117  1.00  0.00    -0.246 OA
BRANCH  23  25
ATOM     25  C   UNL A   1      40.785  26.054  27.207  1.00  0.00     0.060 A 
ATOM     26  C   UNL A   1      41.492  27.258  27.243  1.00  0.00     0.016 A 
ATOM     27  C   UNL A   1      39.881  25.740  28.221  1.00  0.00     0.016 A 
ATOM     28  C   UNL A   1      41.317  28.147  28.294  1.00  0.00     0.010 A 
ATOM     29  C   UNL A   1      39.683  26.650  29.267  1.00  0.00     0.010 A 
ATOM     30  C   UNL A   1      40.408  27.855  29.317  1.00  0.00    -0.014 A 
BRANCH  30  31
ATOM     31  C   UNL A   1      40.251  28.823  30.431  1.00  0.00     0.031 A 
ATOM     32  C   UNL A   1      39.198  29.892  30.371  1.00  0.00     0.074 A 
ATOM     33  C   UNL A   1      41.029  28.698  31.523  1.00  0.00     0.049 A 
ATOM     34  N   UNL A   1      38.943  30.849  31.227  1.00  0.00    -0.248 NA
ATOM     35  C   UNL A   1      38.321  29.891  29.191  1.00  0.00     0.031 C 
ATOM     36  C   UNL A   1      42.057  27.672  31.715  1.00  0.00     0.029 A 
ATOM     37  N   UNL A   1      41.071  29.430  32.683  1.00  0.00    -0.354 N 
ATOM     38  C   UNL A   1      37.894  31.578  30.682  1.00  0.00     0.074 A 
ATOM     39  C   UNL A   1      37.577  30.968  29.407  1.00  0.00     0.031 C 
ATOM     40  C   UNL A   1      42.612  27.826  32.926  1.00  0.00     0.029 A 
ATOM     41  C   UNL A   1      42.029  28.998  33.568  1.00  0.00     0.049 A 
ATOM     42  H   UNL A   1      40.473  30.190  32.864  1.00  0.00     0.167 HD
ATOM     43  C   UNL A   1      37.252  32.653  31.200  1.00  0.00     0.037 A 
ATOM     44  C   UNL A   1      42.419  29.509  34.750  1.00  0.00     0.037 A 
ATOM     45  C   UNL A   1      37.570  33.246  32.477  1.00  0.00     0.049 A 
ATOM     46  C   UNL A   1      41.731  30.738  35.272  1.00  0.00     0.074 A 
ATOM     47  C   UNL A   1      36.971  34.329  33.098  1.00  0.00     0.029 A 
ATOM     48  N   UNL A   1      38.576  32.807  33.327  1.00  0.00    -0.354 N 
ATOM     49  N   UNL A   1      40.741  31.420  34.748  1.00  0.00    -0.248 NA
ATOM     50  C   UNL A   1      42.216  31.270  36.551  1.00  0.00     0.031 C 
ATOM     51  C   UNL A   1      37.654  34.582  34.293  1.00  0.00     0.029 A 
ATOM     52  C   UNL A   1      38.634  33.615  34.452  1.00  0.00     0.049 A 
ATOM     53  H   UNL A   1      39.163  32.036  33.155  1.00  0.00     0.167 HD
ATOM     54  C   UNL A   1      40.470  32.446  35.642  1.00  0.00     0.074 A 
ATOM     55  C   UNL A   1      41.382  32.278  36.756  1.00  0.00     0.031 C 
ATOM     56  C   UNL A   1      39.552  33.440  35.550  1.00  0.00     0.037 A 
BRANCH  43  57
ATOM     57  C   UNL A   1      36.169  33.284  30.371  1.00  0.00     0.057 A 
ATOM     58  C   UNL A   1      36.451  34.093  29.262  1.00  0.00     0.134 A 
ATOM     59  C   UNL A   1      34.819  33.051  30.668  1.00  0.00     0.134 A 
ATOM     60  F   UNL A   1      37.720  34.368  28.926  1.00  0.00    -0.206 F 
ATOM     61  C   UNL A   1      35.432  34.668  28.498  1.00  0.00     0.040 A 
ATOM     62  C   UNL A   1      33.793  33.594  29.894  1.00  0.00     0.040 A 
ATOM     63  F   UNL A   1      34.475  32.279  31.711  1.00  0.00    -0.206 F 
ATOM     64  C   UNL A   1      34.098  34.413  28.809  1.00  0.00     0.006 A 
ENDBRANCH  43  57
BRANCH  44  65
ATOM     65  C   UNL A   1      43.529  28.875  35.507  1.00  0.00     0.057 A 
ATOM     66  C   UNL A   1      44.863  29.222  35.270  1.00  0.00     0.134 A 
ATOM     67  C   UNL A   1      43.281  27.896  36.479  1.00  0.00     0.134 A 
ATOM     68  F   UNL A   1      45.167  30.138  34.339  1.00  0.00    -0.206 F 
ATOM     69  C   UNL A   1      45.912  28.604  35.953  1.00  0.00     0.040 A 
ATOM     70  C   UNL A   1      44.318  27.293  37.192  1.00  0.00     0.040 A 
ATOM     71  F   UNL A   1      42.024  27.520  36.759  1.00  0.00    -0.206 F 
ATOM     72  C   UNL A   1      45.639  27.640  36.923  1.00  0.00     0.006 A 
ENDBRANCH  44  65
BRANCH  56  73
ATOM     73  C   UNL A   1      39.471  34.396  36.707  1.00  0.00     0.057 A 
ATOM     74  C   UNL A   1      40.116  35.640  36.694  1.00  0.00     0.134 A 
ATOM     75  C   UNL A   1      38.743  34.061  37.857  1.00  0.00     0.134 A 
ATOM     76  F   UNL A   1      40.842  36.017  35.630  1.00  0.00    -0.206 F 
ATOM     77  C   UNL A   1      40.080  36.494  37.797  1.00  0.00     0.040 A 
ATOM     78  C   UNL A   1      38.669  34.924  38.952  1.00  0.00     0.040 A 
ATOM     79  F   UNL A   1      38.090  32.892  37.936  1.00  0.00    -0.206 F 
ATOM     80  C   UNL A   1      39.351  36.138  38.929  1.00  0.00     0.006 A 
ENDBRANCH  56  73
ENDBRANCH  30  31
ENDBRANCH  23  25
ENDBRANCH  22  23
ENDBRANCH  21  22
ENDBRANCH   1  21
TORSDOF 16
ENDMDL
