MODEL 1
REMARK VINA RESULT:     -11.9      0.000      0.000
REMARK SMILES COC(=O)c1ccc2c(c1)=N[C@H](c1cn(CCC(=O)OCCOC(=O)c3ccc(-c4c5nc(c(-c6c(F)cccc6F)c6ccc([nH]6)c(-c6c(F)cccc6F)c6nc(c(-c7c(F)cccc7F)c7ccc4[nH]7)C=C6)C=C5)cc3)c3ccccc13)N=2
REMARK SMILES IDX 20 1 18 2 19 3 17 4 16 5 15 6 13 7 14 8 85 9 80 10 84 11
REMARK SMILES IDX 81 12 83 13 82 14 12 15 5 16 6 17 10 18 7 19 9 20 8 21 11 22
REMARK SMILES IDX 86 23 3 24 4 25 2 26 1 27 21 28 22 29 23 30 24 31 25 32
REMARK SMILES IDX 26 33 27 34 79 35 28 36 78 37 29 38 30 39 31 40 72 41 32 42
REMARK SMILES IDX 77 43 71 44 73 45 33 46 76 47 70 48 69 49 34 51 60 52 43 53
REMARK SMILES IDX 59 54 44 55 47 56 58 57 74 58 45 59 46 60 57 62 75 63 48 64
REMARK SMILES IDX 35 65 36 66 41 67 37 68 38 69 40 70 42 71 39 72 61 73 62 74
REMARK SMILES IDX 67 75 63 76 64 77 66 78 68 79 65 80 49 81 50 82 55 83 51 84
REMARK SMILES IDX 52 85 54 86 56 87 53 88
REMARK H PARENT 73 50 47 61
REMARK Flexibility Score: inf
ROOT
ATOM      1  O   UNL A   1      32.295  30.264  25.402  1.00  0.00    -0.462 OA
ENDROOT
BRANCH   1   2
ATOM      2  C   UNL A   1      33.071  29.243  24.986  1.00  0.00     0.307 C 
ATOM      3  O   UNL A   1      33.922  28.694  25.675  1.00  0.00    -0.252 OA
BRANCH   2   4
ATOM      4  C   UNL A   1      32.787  28.835  23.555  1.00  0.00     0.144 C 
BRANCH   4   5
ATOM      5  C   UNL A   1      31.768  27.704  23.367  1.00  0.00     0.134 C 
BRANCH   5   6
ATOM      6  N   UNL A   1      32.390  26.420  23.648  1.00  0.00    -0.346 N 
ATOM      7  C   UNL A   1      32.769  24.347  23.008  1.00  0.00     0.024 A 
ATOM      8  C   UNL A   1      33.033  25.673  22.695  1.00  0.00     0.094 A 
ATOM      9  C   UNL A   1      31.790  24.379  24.052  1.00  0.00     0.007 A 
ATOM     10  C   UNL A   1      32.050  25.587  24.685  1.00  0.00     0.048 A 
ATOM     11  C   UNL A   1      30.995  23.428  24.708  1.00  0.00     0.011 A 
ATOM     12  C   UNL A   1      31.931  25.739  26.067  1.00  0.00     0.027 A 
ATOM     13  C   UNL A   1      30.807  23.577  26.082  1.00  0.00     0.001 A 
ATOM     14  C   UNL A   1      31.369  24.660  26.760  1.00  0.00     0.002 A 
BRANCH   7  15
ATOM     15  C   UNL A   1      33.603  23.165  22.596  1.00  0.00     0.255 C 
ATOM     16  C   UNL A   1      37.094  22.380  25.356  1.00  0.00     0.062 A 
ATOM     17  C   UNL A   1      36.178  21.340  25.814  1.00  0.00     0.018 A 
ATOM     18  C   UNL A   1      36.776  23.228  24.363  1.00  0.00     0.046 A 
ATOM     19  C   UNL A   1      34.947  21.165  25.311  1.00  0.00     0.031 A 
ATOM     20  C   UNL A   1      35.476  23.055  23.707  1.00  0.00     0.087 A 
ATOM     21  C   UNL A   1      34.529  22.041  24.211  1.00  0.00     0.086 A 
ATOM     22  N   UNL A   1      35.023  23.645  22.658  1.00  0.00    -0.252 NA
ATOM     23  N   UNL A   1      33.433  22.020  23.536  1.00  0.00    -0.252 NA
BRANCH  16  24
ATOM     24  C   UNL A   1      38.450  22.572  25.969  1.00  0.00     0.337 C 
ATOM     25  O   UNL A   1      39.223  21.675  26.215  1.00  0.00    -0.246 OA
BRANCH  24  26
ATOM     26  O   UNL A   1      38.645  23.894  26.239  1.00  0.00    -0.465 OA
ATOM     27  C   UNL A   1      39.314  24.145  27.478  1.00  0.00     0.282 C 
ENDBRANCH  24  26
ENDBRANCH  16  24
ENDBRANCH   7  15
ENDBRANCH   5   6
ENDBRANCH   4   5
ENDBRANCH   2   4
ENDBRANCH   1   2
BRANCH   1  28
ATOM     28  C   UNL A   1      32.107  30.443  26.817  1.00  0.00     0.274 C 
BRANCH  28  29
ATOM     29  C   UNL A   1      32.953  31.645  27.250  1.00  0.00     0.275 C 
BRANCH  29  30
ATOM     30  O   UNL A   1      34.046  31.181  28.066  1.00  0.00    -0.458 OA
BRANCH  30  31
ATOM     31  C   UNL A   1      35.208  31.867  27.920  1.00  0.00     0.338 C 
ATOM     32  O   UNL A   1      35.324  33.041  27.612  1.00  0.00    -0.246 OA
BRANCH  31  33
ATOM     33  C   UNL A   1      36.287  31.061  28.546  1.00  0.00     0.060 A 
ATOM     34  C   UNL A   1      37.444  31.673  29.038  1.00  0.00     0.016 A 
ATOM     35  C   UNL A   1      36.245  29.671  28.368  1.00  0.00     0.016 A 
ATOM     36  C   UNL A   1      38.606  30.926  29.158  1.00  0.00     0.010 A 
ATOM     37  C   UNL A   1      37.413  28.925  28.491  1.00  0.00     0.010 A 
ATOM     38  C   UNL A   1      38.610  29.568  28.803  1.00  0.00    -0.014 A 
BRANCH  38  39
ATOM     39  C   UNL A   1      39.833  28.811  29.066  1.00  0.00     0.031 A 
ATOM     40  C   UNL A   1      40.121  28.797  30.515  1.00  0.00     0.074 A 
ATOM     41  C   UNL A   1      40.639  28.165  28.195  1.00  0.00     0.049 A 
ATOM     42  N   UNL A   1      40.978  29.540  31.132  1.00  0.00    -0.248 NA
ATOM     43  C   UNL A   1      39.221  28.044  31.399  1.00  0.00     0.031 C 
ATOM     44  C   UNL A   1      40.405  27.859  26.785  1.00  0.00     0.029 A 
ATOM     45  N   UNL A   1      41.863  27.591  28.429  1.00  0.00    -0.354 N 
ATOM     46  C   UNL A   1      40.871  29.189  32.470  1.00  0.00     0.074 A 
ATOM     47  C   UNL A   1      39.653  28.436  32.598  1.00  0.00     0.031 C 
ATOM     48  C   UNL A   1      41.345  26.991  26.343  1.00  0.00     0.029 A 
ATOM     49  C   UNL A   1      42.338  26.801  27.387  1.00  0.00     0.049 A 
ATOM     50  H   UNL A   1      42.365  27.726  29.266  1.00  0.00     0.167 HD
ATOM     51  C   UNL A   1      41.950  29.291  33.289  1.00  0.00     0.037 A 
ATOM     52  C   UNL A   1      43.472  26.055  27.364  1.00  0.00     0.037 A 
ATOM     53  C   UNL A   1      42.987  30.087  32.680  1.00  0.00     0.049 A 
ATOM     54  C   UNL A   1      44.405  26.611  28.364  1.00  0.00     0.074 A 
ATOM     55  C   UNL A   1      43.227  31.421  32.432  1.00  0.00     0.029 A 
ATOM     56  N   UNL A   1      43.826  29.366  31.873  1.00  0.00    -0.354 N 
ATOM     57  N   UNL A   1      45.014  27.753  28.219  1.00  0.00    -0.248 NA
ATOM     58  C   UNL A   1      44.442  26.051  29.710  1.00  0.00     0.031 C 
ATOM     59  C   UNL A   1      44.123  31.466  31.321  1.00  0.00     0.029 A 
ATOM     60  C   UNL A   1      44.421  30.161  30.935  1.00  0.00     0.049 A 
ATOM     61  H   UNL A   1      43.981  28.397  31.959  1.00  0.00     0.167 HD
ATOM     62  C   UNL A   1      45.101  28.254  29.501  1.00  0.00     0.074 A 
ATOM     63  C   UNL A   1      44.921  27.104  30.376  1.00  0.00     0.031 C 
ATOM     64  C   UNL A   1      44.977  29.593  29.728  1.00  0.00     0.037 A 
BRANCH  51  65
ATOM     65  C   UNL A   1      42.293  28.273  34.355  1.00  0.00     0.057 A 
ATOM     66  C   UNL A   1      41.958  28.399  35.719  1.00  0.00     0.134 A 
ATOM     67  C   UNL A   1      42.663  26.977  33.950  1.00  0.00     0.134 A 
ATOM     68  F   UNL A   1      41.507  29.539  36.253  1.00  0.00    -0.206 F 
ATOM     69  C   UNL A   1      41.960  27.318  36.605  1.00  0.00     0.040 A 
ATOM     70  C   UNL A   1      42.620  25.879  34.818  1.00  0.00     0.040 A 
ATOM     71  F   UNL A   1      42.996  26.722  32.675  1.00  0.00    -0.206 F 
ATOM     72  C   UNL A   1      42.258  26.046  36.148  1.00  0.00     0.006 A 
ENDBRANCH  51  65
BRANCH  52  73
ATOM     73  C   UNL A   1      43.784  24.805  26.635  1.00  0.00     0.057 A 
ATOM     74  C   UNL A   1      44.437  24.852  25.393  1.00  0.00     0.134 A 
ATOM     75  C   UNL A   1      43.199  23.577  26.980  1.00  0.00     0.134 A 
ATOM     76  F   UNL A   1      44.968  25.997  24.940  1.00  0.00    -0.206 F 
ATOM     77  C   UNL A   1      44.481  23.751  24.530  1.00  0.00     0.040 A 
ATOM     78  C   UNL A   1      43.236  22.466  26.124  1.00  0.00     0.040 A 
ATOM     79  F   UNL A   1      42.519  23.441  28.127  1.00  0.00    -0.206 F 
ATOM     80  C   UNL A   1      43.867  22.556  24.888  1.00  0.00     0.006 A 
ENDBRANCH  52  73
BRANCH  64  81
ATOM     81  C   UNL A   1      45.273  30.501  28.576  1.00  0.00     0.057 A 
ATOM     82  C   UNL A   1      44.202  30.963  27.804  1.00  0.00     0.134 A 
ATOM     83  C   UNL A   1      46.560  30.899  28.190  1.00  0.00     0.134 A 
ATOM     84  F   UNL A   1      42.946  30.588  28.096  1.00  0.00    -0.206 F 
ATOM     85  C   UNL A   1      44.394  31.798  26.704  1.00  0.00     0.040 A 
ATOM     86  C   UNL A   1      46.764  31.762  27.109  1.00  0.00     0.040 A 
ATOM     87  F   UNL A   1      47.646  30.445  28.828  1.00  0.00    -0.206 F 
ATOM     88  C   UNL A   1      45.678  32.213  26.361  1.00  0.00     0.006 A 
ENDBRANCH  64  81
ENDBRANCH  38  39
ENDBRANCH  31  33
ENDBRANCH  30  31
ENDBRANCH  29  30
ENDBRANCH  28  29
ENDBRANCH   1  28
TORSDOF 16
ENDMDL
MODEL 2
REMARK VINA RESULT:     -11.7      1.592      2.587
REMARK SMILES COC(=O)c1ccc2c(c1)=N[C@H](c1cn(CCC(=O)OCCOC(=O)c3ccc(-c4c5nc(c(-c6c(F)cccc6F)c6ccc([nH]6)c(-c6c(F)cccc6F)c6nc(c(-c7c(F)cccc7F)c7ccc4[nH]7)C=C6)C=C5)cc3)c3ccccc13)N=2
REMARK SMILES IDX 20 1 18 2 19 3 17 4 16 5 15 6 13 7 14 8 85 9 80 10 84 11
REMARK SMILES IDX 81 12 83 13 82 14 12 15 5 16 6 17 10 18 7 19 9 20 8 21 11 22
REMARK SMILES IDX 86 23 3 24 4 25 2 26 1 27 21 28 22 29 23 30 24 31 25 32
REMARK SMILES IDX 26 33 27 34 79 35 28 36 78 37 29 38 30 39 31 40 72 41 32 42
REMARK SMILES IDX 77 43 71 44 73 45 33 46 76 47 70 48 69 49 34 51 60 52 43 53
REMARK SMILES IDX 59 54 44 55 47 56 58 57 74 58 45 59 46 60 57 62 75 63 48 64
REMARK SMILES IDX 35 65 36 66 41 67 37 68 38 69 40 70 42 71 39 72 61 73 62 74
REMARK SMILES IDX 67 75 63 76 64 77 66 78 68 79 65 80 49 81 50 82 55 83 51 84
REMARK SMILES IDX 52 85 54 86 56 87 53 88
REMARK H PARENT 73 50 47 61
REMARK Flexibility Score: inf
ROOT
ATOM      1  O   UNL A   1      31.942  29.804  25.624  1.00  0.00    -0.462 OA
ENDROOT
BRANCH   1   2
ATOM      2  C   UNL A   1      32.624  29.073  24.720  1.00  0.00     0.307 C 
ATOM      3  O   UNL A   1      33.735  28.595  24.911  1.00  0.00    -0.252 OA
BRANCH   2   4
ATOM      4  C   UNL A   1      31.869  28.899  23.418  1.00  0.00     0.144 C 
BRANCH   4   5
ATOM      5  C   UNL A   1      30.466  28.292  23.528  1.00  0.00     0.134 C 
BRANCH   5   6
ATOM      6  N   UNL A   1      30.557  26.885  23.884  1.00  0.00    -0.346 N 
ATOM      7  C   UNL A   1      30.960  25.371  25.433  1.00  0.00     0.024 A 
ATOM      8  C   UNL A   1      30.077  26.376  25.063  1.00  0.00     0.094 A 
ATOM      9  C   UNL A   1      32.064  25.467  24.526  1.00  0.00     0.007 A 
ATOM     10  C   UNL A   1      31.481  26.001  23.384  1.00  0.00     0.048 A 
ATOM     11  C   UNL A   1      33.332  24.877  24.427  1.00  0.00     0.011 A 
ATOM     12  C   UNL A   1      31.878  25.618  22.102  1.00  0.00     0.027 A 
ATOM     13  C   UNL A   1      33.788  24.530  23.155  1.00  0.00     0.001 A 
ATOM     14  C   UNL A   1      33.011  24.798  22.027  1.00  0.00     0.002 A 
BRANCH   7  15
ATOM     15  C   UNL A   1      30.644  24.216  26.342  1.00  0.00     0.255 C 
ATOM     16  C   UNL A   1      33.162  20.551  25.533  1.00  0.00     0.062 A 
ATOM     17  C   UNL A   1      33.841  21.061  26.721  1.00  0.00     0.018 A 
ATOM     18  C   UNL A   1      32.092  21.166  25.000  1.00  0.00     0.046 A 
ATOM     19  C   UNL A   1      33.481  22.188  27.352  1.00  0.00     0.031 A 
ATOM     20  C   UNL A   1      31.587  22.365  25.677  1.00  0.00     0.087 A 
ATOM     21  C   UNL A   1      32.311  22.911  26.842  1.00  0.00     0.086 A 
ATOM     22  N   UNL A   1      30.511  23.027  25.437  1.00  0.00    -0.252 NA
ATOM     23  N   UNL A   1      31.747  23.967  27.315  1.00  0.00    -0.252 NA
BRANCH  16  24
ATOM     24  C   UNL A   1      33.617  19.308  24.829  1.00  0.00     0.337 C 
ATOM     25  O   UNL A   1      34.774  19.027  24.615  1.00  0.00    -0.246 OA
BRANCH  24  26
ATOM     26  O   UNL A   1      32.532  18.582  24.436  1.00  0.00    -0.465 OA
ATOM     27  C   UNL A   1      32.697  17.916  23.181  1.00  0.00     0.282 C 
ENDBRANCH  24  26
ENDBRANCH  16  24
ENDBRANCH   7  15
ENDBRANCH   5   6
ENDBRANCH   4   5
ENDBRANCH   2   4
ENDBRANCH   1   2
BRANCH   1  28
ATOM     28  C   UNL A   1      32.413  29.816  26.984  1.00  0.00     0.274 C 
BRANCH  28  29
ATOM     29  C   UNL A   1      33.021  31.197  27.253  1.00  0.00     0.275 C 
BRANCH  29  30
ATOM     30  O   UNL A   1      34.455  31.076  27.310  1.00  0.00    -0.458 OA
BRANCH  30  31
ATOM     31  C   UNL A   1      35.066  31.874  28.223  1.00  0.00     0.338 C 
ATOM     32  O   UNL A   1      34.623  32.905  28.697  1.00  0.00    -0.246 OA
BRANCH  31  33
ATOM     33  C   UNL A   1      36.187  31.101  28.816  1.00  0.00     0.060 A 
ATOM     34  C   UNL A   1      37.384  31.732  29.169  1.00  0.00     0.016 A 
ATOM     35  C   UNL A   1      36.122  29.703  28.741  1.00  0.00     0.016 A 
ATOM     36  C   UNL A   1      38.547  30.981  29.247  1.00  0.00     0.010 A 
ATOM     37  C   UNL A   1      37.291  28.953  28.822  1.00  0.00     0.010 A 
ATOM     38  C   UNL A   1      38.514  29.603  28.991  1.00  0.00    -0.014 A 
BRANCH  38  39
ATOM     39  C   UNL A   1      39.750  28.851  29.208  1.00  0.00     0.031 A 
ATOM     40  C   UNL A   1      40.078  28.816  30.648  1.00  0.00     0.074 A 
ATOM     41  C   UNL A   1      40.536  28.227  28.304  1.00  0.00     0.049 A 
ATOM     42  N   UNL A   1      40.945  29.555  31.253  1.00  0.00    -0.248 NA
ATOM     43  C   UNL A   1      39.207  28.040  31.543  1.00  0.00     0.031 C 
ATOM     44  C   UNL A   1      40.267  27.942  26.897  1.00  0.00     0.029 A 
ATOM     45  N   UNL A   1      41.771  27.659  28.495  1.00  0.00    -0.354 N 
ATOM     46  C   UNL A   1      40.877  29.181  32.588  1.00  0.00     0.074 A 
ATOM     47  C   UNL A   1      39.669  28.415  32.737  1.00  0.00     0.031 C 
ATOM     48  C   UNL A   1      41.202  27.090  26.414  1.00  0.00     0.029 A 
ATOM     49  C   UNL A   1      42.224  26.890  27.427  1.00  0.00     0.049 A 
ATOM     50  H   UNL A   1      42.295  27.784  29.320  1.00  0.00     0.167 HD
ATOM     51  C   UNL A   1      41.977  29.278  33.379  1.00  0.00     0.037 A 
ATOM     52  C   UNL A   1      43.362  26.154  27.361  1.00  0.00     0.037 A 
ATOM     53  C   UNL A   1      42.990  30.093  32.756  1.00  0.00     0.049 A 
ATOM     54  C   UNL A   1      44.318  26.701  28.345  1.00  0.00     0.074 A 
ATOM     55  C   UNL A   1      43.213  31.432  32.525  1.00  0.00     0.029 A 
ATOM     56  N   UNL A   1      43.813  29.393  31.915  1.00  0.00    -0.354 N 
ATOM     57  N   UNL A   1      44.914  27.850  28.203  1.00  0.00    -0.248 NA
ATOM     58  C   UNL A   1      44.396  26.119  29.679  1.00  0.00     0.031 C 
ATOM     59  C   UNL A   1      44.078  31.503  31.391  1.00  0.00     0.029 A 
ATOM     60  C   UNL A   1      44.376  30.208  30.974  1.00  0.00     0.049 A 
ATOM     61  H   UNL A   1      43.978  28.424  31.980  1.00  0.00     0.167 HD
ATOM     62  C   UNL A   1      45.032  28.331  29.490  1.00  0.00     0.074 A 
ATOM     63  C   UNL A   1      44.885  27.165  30.350  1.00  0.00     0.031 C 
ATOM     64  C   UNL A   1      44.903  29.665  29.743  1.00  0.00     0.037 A 
BRANCH  51  65
ATOM     65  C   UNL A   1      42.357  28.245  34.418  1.00  0.00     0.057 A 
ATOM     66  C   UNL A   1      42.074  28.354  35.795  1.00  0.00     0.134 A 
ATOM     67  C   UNL A   1      42.708  26.954  33.982  1.00  0.00     0.134 A 
ATOM     68  F   UNL A   1      41.646  29.488  36.361  1.00  0.00    -0.206 F 
ATOM     69  C   UNL A   1      42.107  27.262  36.666  1.00  0.00     0.040 A 
ATOM     70  C   UNL A   1      42.694  25.845  34.837  1.00  0.00     0.040 A 
ATOM     71  F   UNL A   1      42.991  26.715  32.693  1.00  0.00    -0.206 F 
ATOM     72  C   UNL A   1      42.383  25.995  36.182  1.00  0.00     0.006 A 
ENDBRANCH  51  65
BRANCH  52  73
ATOM     73  C   UNL A   1      43.664  24.920  26.603  1.00  0.00     0.057 A 
ATOM     74  C   UNL A   1      44.478  24.970  25.460  1.00  0.00     0.134 A 
ATOM     75  C   UNL A   1      42.940  23.733  26.795  1.00  0.00     0.134 A 
ATOM     76  F   UNL A   1      45.156  26.084  25.148  1.00  0.00    -0.206 F 
ATOM     77  C   UNL A   1      44.545  23.914  24.543  1.00  0.00     0.040 A 
ATOM     78  C   UNL A   1      42.999  22.668  25.884  1.00  0.00     0.040 A 
ATOM     79  F   UNL A   1      42.106  23.601  27.835  1.00  0.00    -0.206 F 
ATOM     80  C   UNL A   1      43.793  22.763  24.746  1.00  0.00     0.006 A 
ENDBRANCH  52  73
BRANCH  64  81
ATOM     81  C   UNL A   1      45.161  30.595  28.599  1.00  0.00     0.057 A 
ATOM     82  C   UNL A   1      46.447  31.125  28.453  1.00  0.00     0.134 A 
ATOM     83  C   UNL A   1      44.189  31.005  27.676  1.00  0.00     0.134 A 
ATOM     84  F   UNL A   1      47.415  30.804  29.326  1.00  0.00    -0.206 F 
ATOM     85  C   UNL A   1      46.764  32.011  27.423  1.00  0.00     0.040 A 
ATOM     86  C   UNL A   1      44.503  31.866  26.621  1.00  0.00     0.040 A 
ATOM     87  F   UNL A   1      42.916  30.604  27.786  1.00  0.00    -0.206 F 
ATOM     88  C   UNL A   1      45.794  32.374  26.494  1.00  0.00     0.006 A 
ENDBRANCH  64  81
ENDBRANCH  38  39
ENDBRANCH  31  33
ENDBRANCH  30  31
ENDBRANCH  29  30
ENDBRANCH  28  29
ENDBRANCH   1  28
TORSDOF 16
ENDMDL
MODEL 3
REMARK VINA RESULT:     -11.6      2.438      8.101
REMARK SMILES COC(=O)c1ccc2c(c1)=N[C@H](c1cn(CCC(=O)OCCOC(=O)c3ccc(-c4c5nc(c(-c6c(F)cccc6F)c6ccc([nH]6)c(-c6c(F)cccc6F)c6nc(c(-c7c(F)cccc7F)c7ccc4[nH]7)C=C6)C=C5)cc3)c3ccccc13)N=2
REMARK SMILES IDX 20 1 18 2 19 3 17 4 16 5 15 6 13 7 14 8 85 9 80 10 84 11
REMARK SMILES IDX 81 12 83 13 82 14 12 15 5 16 6 17 10 18 7 19 9 20 8 21 11 22
REMARK SMILES IDX 86 23 3 24 4 25 2 26 1 27 21 28 22 29 23 30 24 31 25 32
REMARK SMILES IDX 26 33 27 34 79 35 28 36 78 37 29 38 30 39 31 40 72 41 32 42
REMARK SMILES IDX 77 43 71 44 73 45 33 46 76 47 70 48 69 49 34 51 60 52 43 53
REMARK SMILES IDX 59 54 44 55 47 56 58 57 74 58 45 59 46 60 57 62 75 63 48 64
REMARK SMILES IDX 35 65 36 66 41 67 37 68 38 69 40 70 42 71 39 72 61 73 62 74
REMARK SMILES IDX 67 75 63 76 64 77 66 78 68 79 65 80 49 81 50 82 55 83 51 84
REMARK SMILES IDX 52 85 54 86 56 87 53 88
REMARK H PARENT 73 50 47 61
REMARK Flexibility Score: inf
ROOT
ATOM      1  O   UNL A   1      36.185  20.508  25.352  1.00  0.00    -0.462 OA
ENDROOT
BRANCH   1   2
ATOM      2  C   UNL A   1      34.913  20.869  25.614  1.00  0.00     0.307 C 
ATOM      3  O   UNL A   1      34.576  21.598  26.539  1.00  0.00    -0.252 OA
BRANCH   2   4
ATOM      4  C   UNL A   1      33.921  20.271  24.638  1.00  0.00     0.144 C 
BRANCH   4   5
ATOM      5  C   UNL A   1      32.456  20.680  24.830  1.00  0.00     0.134 C 
BRANCH   5   6
ATOM      6  N   UNL A   1      32.208  21.963  24.190  1.00  0.00    -0.346 N 
ATOM      7  C   UNL A   1      33.005  23.663  23.038  1.00  0.00     0.024 A 
ATOM      8  C   UNL A   1      32.726  22.305  22.968  1.00  0.00     0.094 A 
ATOM      9  C   UNL A   1      32.814  24.030  24.409  1.00  0.00     0.007 A 
ATOM     10  C   UNL A   1      31.861  23.119  24.844  1.00  0.00     0.048 A 
ATOM     11  C   UNL A   1      33.060  25.174  25.181  1.00  0.00     0.011 A 
ATOM     12  C   UNL A   1      30.860  23.470  25.751  1.00  0.00     0.027 A 
ATOM     13  C   UNL A   1      32.109  25.527  26.138  1.00  0.00     0.001 A 
ATOM     14  C   UNL A   1      30.971  24.741  26.330  1.00  0.00     0.002 A 
BRANCH   7  15
ATOM     15  C   UNL A   1      33.119  24.597  21.865  1.00  0.00     0.255 C 
ATOM     16  C   UNL A   1      31.163  28.610  22.569  1.00  0.00     0.062 A 
ATOM     17  C   UNL A   1      32.562  28.979  22.763  1.00  0.00     0.018 A 
ATOM     18  C   UNL A   1      30.789  27.355  22.264  1.00  0.00     0.046 A 
ATOM     19  C   UNL A   1      33.575  28.103  22.687  1.00  0.00     0.031 A 
ATOM     20  C   UNL A   1      31.844  26.352  22.087  1.00  0.00     0.087 A 
ATOM     21  C   UNL A   1      33.252  26.715  22.343  1.00  0.00     0.086 A 
ATOM     22  N   UNL A   1      31.737  25.143  21.662  1.00  0.00    -0.252 NA
ATOM     23  N   UNL A   1      34.053  25.724  22.152  1.00  0.00    -0.252 NA
BRANCH  16  24
ATOM     24  C   UNL A   1      30.051  29.608  22.701  1.00  0.00     0.337 C 
ATOM     25  O   UNL A   1      29.740  30.154  23.734  1.00  0.00    -0.246 OA
BRANCH  24  26
ATOM     26  O   UNL A   1      29.430  29.761  21.497  1.00  0.00    -0.465 OA
ATOM     27  C   UNL A   1      28.436  30.790  21.478  1.00  0.00     0.282 C 
ENDBRANCH  24  26
ENDBRANCH  16  24
ENDBRANCH   7  15
ENDBRANCH   5   6
ENDBRANCH   4   5
ENDBRANCH   2   4
ENDBRANCH   1   2
BRANCH   1  28
ATOM     28  C   UNL A   1      37.058  21.481  24.751  1.00  0.00     0.274 C 
BRANCH  28  29
ATOM     29  C   UNL A   1      38.444  21.317  25.384  1.00  0.00     0.275 C 
BRANCH  29  30
ATOM     30  O   UNL A   1      38.630  22.339  26.381  1.00  0.00    -0.458 OA
BRANCH  30  31
ATOM     31  C   UNL A   1      39.862  22.373  26.951  1.00  0.00     0.338 C 
ATOM     32  O   UNL A   1      40.659  21.454  27.011  1.00  0.00    -0.246 OA
BRANCH  31  33
ATOM     33  C   UNL A   1      40.220  23.799  27.161  1.00  0.00     0.060 A 
ATOM     34  C   UNL A   1      41.295  24.154  27.981  1.00  0.00     0.016 A 
ATOM     35  C   UNL A   1      39.290  24.768  26.758  1.00  0.00     0.016 A 
ATOM     36  C   UNL A   1      41.322  25.417  28.553  1.00  0.00     0.010 A 
ATOM     37  C   UNL A   1      39.322  26.034  27.332  1.00  0.00     0.010 A 
ATOM     38  C   UNL A   1      40.289  26.330  28.293  1.00  0.00    -0.014 A 
BRANCH  38  39
ATOM     39  C   UNL A   1      40.439  27.683  28.829  1.00  0.00     0.031 A 
ATOM     40  C   UNL A   1      41.634  28.330  28.247  1.00  0.00     0.074 A 
ATOM     41  C   UNL A   1      39.654  28.342  29.706  1.00  0.00     0.049 A 
ATOM     42  N   UNL A   1      42.787  28.456  28.813  1.00  0.00    -0.248 NA
ATOM     43  C   UNL A   1      41.614  28.677  26.820  1.00  0.00     0.031 C 
ATOM     44  C   UNL A   1      38.327  27.981  30.200  1.00  0.00     0.029 A 
ATOM     45  N   UNL A   1      39.885  29.548  30.321  1.00  0.00    -0.354 N 
ATOM     46  C   UNL A   1      43.585  29.098  27.877  1.00  0.00     0.074 A 
ATOM     47  C   UNL A   1      42.888  29.018  26.622  1.00  0.00     0.031 C 
ATOM     48  C   UNL A   1      37.786  29.026  30.871  1.00  0.00     0.029 A 
ATOM     49  C   UNL A   1      38.785  30.074  30.991  1.00  0.00     0.049 A 
ATOM     50  H   UNL A   1      40.758  30.004  30.290  1.00  0.00     0.167 HD
ATOM     51  C   UNL A   1      44.602  29.901  28.285  1.00  0.00     0.037 A 
ATOM     52  C   UNL A   1      38.695  31.274  31.620  1.00  0.00     0.037 A 
ATOM     53  C   UNL A   1      44.898  29.688  29.681  1.00  0.00     0.049 A 
ATOM     54  C   UNL A   1      40.061  31.710  31.970  1.00  0.00     0.074 A 
ATOM     55  C   UNL A   1      45.531  28.736  30.449  1.00  0.00     0.029 A 
ATOM     56  N   UNL A   1      44.130  30.446  30.524  1.00  0.00    -0.354 N 
ATOM     57  N   UNL A   1      40.778  31.145  32.899  1.00  0.00    -0.248 NA
ATOM     58  C   UNL A   1      40.792  32.593  31.070  1.00  0.00     0.031 C 
ATOM     59  C   UNL A   1      44.976  28.847  31.760  1.00  0.00     0.029 A 
ATOM     60  C   UNL A   1      44.037  29.876  31.762  1.00  0.00     0.049 A 
ATOM     61  H   UNL A   1      43.699  31.294  30.269  1.00  0.00     0.167 HD
ATOM     62  C   UNL A   1      42.072  31.234  32.429  1.00  0.00     0.074 A 
ATOM     63  C   UNL A   1      42.043  32.288  31.424  1.00  0.00     0.031 C 
ATOM     64  C   UNL A   1      42.961  30.226  32.660  1.00  0.00     0.037 A 
BRANCH  51  65
ATOM     65  C   UNL A   1      44.954  31.214  27.619  1.00  0.00     0.057 A 
ATOM     66  C   UNL A   1      44.301  32.438  27.872  1.00  0.00     0.134 A 
ATOM     67  C   UNL A   1      46.196  31.324  26.969  1.00  0.00     0.134 A 
ATOM     68  F   UNL A   1      43.152  32.521  28.552  1.00  0.00    -0.206 F 
ATOM     69  C   UNL A   1      44.852  33.677  27.533  1.00  0.00     0.040 A 
ATOM     70  C   UNL A   1      46.779  32.562  26.671  1.00  0.00     0.040 A 
ATOM     71  F   UNL A   1      46.922  30.233  26.681  1.00  0.00    -0.206 F 
ATOM     72  C   UNL A   1      46.111  33.744  26.963  1.00  0.00     0.006 A 
ENDBRANCH  51  65
BRANCH  52  73
ATOM     73  C   UNL A   1      37.528  32.157  31.839  1.00  0.00     0.057 A 
ATOM     74  C   UNL A   1      36.800  32.087  33.038  1.00  0.00     0.134 A 
ATOM     75  C   UNL A   1      36.923  32.865  30.789  1.00  0.00     0.134 A 
ATOM     76  F   UNL A   1      37.258  31.375  34.078  1.00  0.00    -0.206 F 
ATOM     77  C   UNL A   1      35.531  32.662  33.176  1.00  0.00     0.040 A 
ATOM     78  C   UNL A   1      35.653  33.446  30.916  1.00  0.00     0.040 A 
ATOM     79  F   UNL A   1      37.520  32.957  29.593  1.00  0.00    -0.206 F 
ATOM     80  C   UNL A   1      34.946  33.332  32.108  1.00  0.00     0.006 A 
ENDBRANCH  52  73
BRANCH  64  81
ATOM     81  C   UNL A   1      42.676  29.332  33.825  1.00  0.00     0.057 A 
ATOM     82  C   UNL A   1      41.986  28.138  33.591  1.00  0.00     0.134 A 
ATOM     83  C   UNL A   1      43.023  29.622  35.151  1.00  0.00     0.134 A 
ATOM     84  F   UNL A   1      41.590  27.818  32.348  1.00  0.00    -0.206 F 
ATOM     85  C   UNL A   1      41.667  27.257  34.624  1.00  0.00     0.040 A 
ATOM     86  C   UNL A   1      42.739  28.732  36.192  1.00  0.00     0.040 A 
ATOM     87  F   UNL A   1      43.620  30.776  35.475  1.00  0.00    -0.206 F 
ATOM     88  C   UNL A   1      42.056  27.546  35.929  1.00  0.00     0.006 A 
ENDBRANCH  64  81
ENDBRANCH  38  39
ENDBRANCH  31  33
ENDBRANCH  30  31
ENDBRANCH  29  30
ENDBRANCH  28  29
ENDBRANCH   1  28
TORSDOF 16
ENDMDL
