MODEL 1
REMARK VINA RESULT:     -11.6      0.000      0.000
REMARK SMILES CCN(CC)C(=O)COc1cc(C)ccc1C(=O)OCCOC(=O)c1ccc(-c2c3nc(c(-c4c(F)cccc4F)c4ccc([nH]4)c(-c4c(F)cccc4F)c4nc(c(-c5c(F)cccc5F)c5ccc2[nH]5)C=C4)C=C3)cc1
REMARK SMILES IDX 20 1 19 2 17 3 18 4 16 5 10 6 11 7 12 8 15 9 13 10 14 11
REMARK SMILES IDX 9 12 8 13 6 14 3 15 7 16 2 17 1 18 4 19 5 20 21 21 22 22
REMARK SMILES IDX 23 23 24 24 25 25 26 26 78 27 27 28 77 29 28 30 29 31 30 32
REMARK SMILES IDX 71 33 31 34 76 35 70 36 72 37 32 38 75 39 69 40 68 41 33 43
REMARK SMILES IDX 59 44 42 45 58 46 43 47 46 48 57 49 73 50 44 51 45 52 56 54
REMARK SMILES IDX 74 55 47 56 34 57 35 58 40 59 36 60 37 61 39 62 41 63 38 64
REMARK SMILES IDX 60 65 61 66 66 67 62 68 63 69 65 70 67 71 64 72 48 73 49 74
REMARK SMILES IDX 54 75 50 76 51 77 53 78 55 79 52 80
REMARK H PARENT 72 42 46 53
REMARK Flexibility Score: inf
ROOT
ATOM      1  C   UNL A   1      33.513  30.035  26.464  1.00  0.00     0.275 C 
ENDROOT
BRANCH   1   2
ATOM      2  O   UNL A   1      33.175  29.453  25.202  1.00  0.00    -0.458 OA
BRANCH   2   3
ATOM      3  C   UNL A   1      31.945  28.890  25.196  1.00  0.00     0.342 C 
ATOM      4  O   UNL A   1      31.598  27.904  25.829  1.00  0.00    -0.246 OA
BRANCH   3   5
ATOM      5  C   UNL A   1      31.082  29.516  24.192  1.00  0.00     0.102 A 
ATOM      6  C   UNL A   1      31.119  28.915  22.939  1.00  0.00     0.134 A 
ATOM      7  C   UNL A   1      30.212  29.305  21.962  1.00  0.00     0.050 A 
ATOM      8  C   UNL A   1      29.232  30.265  22.250  1.00  0.00    -0.047 A 
ATOM      9  C   UNL A   1      30.173  30.537  24.474  1.00  0.00     0.020 A 
ATOM     10  C   UNL A   1      28.134  30.538  21.260  1.00  0.00     0.044 C 
ATOM     11  C   UNL A   1      29.226  30.887  23.507  1.00  0.00     0.004 A 
BRANCH   6  12
ATOM     12  O   UNL A   1      31.934  27.828  22.822  1.00  0.00    -0.483 OA
BRANCH  12  13
ATOM     13  C   UNL A   1      31.452  26.729  22.087  1.00  0.00     0.329 C 
BRANCH  13  14
ATOM     14  C   UNL A   1      32.525  25.684  21.838  1.00  0.00     0.260 C 
ATOM     15  N   UNL A   1      32.672  24.634  22.745  1.00  0.00    -0.340 N 
ATOM     16  O   UNL A   1      33.216  25.769  20.817  1.00  0.00    -0.271 OA
BRANCH  15  17
ATOM     17  C   UNL A   1      33.402  23.462  22.270  1.00  0.00     0.116 C 
ATOM     18  C   UNL A   1      34.613  23.172  23.147  1.00  0.00     0.027 C 
ENDBRANCH  15  17
BRANCH  15  19
ATOM     19  C   UNL A   1      32.044  24.535  24.077  1.00  0.00     0.116 C 
ATOM     20  C   UNL A   1      30.929  23.499  24.128  1.00  0.00     0.027 C 
ENDBRANCH  15  19
ENDBRANCH  13  14
ENDBRANCH  12  13
ENDBRANCH   6  12
ENDBRANCH   3   5
ENDBRANCH   2   3
ENDBRANCH   1   2
BRANCH   1  21
ATOM     21  C   UNL A   1      34.744  29.369  27.076  1.00  0.00     0.275 C 
BRANCH  21  22
ATOM     22  O   UNL A   1      35.353  30.001  28.247  1.00  0.00    -0.458 OA
BRANCH  22  23
ATOM     23  C   UNL A   1      36.597  30.520  28.411  1.00  0.00     0.338 C 
ATOM     24  O   UNL A   1      36.791  31.731  28.478  1.00  0.00    -0.246 OA
BRANCH  23  25
ATOM     25  C   UNL A   1      37.733  29.596  28.538  1.00  0.00     0.060 A 
ATOM     26  C   UNL A   1      37.758  28.633  29.566  1.00  0.00     0.016 A 
ATOM     27  C   UNL A   1      38.732  29.636  27.579  1.00  0.00     0.016 A 
ATOM     28  C   UNL A   1      38.727  27.636  29.556  1.00  0.00     0.010 A 
ATOM     29  C   UNL A   1      39.558  28.555  27.450  1.00  0.00     0.010 A 
ATOM     30  C   UNL A   1      39.603  27.598  28.473  1.00  0.00    -0.014 A 
BRANCH  30  31
ATOM     31  C   UNL A   1      40.826  26.818  28.455  1.00  0.00     0.031 A 
ATOM     32  C   UNL A   1      40.819  25.367  28.253  1.00  0.00     0.074 A 
ATOM     33  C   UNL A   1      41.917  27.606  28.569  1.00  0.00     0.049 A 
ATOM     34  N   UNL A   1      41.647  24.557  28.814  1.00  0.00    -0.248 NA
ATOM     35  C   UNL A   1      39.837  24.685  27.414  1.00  0.00     0.031 C 
ATOM     36  C   UNL A   1      43.332  27.344  28.419  1.00  0.00     0.029 A 
ATOM     37  N   UNL A   1      41.873  28.931  29.026  1.00  0.00    -0.354 N 
ATOM     38  C   UNL A   1      41.547  23.352  28.146  1.00  0.00     0.074 A 
ATOM     39  C   UNL A   1      40.309  23.433  27.417  1.00  0.00     0.031 C 
ATOM     40  C   UNL A   1      44.009  28.322  29.060  1.00  0.00     0.029 A 
ATOM     41  C   UNL A   1      43.037  29.181  29.736  1.00  0.00     0.049 A 
ATOM     42  H   UNL A   1      41.142  29.572  28.869  1.00  0.00     0.167 HD
ATOM     43  C   UNL A   1      42.635  22.527  28.098  1.00  0.00     0.037 A 
ATOM     44  C   UNL A   1      42.890  29.360  31.082  1.00  0.00     0.037 A 
ATOM     45  C   UNL A   1      43.739  23.159  28.818  1.00  0.00     0.049 A 
ATOM     46  C   UNL A   1      43.442  28.170  31.831  1.00  0.00     0.074 A 
ATOM     47  C   UNL A   1      44.751  23.991  28.364  1.00  0.00     0.029 A 
ATOM     48  N   UNL A   1      43.645  23.365  30.190  1.00  0.00    -0.354 N 
ATOM     49  N   UNL A   1      43.554  26.970  31.325  1.00  0.00    -0.248 NA
ATOM     50  C   UNL A   1      43.957  28.261  33.190  1.00  0.00     0.031 C 
ATOM     51  C   UNL A   1      45.185  24.784  29.458  1.00  0.00     0.029 A 
ATOM     52  C   UNL A   1      44.453  24.420  30.576  1.00  0.00     0.049 A 
ATOM     53  H   UNL A   1      43.084  22.833  30.800  1.00  0.00     0.167 HD
ATOM     54  C   UNL A   1      44.184  26.156  32.226  1.00  0.00     0.074 A 
ATOM     55  C   UNL A   1      44.415  27.012  33.378  1.00  0.00     0.031 C 
ATOM     56  C   UNL A   1      44.489  24.850  31.966  1.00  0.00     0.037 A 
BRANCH  43  57
ATOM     57  C   UNL A   1      42.825  21.392  27.108  1.00  0.00     0.057 A 
ATOM     58  C   UNL A   1      42.082  20.197  27.235  1.00  0.00     0.134 A 
ATOM     59  C   UNL A   1      43.731  21.389  26.032  1.00  0.00     0.134 A 
ATOM     60  F   UNL A   1      41.106  20.067  28.142  1.00  0.00    -0.206 F 
ATOM     61  C   UNL A   1      42.297  19.065  26.436  1.00  0.00     0.040 A 
ATOM     62  C   UNL A   1      43.980  20.250  25.244  1.00  0.00     0.040 A 
ATOM     63  F   UNL A   1      44.382  22.499  25.660  1.00  0.00    -0.206 F 
ATOM     64  C   UNL A   1      43.271  19.077  25.453  1.00  0.00     0.006 A 
ENDBRANCH  43  57
BRANCH  44  65
ATOM     65  C   UNL A   1      41.652  30.136  31.457  1.00  0.00     0.057 A 
ATOM     66  C   UNL A   1      41.483  31.439  30.935  1.00  0.00     0.134 A 
ATOM     67  C   UNL A   1      40.520  29.564  32.046  1.00  0.00     0.134 A 
ATOM     68  F   UNL A   1      42.520  32.074  30.364  1.00  0.00    -0.206 F 
ATOM     69  C   UNL A   1      40.241  32.083  30.887  1.00  0.00     0.040 A 
ATOM     70  C   UNL A   1      39.273  30.216  32.033  1.00  0.00     0.040 A 
ATOM     71  F   UNL A   1      40.568  28.333  32.574  1.00  0.00    -0.206 F 
ATOM     72  C   UNL A   1      39.121  31.457  31.418  1.00  0.00     0.006 A 
ENDBRANCH  44  65
BRANCH  56  73
ATOM     73  C   UNL A   1      44.953  23.866  33.002  1.00  0.00     0.057 A 
ATOM     74  C   UNL A   1      46.225  23.899  33.586  1.00  0.00     0.134 A 
ATOM     75  C   UNL A   1      44.053  22.931  33.558  1.00  0.00     0.134 A 
ATOM     76  F   UNL A   1      47.127  24.834  33.254  1.00  0.00    -0.206 F 
ATOM     77  C   UNL A   1      46.610  23.001  34.585  1.00  0.00     0.040 A 
ATOM     78  C   UNL A   1      44.402  22.081  34.608  1.00  0.00     0.040 A 
ATOM     79  F   UNL A   1      42.787  22.820  33.129  1.00  0.00    -0.206 F 
ATOM     80  C   UNL A   1      45.696  22.094  35.106  1.00  0.00     0.006 A 
ENDBRANCH  56  73
ENDBRANCH  30  31
ENDBRANCH  23  25
ENDBRANCH  22  23
ENDBRANCH  21  22
ENDBRANCH   1  21
TORSDOF 16
ENDMDL
MODEL 2
REMARK VINA RESULT:     -11.3      1.293      3.236
REMARK SMILES CCN(CC)C(=O)COc1cc(C)ccc1C(=O)OCCOC(=O)c1ccc(-c2c3nc(c(-c4c(F)cccc4F)c4ccc([nH]4)c(-c4c(F)cccc4F)c4nc(c(-c5c(F)cccc5F)c5ccc2[nH]5)C=C4)C=C3)cc1
REMARK SMILES IDX 20 1 19 2 17 3 18 4 16 5 10 6 11 7 12 8 15 9 13 10 14 11
REMARK SMILES IDX 9 12 8 13 6 14 3 15 7 16 2 17 1 18 4 19 5 20 21 21 22 22
REMARK SMILES IDX 23 23 24 24 25 25 26 26 78 27 27 28 77 29 28 30 29 31 30 32
REMARK SMILES IDX 71 33 31 34 76 35 70 36 72 37 32 38 75 39 69 40 68 41 33 43
REMARK SMILES IDX 59 44 42 45 58 46 43 47 46 48 57 49 73 50 44 51 45 52 56 54
REMARK SMILES IDX 74 55 47 56 34 57 35 58 40 59 36 60 37 61 39 62 41 63 38 64
REMARK SMILES IDX 60 65 61 66 66 67 62 68 63 69 65 70 67 71 64 72 48 73 49 74
REMARK SMILES IDX 54 75 50 76 51 77 53 78 55 79 52 80
REMARK H PARENT 72 42 46 53
REMARK Flexibility Score: inf
ROOT
ATOM      1  C   UNL A   1      32.989  29.918  27.225  1.00  0.00     0.275 C 
ENDROOT
BRANCH   1   2
ATOM      2  O   UNL A   1      33.257  28.513  27.231  1.00  0.00    -0.458 OA
BRANCH   2   3
ATOM      3  C   UNL A   1      32.135  27.765  27.139  1.00  0.00     0.342 C 
ATOM      4  O   UNL A   1      31.184  27.788  27.906  1.00  0.00    -0.246 OA
BRANCH   3   5
ATOM      5  C   UNL A   1      32.249  26.770  26.071  1.00  0.00     0.102 A 
ATOM      6  C   UNL A   1      31.547  27.078  24.911  1.00  0.00     0.134 A 
ATOM      7  C   UNL A   1      31.725  26.304  23.771  1.00  0.00     0.050 A 
ATOM      8  C   UNL A   1      32.644  25.246  23.772  1.00  0.00    -0.047 A 
ATOM      9  C   UNL A   1      33.103  25.666  26.122  1.00  0.00     0.020 A 
ATOM     10  C   UNL A   1      32.980  24.541  22.488  1.00  0.00     0.044 C 
ATOM     11  C   UNL A   1      33.323  24.925  24.957  1.00  0.00     0.004 A 
BRANCH   6  12
ATOM     12  O   UNL A   1      30.867  28.260  24.923  1.00  0.00    -0.483 OA
BRANCH  12  13
ATOM     13  C   UNL A   1      30.885  29.033  23.746  1.00  0.00     0.329 C 
BRANCH  13  14
ATOM     14  C   UNL A   1      30.189  30.370  23.923  1.00  0.00     0.260 C 
ATOM     15  N   UNL A   1      29.245  30.774  22.977  1.00  0.00    -0.340 N 
ATOM     16  O   UNL A   1      30.447  31.050  24.922  1.00  0.00    -0.271 OA
BRANCH  15  17
ATOM     17  C   UNL A   1      28.323  31.829  23.389  1.00  0.00     0.116 C 
ATOM     18  C   UNL A   1      28.900  33.209  23.102  1.00  0.00     0.027 C 
ENDBRANCH  15  17
BRANCH  15  19
ATOM     19  C   UNL A   1      28.999  30.145  21.665  1.00  0.00     0.116 C 
ATOM     20  C   UNL A   1      27.971  30.899  20.833  1.00  0.00     0.027 C 
ENDBRANCH  15  19
ENDBRANCH  13  14
ENDBRANCH  12  13
ENDBRANCH   6  12
ENDBRANCH   3   5
ENDBRANCH   2   3
ENDBRANCH   1   2
BRANCH   1  21
ATOM     21  C   UNL A   1      34.268  30.733  27.411  1.00  0.00     0.275 C 
BRANCH  21  22
ATOM     22  O   UNL A   1      35.388  30.099  28.107  1.00  0.00    -0.458 OA
BRANCH  22  23
ATOM     23  C   UNL A   1      36.586  30.616  28.485  1.00  0.00     0.338 C 
ATOM     24  O   UNL A   1      36.727  31.809  28.740  1.00  0.00    -0.246 OA
BRANCH  23  25
ATOM     25  C   UNL A   1      37.734  29.706  28.616  1.00  0.00     0.060 A 
ATOM     26  C   UNL A   1      37.817  28.815  29.705  1.00  0.00     0.016 A 
ATOM     27  C   UNL A   1      38.682  29.684  27.607  1.00  0.00     0.016 A 
ATOM     28  C   UNL A   1      38.791  27.823  29.713  1.00  0.00     0.010 A 
ATOM     29  C   UNL A   1      39.507  28.600  27.509  1.00  0.00     0.010 A 
ATOM     30  C   UNL A   1      39.611  27.714  28.591  1.00  0.00    -0.014 A 
BRANCH  30  31
ATOM     31  C   UNL A   1      40.837  26.939  28.564  1.00  0.00     0.031 A 
ATOM     32  C   UNL A   1      40.837  25.495  28.320  1.00  0.00     0.074 A 
ATOM     33  C   UNL A   1      41.924  27.727  28.711  1.00  0.00     0.049 A 
ATOM     34  N   UNL A   1      41.662  24.672  28.865  1.00  0.00    -0.248 NA
ATOM     35  C   UNL A   1      39.866  24.835  27.451  1.00  0.00     0.031 C 
ATOM     36  C   UNL A   1      43.341  27.474  28.568  1.00  0.00     0.029 A 
ATOM     37  N   UNL A   1      41.871  29.038  29.206  1.00  0.00    -0.354 N 
ATOM     38  C   UNL A   1      41.573  23.486  28.162  1.00  0.00     0.074 A 
ATOM     39  C   UNL A   1      40.342  23.584  27.423  1.00  0.00     0.031 C 
ATOM     40  C   UNL A   1      44.008  28.435  29.244  1.00  0.00     0.029 A 
ATOM     41  C   UNL A   1      43.026  29.271  29.935  1.00  0.00     0.049 A 
ATOM     42  H   UNL A   1      41.139  29.681  29.060  1.00  0.00     0.167 HD
ATOM     43  C   UNL A   1      42.664  22.666  28.102  1.00  0.00     0.037 A 
ATOM     44  C   UNL A   1      42.865  29.411  31.284  1.00  0.00     0.037 A 
ATOM     45  C   UNL A   1      43.759  23.281  28.852  1.00  0.00     0.049 A 
ATOM     46  C   UNL A   1      43.413  28.202  32.004  1.00  0.00     0.074 A 
ATOM     47  C   UNL A   1      44.772  24.128  28.432  1.00  0.00     0.029 A 
ATOM     48  N   UNL A   1      43.650  23.446  30.227  1.00  0.00    -0.354 N 
ATOM     49  N   UNL A   1      43.534  27.017  31.465  1.00  0.00    -0.248 NA
ATOM     50  C   UNL A   1      43.914  28.255  33.370  1.00  0.00     0.031 C 
ATOM     51  C   UNL A   1      45.192  24.891  29.552  1.00  0.00     0.029 A 
ATOM     52  C   UNL A   1      44.450  24.493  30.652  1.00  0.00     0.049 A 
ATOM     53  H   UNL A   1      43.084  22.896  30.816  1.00  0.00     0.167 HD
ATOM     54  C   UNL A   1      44.158  26.179  32.348  1.00  0.00     0.074 A 
ATOM     55  C   UNL A   1      44.374  27.003  33.527  1.00  0.00     0.031 C 
ATOM     56  C   UNL A   1      44.470  24.882  32.054  1.00  0.00     0.037 A 
BRANCH  43  57
ATOM     57  C   UNL A   1      42.868  21.561  27.081  1.00  0.00     0.057 A 
ATOM     58  C   UNL A   1      42.118  20.366  27.158  1.00  0.00     0.134 A 
ATOM     59  C   UNL A   1      43.795  21.585  26.024  1.00  0.00     0.134 A 
ATOM     60  F   UNL A   1      41.123  20.214  28.042  1.00  0.00    -0.206 F 
ATOM     61  C   UNL A   1      42.343  19.258  26.329  1.00  0.00     0.040 A 
ATOM     62  C   UNL A   1      44.054  20.471  25.206  1.00  0.00     0.040 A 
ATOM     63  F   UNL A   1      44.458  22.704  25.699  1.00  0.00    -0.206 F 
ATOM     64  C   UNL A   1      43.336  19.295  25.365  1.00  0.00     0.006 A 
ENDBRANCH  43  57
BRANCH  44  65
ATOM     65  C   UNL A   1      41.620  30.172  31.668  1.00  0.00     0.057 A 
ATOM     66  C   UNL A   1      40.572  29.477  32.315  1.00  0.00     0.134 A 
ATOM     67  C   UNL A   1      41.536  31.568  31.698  1.00  0.00     0.134 A 
ATOM     68  F   UNL A   1      40.561  28.134  32.325  1.00  0.00    -0.206 F 
ATOM     69  C   UNL A   1      39.572  30.125  33.051  1.00  0.00     0.040 A 
ATOM     70  C   UNL A   1      40.516  32.230  32.407  1.00  0.00     0.040 A 
ATOM     71  F   UNL A   1      42.475  32.325  31.114  1.00  0.00    -0.206 F 
ATOM     72  C   UNL A   1      39.557  31.511  33.118  1.00  0.00     0.006 A 
ENDBRANCH  44  65
BRANCH  56  73
ATOM     73  C   UNL A   1      44.927  23.870  33.066  1.00  0.00     0.057 A 
ATOM     74  C   UNL A   1      46.208  23.866  33.632  1.00  0.00     0.134 A 
ATOM     75  C   UNL A   1      44.015  22.945  33.619  1.00  0.00     0.134 A 
ATOM     76  F   UNL A   1      47.125  24.786  33.303  1.00  0.00    -0.206 F 
ATOM     77  C   UNL A   1      46.587  22.941  34.610  1.00  0.00     0.040 A 
ATOM     78  C   UNL A   1      44.360  22.070  34.648  1.00  0.00     0.040 A 
ATOM     79  F   UNL A   1      42.741  22.870  33.206  1.00  0.00    -0.206 F 
ATOM     80  C   UNL A   1      45.660  22.046  35.128  1.00  0.00     0.006 A 
ENDBRANCH  56  73
ENDBRANCH  30  31
ENDBRANCH  23  25
ENDBRANCH  22  23
ENDBRANCH  21  22
ENDBRANCH   1  21
TORSDOF 16
ENDMDL
MODEL 3
REMARK VINA RESULT:     -11.3      1.073      1.451
REMARK SMILES CCN(CC)C(=O)COc1cc(C)ccc1C(=O)OCCOC(=O)c1ccc(-c2c3nc(c(-c4c(F)cccc4F)c4ccc([nH]4)c(-c4c(F)cccc4F)c4nc(c(-c5c(F)cccc5F)c5ccc2[nH]5)C=C4)C=C3)cc1
REMARK SMILES IDX 20 1 19 2 17 3 18 4 16 5 10 6 11 7 12 8 15 9 13 10 14 11
REMARK SMILES IDX 9 12 8 13 6 14 3 15 7 16 2 17 1 18 4 19 5 20 21 21 22 22
REMARK SMILES IDX 23 23 24 24 25 25 26 26 78 27 27 28 77 29 28 30 29 31 30 32
REMARK SMILES IDX 71 33 31 34 76 35 70 36 72 37 32 38 75 39 69 40 68 41 33 43
REMARK SMILES IDX 59 44 42 45 58 46 43 47 46 48 57 49 73 50 44 51 45 52 56 54
REMARK SMILES IDX 74 55 47 56 34 57 35 58 40 59 36 60 37 61 39 62 41 63 38 64
REMARK SMILES IDX 60 65 61 66 66 67 62 68 63 69 65 70 67 71 64 72 48 73 49 74
REMARK SMILES IDX 54 75 50 76 51 77 53 78 55 79 52 80
REMARK H PARENT 72 42 46 53
REMARK Flexibility Score: inf
ROOT
ATOM      1  C   UNL A   1      33.264  30.232  26.738  1.00  0.00     0.275 C 
ENDROOT
BRANCH   1   2
ATOM      2  O   UNL A   1      32.340  29.185  26.429  1.00  0.00    -0.458 OA
BRANCH   2   3
ATOM      3  C   UNL A   1      32.529  28.666  25.194  1.00  0.00     0.342 C 
ATOM      4  O   UNL A   1      33.597  28.327  24.708  1.00  0.00    -0.246 OA
BRANCH   3   5
ATOM      5  C   UNL A   1      31.293  28.701  24.410  1.00  0.00     0.102 A 
ATOM      6  C   UNL A   1      30.624  27.486  24.325  1.00  0.00     0.134 A 
ATOM      7  C   UNL A   1      29.354  27.436  23.765  1.00  0.00     0.050 A 
ATOM      8  C   UNL A   1      28.727  28.612  23.330  1.00  0.00    -0.047 A 
ATOM      9  C   UNL A   1      30.725  29.872  23.903  1.00  0.00     0.020 A 
ATOM     10  C   UNL A   1      27.284  28.584  22.911  1.00  0.00     0.044 C 
ATOM     11  C   UNL A   1      29.425  29.828  23.392  1.00  0.00     0.004 A 
BRANCH   6  12
ATOM     12  O   UNL A   1      31.198  26.442  24.989  1.00  0.00    -0.483 OA
BRANCH  12  13
ATOM     13  C   UNL A   1      30.366  25.365  25.351  1.00  0.00     0.329 C 
BRANCH  13  14
ATOM     14  C   UNL A   1      31.139  24.232  26.003  1.00  0.00     0.260 C 
ATOM     15  N   UNL A   1      31.903  23.383  25.200  1.00  0.00    -0.340 N 
ATOM     16  O   UNL A   1      31.105  24.116  27.232  1.00  0.00    -0.271 OA
BRANCH  15  17
ATOM     17  C   UNL A   1      32.930  22.598  25.879  1.00  0.00     0.116 C 
ATOM     18  C   UNL A   1      34.241  23.367  25.974  1.00  0.00     0.027 C 
ENDBRANCH  15  17
BRANCH  15  19
ATOM     19  C   UNL A   1      31.869  23.309  23.727  1.00  0.00     0.116 C 
ATOM     20  C   UNL A   1      32.218  21.924  23.198  1.00  0.00     0.027 C 
ENDBRANCH  15  19
ENDBRANCH  13  14
ENDBRANCH  12  13
ENDBRANCH   6  12
ENDBRANCH   3   5
ENDBRANCH   2   3
ENDBRANCH   1   2
BRANCH   1  21
ATOM     21  C   UNL A   1      34.406  29.727  27.620  1.00  0.00     0.275 C 
BRANCH  21  22
ATOM     22  O   UNL A   1      35.737  30.296  27.407  1.00  0.00    -0.458 OA
BRANCH  22  23
ATOM     23  C   UNL A   1      36.716  30.585  28.303  1.00  0.00     0.338 C 
ATOM     24  O   UNL A   1      36.675  31.590  29.007  1.00  0.00    -0.246 OA
BRANCH  23  25
ATOM     25  C   UNL A   1      37.838  29.646  28.445  1.00  0.00     0.060 A 
ATOM     26  C   UNL A   1      37.833  28.677  29.468  1.00  0.00     0.016 A 
ATOM     27  C   UNL A   1      38.854  29.678  27.503  1.00  0.00     0.016 A 
ATOM     28  C   UNL A   1      38.790  27.668  29.470  1.00  0.00     0.010 A 
ATOM     29  C   UNL A   1      39.668  28.587  27.383  1.00  0.00     0.010 A 
ATOM     30  C   UNL A   1      39.684  27.624  28.402  1.00  0.00    -0.014 A 
BRANCH  30  31
ATOM     31  C   UNL A   1      40.897  26.829  28.401  1.00  0.00     0.031 A 
ATOM     32  C   UNL A   1      40.874  25.377  28.206  1.00  0.00     0.074 A 
ATOM     33  C   UNL A   1      41.996  27.603  28.522  1.00  0.00     0.049 A 
ATOM     34  N   UNL A   1      41.685  24.560  28.779  1.00  0.00    -0.248 NA
ATOM     35  C   UNL A   1      39.892  24.704  27.359  1.00  0.00     0.031 C 
ATOM     36  C   UNL A   1      43.409  27.323  28.389  1.00  0.00     0.029 A 
ATOM     37  N   UNL A   1      41.964  28.931  28.973  1.00  0.00    -0.354 N 
ATOM     38  C   UNL A   1      41.577  23.352  28.116  1.00  0.00     0.074 A 
ATOM     39  C   UNL A   1      40.348  23.445  27.373  1.00  0.00     0.031 C 
ATOM     40  C   UNL A   1      44.091  28.295  29.032  1.00  0.00     0.029 A 
ATOM     41  C   UNL A   1      43.123  29.170  29.694  1.00  0.00     0.049 A 
ATOM     42  H   UNL A   1      41.243  29.581  28.804  1.00  0.00     0.167 HD
ATOM     43  C   UNL A   1      42.655  22.513  28.084  1.00  0.00     0.037 A 
ATOM     44  C   UNL A   1      42.965  29.358  31.037  1.00  0.00     0.037 A 
ATOM     45  C   UNL A   1      43.759  23.136  28.813  1.00  0.00     0.049 A 
ATOM     46  C   UNL A   1      43.493  28.165  31.798  1.00  0.00     0.074 A 
ATOM     47  C   UNL A   1      44.786  23.952  28.366  1.00  0.00     0.029 A 
ATOM     48  N   UNL A   1      43.653  23.349  30.183  1.00  0.00    -0.354 N 
ATOM     49  N   UNL A   1      43.595  26.961  31.299  1.00  0.00    -0.248 NA
ATOM     50  C   UNL A   1      43.995  28.256  33.162  1.00  0.00     0.031 C 
ATOM     51  C   UNL A   1      45.218  24.745  29.460  1.00  0.00     0.029 A 
ATOM     52  C   UNL A   1      44.470  24.396  30.572  1.00  0.00     0.049 A 
ATOM     53  H   UNL A   1      43.079  22.828  30.789  1.00  0.00     0.167 HD
ATOM     54  C   UNL A   1      44.205  26.143  32.211  1.00  0.00     0.074 A 
ATOM     55  C   UNL A   1      44.435  27.002  33.361  1.00  0.00     0.031 C 
ATOM     56  C   UNL A   1      44.496  24.832  31.960  1.00  0.00     0.037 A 
BRANCH  43  57
ATOM     57  C   UNL A   1      42.841  21.372  27.101  1.00  0.00     0.057 A 
ATOM     58  C   UNL A   1      42.100  20.177  27.241  1.00  0.00     0.134 A 
ATOM     59  C   UNL A   1      43.742  21.360  26.022  1.00  0.00     0.134 A 
ATOM     60  F   UNL A   1      41.127  20.053  28.153  1.00  0.00    -0.206 F 
ATOM     61  C   UNL A   1      42.312  19.040  26.449  1.00  0.00     0.040 A 
ATOM     62  C   UNL A   1      43.989  20.217  25.241  1.00  0.00     0.040 A 
ATOM     63  F   UNL A   1      44.391  22.469  25.639  1.00  0.00    -0.206 F 
ATOM     64  C   UNL A   1      43.281  19.044  25.462  1.00  0.00     0.006 A 
ENDBRANCH  43  57
BRANCH  44  65
ATOM     65  C   UNL A   1      41.732  30.151  31.395  1.00  0.00     0.057 A 
ATOM     66  C   UNL A   1      41.590  31.457  30.872  1.00  0.00     0.134 A 
ATOM     67  C   UNL A   1      40.583  29.595  31.966  1.00  0.00     0.134 A 
ATOM     68  F   UNL A   1      42.644  32.078  30.317  1.00  0.00    -0.206 F 
ATOM     69  C   UNL A   1      40.358  32.119  30.807  1.00  0.00     0.040 A 
ATOM     70  C   UNL A   1      39.346  30.264  31.936  1.00  0.00     0.040 A 
ATOM     71  F   UNL A   1      40.606  28.363  32.494  1.00  0.00    -0.206 F 
ATOM     72  C   UNL A   1      39.222  31.509  31.320  1.00  0.00     0.006 A 
ENDBRANCH  44  65
BRANCH  56  73
ATOM     73  C   UNL A   1      44.937  23.848  33.006  1.00  0.00     0.057 A 
ATOM     74  C   UNL A   1      46.218  23.841  33.572  1.00  0.00     0.134 A 
ATOM     75  C   UNL A   1      44.010  22.957  33.591  1.00  0.00     0.134 A 
ATOM     76  F   UNL A   1      47.150  24.733  33.211  1.00  0.00    -0.206 F 
ATOM     77  C   UNL A   1      46.582  22.944  34.580  1.00  0.00     0.040 A 
ATOM     78  C   UNL A   1      44.341  22.112  34.649  1.00  0.00     0.040 A 
ATOM     79  F   UNL A   1      42.734  22.890  33.180  1.00  0.00    -0.206 F 
ATOM     80  C   UNL A   1      45.641  22.082  35.129  1.00  0.00     0.006 A 
ENDBRANCH  56  73
ENDBRANCH  30  31
ENDBRANCH  23  25
ENDBRANCH  22  23
ENDBRANCH  21  22
ENDBRANCH   1  21
TORSDOF 16
ENDMDL
