MODEL 1
REMARK VINA RESULT:     -11.8      0.000      0.000
REMARK SMILES Cc1ccc(Cl)c(Nc2ccccc2C(=O)NCC(=O)OCCOC(=O)c2ccc(-c3c4nc(c(-c5c(F)cccc5F)c5ccc([nH]5)c(-c5c(F)cccc5F)c5nc(c(-c6c(F)cccc6F)c6ccc3[nH]6)C=C5)C=C4)cc2)c1Cl
REMARK SMILES IDX 22 1 21 2 19 3 20 4 18 5 17 6 15 7 16 8 14 10 9 11 10 12
REMARK SMILES IDX 11 13 13 14 12 15 8 16 7 18 1 19 2 20 3 21 81 22 4 23 82 24
REMARK SMILES IDX 5 25 6 26 23 27 24 28 25 29 26 30 27 31 28 32 80 33 29 34
REMARK SMILES IDX 79 35 30 36 31 37 32 38 73 39 33 40 78 41 72 42 74 43 34 44
REMARK SMILES IDX 77 45 71 46 70 47 35 49 61 50 44 51 60 52 45 53 48 54 59 55
REMARK SMILES IDX 75 56 46 57 47 58 58 60 76 61 49 62 36 63 37 64 42 65 38 66
REMARK SMILES IDX 39 67 41 68 43 69 40 70 62 71 63 72 68 73 64 74 65 75 67 76
REMARK SMILES IDX 69 77 66 78 50 79 51 80 56 81 52 82 53 83 55 84 57 85 54 86
REMARK H PARENT 17 9 8 17 74 48 48 59
REMARK Flexibility Score: inf
ROOT
ATOM      1  C   UNL A   1      32.652  29.892  26.347  1.00  0.00     0.274 C 
ENDROOT
BRANCH   1   2
ATOM      2  O   UNL A   1      33.017  28.512  26.537  1.00  0.00    -0.461 OA
BRANCH   2   3
ATOM      3  C   UNL A   1      32.032  27.770  27.100  1.00  0.00     0.325 C 
ATOM      4  O   UNL A   1      31.265  28.173  27.971  1.00  0.00    -0.250 OA
BRANCH   3   5
ATOM      5  C   UNL A   1      31.823  26.420  26.454  1.00  0.00     0.239 C 
BRANCH   5   6
ATOM      6  N   UNL A   1      30.709  25.543  26.724  1.00  0.00    -0.341 N 
ATOM      7  C   UNL A   1      30.601  24.188  26.501  1.00  0.00     0.253 C 
ATOM      8  O   UNL A   1      29.742  23.579  27.143  1.00  0.00    -0.269 OA
ATOM      9  H   UNL A   1      29.918  25.972  27.122  1.00  0.00     0.164 HD
BRANCH   7  10
ATOM     10  C   UNL A   1      31.314  23.471  25.396  1.00  0.00     0.063 A 
ATOM     11  C   UNL A   1      31.213  23.650  23.999  1.00  0.00     0.051 A 
ATOM     12  C   UNL A   1      31.905  22.737  23.165  1.00  0.00     0.027 A 
ATOM     13  C   UNL A   1      32.739  21.743  23.677  1.00  0.00     0.002 A 
ATOM     14  C   UNL A   1      32.194  22.479  25.894  1.00  0.00     0.016 A 
ATOM     15  C   UNL A   1      32.908  21.633  25.047  1.00  0.00     0.001 A 
BRANCH  11  16
ATOM     16  N   UNL A   1      30.590  24.711  23.307  1.00  0.00    -0.352 N 
ATOM     17  H   UNL A   1      29.783  24.430  22.819  1.00  0.00     0.167 HD
BRANCH  16  18
ATOM     18  C   UNL A   1      30.874  26.090  23.162  1.00  0.00     0.077 A 
ATOM     19  C   UNL A   1      33.716  28.575  22.446  1.00  0.00     0.046 C 
ATOM     20  C   UNL A   1      32.380  28.000  22.831  1.00  0.00    -0.030 A 
ATOM     21  C   UNL A   1      31.363  28.876  23.230  1.00  0.00     0.006 A 
ATOM     22  C   UNL A   1      32.121  26.613  22.766  1.00  0.00     0.069 A 
ATOM     23  C   UNL A   1      30.099  28.388  23.531  1.00  0.00     0.023 A 
ATOM     24  Cl  UNL A   1      33.312  25.588  22.018  1.00  0.00    -0.082 Cl
ATOM     25  C   UNL A   1      29.861  27.017  23.504  1.00  0.00     0.066 A 
ATOM     26  Cl  UNL A   1      28.267  26.476  23.933  1.00  0.00    -0.082 Cl
ENDBRANCH  16  18
ENDBRANCH  11  16
ENDBRANCH   7  10
ENDBRANCH   5   6
ENDBRANCH   3   5
ENDBRANCH   2   3
ENDBRANCH   1   2
BRANCH   1  27
ATOM     27  C   UNL A   1      33.463  30.803  27.271  1.00  0.00     0.275 C 
BRANCH  27  28
ATOM     28  O   UNL A   1      34.349  30.050  28.128  1.00  0.00    -0.458 OA
BRANCH  28  29
ATOM     29  C   UNL A   1      35.393  30.737  28.642  1.00  0.00     0.338 C 
ATOM     30  O   UNL A   1      35.374  31.879  29.088  1.00  0.00    -0.246 OA
BRANCH  29  31
ATOM     31  C   UNL A   1      36.641  29.952  28.583  1.00  0.00     0.060 A 
ATOM     32  C   UNL A   1      37.138  29.299  29.707  1.00  0.00     0.016 A 
ATOM     33  C   UNL A   1      37.402  29.988  27.412  1.00  0.00     0.016 A 
ATOM     34  C   UNL A   1      38.433  28.761  29.679  1.00  0.00     0.010 A 
ATOM     35  C   UNL A   1      38.665  29.380  27.371  1.00  0.00     0.010 A 
ATOM     36  C   UNL A   1      39.231  28.801  28.520  1.00  0.00    -0.014 A 
BRANCH  36  37
ATOM     37  C   UNL A   1      40.657  28.321  28.507  1.00  0.00     0.031 A 
ATOM     38  C   UNL A   1      41.790  29.274  28.837  1.00  0.00     0.074 A 
ATOM     39  C   UNL A   1      40.991  27.046  28.216  1.00  0.00     0.049 A 
ATOM     40  N   UNL A   1      43.075  29.153  28.604  1.00  0.00    -0.248 NA
ATOM     41  C   UNL A   1      41.424  30.534  29.500  1.00  0.00     0.031 C 
ATOM     42  C   UNL A   1      40.057  25.960  27.929  1.00  0.00     0.029 A 
ATOM     43  N   UNL A   1      42.229  26.446  28.121  1.00  0.00    -0.354 N 
ATOM     44  C   UNL A   1      43.652  30.359  28.993  1.00  0.00     0.074 A 
ATOM     45  C   UNL A   1      42.580  31.184  29.508  1.00  0.00     0.031 C 
ATOM     46  C   UNL A   1      40.744  24.821  27.751  1.00  0.00     0.029 A 
ATOM     47  C   UNL A   1      42.173  25.113  27.789  1.00  0.00     0.049 A 
ATOM     48  H   UNL A   1      43.073  26.927  28.275  1.00  0.00     0.167 HD
ATOM     49  C   UNL A   1      44.948  30.749  28.916  1.00  0.00     0.037 A 
ATOM     50  C   UNL A   1      43.144  24.229  27.486  1.00  0.00     0.037 A 
ATOM     51  C   UNL A   1      46.044  29.902  28.517  1.00  0.00     0.049 A 
ATOM     52  C   UNL A   1      44.579  24.667  27.421  1.00  0.00     0.074 A 
ATOM     53  C   UNL A   1      47.393  30.213  28.443  1.00  0.00     0.029 A 
ATOM     54  N   UNL A   1      45.926  28.571  28.160  1.00  0.00    -0.354 N 
ATOM     55  N   UNL A   1      45.092  25.848  27.660  1.00  0.00    -0.248 NA
ATOM     56  C   UNL A   1      45.565  23.657  27.005  1.00  0.00     0.031 C 
ATOM     57  C   UNL A   1      48.088  29.074  28.022  1.00  0.00     0.029 A 
ATOM     58  C   UNL A   1      47.175  28.045  27.865  1.00  0.00     0.049 A 
ATOM     59  H   UNL A   1      45.079  28.069  28.122  1.00  0.00     0.167 HD
ATOM     60  C   UNL A   1      46.453  25.728  27.410  1.00  0.00     0.074 A 
ATOM     61  C   UNL A   1      46.693  24.351  27.031  1.00  0.00     0.031 C 
ATOM     62  C   UNL A   1      47.414  26.681  27.476  1.00  0.00     0.037 A 
BRANCH  49  63
ATOM     63  C   UNL A   1      45.263  32.184  29.230  1.00  0.00     0.057 A 
ATOM     64  C   UNL A   1      45.209  33.197  28.267  1.00  0.00     0.134 A 
ATOM     65  C   UNL A   1      45.577  32.558  30.546  1.00  0.00     0.134 A 
ATOM     66  F   UNL A   1      44.925  32.906  26.989  1.00  0.00    -0.206 F 
ATOM     67  C   UNL A   1      45.478  34.528  28.596  1.00  0.00     0.040 A 
ATOM     68  C   UNL A   1      45.821  33.887  30.891  1.00  0.00     0.040 A 
ATOM     69  F   UNL A   1      45.633  31.636  31.520  1.00  0.00    -0.206 F 
ATOM     70  C   UNL A   1      45.777  34.877  29.912  1.00  0.00     0.006 A 
ENDBRANCH  49  63
BRANCH  50  71
ATOM     71  C   UNL A   1      42.771  22.833  27.143  1.00  0.00     0.057 A 
ATOM     72  C   UNL A   1      42.446  21.906  28.139  1.00  0.00     0.134 A 
ATOM     73  C   UNL A   1      42.702  22.406  25.810  1.00  0.00     0.134 A 
ATOM     74  F   UNL A   1      42.528  22.248  29.432  1.00  0.00    -0.206 F 
ATOM     75  C   UNL A   1      42.054  20.604  27.821  1.00  0.00     0.040 A 
ATOM     76  C   UNL A   1      42.285  21.118  25.478  1.00  0.00     0.040 A 
ATOM     77  F   UNL A   1      43.006  23.249  24.813  1.00  0.00    -0.206 F 
ATOM     78  C   UNL A   1      41.960  20.212  26.486  1.00  0.00     0.006 A 
ENDBRANCH  50  71
BRANCH  62  79
ATOM     79  C   UNL A   1      48.814  26.270  27.137  1.00  0.00     0.057 A 
ATOM     80  C   UNL A   1      49.322  26.398  25.838  1.00  0.00     0.134 A 
ATOM     81  C   UNL A   1      49.673  25.764  28.121  1.00  0.00     0.134 A 
ATOM     82  F   UNL A   1      48.545  26.864  24.849  1.00  0.00    -0.206 F 
ATOM     83  C   UNL A   1      50.629  26.019  25.525  1.00  0.00     0.040 A 
ATOM     84  C   UNL A   1      50.987  25.398  27.824  1.00  0.00     0.040 A 
ATOM     85  F   UNL A   1      49.250  25.621  29.386  1.00  0.00    -0.206 F 
ATOM     86  C   UNL A   1      51.467  25.521  26.521  1.00  0.00     0.006 A 
ENDBRANCH  62  79
ENDBRANCH  36  37
ENDBRANCH  29  31
ENDBRANCH  28  29
ENDBRANCH  27  28
ENDBRANCH   1  27
TORSDOF 15
ENDMDL
MODEL 2
REMARK VINA RESULT:     -11.7      2.815      6.822
REMARK SMILES Cc1ccc(Cl)c(Nc2ccccc2C(=O)NCC(=O)OCCOC(=O)c2ccc(-c3c4nc(c(-c5c(F)cccc5F)c5ccc([nH]5)c(-c5c(F)cccc5F)c5nc(c(-c6c(F)cccc6F)c6ccc3[nH]6)C=C5)C=C4)cc2)c1Cl
REMARK SMILES IDX 22 1 21 2 19 3 20 4 18 5 17 6 15 7 16 8 14 10 9 11 10 12
REMARK SMILES IDX 11 13 13 14 12 15 8 16 7 18 1 19 2 20 3 21 81 22 4 23 82 24
REMARK SMILES IDX 5 25 6 26 23 27 24 28 25 29 26 30 27 31 28 32 80 33 29 34
REMARK SMILES IDX 79 35 30 36 31 37 32 38 73 39 33 40 78 41 72 42 74 43 34 44
REMARK SMILES IDX 77 45 71 46 70 47 35 49 61 50 44 51 60 52 45 53 48 54 59 55
REMARK SMILES IDX 75 56 46 57 47 58 58 60 76 61 49 62 36 63 37 64 42 65 38 66
REMARK SMILES IDX 39 67 41 68 43 69 40 70 62 71 63 72 68 73 64 74 65 75 67 76
REMARK SMILES IDX 69 77 66 78 50 79 51 80 56 81 52 82 53 83 55 84 57 85 54 86
REMARK H PARENT 17 9 8 17 74 48 48 59
REMARK Flexibility Score: inf
ROOT
ATOM      1  C   UNL A   1      34.859  20.556  24.956  1.00  0.00     0.274 C 
ENDROOT
BRANCH   1   2
ATOM      2  O   UNL A   1      33.977  19.520  25.427  1.00  0.00    -0.461 OA
BRANCH   2   3
ATOM      3  C   UNL A   1      32.710  19.644  24.964  1.00  0.00     0.325 C 
ATOM      4  O   UNL A   1      31.993  18.703  24.631  1.00  0.00    -0.250 OA
BRANCH   3   5
ATOM      5  C   UNL A   1      32.155  21.048  25.034  1.00  0.00     0.239 C 
BRANCH   5   6
ATOM      6  N   UNL A   1      31.611  21.659  26.223  1.00  0.00    -0.341 N 
ATOM      7  C   UNL A   1      31.637  22.982  26.605  1.00  0.00     0.253 C 
ATOM      8  O   UNL A   1      30.801  23.344  27.437  1.00  0.00    -0.269 OA
ATOM      9  H   UNL A   1      31.158  21.046  26.846  1.00  0.00     0.164 HD
BRANCH   7  10
ATOM     10  C   UNL A   1      32.734  23.930  26.230  1.00  0.00     0.063 A 
ATOM     11  C   UNL A   1      32.661  25.301  25.901  1.00  0.00     0.051 A 
ATOM     12  C   UNL A   1      33.845  25.935  25.447  1.00  0.00     0.027 A 
ATOM     13  C   UNL A   1      35.074  25.277  25.404  1.00  0.00     0.002 A 
ATOM     14  C   UNL A   1      33.998  23.291  26.213  1.00  0.00     0.016 A 
ATOM     15  C   UNL A   1      35.157  23.958  25.818  1.00  0.00     0.001 A 
BRANCH  11  16
ATOM     16  N   UNL A   1      31.566  26.175  26.076  1.00  0.00    -0.352 N 
ATOM     17  H   UNL A   1      30.926  25.858  26.752  1.00  0.00     0.167 HD
BRANCH  16  18
ATOM     18  C   UNL A   1      31.188  27.405  25.488  1.00  0.00     0.077 A 
ATOM     19  C   UNL A   1      29.404  28.930  22.445  1.00  0.00     0.046 C 
ATOM     20  C   UNL A   1      30.221  28.782  23.700  1.00  0.00    -0.030 A 
ATOM     21  C   UNL A   1      30.794  29.927  24.266  1.00  0.00     0.006 A 
ATOM     22  C   UNL A   1      30.392  27.530  24.332  1.00  0.00     0.069 A 
ATOM     23  C   UNL A   1      31.500  29.839  25.458  1.00  0.00     0.023 A 
ATOM     24  Cl  UNL A   1      29.455  26.182  23.755  1.00  0.00    -0.082 Cl
ATOM     25  C   UNL A   1      31.700  28.597  26.055  1.00  0.00     0.066 A 
ATOM     26  Cl  UNL A   1      32.630  28.558  27.521  1.00  0.00    -0.082 Cl
ENDBRANCH  16  18
ENDBRANCH  11  16
ENDBRANCH   7  10
ENDBRANCH   5   6
ENDBRANCH   3   5
ENDBRANCH   2   3
ENDBRANCH   1   2
BRANCH   1  27
ATOM     27  C   UNL A   1      36.315  20.083  24.973  1.00  0.00     0.275 C 
BRANCH  27  28
ATOM     28  O   UNL A   1      37.241  21.191  25.005  1.00  0.00    -0.458 OA
BRANCH  28  29
ATOM     29  C   UNL A   1      38.454  20.927  25.540  1.00  0.00     0.338 C 
ATOM     30  O   UNL A   1      39.049  19.856  25.520  1.00  0.00    -0.246 OA
BRANCH  29  31
ATOM     31  C   UNL A   1      39.015  22.110  26.221  1.00  0.00     0.060 A 
ATOM     32  C   UNL A   1      38.480  23.380  26.021  1.00  0.00     0.016 A 
ATOM     33  C   UNL A   1      40.189  21.964  26.964  1.00  0.00     0.016 A 
ATOM     34  C   UNL A   1      39.173  24.505  26.493  1.00  0.00     0.010 A 
ATOM     35  C   UNL A   1      40.832  23.089  27.497  1.00  0.00     0.010 A 
ATOM     36  C   UNL A   1      40.369  24.388  27.226  1.00  0.00    -0.014 A 
BRANCH  36  37
ATOM     37  C   UNL A   1      41.175  25.587  27.648  1.00  0.00     0.031 A 
ATOM     38  C   UNL A   1      40.565  26.643  28.550  1.00  0.00     0.074 A 
ATOM     39  C   UNL A   1      42.456  25.773  27.262  1.00  0.00     0.049 A 
ATOM     40  N   UNL A   1      40.967  27.868  28.790  1.00  0.00    -0.248 NA
ATOM     41  C   UNL A   1      39.332  26.275  29.260  1.00  0.00     0.031 C 
ATOM     42  C   UNL A   1      43.247  24.855  26.447  1.00  0.00     0.029 A 
ATOM     43  N   UNL A   1      43.323  26.814  27.517  1.00  0.00    -0.354 N 
ATOM     44  C   UNL A   1      39.985  28.446  29.588  1.00  0.00     0.074 A 
ATOM     45  C   UNL A   1      38.984  27.426  29.819  1.00  0.00     0.031 C 
ATOM     46  C   UNL A   1      44.492  25.338  26.319  1.00  0.00     0.029 A 
ATOM     47  C   UNL A   1      44.560  26.658  26.939  1.00  0.00     0.049 A 
ATOM     48  H   UNL A   1      43.079  27.597  28.062  1.00  0.00     0.167 HD
ATOM     49  C   UNL A   1      39.913  29.711  30.073  1.00  0.00     0.037 A 
ATOM     50  C   UNL A   1      45.616  27.491  26.852  1.00  0.00     0.037 A 
ATOM     51  C   UNL A   1      40.953  30.702  29.951  1.00  0.00     0.049 A 
ATOM     52  C   UNL A   1      45.533  28.883  27.407  1.00  0.00     0.074 A 
ATOM     53  C   UNL A   1      40.971  31.998  30.443  1.00  0.00     0.029 A 
ATOM     54  N   UNL A   1      42.171  30.499  29.327  1.00  0.00    -0.354 N 
ATOM     55  N   UNL A   1      44.543  29.461  28.041  1.00  0.00    -0.248 NA
ATOM     56  C   UNL A   1      46.701  29.753  27.199  1.00  0.00     0.031 C 
ATOM     57  C   UNL A   1      42.193  32.586  30.097  1.00  0.00     0.029 A 
ATOM     58  C   UNL A   1      42.949  31.644  29.420  1.00  0.00     0.049 A 
ATOM     59  H   UNL A   1      42.446  29.665  28.883  1.00  0.00     0.167 HD
ATOM     60  C   UNL A   1      44.961  30.761  28.293  1.00  0.00     0.074 A 
ATOM     61  C   UNL A   1      46.307  30.881  27.773  1.00  0.00     0.031 C 
ATOM     62  C   UNL A   1      44.281  31.769  28.892  1.00  0.00     0.037 A 
BRANCH  49  63
ATOM     63  C   UNL A   1      38.638  30.126  30.750  1.00  0.00     0.057 A 
ATOM     64  C   UNL A   1      38.441  30.002  32.130  1.00  0.00     0.134 A 
ATOM     65  C   UNL A   1      37.608  30.710  29.999  1.00  0.00     0.134 A 
ATOM     66  F   UNL A   1      39.383  29.442  32.903  1.00  0.00    -0.206 F 
ATOM     67  C   UNL A   1      37.256  30.425  32.735  1.00  0.00     0.040 A 
ATOM     68  C   UNL A   1      36.430  31.160  30.597  1.00  0.00     0.040 A 
ATOM     69  F   UNL A   1      37.738  30.869  28.673  1.00  0.00    -0.206 F 
ATOM     70  C   UNL A   1      36.250  31.013  31.970  1.00  0.00     0.006 A 
ENDBRANCH  49  63
BRANCH  50  71
ATOM     71  C   UNL A   1      46.836  27.043  26.133  1.00  0.00     0.057 A 
ATOM     72  C   UNL A   1      47.006  27.297  24.768  1.00  0.00     0.134 A 
ATOM     73  C   UNL A   1      47.871  26.378  26.803  1.00  0.00     0.134 A 
ATOM     74  F   UNL A   1      46.034  27.900  24.068  1.00  0.00    -0.206 F 
ATOM     75  C   UNL A   1      48.168  26.916  24.096  1.00  0.00     0.040 A 
ATOM     76  C   UNL A   1      49.048  26.016  26.151  1.00  0.00     0.040 A 
ATOM     77  F   UNL A   1      47.762  26.102  28.112  1.00  0.00    -0.206 F 
ATOM     78  C   UNL A   1      49.200  26.286  24.793  1.00  0.00     0.006 A 
ENDBRANCH  50  71
BRANCH  62  79
ATOM     79  C   UNL A   1      44.980  33.088  29.022  1.00  0.00     0.057 A 
ATOM     80  C   UNL A   1      44.835  34.093  28.057  1.00  0.00     0.134 A 
ATOM     81  C   UNL A   1      45.787  33.367  30.132  1.00  0.00     0.134 A 
ATOM     82  F   UNL A   1      44.086  33.882  26.965  1.00  0.00    -0.206 F 
ATOM     83  C   UNL A   1      45.483  35.323  28.183  1.00  0.00     0.040 A 
ATOM     84  C   UNL A   1      46.426  34.600  30.278  1.00  0.00     0.040 A 
ATOM     85  F   UNL A   1      45.962  32.449  31.095  1.00  0.00    -0.206 F 
ATOM     86  C   UNL A   1      46.278  35.581  29.298  1.00  0.00     0.006 A 
ENDBRANCH  62  79
ENDBRANCH  36  37
ENDBRANCH  29  31
ENDBRANCH  28  29
ENDBRANCH  27  28
ENDBRANCH   1  27
TORSDOF 15
ENDMDL
MODEL 3
REMARK VINA RESULT:     -11.5      5.078      9.200
REMARK SMILES Cc1ccc(Cl)c(Nc2ccccc2C(=O)NCC(=O)OCCOC(=O)c2ccc(-c3c4nc(c(-c5c(F)cccc5F)c5ccc([nH]5)c(-c5c(F)cccc5F)c5nc(c(-c6c(F)cccc6F)c6ccc3[nH]6)C=C5)C=C4)cc2)c1Cl
REMARK SMILES IDX 22 1 21 2 19 3 20 4 18 5 17 6 15 7 16 8 14 10 9 11 10 12
REMARK SMILES IDX 11 13 13 14 12 15 8 16 7 18 1 19 2 20 3 21 81 22 4 23 82 24
REMARK SMILES IDX 5 25 6 26 23 27 24 28 25 29 26 30 27 31 28 32 80 33 29 34
REMARK SMILES IDX 79 35 30 36 31 37 32 38 73 39 33 40 78 41 72 42 74 43 34 44
REMARK SMILES IDX 77 45 71 46 70 47 35 49 61 50 44 51 60 52 45 53 48 54 59 55
REMARK SMILES IDX 75 56 46 57 47 58 58 60 76 61 49 62 36 63 37 64 42 65 38 66
REMARK SMILES IDX 39 67 41 68 43 69 40 70 62 71 63 72 68 73 64 74 65 75 67 76
REMARK SMILES IDX 69 77 66 78 50 79 51 80 56 81 52 82 53 83 55 84 57 85 54 86
REMARK H PARENT 17 9 8 17 74 48 48 59
REMARK Flexibility Score: inf
ROOT
ATOM      1  C   UNL A   1      40.128  20.734  26.455  1.00  0.00     0.274 C 
ENDROOT
BRANCH   1   2
ATOM      2  O   UNL A   1      39.260  21.834  26.123  1.00  0.00    -0.461 OA
BRANCH   2   3
ATOM      3  C   UNL A   1      38.161  21.458  25.426  1.00  0.00     0.325 C 
ATOM      4  O   UNL A   1      37.909  20.303  25.088  1.00  0.00    -0.250 OA
BRANCH   3   5
ATOM      5  C   UNL A   1      37.146  22.559  25.220  1.00  0.00     0.239 C 
BRANCH   5   6
ATOM      6  N   UNL A   1      36.163  22.965  26.194  1.00  0.00    -0.341 N 
ATOM      7  C   UNL A   1      34.918  22.432  26.442  1.00  0.00     0.253 C 
ATOM      8  O   UNL A   1      34.414  22.666  27.543  1.00  0.00    -0.269 OA
ATOM      9  H   UNL A   1      36.418  23.729  26.761  1.00  0.00     0.164 HD
BRANCH   7  10
ATOM     10  C   UNL A   1      34.076  21.775  25.392  1.00  0.00     0.063 A 
ATOM     11  C   UNL A   1      33.212  22.357  24.439  1.00  0.00     0.051 A 
ATOM     12  C   UNL A   1      32.423  21.489  23.645  1.00  0.00     0.027 A 
ATOM     13  C   UNL A   1      32.542  20.101  23.714  1.00  0.00     0.002 A 
ATOM     14  C   UNL A   1      34.207  20.364  25.420  1.00  0.00     0.016 A 
ATOM     15  C   UNL A   1      33.460  19.536  24.583  1.00  0.00     0.001 A 
BRANCH  11  16
ATOM     16  N   UNL A   1      33.109  23.720  24.086  1.00  0.00    -0.352 N 
ATOM     17  H   UNL A   1      33.672  23.962  23.317  1.00  0.00     0.167 HD
BRANCH  16  18
ATOM     18  C   UNL A   1      32.372  24.814  24.599  1.00  0.00     0.077 A 
ATOM     19  C   UNL A   1      32.553  27.731  27.095  1.00  0.00     0.046 C 
ATOM     20  C   UNL A   1      32.033  26.720  26.109  1.00  0.00    -0.030 A 
ATOM     21  C   UNL A   1      30.673  26.750  25.773  1.00  0.00     0.006 A 
ATOM     22  C   UNL A   1      32.884  25.774  25.496  1.00  0.00     0.069 A 
ATOM     23  C   UNL A   1      30.171  25.876  24.819  1.00  0.00     0.023 A 
ATOM     24  Cl  UNL A   1      34.600  25.935  25.734  1.00  0.00    -0.082 Cl
ATOM     25  C   UNL A   1      31.005  24.919  24.248  1.00  0.00     0.066 A 
ATOM     26  Cl  UNL A   1      30.297  23.831  23.094  1.00  0.00    -0.082 Cl
ENDBRANCH  16  18
ENDBRANCH  11  16
ENDBRANCH   7  10
ENDBRANCH   5   6
ENDBRANCH   3   5
ENDBRANCH   2   3
ENDBRANCH   1   2
BRANCH   1  27
ATOM     27  C   UNL A   1      41.479  20.873  25.750  1.00  0.00     0.275 C 
BRANCH  27  28
ATOM     28  O   UNL A   1      42.345  21.813  26.424  1.00  0.00    -0.458 OA
BRANCH  28  29
ATOM     29  C   UNL A   1      42.610  22.954  25.750  1.00  0.00     0.338 C 
ATOM     30  O   UNL A   1      43.177  23.054  24.668  1.00  0.00    -0.246 OA
BRANCH  29  31
ATOM     31  C   UNL A   1      42.157  24.143  26.497  1.00  0.00     0.060 A 
ATOM     32  C   UNL A   1      42.735  25.392  26.288  1.00  0.00     0.016 A 
ATOM     33  C   UNL A   1      41.231  23.975  27.529  1.00  0.00     0.016 A 
ATOM     34  C   UNL A   1      42.448  26.445  27.170  1.00  0.00     0.010 A 
ATOM     35  C   UNL A   1      40.892  25.054  28.357  1.00  0.00     0.010 A 
ATOM     36  C   UNL A   1      41.535  26.298  28.231  1.00  0.00    -0.014 A 
BRANCH  36  37
ATOM     37  C   UNL A   1      41.296  27.385  29.244  1.00  0.00     0.031 A 
ATOM     38  C   UNL A   1      42.178  27.495  30.473  1.00  0.00     0.074 A 
ATOM     39  C   UNL A   1      40.314  28.301  29.108  1.00  0.00     0.049 A 
ATOM     40  N   UNL A   1      41.973  28.151  31.590  1.00  0.00    -0.248 NA
ATOM     41  C   UNL A   1      43.448  26.754  30.446  1.00  0.00     0.031 C 
ATOM     42  C   UNL A   1      39.395  28.410  27.977  1.00  0.00     0.029 A 
ATOM     43  N   UNL A   1      39.931  29.329  29.942  1.00  0.00    -0.354 N 
ATOM     44  C   UNL A   1      43.030  27.817  32.432  1.00  0.00     0.074 A 
ATOM     45  C   UNL A   1      43.891  26.927  31.684  1.00  0.00     0.031 C 
ATOM     46  C   UNL A   1      38.599  29.475  28.156  1.00  0.00     0.029 A 
ATOM     47  C   UNL A   1      38.864  30.057  29.468  1.00  0.00     0.049 A 
ATOM     48  H   UNL A   1      40.377  29.524  30.797  1.00  0.00     0.167 HD
ATOM     49  C   UNL A   1      43.257  28.204  33.712  1.00  0.00     0.037 A 
ATOM     50  C   UNL A   1      38.133  31.038  30.033  1.00  0.00     0.037 A 
ATOM     51  C   UNL A   1      42.475  29.178  34.431  1.00  0.00     0.049 A 
ATOM     52  C   UNL A   1      38.403  31.470  31.445  1.00  0.00     0.074 A 
ATOM     53  C   UNL A   1      42.659  29.649  35.723  1.00  0.00     0.029 A 
ATOM     54  N   UNL A   1      41.388  29.859  33.914  1.00  0.00    -0.354 N 
ATOM     55  N   UNL A   1      39.322  31.047  32.275  1.00  0.00    -0.248 NA
ATOM     56  C   UNL A   1      37.506  32.491  32.011  1.00  0.00     0.031 C 
ATOM     57  C   UNL A   1      41.668  30.600  35.993  1.00  0.00     0.029 A 
ATOM     58  C   UNL A   1      40.889  30.745  34.857  1.00  0.00     0.049 A 
ATOM     59  H   UNL A   1      41.021  29.734  33.009  1.00  0.00     0.167 HD
ATOM     60  C   UNL A   1      39.107  31.735  33.463  1.00  0.00     0.074 A 
ATOM     61  C   UNL A   1      37.990  32.628  33.237  1.00  0.00     0.031 C 
ATOM     62  C   UNL A   1      39.771  31.624  34.639  1.00  0.00     0.037 A 
BRANCH  49  63
ATOM     63  C   UNL A   1      44.380  27.536  34.452  1.00  0.00     0.057 A 
ATOM     64  C   UNL A   1      45.663  28.087  34.536  1.00  0.00     0.134 A 
ATOM     65  C   UNL A   1      44.146  26.335  35.140  1.00  0.00     0.134 A 
ATOM     66  F   UNL A   1      45.956  29.227  33.893  1.00  0.00    -0.206 F 
ATOM     67  C   UNL A   1      46.680  27.456  35.257  1.00  0.00     0.040 A 
ATOM     68  C   UNL A   1      45.146  25.710  35.884  1.00  0.00     0.040 A 
ATOM     69  F   UNL A   1      42.933  25.760  35.111  1.00  0.00    -0.206 F 
ATOM     70  C   UNL A   1      46.420  26.269  35.940  1.00  0.00     0.006 A 
ENDBRANCH  49  63
BRANCH  50  71
ATOM     71  C   UNL A   1      37.007  31.633  29.270  1.00  0.00     0.057 A 
ATOM     72  C   UNL A   1      35.785  30.964  29.144  1.00  0.00     0.134 A 
ATOM     73  C   UNL A   1      37.119  32.897  28.676  1.00  0.00     0.134 A 
ATOM     74  F   UNL A   1      35.630  29.738  29.662  1.00  0.00    -0.206 F 
ATOM     75  C   UNL A   1      34.709  31.536  28.464  1.00  0.00     0.040 A 
ATOM     76  C   UNL A   1      36.044  33.492  28.018  1.00  0.00     0.040 A 
ATOM     77  F   UNL A   1      38.268  33.584  28.760  1.00  0.00    -0.206 F 
ATOM     78  C   UNL A   1      34.833  32.811  27.910  1.00  0.00     0.006 A 
ENDBRANCH  50  71
BRANCH  62  79
ATOM     79  C   UNL A   1      39.312  32.490  35.773  1.00  0.00     0.057 A 
ATOM     80  C   UNL A   1      39.785  33.798  35.934  1.00  0.00     0.134 A 
ATOM     81  C   UNL A   1      38.372  32.022  36.699  1.00  0.00     0.134 A 
ATOM     82  F   UNL A   1      40.695  34.300  35.087  1.00  0.00    -0.206 F 
ATOM     83  C   UNL A   1      39.351  34.605  36.988  1.00  0.00     0.040 A 
ATOM     84  C   UNL A   1      37.919  32.826  37.748  1.00  0.00     0.040 A 
ATOM     85  F   UNL A   1      37.876  30.779  36.598  1.00  0.00    -0.206 F 
ATOM     86  C   UNL A   1      38.412  34.121  37.896  1.00  0.00     0.006 A 
ENDBRANCH  62  79
ENDBRANCH  36  37
ENDBRANCH  29  31
ENDBRANCH  28  29
ENDBRANCH  27  28
ENDBRANCH   1  27
TORSDOF 15
ENDMDL
