MODEL 1
REMARK VINA RESULT:     -13.7      0.000      0.000
REMARK SMILES O=C(Cn1nc(C(=O)OCCOC(=O)c2ccc(-c3c4nc(c(-c5c(F)cccc5F)c5ccc([nH]5)c(-c5c(F)cccc5F)c5nc(c(-c6c(F)cccc6F)c6ccc3[nH]6)C=C5)C=C4)cc2)c2ccccc2c1=O)Nc1ccc2c(c1)C(=O)c1ccccc1C2=O
REMARK SMILES IDX 10 1 9 2 7 3 8 4 6 5 4 6 5 7 75 8 74 9 76 10 69 11 73 12
REMARK SMILES IDX 70 13 72 14 71 15 3 16 2 17 1 18 77 19 78 21 79 22 83 23
REMARK SMILES IDX 80 24 82 25 81 26 84 27 92 28 85 29 86 30 91 31 93 32 87 33
REMARK SMILES IDX 90 34 88 35 89 36 11 37 12 38 13 39 14 40 15 41 16 42 68 43
REMARK SMILES IDX 17 44 67 45 18 46 19 47 20 48 61 49 21 50 66 51 60 52 62 53
REMARK SMILES IDX 22 54 65 55 59 56 58 57 23 59 49 60 32 61 48 62 33 63 36 64
REMARK SMILES IDX 47 65 63 66 34 67 35 68 46 70 64 71 37 72 24 73 25 74 30 75
REMARK SMILES IDX 26 76 27 77 29 78 31 79 28 80 50 81 51 82 56 83 52 84 53 85
REMARK SMILES IDX 55 86 57 87 54 88 38 89 39 90 44 91 40 92 41 93 43 94 45 95
REMARK SMILES IDX 42 96
REMARK H PARENT 77 20 62 58 36 69
REMARK Flexibility Score: inf
ROOT
ATOM      1  C   UNL A   1      34.730  34.051  31.322  1.00  0.00     0.275 C 
ENDROOT
BRANCH   1   2
ATOM      2  O   UNL A   1      33.880  33.521  30.279  1.00  0.00    -0.457 OA
BRANCH   2   3
ATOM      3  C   UNL A   1      34.216  33.796  29.000  1.00  0.00     0.359 C 
ATOM      4  O   UNL A   1      34.618  34.850  28.545  1.00  0.00    -0.244 OA
BRANCH   3   5
ATOM      5  C   UNL A   1      34.097  32.533  28.147  1.00  0.00     0.176 A 
ATOM      6  N   UNL A   1      32.773  31.082  26.909  1.00  0.00    -0.219 N 
ATOM      7  N   UNL A   1      32.985  32.340  27.488  1.00  0.00    -0.161 NA
ATOM      8  C   UNL A   1      33.509  29.992  27.374  1.00  0.00     0.275 A 
ATOM      9  C   UNL A   1      34.901  30.281  27.731  1.00  0.00     0.051 A 
ATOM     10  O   UNL A   1      33.098  28.842  27.424  1.00  0.00    -0.267 OA
ATOM     11  C   UNL A   1      35.216  31.572  28.121  1.00  0.00     0.022 A 
ATOM     12  C   UNL A   1      35.889  29.290  27.639  1.00  0.00     0.014 A 
ATOM     13  C   UNL A   1      36.545  31.884  28.409  1.00  0.00     0.011 A 
ATOM     14  C   UNL A   1      37.206  29.595  27.971  1.00  0.00     0.001 A 
ATOM     15  C   UNL A   1      37.531  30.889  28.361  1.00  0.00     0.001 A 
BRANCH   6  16
ATOM     16  C   UNL A   1      31.420  30.848  26.368  1.00  0.00     0.248 C 
BRANCH  16  17
ATOM     17  C   UNL A   1      31.304  30.199  24.965  1.00  0.00     0.246 C 
ATOM     18  O   UNL A   1      30.263  30.274  24.311  1.00  0.00    -0.273 OA
ATOM     19  N   UNL A   1      32.477  29.679  24.446  1.00  0.00    -0.324 N 
ATOM     20  H   UNL A   1      33.343  30.085  24.683  1.00  0.00     0.169 HD
BRANCH  19  21
ATOM     21  C   UNL A   1      32.434  28.566  23.577  1.00  0.00     0.042 A 
ATOM     22  C   UNL A   1      33.381  28.371  22.568  1.00  0.00     0.027 A 
ATOM     23  C   UNL A   1      31.579  27.522  23.915  1.00  0.00     0.039 A 
ATOM     24  C   UNL A   1      33.646  27.057  22.131  1.00  0.00     0.015 A 
ATOM     25  C   UNL A   1      31.722  26.284  23.324  1.00  0.00     0.036 A 
ATOM     26  C   UNL A   1      32.900  26.003  22.669  1.00  0.00     0.034 A 
ATOM     27  C   UNL A   1      30.937  25.178  23.868  1.00  0.00     0.194 C 
ATOM     28  C   UNL A   1      33.577  24.735  23.109  1.00  0.00     0.194 C 
ATOM     29  O   UNL A   1      29.735  25.054  23.702  1.00  0.00    -0.289 OA
ATOM     30  C   UNL A   1      31.730  24.325  24.750  1.00  0.00     0.034 A 
ATOM     31  C   UNL A   1      33.070  24.146  24.406  1.00  0.00     0.034 A 
ATOM     32  O   UNL A   1      34.583  24.313  22.561  1.00  0.00    -0.289 OA
ATOM     33  C   UNL A   1      31.208  23.997  25.996  1.00  0.00     0.013 A 
ATOM     34  C   UNL A   1      33.926  23.612  25.363  1.00  0.00     0.013 A 
ATOM     35  C   UNL A   1      32.076  23.510  26.963  1.00  0.00     0.001 A 
ATOM     36  C   UNL A   1      33.430  23.317  26.649  1.00  0.00     0.001 A 
ENDBRANCH  19  21
ENDBRANCH  16  17
ENDBRANCH   6  16
ENDBRANCH   3   5
ENDBRANCH   2   3
ENDBRANCH   1   2
BRANCH   1  37
ATOM     37  C   UNL A   1      34.546  33.279  32.633  1.00  0.00     0.275 C 
BRANCH  37  38
ATOM     38  O   UNL A   1      35.480  32.186  32.668  1.00  0.00    -0.458 OA
BRANCH  38  39
ATOM     39  C   UNL A   1      36.515  32.314  33.530  1.00  0.00     0.338 C 
ATOM     40  O   UNL A   1      36.478  32.619  34.708  1.00  0.00    -0.246 OA
BRANCH  39  41
ATOM     41  C   UNL A   1      37.724  31.819  32.859  1.00  0.00     0.060 A 
ATOM     42  C   UNL A   1      38.311  30.594  33.155  1.00  0.00     0.016 A 
ATOM     43  C   UNL A   1      38.194  32.569  31.792  1.00  0.00     0.016 A 
ATOM     44  C   UNL A   1      39.396  30.145  32.379  1.00  0.00     0.010 A 
ATOM     45  C   UNL A   1      39.155  32.036  30.939  1.00  0.00     0.010 A 
ATOM     46  C   UNL A   1      39.813  30.834  31.221  1.00  0.00    -0.014 A 
BRANCH  46  47
ATOM     47  C   UNL A   1      40.910  30.348  30.307  1.00  0.00     0.031 A 
ATOM     48  C   UNL A   1      42.086  31.246  29.933  1.00  0.00     0.074 A 
ATOM     49  C   UNL A   1      40.837  29.134  29.716  1.00  0.00     0.049 A 
ATOM     50  N   UNL A   1      43.058  31.032  29.074  1.00  0.00    -0.248 NA
ATOM     51  C   UNL A   1      42.132  32.592  30.528  1.00  0.00     0.031 C 
ATOM     52  C   UNL A   1      39.727  28.185  29.834  1.00  0.00     0.029 A 
ATOM     53  N   UNL A   1      41.730  28.479  28.895  1.00  0.00    -0.354 N 
ATOM     54  C   UNL A   1      43.770  32.227  28.998  1.00  0.00     0.074 A 
ATOM     55  C   UNL A   1      43.033  33.197  29.773  1.00  0.00     0.031 C 
ATOM     56  C   UNL A   1      40.048  27.042  29.206  1.00  0.00     0.029 A 
ATOM     57  C   UNL A   1      41.359  27.190  28.585  1.00  0.00     0.049 A 
ATOM     58  H   UNL A   1      42.557  28.895  28.562  1.00  0.00     0.167 HD
ATOM     59  C   UNL A   1      44.970  32.494  28.424  1.00  0.00     0.037 A 
ATOM     60  C   UNL A   1      42.002  26.229  27.893  1.00  0.00     0.037 A 
ATOM     61  C   UNL A   1      45.769  31.517  27.737  1.00  0.00     0.049 A 
ATOM     62  C   UNL A   1      43.355  26.520  27.295  1.00  0.00     0.074 A 
ATOM     63  C   UNL A   1      47.042  31.655  27.211  1.00  0.00     0.029 A 
ATOM     64  N   UNL A   1      45.375  30.211  27.497  1.00  0.00    -0.354 N 
ATOM     65  N   UNL A   1      44.059  27.624  27.331  1.00  0.00    -0.248 NA
ATOM     66  C   UNL A   1      44.003  25.422  26.561  1.00  0.00     0.031 C 
ATOM     67  C   UNL A   1      47.399  30.445  26.608  1.00  0.00     0.029 A 
ATOM     68  C   UNL A   1      46.373  29.536  26.815  1.00  0.00     0.049 A 
ATOM     69  H   UNL A   1      44.514  29.821  27.771  1.00  0.00     0.167 HD
ATOM     70  C   UNL A   1      45.246  27.341  26.665  1.00  0.00     0.074 A 
ATOM     71  C   UNL A   1      45.173  25.958  26.246  1.00  0.00     0.031 C 
ATOM     72  C   UNL A   1      46.303  28.153  26.423  1.00  0.00     0.037 A 
BRANCH  59  73
ATOM     73  C   UNL A   1      45.512  33.894  28.569  1.00  0.00     0.057 A 
ATOM     74  C   UNL A   1      46.310  34.252  29.664  1.00  0.00     0.134 A 
ATOM     75  C   UNL A   1      45.248  34.895  27.619  1.00  0.00     0.134 A 
ATOM     76  F   UNL A   1      46.586  33.360  30.627  1.00  0.00    -0.206 F 
ATOM     77  C   UNL A   1      46.843  35.536  29.793  1.00  0.00     0.040 A 
ATOM     78  C   UNL A   1      45.814  36.167  27.713  1.00  0.00     0.040 A 
ATOM     79  F   UNL A   1      44.491  34.628  26.543  1.00  0.00    -0.206 F 
ATOM     80  C   UNL A   1      46.612  36.492  28.807  1.00  0.00     0.006 A 
ENDBRANCH  59  73
BRANCH  60  81
ATOM     81  C   UNL A   1      41.418  24.864  27.772  1.00  0.00     0.057 A 
ATOM     82  C   UNL A   1      40.404  24.571  26.853  1.00  0.00     0.134 A 
ATOM     83  C   UNL A   1      41.901  23.806  28.554  1.00  0.00     0.134 A 
ATOM     84  F   UNL A   1      39.888  25.538  26.082  1.00  0.00    -0.206 F 
ATOM     85  C   UNL A   1      39.898  23.277  26.712  1.00  0.00     0.040 A 
ATOM     86  C   UNL A   1      41.428  22.502  28.400  1.00  0.00     0.040 A 
ATOM     87  F   UNL A   1      42.885  24.019  29.440  1.00  0.00    -0.206 F 
ATOM     88  C   UNL A   1      40.420  22.236  27.477  1.00  0.00     0.006 A 
ENDBRANCH  60  81
BRANCH  72  89
ATOM     89  C   UNL A   1      47.495  27.561  25.727  1.00  0.00     0.057 A 
ATOM     90  C   UNL A   1      47.574  27.574  24.328  1.00  0.00     0.134 A 
ATOM     91  C   UNL A   1      48.536  26.941  26.427  1.00  0.00     0.134 A 
ATOM     92  F   UNL A   1      46.604  28.143  23.595  1.00  0.00    -0.206 F 
ATOM     93  C   UNL A   1      48.641  26.984  23.651  1.00  0.00     0.040 A 
ATOM     94  C   UNL A   1      49.626  26.376  25.762  1.00  0.00     0.040 A 
ATOM     95  F   UNL A   1      48.527  26.902  27.768  1.00  0.00    -0.206 F 
ATOM     96  C   UNL A   1      49.676  26.390  24.369  1.00  0.00     0.006 A 
ENDBRANCH  72  89
ENDBRANCH  46  47
ENDBRANCH  39  41
ENDBRANCH  38  39
ENDBRANCH  37  38
ENDBRANCH   1  37
TORSDOF 14
ENDMDL
MODEL 2
REMARK VINA RESULT:     -13.5      4.931     10.115
REMARK SMILES O=C(Cn1nc(C(=O)OCCOC(=O)c2ccc(-c3c4nc(c(-c5c(F)cccc5F)c5ccc([nH]5)c(-c5c(F)cccc5F)c5nc(c(-c6c(F)cccc6F)c6ccc3[nH]6)C=C5)C=C4)cc2)c2ccccc2c1=O)Nc1ccc2c(c1)C(=O)c1ccccc1C2=O
REMARK SMILES IDX 10 1 9 2 7 3 8 4 6 5 4 6 5 7 75 8 74 9 76 10 69 11 73 12
REMARK SMILES IDX 70 13 72 14 71 15 3 16 2 17 1 18 77 19 78 21 79 22 83 23
REMARK SMILES IDX 80 24 82 25 81 26 84 27 92 28 85 29 86 30 91 31 93 32 87 33
REMARK SMILES IDX 90 34 88 35 89 36 11 37 12 38 13 39 14 40 15 41 16 42 68 43
REMARK SMILES IDX 17 44 67 45 18 46 19 47 20 48 61 49 21 50 66 51 60 52 62 53
REMARK SMILES IDX 22 54 65 55 59 56 58 57 23 59 49 60 32 61 48 62 33 63 36 64
REMARK SMILES IDX 47 65 63 66 34 67 35 68 46 70 64 71 37 72 24 73 25 74 30 75
REMARK SMILES IDX 26 76 27 77 29 78 31 79 28 80 50 81 51 82 56 83 52 84 53 85
REMARK SMILES IDX 55 86 57 87 54 88 38 89 39 90 44 91 40 92 41 93 43 94 45 95
REMARK SMILES IDX 42 96
REMARK H PARENT 77 20 62 58 36 69
REMARK Flexibility Score: inf
ROOT
ATOM      1  C   UNL A   1      43.641  20.507  25.585  1.00  0.00     0.275 C 
ENDROOT
BRANCH   1   2
ATOM      2  O   UNL A   1      42.240  20.860  25.520  1.00  0.00    -0.457 OA
BRANCH   2   3
ATOM      3  C   UNL A   1      41.425  20.359  26.474  1.00  0.00     0.359 C 
ATOM      4  O   UNL A   1      41.728  19.659  27.422  1.00  0.00    -0.244 OA
BRANCH   3   5
ATOM      5  C   UNL A   1      39.998  20.862  26.258  1.00  0.00     0.176 A 
ATOM      6  N   UNL A   1      37.895  20.551  25.324  1.00  0.00    -0.219 N 
ATOM      7  N   UNL A   1      39.124  20.032  25.751  1.00  0.00    -0.161 NA
ATOM      8  C   UNL A   1      37.790  21.917  25.068  1.00  0.00     0.275 A 
ATOM      9  C   UNL A   1      38.545  22.786  25.977  1.00  0.00     0.051 A 
ATOM     10  O   UNL A   1      37.074  22.415  24.211  1.00  0.00    -0.267 OA
ATOM     11  C   UNL A   1      39.667  22.260  26.595  1.00  0.00     0.022 A 
ATOM     12  C   UNL A   1      38.115  24.094  26.244  1.00  0.00     0.014 A 
ATOM     13  C   UNL A   1      40.366  23.049  27.508  1.00  0.00     0.011 A 
ATOM     14  C   UNL A   1      38.842  24.893  27.123  1.00  0.00     0.001 A 
ATOM     15  C   UNL A   1      39.969  24.372  27.749  1.00  0.00     0.001 A 
BRANCH   6  16
ATOM     16  C   UNL A   1      37.038  19.618  24.568  1.00  0.00     0.248 C 
BRANCH  16  17
ATOM     17  C   UNL A   1      35.505  19.698  24.794  1.00  0.00     0.246 C 
ATOM     18  O   UNL A   1      34.778  18.726  24.585  1.00  0.00    -0.273 OA
ATOM     19  N   UNL A   1      35.046  20.861  25.387  1.00  0.00    -0.324 N 
ATOM     20  H   UNL A   1      35.621  21.350  26.021  1.00  0.00     0.169 HD
BRANCH  19  21
ATOM     21  C   UNL A   1      33.756  21.349  25.083  1.00  0.00     0.042 A 
ATOM     22  C   UNL A   1      32.620  20.939  25.785  1.00  0.00     0.027 A 
ATOM     23  C   UNL A   1      33.671  22.451  24.239  1.00  0.00     0.039 A 
ATOM     24  C   UNL A   1      31.514  21.811  25.855  1.00  0.00     0.015 A 
ATOM     25  C   UNL A   1      32.504  23.183  24.164  1.00  0.00     0.036 A 
ATOM     26  C   UNL A   1      31.565  23.023  25.158  1.00  0.00     0.034 A 
ATOM     27  C   UNL A   1      32.540  24.444  23.426  1.00  0.00     0.194 C 
ATOM     28  C   UNL A   1      31.118  24.300  25.813  1.00  0.00     0.194 C 
ATOM     29  O   UNL A   1      32.595  24.516  22.210  1.00  0.00    -0.289 OA
ATOM     30  C   UNL A   1      32.651  25.597  24.316  1.00  0.00     0.034 A 
ATOM     31  C   UNL A   1      31.987  25.507  25.540  1.00  0.00     0.034 A 
ATOM     32  O   UNL A   1      30.230  24.324  26.651  1.00  0.00    -0.289 OA
ATOM     33  C   UNL A   1      33.618  26.557  24.037  1.00  0.00     0.013 A 
ATOM     34  C   UNL A   1      32.313  26.426  26.531  1.00  0.00     0.013 A 
ATOM     35  C   UNL A   1      33.974  27.440  25.046  1.00  0.00     0.001 A 
ATOM     36  C   UNL A   1      33.325  27.377  26.288  1.00  0.00     0.001 A 
ENDBRANCH  19  21
ENDBRANCH  16  17
ENDBRANCH   6  16
ENDBRANCH   3   5
ENDBRANCH   2   3
ENDBRANCH   1   2
BRANCH   1  37
ATOM     37  C   UNL A   1      44.520  21.753  25.731  1.00  0.00     0.275 C 
BRANCH  37  38
ATOM     38  O   UNL A   1      43.683  22.923  25.702  1.00  0.00    -0.458 OA
BRANCH  38  39
ATOM     39  C   UNL A   1      44.306  24.095  25.440  1.00  0.00     0.338 C 
ATOM     40  O   UNL A   1      44.937  24.405  24.446  1.00  0.00    -0.246 OA
BRANCH  39  41
ATOM     41  C   UNL A   1      43.930  25.050  26.491  1.00  0.00     0.060 A 
ATOM     42  C   UNL A   1      43.659  26.390  26.240  1.00  0.00     0.016 A 
ATOM     43  C   UNL A   1      43.709  24.527  27.755  1.00  0.00     0.016 A 
ATOM     44  C   UNL A   1      43.187  27.206  27.286  1.00  0.00     0.010 A 
ATOM     45  C   UNL A   1      43.091  25.304  28.729  1.00  0.00     0.010 A 
ATOM     46  C   UNL A   1      42.846  26.669  28.544  1.00  0.00    -0.014 A 
BRANCH  46  47
ATOM     47  C   UNL A   1      42.253  27.483  29.668  1.00  0.00     0.031 A 
ATOM     48  C   UNL A   1      42.883  27.492  31.058  1.00  0.00     0.074 A 
ATOM     49  C   UNL A   1      41.092  28.157  29.503  1.00  0.00     0.049 A 
ATOM     50  N   UNL A   1      42.446  28.044  32.168  1.00  0.00    -0.248 NA
ATOM     51  C   UNL A   1      44.114  26.707  31.253  1.00  0.00     0.031 C 
ATOM     52  C   UNL A   1      40.264  28.160  28.295  1.00  0.00     0.029 A 
ATOM     53  N   UNL A   1      40.404  28.986  30.363  1.00  0.00    -0.354 N 
ATOM     54  C   UNL A   1      43.313  27.620  33.173  1.00  0.00     0.074 A 
ATOM     55  C   UNL A   1      44.198  26.651  32.572  1.00  0.00     0.031 C 
ATOM     56  C   UNL A   1      39.249  29.025  28.451  1.00  0.00     0.029 A 
ATOM     57  C   UNL A   1      39.310  29.596  29.792  1.00  0.00     0.049 A 
ATOM     58  H   UNL A   1      40.672  29.129  31.299  1.00  0.00     0.167 HD
ATOM     59  C   UNL A   1      43.440  28.046  34.455  1.00  0.00     0.037 A 
ATOM     60  C   UNL A   1      38.459  30.519  30.281  1.00  0.00     0.037 A 
ATOM     61  C   UNL A   1      42.636  29.082  35.041  1.00  0.00     0.049 A 
ATOM     62  C   UNL A   1      38.634  31.020  31.692  1.00  0.00     0.074 A 
ATOM     63  C   UNL A   1      42.750  29.661  36.294  1.00  0.00     0.029 A 
ATOM     64  N   UNL A   1      41.577  29.707  34.406  1.00  0.00    -0.354 N 
ATOM     65  N   UNL A   1      39.530  30.685  32.587  1.00  0.00    -0.248 NA
ATOM     66  C   UNL A   1      37.675  32.035  32.157  1.00  0.00     0.031 C 
ATOM     67  C   UNL A   1      41.727  30.604  36.434  1.00  0.00     0.029 A 
ATOM     68  C   UNL A   1      41.017  30.655  35.245  1.00  0.00     0.049 A 
ATOM     69  H   UNL A   1      41.269  29.509  33.492  1.00  0.00     0.167 HD
ATOM     70  C   UNL A   1      39.269  31.476  33.700  1.00  0.00     0.074 A 
ATOM     71  C   UNL A   1      38.140  32.316  33.365  1.00  0.00     0.031 C 
ATOM     72  C   UNL A   1      39.909  31.504  34.895  1.00  0.00     0.037 A 
BRANCH  59  73
ATOM     73  C   UNL A   1      44.532  27.422  35.288  1.00  0.00     0.057 A 
ATOM     74  C   UNL A   1      44.283  26.292  36.078  1.00  0.00     0.134 A 
ATOM     75  C   UNL A   1      45.838  27.940  35.308  1.00  0.00     0.134 A 
ATOM     76  F   UNL A   1      43.055  25.754  36.132  1.00  0.00    -0.206 F 
ATOM     77  C   UNL A   1      45.293  25.688  36.830  1.00  0.00     0.040 A 
ATOM     78  C   UNL A   1      46.865  27.317  36.017  1.00  0.00     0.040 A 
ATOM     79  F   UNL A   1      46.151  29.021  34.578  1.00  0.00    -0.206 F 
ATOM     80  C   UNL A   1      46.593  26.187  36.785  1.00  0.00     0.006 A 
ENDBRANCH  59  73
BRANCH  60  81
ATOM     81  C   UNL A   1      37.391  31.096  29.418  1.00  0.00     0.057 A 
ATOM     82  C   UNL A   1      36.202  30.409  29.152  1.00  0.00     0.134 A 
ATOM     83  C   UNL A   1      37.526  32.381  28.874  1.00  0.00     0.134 A 
ATOM     84  F   UNL A   1      36.012  29.172  29.631  1.00  0.00    -0.206 F 
ATOM     85  C   UNL A   1      35.185  30.980  28.383  1.00  0.00     0.040 A 
ATOM     86  C   UNL A   1      36.505  32.976  28.132  1.00  0.00     0.040 A 
ATOM     87  F   UNL A   1      38.635  33.098  29.108  1.00  0.00    -0.206 F 
ATOM     88  C   UNL A   1      35.330  32.273  27.882  1.00  0.00     0.006 A 
ENDBRANCH  60  81
BRANCH  72  89
ATOM     89  C   UNL A   1      39.451  32.513  35.909  1.00  0.00     0.057 A 
ATOM     90  C   UNL A   1      40.022  33.793  35.939  1.00  0.00     0.134 A 
ATOM     91  C   UNL A   1      38.489  32.212  36.881  1.00  0.00     0.134 A 
ATOM     92  F   UNL A   1      40.958  34.144  35.043  1.00  0.00    -0.206 F 
ATOM     93  C   UNL A   1      39.657  34.734  36.902  1.00  0.00     0.040 A 
ATOM     94  C   UNL A   1      38.092  33.156  37.829  1.00  0.00     0.040 A 
ATOM     95  F   UNL A   1      37.898  31.008  36.903  1.00  0.00    -0.206 F 
ATOM     96  C   UNL A   1      38.682  34.418  37.846  1.00  0.00     0.006 A 
ENDBRANCH  72  89
ENDBRANCH  46  47
ENDBRANCH  39  41
ENDBRANCH  38  39
ENDBRANCH  37  38
ENDBRANCH   1  37
TORSDOF 14
ENDMDL
MODEL 3
REMARK VINA RESULT:     -13.5      1.412      2.676
REMARK SMILES O=C(Cn1nc(C(=O)OCCOC(=O)c2ccc(-c3c4nc(c(-c5c(F)cccc5F)c5ccc([nH]5)c(-c5c(F)cccc5F)c5nc(c(-c6c(F)cccc6F)c6ccc3[nH]6)C=C5)C=C4)cc2)c2ccccc2c1=O)Nc1ccc2c(c1)C(=O)c1ccccc1C2=O
REMARK SMILES IDX 10 1 9 2 7 3 8 4 6 5 4 6 5 7 75 8 74 9 76 10 69 11 73 12
REMARK SMILES IDX 70 13 72 14 71 15 3 16 2 17 1 18 77 19 78 21 79 22 83 23
REMARK SMILES IDX 80 24 82 25 81 26 84 27 92 28 85 29 86 30 91 31 93 32 87 33
REMARK SMILES IDX 90 34 88 35 89 36 11 37 12 38 13 39 14 40 15 41 16 42 68 43
REMARK SMILES IDX 17 44 67 45 18 46 19 47 20 48 61 49 21 50 66 51 60 52 62 53
REMARK SMILES IDX 22 54 65 55 59 56 58 57 23 59 49 60 32 61 48 62 33 63 36 64
REMARK SMILES IDX 47 65 63 66 34 67 35 68 46 70 64 71 37 72 24 73 25 74 30 75
REMARK SMILES IDX 26 76 27 77 29 78 31 79 28 80 50 81 51 82 56 83 52 84 53 85
REMARK SMILES IDX 55 86 57 87 54 88 38 89 39 90 44 91 40 92 41 93 43 94 45 95
REMARK SMILES IDX 42 96
REMARK H PARENT 77 20 62 58 36 69
REMARK Flexibility Score: inf
ROOT
ATOM      1  C   UNL A   1      35.888  34.542  34.052  1.00  0.00     0.275 C 
ENDROOT
BRANCH   1   2
ATOM      2  O   UNL A   1      35.715  33.816  32.813  1.00  0.00    -0.457 OA
BRANCH   2   3
ATOM      3  C   UNL A   1      34.465  33.412  32.496  1.00  0.00     0.359 C 
ATOM      4  O   UNL A   1      33.556  33.136  33.256  1.00  0.00    -0.244 OA
BRANCH   3   5
ATOM      5  C   UNL A   1      34.288  33.408  30.978  1.00  0.00     0.176 A 
ATOM      6  N   UNL A   1      34.459  32.282  28.955  1.00  0.00    -0.219 N 
ATOM      7  N   UNL A   1      34.374  32.263  30.353  1.00  0.00    -0.161 NA
ATOM      8  C   UNL A   1      34.854  33.458  28.318  1.00  0.00     0.275 A 
ATOM      9  C   UNL A   1      34.357  34.698  28.923  1.00  0.00     0.051 A 
ATOM     10  O   UNL A   1      35.501  33.508  27.281  1.00  0.00    -0.267 OA
ATOM     11  C   UNL A   1      34.059  34.685  30.276  1.00  0.00     0.022 A 
ATOM     12  C   UNL A   1      34.150  35.845  28.145  1.00  0.00     0.014 A 
ATOM     13  C   UNL A   1      33.530  35.835  30.860  1.00  0.00     0.011 A 
ATOM     14  C   UNL A   1      33.664  37.006  28.743  1.00  0.00     0.001 A 
ATOM     15  C   UNL A   1      33.360  37.001  30.100  1.00  0.00     0.001 A 
BRANCH   6  16
ATOM     16  C   UNL A   1      34.771  30.988  28.317  1.00  0.00     0.248 C 
BRANCH  16  17
ATOM     17  C   UNL A   1      33.916  30.558  27.097  1.00  0.00     0.246 C 
ATOM     18  O   UNL A   1      32.847  31.112  26.840  1.00  0.00    -0.273 OA
ATOM     19  N   UNL A   1      34.505  29.638  26.247  1.00  0.00    -0.324 N 
ATOM     20  H   UNL A   1      35.484  29.626  26.137  1.00  0.00     0.169 HD
BRANCH  19  21
ATOM     21  C   UNL A   1      33.703  28.716  25.537  1.00  0.00     0.042 A 
ATOM     22  C   UNL A   1      33.354  28.908  24.198  1.00  0.00     0.027 A 
ATOM     23  C   UNL A   1      33.485  27.474  26.123  1.00  0.00     0.039 A 
ATOM     24  C   UNL A   1      33.073  27.780  23.401  1.00  0.00     0.015 A 
ATOM     25  C   UNL A   1      33.013  26.420  25.369  1.00  0.00     0.036 A 
ATOM     26  C   UNL A   1      33.082  26.514  23.997  1.00  0.00     0.034 A 
ATOM     27  C   UNL A   1      33.003  25.095  25.984  1.00  0.00     0.194 C 
ATOM     28  C   UNL A   1      33.764  25.357  23.321  1.00  0.00     0.194 C 
ATOM     29  O   UNL A   1      32.212  24.755  26.849  1.00  0.00    -0.289 OA
ATOM     30  C   UNL A   1      34.136  24.281  25.552  1.00  0.00     0.034 A 
ATOM     31  C   UNL A   1      34.559  24.451  24.233  1.00  0.00     0.034 A 
ATOM     32  O   UNL A   1      33.825  25.260  22.105  1.00  0.00    -0.289 OA
ATOM     33  C   UNL A   1      34.892  23.632  26.522  1.00  0.00     0.013 A 
ATOM     34  C   UNL A   1      35.803  23.943  23.874  1.00  0.00     0.013 A 
ATOM     35  C   UNL A   1      36.152  23.171  26.170  1.00  0.00     0.001 A 
ATOM     36  C   UNL A   1      36.607  23.324  24.852  1.00  0.00     0.001 A 
ENDBRANCH  19  21
ENDBRANCH  16  17
ENDBRANCH   6  16
ENDBRANCH   3   5
ENDBRANCH   2   3
ENDBRANCH   1   2
BRANCH   1  37
ATOM     37  C   UNL A   1      36.572  33.673  35.113  1.00  0.00     0.275 C 
BRANCH  37  38
ATOM     38  O   UNL A   1      36.674  32.325  34.619  1.00  0.00    -0.458 OA
BRANCH  38  39
ATOM     39  C   UNL A   1      37.708  31.594  35.096  1.00  0.00     0.338 C 
ATOM     40  O   UNL A   1      37.914  31.243  36.244  1.00  0.00    -0.246 OA
BRANCH  39  41
ATOM     41  C   UNL A   1      38.475  31.096  33.946  1.00  0.00     0.060 A 
ATOM     42  C   UNL A   1      38.264  31.534  32.644  1.00  0.00     0.016 A 
ATOM     43  C   UNL A   1      39.541  30.257  34.227  1.00  0.00     0.016 A 
ATOM     44  C   UNL A   1      39.126  31.095  31.621  1.00  0.00     0.010 A 
ATOM     45  C   UNL A   1      40.475  29.966  33.239  1.00  0.00     0.010 A 
ATOM     46  C   UNL A   1      40.282  30.338  31.904  1.00  0.00    -0.014 A 
BRANCH  46  47
ATOM     47  C   UNL A   1      41.284  29.919  30.857  1.00  0.00     0.031 A 
ATOM     48  C   UNL A   1      42.453  30.821  30.472  1.00  0.00     0.074 A 
ATOM     49  C   UNL A   1      41.125  28.770  30.161  1.00  0.00     0.049 A 
ATOM     50  N   UNL A   1      43.344  30.671  29.517  1.00  0.00    -0.248 NA
ATOM     51  C   UNL A   1      42.590  32.101  31.187  1.00  0.00     0.031 C 
ATOM     52  C   UNL A   1      40.000  27.840  30.281  1.00  0.00     0.029 A 
ATOM     53  N   UNL A   1      41.927  28.179  29.208  1.00  0.00    -0.354 N 
ATOM     54  C   UNL A   1      44.085  31.851  29.496  1.00  0.00     0.074 A 
ATOM     55  C   UNL A   1      43.444  32.756  30.419  1.00  0.00     0.031 C 
ATOM     56  C   UNL A   1      40.232  26.757  29.522  1.00  0.00     0.029 A 
ATOM     57  C   UNL A   1      41.492  26.935  28.808  1.00  0.00     0.049 A 
ATOM     58  H   UNL A   1      42.736  28.606  28.847  1.00  0.00     0.167 HD
ATOM     59  C   UNL A   1      45.241  32.145  28.850  1.00  0.00     0.037 A 
ATOM     60  C   UNL A   1      42.045  26.032  27.976  1.00  0.00     0.037 A 
ATOM     61  C   UNL A   1      45.949  31.221  28.007  1.00  0.00     0.049 A 
ATOM     62  C   UNL A   1      43.352  26.348  27.295  1.00  0.00     0.074 A 
ATOM     63  C   UNL A   1      47.178  31.381  27.390  1.00  0.00     0.029 A 
ATOM     64  N   UNL A   1      45.496  29.955  27.677  1.00  0.00    -0.354 N 
ATOM     65  N   UNL A   1      44.091  27.428  27.377  1.00  0.00    -0.248 NA
ATOM     66  C   UNL A   1      43.903  25.313  26.407  1.00  0.00     0.031 C 
ATOM     67  C   UNL A   1      47.446  30.228  26.646  1.00  0.00     0.029 A 
ATOM     68  C   UNL A   1      46.413  29.327  26.851  1.00  0.00     0.049 A 
ATOM     69  H   UNL A   1      44.649  29.559  27.985  1.00  0.00     0.167 HD
ATOM     70  C   UNL A   1      45.209  27.183  26.588  1.00  0.00     0.074 A 
ATOM     71  C   UNL A   1      45.059  25.851  26.047  1.00  0.00     0.031 C 
ATOM     72  C   UNL A   1      46.268  27.992  26.336  1.00  0.00     0.037 A 
BRANCH  59  73
ATOM     73  C   UNL A   1      45.836  33.511  29.081  1.00  0.00     0.057 A 
ATOM     74  C   UNL A   1      46.656  33.765  30.189  1.00  0.00     0.134 A 
ATOM     75  C   UNL A   1      45.602  34.582  28.203  1.00  0.00     0.134 A 
ATOM     76  F   UNL A   1      46.907  32.800  31.087  1.00  0.00    -0.206 F 
ATOM     77  C   UNL A   1      47.238  35.017  30.397  1.00  0.00     0.040 A 
ATOM     78  C   UNL A   1      46.216  35.823  28.375  1.00  0.00     0.040 A 
ATOM     79  F   UNL A   1      44.826  34.416  27.120  1.00  0.00    -0.206 F 
ATOM     80  C   UNL A   1      47.035  36.044  29.479  1.00  0.00     0.006 A 
ENDBRANCH  59  73
BRANCH  60  81
ATOM     81  C   UNL A   1      41.411  24.700  27.774  1.00  0.00     0.057 A 
ATOM     82  C   UNL A   1      40.367  24.506  26.863  1.00  0.00     0.134 A 
ATOM     83  C   UNL A   1      41.873  23.574  28.469  1.00  0.00     0.134 A 
ATOM     84  F   UNL A   1      39.868  25.542  26.174  1.00  0.00    -0.206 F 
ATOM     85  C   UNL A   1      39.812  23.243  26.645  1.00  0.00     0.040 A 
ATOM     86  C   UNL A   1      41.351  22.300  28.236  1.00  0.00     0.040 A 
ATOM     87  F   UNL A   1      42.884  23.690  29.343  1.00  0.00    -0.206 F 
ATOM     88  C   UNL A   1      40.314  22.133  27.323  1.00  0.00     0.006 A 
ENDBRANCH  60  81
BRANCH  72  89
ATOM     89  C   UNL A   1      47.379  27.443  25.488  1.00  0.00     0.057 A 
ATOM     90  C   UNL A   1      48.445  26.751  26.081  1.00  0.00     0.134 A 
ATOM     91  C   UNL A   1      47.426  27.635  24.102  1.00  0.00     0.134 A 
ATOM     92  F   UNL A   1      48.468  26.542  27.406  1.00  0.00    -0.206 F 
ATOM     93  C   UNL A   1      49.518  26.277  25.327  1.00  0.00     0.040 A 
ATOM     94  C   UNL A   1      48.479  27.136  23.332  1.00  0.00     0.040 A 
ATOM     95  F   UNL A   1      46.434  28.281  23.471  1.00  0.00    -0.206 F 
ATOM     96  C   UNL A   1      49.532  26.462  23.947  1.00  0.00     0.006 A 
ENDBRANCH  72  89
ENDBRANCH  46  47
ENDBRANCH  39  41
ENDBRANCH  38  39
ENDBRANCH  37  38
ENDBRANCH   1  37
TORSDOF 14
ENDMDL
