MODEL 1
REMARK VINA RESULT:     -11.8      0.000      0.000
REMARK SMILES O=C(C[NH+]1CCC(C(=O)OCCOC(=O)c2ccc(-c3c4nc(c(-c5c(F)cccc5F)c5ccc([nH]5)c(-c5c(F)cccc5F)c5nc(c(-c6c(F)cccc6F)c6ccc3[nH]6)C=C5)C=C4)cc2)CC1)Nc1ccccc1Oc1ccccc1
REMARK SMILES IDX 10 1 8 2 9 3 7 4 4 5 5 6 71 7 6 9 70 10 3 11 2 12 1 13 72 14
REMARK SMILES IDX 73 16 74 17 78 18 75 19 77 20 76 21 79 22 80 23 81 24 85 25
REMARK SMILES IDX 82 26 84 27 83 28 11 29 12 30 13 31 14 32 15 33 16 34 17 35
REMARK SMILES IDX 69 36 18 37 68 38 19 39 20 40 21 41 62 42 22 43 67 44 61 45
REMARK SMILES IDX 63 46 23 47 66 48 60 49 59 50 24 52 50 53 33 54 49 55 34 56
REMARK SMILES IDX 37 57 48 58 64 59 35 60 36 61 47 63 65 64 38 65 25 66 26 67
REMARK SMILES IDX 31 68 27 69 28 70 30 71 32 72 29 73 51 74 52 75 57 76 53 77
REMARK SMILES IDX 54 78 56 79 58 80 55 81 39 82 40 83 45 84 41 85 42 86 44 87
REMARK SMILES IDX 46 88 43 89
REMARK H PARENT 4 8 72 15 63 51 37 62
REMARK Flexibility Score: inf
ROOT
ATOM      1  O   UNL A   1      33.488  34.256  29.005  1.00  0.00    -0.462 OA
ENDROOT
BRANCH   1   2
ATOM      2  C   UNL A   1      34.678  33.604  29.032  1.00  0.00     0.309 C 
ATOM      3  O   UNL A   1      35.759  34.119  29.288  1.00  0.00    -0.252 OA
BRANCH   2   4
ATOM      4  C   UNL A   1      34.540  32.138  28.688  1.00  0.00     0.110 C 
ATOM      5  N   UNL A   1      34.583  29.983  26.770  1.00  0.00    -0.327 N 
ATOM      6  C   UNL A   1      33.313  30.355  27.400  1.00  0.00     0.263 C 
ATOM      7  C   UNL A   1      35.707  30.159  27.698  1.00  0.00     0.263 C 
ATOM      8  H   UNL A   1      34.713  30.603  25.970  1.00  0.00     0.348 HD
ATOM      9  C   UNL A   1      33.343  31.828  27.783  1.00  0.00     0.077 C 
ATOM     10  C   UNL A   1      35.844  31.622  28.094  1.00  0.00     0.077 C 
BRANCH   5  11
ATOM     11  C   UNL A   1      34.553  28.595  26.289  1.00  0.00     0.363 C 
BRANCH  11  12
ATOM     12  C   UNL A   1      33.508  28.441  25.186  1.00  0.00     0.279 C 
ATOM     13  O   UNL A   1      33.808  28.372  23.995  1.00  0.00    -0.268 OA
ATOM     14  N   UNL A   1      32.220  28.375  25.680  1.00  0.00    -0.318 N 
ATOM     15  H   UNL A   1      32.034  28.830  26.534  1.00  0.00     0.170 HD
BRANCH  14  16
ATOM     16  C   UNL A   1      31.155  27.704  25.052  1.00  0.00     0.084 A 
ATOM     17  C   UNL A   1      30.768  26.486  25.633  1.00  0.00     0.030 A 
ATOM     18  C   UNL A   1      30.487  28.156  23.898  1.00  0.00     0.150 A 
ATOM     19  C   UNL A   1      29.665  25.780  25.147  1.00  0.00     0.002 A 
ATOM     20  C   UNL A   1      29.377  27.440  23.426  1.00  0.00     0.049 A 
ATOM     21  C   UNL A   1      28.960  26.265  24.051  1.00  0.00     0.004 A 
BRANCH  18  22
ATOM     22  O   UNL A   1      30.755  29.288  23.158  1.00  0.00    -0.455 OA
BRANCH  22  23
ATOM     23  C   UNL A   1      29.778  30.210  22.869  1.00  0.00     0.127 A 
ATOM     24  C   UNL A   1      29.428  30.290  21.515  1.00  0.00     0.047 A 
ATOM     25  C   UNL A   1      29.143  31.036  23.796  1.00  0.00     0.047 A 
ATOM     26  C   UNL A   1      28.395  31.129  21.096  1.00  0.00     0.004 A 
ATOM     27  C   UNL A   1      28.109  31.882  23.373  1.00  0.00     0.004 A 
ATOM     28  C   UNL A   1      27.727  31.918  22.029  1.00  0.00     0.000 A 
ENDBRANCH  22  23
ENDBRANCH  18  22
ENDBRANCH  14  16
ENDBRANCH  11  12
ENDBRANCH   5  11
ENDBRANCH   2   4
ENDBRANCH   1   2
BRANCH   1  29
ATOM     29  C   UNL A   1      33.539  35.672  28.763  1.00  0.00     0.274 C 
BRANCH  29  30
ATOM     30  C   UNL A   1      32.865  36.442  29.901  1.00  0.00     0.275 C 
BRANCH  30  31
ATOM     31  O   UNL A   1      32.389  35.551  30.929  1.00  0.00    -0.458 OA
BRANCH  31  32
ATOM     32  C   UNL A   1      32.681  35.914  32.197  1.00  0.00     0.338 C 
ATOM     33  O   UNL A   1      32.066  36.696  32.912  1.00  0.00    -0.246 OA
BRANCH  32  34
ATOM     34  C   UNL A   1      33.821  35.128  32.688  1.00  0.00     0.060 A 
ATOM     35  C   UNL A   1      35.104  35.664  32.549  1.00  0.00     0.016 A 
ATOM     36  C   UNL A   1      33.641  33.842  33.194  1.00  0.00     0.016 A 
ATOM     37  C   UNL A   1      36.220  34.922  32.925  1.00  0.00     0.010 A 
ATOM     38  C   UNL A   1      34.763  33.096  33.571  1.00  0.00     0.010 A 
ATOM     39  C   UNL A   1      36.058  33.629  33.433  1.00  0.00    -0.014 A 
BRANCH  39  40
ATOM     40  C   UNL A   1      37.246  32.808  33.768  1.00  0.00     0.031 A 
ATOM     41  C   UNL A   1      37.968  33.042  35.062  1.00  0.00     0.074 A 
ATOM     42  C   UNL A   1      37.671  31.857  32.917  1.00  0.00     0.049 A 
ATOM     43  N   UNL A   1      39.113  32.560  35.469  1.00  0.00    -0.248 NA
ATOM     44  C   UNL A   1      37.313  33.942  36.024  1.00  0.00     0.031 C 
ATOM     45  C   UNL A   1      37.017  31.488  31.662  1.00  0.00     0.029 A 
ATOM     46  N   UNL A   1      38.769  31.035  32.978  1.00  0.00    -0.354 N 
ATOM     47  C   UNL A   1      39.335  33.125  36.718  1.00  0.00     0.074 A 
ATOM     48  C   UNL A   1      38.205  33.984  37.003  1.00  0.00     0.031 C 
ATOM     49  C   UNL A   1      37.730  30.520  31.066  1.00  0.00     0.029 A 
ATOM     50  C   UNL A   1      38.920  30.243  31.866  1.00  0.00     0.049 A 
ATOM     51  H   UNL A   1      39.387  31.015  33.744  1.00  0.00     0.167 HD
ATOM     52  C   UNL A   1      40.391  32.944  37.547  1.00  0.00     0.037 A 
ATOM     53  C   UNL A   1      39.927  29.423  31.513  1.00  0.00     0.037 A 
ATOM     54  C   UNL A   1      41.499  32.070  37.267  1.00  0.00     0.049 A 
ATOM     55  C   UNL A   1      41.118  29.288  32.419  1.00  0.00     0.074 A 
ATOM     56  C   UNL A   1      42.615  31.813  38.046  1.00  0.00     0.029 A 
ATOM     57  N   UNL A   1      41.628  31.305  36.118  1.00  0.00    -0.354 N 
ATOM     58  N   UNL A   1      41.340  29.852  33.581  1.00  0.00    -0.248 NA
ATOM     59  C   UNL A   1      42.207  28.413  31.958  1.00  0.00     0.031 C 
ATOM     60  C   UNL A   1      43.434  30.917  37.352  1.00  0.00     0.029 A 
ATOM     61  C   UNL A   1      42.813  30.587  36.159  1.00  0.00     0.049 A 
ATOM     62  H   UNL A   1      40.975  31.276  35.383  1.00  0.00     0.167 HD
ATOM     63  C   UNL A   1      42.582  29.392  33.997  1.00  0.00     0.074 A 
ATOM     64  C   UNL A   1      43.062  28.491  32.969  1.00  0.00     0.031 C 
ATOM     65  C   UNL A   1      43.266  29.690  35.128  1.00  0.00     0.037 A 
BRANCH  52  66
ATOM     66  C   UNL A   1      40.415  33.741  38.816  1.00  0.00     0.057 A 
ATOM     67  C   UNL A   1      39.732  33.325  39.966  1.00  0.00     0.134 A 
ATOM     68  C   UNL A   1      41.156  34.926  38.894  1.00  0.00     0.134 A 
ATOM     69  F   UNL A   1      38.991  32.208  39.951  1.00  0.00    -0.206 F 
ATOM     70  C   UNL A   1      39.772  34.073  41.145  1.00  0.00     0.040 A 
ATOM     71  C   UNL A   1      41.219  35.671  40.073  1.00  0.00     0.040 A 
ATOM     72  F   UNL A   1      41.833  35.377  37.828  1.00  0.00    -0.206 F 
ATOM     73  C   UNL A   1      40.522  35.247  41.201  1.00  0.00     0.006 A 
ENDBRANCH  52  66
BRANCH  53  74
ATOM     74  C   UNL A   1      39.872  28.702  30.218  1.00  0.00     0.057 A 
ATOM     75  C   UNL A   1      39.215  27.474  30.099  1.00  0.00     0.134 A 
ATOM     76  C   UNL A   1      40.478  29.225  29.068  1.00  0.00     0.134 A 
ATOM     77  F   UNL A   1      38.638  26.912  31.172  1.00  0.00    -0.206 F 
ATOM     78  C   UNL A   1      39.166  26.785  28.886  1.00  0.00     0.040 A 
ATOM     79  C   UNL A   1      40.418  28.558  27.843  1.00  0.00     0.040 A 
ATOM     80  F   UNL A   1      41.127  30.397  29.116  1.00  0.00    -0.206 F 
ATOM     81  C   UNL A   1      39.764  27.331  27.752  1.00  0.00     0.006 A 
ENDBRANCH  53  74
BRANCH  65  82
ATOM     82  C   UNL A   1      44.589  29.013  35.326  1.00  0.00     0.057 A 
ATOM     83  C   UNL A   1      44.695  27.784  35.988  1.00  0.00     0.134 A 
ATOM     84  C   UNL A   1      45.762  29.578  34.809  1.00  0.00     0.134 A 
ATOM     85  F   UNL A   1      43.607  27.201  36.515  1.00  0.00    -0.206 F 
ATOM     86  C   UNL A   1      45.925  27.145  36.141  1.00  0.00     0.040 A 
ATOM     87  C   UNL A   1      46.995  28.939  34.940  1.00  0.00     0.040 A 
ATOM     88  F   UNL A   1      45.725  30.751  34.161  1.00  0.00    -0.206 F 
ATOM     89  C   UNL A   1      47.079  27.720  35.610  1.00  0.00     0.006 A 
ENDBRANCH  65  82
ENDBRANCH  39  40
ENDBRANCH  32  34
ENDBRANCH  31  32
ENDBRANCH  30  31
ENDBRANCH  29  30
ENDBRANCH   1  29
TORSDOF 16
ENDMDL
MODEL 2
REMARK VINA RESULT:     -11.8      7.674     12.966
REMARK SMILES O=C(C[NH+]1CCC(C(=O)OCCOC(=O)c2ccc(-c3c4nc(c(-c5c(F)cccc5F)c5ccc([nH]5)c(-c5c(F)cccc5F)c5nc(c(-c6c(F)cccc6F)c6ccc3[nH]6)C=C5)C=C4)cc2)CC1)Nc1ccccc1Oc1ccccc1
REMARK SMILES IDX 10 1 8 2 9 3 7 4 4 5 5 6 71 7 6 9 70 10 3 11 2 12 1 13 72 14
REMARK SMILES IDX 73 16 74 17 78 18 75 19 77 20 76 21 79 22 80 23 81 24 85 25
REMARK SMILES IDX 82 26 84 27 83 28 11 29 12 30 13 31 14 32 15 33 16 34 17 35
REMARK SMILES IDX 69 36 18 37 68 38 19 39 20 40 21 41 62 42 22 43 67 44 61 45
REMARK SMILES IDX 63 46 23 47 66 48 60 49 59 50 24 52 50 53 33 54 49 55 34 56
REMARK SMILES IDX 37 57 48 58 64 59 35 60 36 61 47 63 65 64 38 65 25 66 26 67
REMARK SMILES IDX 31 68 27 69 28 70 30 71 32 72 29 73 51 74 52 75 57 76 53 77
REMARK SMILES IDX 54 78 56 79 58 80 55 81 39 82 40 83 45 84 41 85 42 86 44 87
REMARK SMILES IDX 46 88 43 89
REMARK H PARENT 4 8 72 15 63 51 37 62
REMARK Flexibility Score: inf
ROOT
ATOM      1  O   UNL A   1      41.525  19.601  27.264  1.00  0.00    -0.462 OA
ENDROOT
BRANCH   1   2
ATOM      2  C   UNL A   1      41.756  20.932  27.398  1.00  0.00     0.309 C 
ATOM      3  O   UNL A   1      42.674  21.429  28.039  1.00  0.00    -0.252 OA
BRANCH   2   4
ATOM      4  C   UNL A   1      40.729  21.771  26.671  1.00  0.00     0.110 C 
ATOM      5  N   UNL A   1      38.075  22.883  26.456  1.00  0.00    -0.327 N 
ATOM      6  C   UNL A   1      38.509  21.874  25.486  1.00  0.00     0.263 C 
ATOM      7  C   UNL A   1      39.195  23.738  26.868  1.00  0.00     0.263 C 
ATOM      8  H   UNL A   1      37.723  22.382  27.273  1.00  0.00     0.348 HD
ATOM      9  C   UNL A   1      39.548  20.963  26.124  1.00  0.00     0.077 C 
ATOM     10  C   UNL A   1      40.265  22.911  27.568  1.00  0.00     0.077 C 
BRANCH   5  11
ATOM     11  C   UNL A   1      36.993  23.716  25.912  1.00  0.00     0.363 C 
BRANCH  11  12
ATOM     12  C   UNL A   1      35.706  22.901  25.800  1.00  0.00     0.279 C 
ATOM     13  O   UNL A   1      34.907  22.796  26.729  1.00  0.00    -0.268 OA
ATOM     14  N   UNL A   1      35.548  22.327  24.554  1.00  0.00    -0.318 N 
ATOM     15  H   UNL A   1      36.362  22.114  24.041  1.00  0.00     0.170 HD
BRANCH  14  16
ATOM     16  C   UNL A   1      34.307  22.025  23.963  1.00  0.00     0.084 A 
ATOM     17  C   UNL A   1      33.867  22.914  22.971  1.00  0.00     0.030 A 
ATOM     18  C   UNL A   1      33.495  20.929  24.312  1.00  0.00     0.150 A 
ATOM     19  C   UNL A   1      32.694  22.663  22.254  1.00  0.00     0.002 A 
ATOM     20  C   UNL A   1      32.323  20.686  23.579  1.00  0.00     0.049 A 
ATOM     21  C   UNL A   1      31.928  21.540  22.550  1.00  0.00     0.004 A 
BRANCH  18  22
ATOM     22  O   UNL A   1      33.727  19.986  25.290  1.00  0.00    -0.455 OA
BRANCH  22  23
ATOM     23  C   UNL A   1      33.660  18.639  25.025  1.00  0.00     0.127 A 
ATOM     24  C   UNL A   1      32.729  17.934  25.796  1.00  0.00     0.047 A 
ATOM     25  C   UNL A   1      34.429  17.960  24.079  1.00  0.00     0.047 A 
ATOM     26  C   UNL A   1      32.505  16.574  25.575  1.00  0.00     0.004 A 
ATOM     27  C   UNL A   1      34.207  16.594  23.861  1.00  0.00     0.004 A 
ATOM     28  C   UNL A   1      33.237  15.907  24.597  1.00  0.00     0.000 A 
ENDBRANCH  22  23
ENDBRANCH  18  22
ENDBRANCH  14  16
ENDBRANCH  11  12
ENDBRANCH   5  11
ENDBRANCH   2   4
ENDBRANCH   1   2
BRANCH   1  29
ATOM     29  C   UNL A   1      42.658  18.786  26.923  1.00  0.00     0.274 C 
BRANCH  29  30
ATOM     30  C   UNL A   1      42.953  18.869  25.424  1.00  0.00     0.275 C 
BRANCH  30  31
ATOM     31  O   UNL A   1      44.344  18.611  25.146  1.00  0.00    -0.458 OA
BRANCH  31  32
ATOM     32  C   UNL A   1      44.909  19.399  24.206  1.00  0.00     0.338 C 
ATOM     33  O   UNL A   1      45.272  19.077  23.081  1.00  0.00    -0.246 OA
BRANCH  32  34
ATOM     34  C   UNL A   1      44.933  20.790  24.675  1.00  0.00     0.060 A 
ATOM     35  C   UNL A   1      44.518  21.794  23.796  1.00  0.00     0.016 A 
ATOM     36  C   UNL A   1      45.444  21.116  25.930  1.00  0.00     0.016 A 
ATOM     37  C   UNL A   1      44.600  23.132  24.167  1.00  0.00     0.010 A 
ATOM     38  C   UNL A   1      45.528  22.462  26.303  1.00  0.00     0.010 A 
ATOM     39  C   UNL A   1      45.112  23.477  25.422  1.00  0.00    -0.014 A 
BRANCH  39  40
ATOM     40  C   UNL A   1      45.269  24.903  25.794  1.00  0.00     0.031 A 
ATOM     41  C   UNL A   1      46.610  25.562  25.655  1.00  0.00     0.074 A 
ATOM     42  C   UNL A   1      44.215  25.602  26.251  1.00  0.00     0.049 A 
ATOM     43  N   UNL A   1      47.003  26.735  26.078  1.00  0.00    -0.248 NA
ATOM     44  C   UNL A   1      47.646  24.794  24.948  1.00  0.00     0.031 C 
ATOM     45  C   UNL A   1      42.848  25.095  26.368  1.00  0.00     0.029 A 
ATOM     46  N   UNL A   1      44.136  26.890  26.717  1.00  0.00    -0.354 N 
ATOM     47  C   UNL A   1      48.341  26.834  25.721  1.00  0.00     0.074 A 
ATOM     48  C   UNL A   1      48.693  25.602  25.045  1.00  0.00     0.031 C 
ATOM     49  C   UNL A   1      42.067  26.059  26.881  1.00  0.00     0.029 A 
ATOM     50  C   UNL A   1      42.889  27.227  27.183  1.00  0.00     0.049 A 
ATOM     51  H   UNL A   1      44.899  27.513  26.716  1.00  0.00     0.167 HD
ATOM     52  C   UNL A   1      49.198  27.859  25.944  1.00  0.00     0.037 A 
ATOM     53  C   UNL A   1      42.469  28.335  27.824  1.00  0.00     0.037 A 
ATOM     54  C   UNL A   1      48.834  29.090  26.595  1.00  0.00     0.049 A 
ATOM     55  C   UNL A   1      43.453  29.432  28.117  1.00  0.00     0.074 A 
ATOM     56  C   UNL A   1      49.628  30.192  26.863  1.00  0.00     0.029 A 
ATOM     57  N   UNL A   1      47.568  29.382  27.077  1.00  0.00    -0.354 N 
ATOM     58  N   UNL A   1      44.726  29.505  27.811  1.00  0.00    -0.248 NA
ATOM     59  C   UNL A   1      42.946  30.596  28.860  1.00  0.00     0.031 C 
ATOM     60  C   UNL A   1      48.848  31.138  27.536  1.00  0.00     0.029 A 
ATOM     61  C   UNL A   1      47.561  30.641  27.656  1.00  0.00     0.049 A 
ATOM     62  H   UNL A   1      46.788  28.783  27.017  1.00  0.00     0.167 HD
ATOM     63  C   UNL A   1      45.168  30.723  28.307  1.00  0.00     0.074 A 
ATOM     64  C   UNL A   1      44.025  31.365  28.925  1.00  0.00     0.031 C 
ATOM     65  C   UNL A   1      46.410  31.263  28.258  1.00  0.00     0.037 A 
BRANCH  52  66
ATOM     66  C   UNL A   1      50.621  27.673  25.515  1.00  0.00     0.057 A 
ATOM     67  C   UNL A   1      51.033  27.892  24.195  1.00  0.00     0.134 A 
ATOM     68  C   UNL A   1      51.598  27.297  26.446  1.00  0.00     0.134 A 
ATOM     69  F   UNL A   1      50.144  28.237  23.252  1.00  0.00    -0.206 F 
ATOM     70  C   UNL A   1      52.366  27.724  23.812  1.00  0.00     0.040 A 
ATOM     71  C   UNL A   1      52.935  27.146  26.079  1.00  0.00     0.040 A 
ATOM     72  F   UNL A   1      51.267  27.075  27.727  1.00  0.00    -0.206 F 
ATOM     73  C   UNL A   1      53.322  27.356  24.757  1.00  0.00     0.006 A 
ENDBRANCH  52  66
BRANCH  53  74
ATOM     74  C   UNL A   1      41.060  28.438  28.273  1.00  0.00     0.057 A 
ATOM     75  C   UNL A   1      40.062  28.923  27.421  1.00  0.00     0.134 A 
ATOM     76  C   UNL A   1      40.677  28.056  29.565  1.00  0.00     0.134 A 
ATOM     77  F   UNL A   1      40.372  29.328  26.181  1.00  0.00    -0.206 F 
ATOM     78  C   UNL A   1      38.734  29.032  27.839  1.00  0.00     0.040 A 
ATOM     79  C   UNL A   1      39.350  28.138  29.988  1.00  0.00     0.040 A 
ATOM     80  F   UNL A   1      41.587  27.585  30.430  1.00  0.00    -0.206 F 
ATOM     81  C   UNL A   1      38.375  28.632  29.125  1.00  0.00     0.006 A 
ENDBRANCH  53  74
BRANCH  65  82
ATOM     82  C   UNL A   1      46.589  32.623  28.860  1.00  0.00     0.057 A 
ATOM     83  C   UNL A   1      46.375  33.791  28.118  1.00  0.00     0.134 A 
ATOM     84  C   UNL A   1      46.937  32.764  30.210  1.00  0.00     0.134 A 
ATOM     85  F   UNL A   1      46.052  33.719  26.817  1.00  0.00    -0.206 F 
ATOM     86  C   UNL A   1      46.513  35.054  28.695  1.00  0.00     0.040 A 
ATOM     87  C   UNL A   1      47.060  34.021  30.802  1.00  0.00     0.040 A 
ATOM     88  F   UNL A   1      47.151  31.683  30.974  1.00  0.00    -0.206 F 
ATOM     89  C   UNL A   1      46.850  35.171  30.042  1.00  0.00     0.006 A 
ENDBRANCH  65  82
ENDBRANCH  39  40
ENDBRANCH  32  34
ENDBRANCH  31  32
ENDBRANCH  30  31
ENDBRANCH  29  30
ENDBRANCH   1  29
TORSDOF 16
ENDMDL
MODEL 3
REMARK VINA RESULT:     -11.8      4.049      8.972
REMARK SMILES O=C(C[NH+]1CCC(C(=O)OCCOC(=O)c2ccc(-c3c4nc(c(-c5c(F)cccc5F)c5ccc([nH]5)c(-c5c(F)cccc5F)c5nc(c(-c6c(F)cccc6F)c6ccc3[nH]6)C=C5)C=C4)cc2)CC1)Nc1ccccc1Oc1ccccc1
REMARK SMILES IDX 10 1 8 2 9 3 7 4 4 5 5 6 71 7 6 9 70 10 3 11 2 12 1 13 72 14
REMARK SMILES IDX 73 16 74 17 78 18 75 19 77 20 76 21 79 22 80 23 81 24 85 25
REMARK SMILES IDX 82 26 84 27 83 28 11 29 12 30 13 31 14 32 15 33 16 34 17 35
REMARK SMILES IDX 69 36 18 37 68 38 19 39 20 40 21 41 62 42 22 43 67 44 61 45
REMARK SMILES IDX 63 46 23 47 66 48 60 49 59 50 24 52 50 53 33 54 49 55 34 56
REMARK SMILES IDX 37 57 48 58 64 59 35 60 36 61 47 63 65 64 38 65 25 66 26 67
REMARK SMILES IDX 31 68 27 69 28 70 30 71 32 72 29 73 51 74 52 75 57 76 53 77
REMARK SMILES IDX 54 78 56 79 58 80 55 81 39 82 40 83 45 84 41 85 42 86 44 87
REMARK SMILES IDX 46 88 43 89
REMARK H PARENT 4 8 72 15 63 51 37 62
REMARK Flexibility Score: inf
ROOT
ATOM      1  O   UNL A   1      42.263  20.371  25.774  1.00  0.00    -0.462 OA
ENDROOT
BRANCH   1   2
ATOM      2  C   UNL A   1      41.196  20.511  26.601  1.00  0.00     0.309 C 
ATOM      3  O   UNL A   1      41.009  19.869  27.627  1.00  0.00    -0.252 OA
BRANCH   2   4
ATOM      4  C   UNL A   1      40.221  21.558  26.112  1.00  0.00     0.110 C 
ATOM      5  N   UNL A   1      37.750  23.025  26.382  1.00  0.00    -0.327 N 
ATOM      6  C   UNL A   1      37.910  22.089  25.265  1.00  0.00     0.263 C 
ATOM      7  C   UNL A   1      39.025  23.671  26.717  1.00  0.00     0.263 C 
ATOM      8  H   UNL A   1      37.433  22.481  27.185  1.00  0.00     0.348 HD
ATOM      9  C   UNL A   1      38.876  20.981  25.657  1.00  0.00     0.077 C 
ATOM     10  C   UNL A   1      40.042  22.634  27.174  1.00  0.00     0.077 C 
BRANCH   5  11
ATOM     11  C   UNL A   1      36.742  24.050  26.079  1.00  0.00     0.363 C 
BRANCH  11  12
ATOM     12  C   UNL A   1      35.395  23.394  25.785  1.00  0.00     0.279 C 
ATOM     13  O   UNL A   1      34.897  22.545  26.523  1.00  0.00    -0.268 OA
ATOM     14  N   UNL A   1      34.813  23.873  24.628  1.00  0.00    -0.318 N 
ATOM     15  H   UNL A   1      35.411  24.208  23.920  1.00  0.00     0.170 HD
BRANCH  14  16
ATOM     16  C   UNL A   1      33.427  23.916  24.387  1.00  0.00     0.084 A 
ATOM     17  C   UNL A   1      32.973  23.185  23.279  1.00  0.00     0.030 A 
ATOM     18  C   UNL A   1      32.499  24.646  25.155  1.00  0.00     0.150 A 
ATOM     19  C   UNL A   1      31.608  23.083  22.999  1.00  0.00     0.002 A 
ATOM     20  C   UNL A   1      31.131  24.529  24.865  1.00  0.00     0.049 A 
ATOM     21  C   UNL A   1      30.685  23.746  23.801  1.00  0.00     0.004 A 
BRANCH  18  22
ATOM     22  O   UNL A   1      32.756  25.462  26.235  1.00  0.00    -0.455 OA
BRANCH  22  23
ATOM     23  C   UNL A   1      32.738  26.832  26.125  1.00  0.00     0.127 A 
ATOM     24  C   UNL A   1      33.477  27.344  25.051  1.00  0.00     0.047 A 
ATOM     25  C   UNL A   1      32.064  27.706  26.979  1.00  0.00     0.047 A 
ATOM     26  C   UNL A   1      33.480  28.712  24.778  1.00  0.00     0.004 A 
ATOM     27  C   UNL A   1      32.072  29.080  26.706  1.00  0.00     0.004 A 
ATOM     28  C   UNL A   1      32.766  29.580  25.601  1.00  0.00     0.000 A 
ENDBRANCH  22  23
ENDBRANCH  18  22
ENDBRANCH  14  16
ENDBRANCH  11  12
ENDBRANCH   5  11
ENDBRANCH   2   4
ENDBRANCH   1   2
BRANCH   1  29
ATOM     29  C   UNL A   1      43.424  21.157  26.088  1.00  0.00     0.274 C 
BRANCH  29  30
ATOM     30  C   UNL A   1      43.836  22.018  24.892  1.00  0.00     0.275 C 
BRANCH  30  31
ATOM     31  O   UNL A   1      43.201  23.311  24.930  1.00  0.00    -0.458 OA
BRANCH  31  32
ATOM     32  C   UNL A   1      44.023  24.360  25.146  1.00  0.00     0.338 C 
ATOM     33  O   UNL A   1      45.061  24.632  24.553  1.00  0.00    -0.246 OA
BRANCH  32  34
ATOM     34  C   UNL A   1      43.436  25.252  26.154  1.00  0.00     0.060 A 
ATOM     35  C   UNL A   1      43.785  26.604  26.127  1.00  0.00     0.016 A 
ATOM     36  C   UNL A   1      42.623  24.750  27.169  1.00  0.00     0.016 A 
ATOM     37  C   UNL A   1      43.317  27.471  27.111  1.00  0.00     0.010 A 
ATOM     38  C   UNL A   1      42.153  25.620  28.158  1.00  0.00     0.010 A 
ATOM     39  C   UNL A   1      42.503  26.984  28.138  1.00  0.00    -0.014 A 
BRANCH  39  40
ATOM     40  C   UNL A   1      42.061  27.887  29.227  1.00  0.00     0.031 A 
ATOM     41  C   UNL A   1      42.824  27.919  30.518  1.00  0.00     0.074 A 
ATOM     42  C   UNL A   1      40.983  28.674  29.058  1.00  0.00     0.049 A 
ATOM     43  N   UNL A   1      42.515  28.501  31.648  1.00  0.00    -0.248 NA
ATOM     44  C   UNL A   1      44.105  27.196  30.540  1.00  0.00     0.031 C 
ATOM     45  C   UNL A   1      40.199  28.782  27.828  1.00  0.00     0.029 A 
ATOM     46  N   UNL A   1      40.355  29.523  29.933  1.00  0.00    -0.354 N 
ATOM     47  C   UNL A   1      43.544  28.187  32.526  1.00  0.00     0.074 A 
ATOM     48  C   UNL A   1      44.487  27.363  31.798  1.00  0.00     0.031 C 
ATOM     49  C   UNL A   1      39.188  29.643  28.030  1.00  0.00     0.029 A 
ATOM     50  C   UNL A   1      39.219  30.097  29.417  1.00  0.00     0.049 A 
ATOM     51  H   UNL A   1      40.686  29.703  30.843  1.00  0.00     0.167 HD
ATOM     52  C   UNL A   1      43.682  28.549  33.824  1.00  0.00     0.037 A 
ATOM     53  C   UNL A   1      38.286  30.865  30.010  1.00  0.00     0.037 A 
ATOM     54  C   UNL A   1      42.752  29.386  34.533  1.00  0.00     0.049 A 
ATOM     55  C   UNL A   1      38.427  31.201  31.468  1.00  0.00     0.074 A 
ATOM     56  C   UNL A   1      42.806  29.815  35.848  1.00  0.00     0.029 A 
ATOM     57  N   UNL A   1      41.600  29.927  33.983  1.00  0.00    -0.354 N 
ATOM     58  N   UNL A   1      39.383  30.870  32.303  1.00  0.00    -0.248 NA
ATOM     59  C   UNL A   1      37.353  32.005  32.071  1.00  0.00     0.031 C 
ATOM     60  C   UNL A   1      41.669  30.590  36.102  1.00  0.00     0.029 A 
ATOM     61  C   UNL A   1      40.926  30.672  34.936  1.00  0.00     0.049 A 
ATOM     62  H   UNL A   1      41.305  29.799  33.053  1.00  0.00     0.167 HD
ATOM     63  C   UNL A   1      39.035  31.435  33.522  1.00  0.00     0.074 A 
ATOM     64  C   UNL A   1      37.787  32.141  33.317  1.00  0.00     0.031 C 
ATOM     65  C   UNL A   1      39.689  31.373  34.708  1.00  0.00     0.037 A 
BRANCH  52  66
ATOM     66  C   UNL A   1      44.863  28.004  34.569  1.00  0.00     0.057 A 
ATOM     67  C   UNL A   1      44.819  26.772  35.231  1.00  0.00     0.134 A 
ATOM     68  C   UNL A   1      46.070  28.713  34.597  1.00  0.00     0.134 A 
ATOM     69  F   UNL A   1      43.688  26.052  35.255  1.00  0.00    -0.206 F 
ATOM     70  C   UNL A   1      45.931  26.272  35.913  1.00  0.00     0.040 A 
ATOM     71  C   UNL A   1      47.193  28.215  35.258  1.00  0.00     0.040 A 
ATOM     72  F   UNL A   1      46.177  29.900  33.980  1.00  0.00    -0.206 F 
ATOM     73  C   UNL A   1      47.124  26.993  35.922  1.00  0.00     0.006 A 
ENDBRANCH  52  66
BRANCH  53  74
ATOM     74  C   UNL A   1      37.110  31.329  29.235  1.00  0.00     0.057 A 
ATOM     75  C   UNL A   1      36.006  30.497  29.025  1.00  0.00     0.134 A 
ATOM     76  C   UNL A   1      37.064  32.616  28.683  1.00  0.00     0.134 A 
ATOM     77  F   UNL A   1      36.003  29.246  29.508  1.00  0.00    -0.206 F 
ATOM     78  C   UNL A   1      34.899  30.923  28.289  1.00  0.00     0.040 A 
ATOM     79  C   UNL A   1      35.954  33.063  27.964  1.00  0.00     0.040 A 
ATOM     80  F   UNL A   1      38.092  33.461  28.846  1.00  0.00    -0.206 F 
ATOM     81  C   UNL A   1      34.870  32.213  27.761  1.00  0.00     0.006 A 
ENDBRANCH  53  74
BRANCH  65  82
ATOM     82  C   UNL A   1      39.084  32.113  35.862  1.00  0.00     0.057 A 
ATOM     83  C   UNL A   1      38.217  31.486  36.765  1.00  0.00     0.134 A 
ATOM     84  C   UNL A   1      39.409  33.455  36.098  1.00  0.00     0.134 A 
ATOM     85  F   UNL A   1      37.858  30.205  36.585  1.00  0.00    -0.206 F 
ATOM     86  C   UNL A   1      37.682  32.173  37.855  1.00  0.00     0.040 A 
ATOM     87  C   UNL A   1      38.896  34.146  37.195  1.00  0.00     0.040 A 
ATOM     88  F   UNL A   1      40.239  34.109  35.271  1.00  0.00    -0.206 F 
ATOM     89  C   UNL A   1      38.027  33.505  38.076  1.00  0.00     0.006 A 
ENDBRANCH  65  82
ENDBRANCH  39  40
ENDBRANCH  32  34
ENDBRANCH  31  32
ENDBRANCH  30  31
ENDBRANCH  29  30
ENDBRANCH   1  29
TORSDOF 16
ENDMDL
