MODEL 1
REMARK VINA RESULT:     -12.0      0.000      0.000
REMARK SMILES O=C(OCCOC(=O)[C@@H]1CCn2c(C(=O)c3ccccc3)ccc21)c1ccc(-c2c3nc(c(-c4c(F)cccc4F)c4ccc([nH]4)c(-c4c(F)cccc4F)c4nc(c(-c5c(F)cccc5F)c5ccc2[nH]5)C=C4)C=C3)cc1
REMARK SMILES IDX 4 1 3 2 2 3 1 4 25 5 26 6 78 7 27 8 77 9 28 10 29 11 30 12
REMARK SMILES IDX 71 13 31 14 76 15 70 16 72 17 32 18 75 19 69 20 68 21 33 23
REMARK SMILES IDX 59 24 42 25 58 26 43 27 46 28 57 29 73 30 44 31 45 32 56 34
REMARK SMILES IDX 74 35 47 36 34 37 35 38 40 39 36 40 37 41 39 42 41 43 38 44
REMARK SMILES IDX 60 45 61 46 66 47 62 48 63 49 65 50 67 51 64 52 48 53 49 54
REMARK SMILES IDX 54 55 50 56 51 57 53 58 55 59 52 60 5 61 6 62 7 63 8 64 9 65
REMARK SMILES IDX 10 66 24 67 11 68 12 69 23 70 13 71 22 72 14 73 15 74 16 75
REMARK SMILES IDX 17 76 21 77 18 78 20 79 19 80
REMARK H PARENT 72 22 46 33
REMARK Flexibility Score: inf
ROOT
ATOM      1  C   UNL A   1      43.643  21.460  25.509  1.00  0.00     0.275 C 
ENDROOT
BRANCH   1   2
ATOM      2  O   UNL A   1      43.073  22.679  25.018  1.00  0.00    -0.458 OA
BRANCH   2   3
ATOM      3  C   UNL A   1      43.655  23.905  25.016  1.00  0.00     0.338 C 
ATOM      4  O   UNL A   1      44.636  24.115  24.321  1.00  0.00    -0.246 OA
BRANCH   3   5
ATOM      5  C   UNL A   1      43.260  24.953  26.008  1.00  0.00     0.060 A 
ATOM      6  C   UNL A   1      43.784  26.248  26.099  1.00  0.00     0.016 A 
ATOM      7  C   UNL A   1      42.306  24.554  26.957  1.00  0.00     0.016 A 
ATOM      8  C   UNL A   1      43.303  27.160  27.048  1.00  0.00     0.010 A 
ATOM      9  C   UNL A   1      41.844  25.451  27.921  1.00  0.00     0.010 A 
ATOM     10  C   UNL A   1      42.317  26.772  27.955  1.00  0.00    -0.014 A 
BRANCH  10  11
ATOM     11  C   UNL A   1      41.864  27.669  29.043  1.00  0.00     0.031 A 
ATOM     12  C   UNL A   1      42.535  27.531  30.376  1.00  0.00     0.074 A 
ATOM     13  C   UNL A   1      40.831  28.515  28.881  1.00  0.00     0.049 A 
ATOM     14  N   UNL A   1      42.228  28.074  31.522  1.00  0.00    -0.248 NA
ATOM     15  C   UNL A   1      43.699  26.631  30.418  1.00  0.00     0.031 C 
ATOM     16  C   UNL A   1      40.112  28.755  27.632  1.00  0.00     0.029 A 
ATOM     17  N   UNL A   1      40.179  29.307  29.793  1.00  0.00    -0.354 N 
ATOM     18  C   UNL A   1      43.158  27.575  32.422  1.00  0.00     0.074 A 
ATOM     19  C   UNL A   1      43.978  26.621  31.709  1.00  0.00     0.031 C 
ATOM     20  C   UNL A   1      39.077  29.582  27.868  1.00  0.00     0.029 A 
ATOM     21  C   UNL A   1      39.069  29.940  29.284  1.00  0.00     0.049 A 
ATOM     22  H   UNL A   1      40.477  29.413  30.726  1.00  0.00     0.167 HD
ATOM     23  C   UNL A   1      43.346  27.913  33.718  1.00  0.00     0.037 A 
ATOM     24  C   UNL A   1      38.155  30.718  29.897  1.00  0.00     0.037 A 
ATOM     25  C   UNL A   1      42.539  28.871  34.415  1.00  0.00     0.049 A 
ATOM     26  C   UNL A   1      38.344  31.049  31.354  1.00  0.00     0.074 A 
ATOM     27  C   UNL A   1      42.654  29.321  35.716  1.00  0.00     0.029 A 
ATOM     28  N   UNL A   1      41.456  29.531  33.852  1.00  0.00    -0.354 N 
ATOM     29  N   UNL A   1      39.271  30.627  32.181  1.00  0.00    -0.248 NA
ATOM     30  C   UNL A   1      37.386  31.987  31.955  1.00  0.00     0.031 C 
ATOM     31  C   UNL A   1      41.623  30.240  35.947  1.00  0.00     0.029 A 
ATOM     32  C   UNL A   1      40.889  30.385  34.779  1.00  0.00     0.049 A 
ATOM     33  H   UNL A   1      41.138  29.409  32.927  1.00  0.00     0.167 HD
ATOM     34  C   UNL A   1      39.048  31.297  33.378  1.00  0.00     0.074 A 
ATOM     35  C   UNL A   1      37.882  32.134  33.176  1.00  0.00     0.031 C 
ATOM     36  C   UNL A   1      39.754  31.239  34.533  1.00  0.00     0.037 A 
BRANCH  23  37
ATOM     37  C   UNL A   1      44.479  27.226  34.419  1.00  0.00     0.057 A 
ATOM     38  C   UNL A   1      44.281  26.027  35.122  1.00  0.00     0.134 A 
ATOM     39  C   UNL A   1      45.744  27.818  34.490  1.00  0.00     0.134 A 
ATOM     40  F   UNL A   1      43.080  25.427  35.116  1.00  0.00    -0.206 F 
ATOM     41  C   UNL A   1      45.283  25.476  35.920  1.00  0.00     0.040 A 
ATOM     42  C   UNL A   1      46.764  27.259  35.261  1.00  0.00     0.040 A 
ATOM     43  F   UNL A   1      45.998  28.965  33.842  1.00  0.00    -0.206 F 
ATOM     44  C   UNL A   1      46.528  26.095  35.995  1.00  0.00     0.006 A 
ENDBRANCH  23  37
BRANCH  24  45
ATOM     45  C   UNL A   1      37.008  31.273  29.134  1.00  0.00     0.057 A 
ATOM     46  C   UNL A   1      37.021  32.593  28.668  1.00  0.00     0.134 A 
ATOM     47  C   UNL A   1      35.865  30.509  28.873  1.00  0.00     0.134 A 
ATOM     48  F   UNL A   1      38.082  33.379  28.899  1.00  0.00    -0.206 F 
ATOM     49  C   UNL A   1      35.930  33.141  27.989  1.00  0.00     0.040 A 
ATOM     50  C   UNL A   1      34.772  31.040  28.183  1.00  0.00     0.040 A 
ATOM     51  F   UNL A   1      35.794  29.235  29.286  1.00  0.00    -0.206 F 
ATOM     52  C   UNL A   1      34.801  32.362  27.745  1.00  0.00     0.006 A 
ENDBRANCH  24  45
BRANCH  36  53
ATOM     53  C   UNL A   1      39.347  32.160  35.642  1.00  0.00     0.057 A 
ATOM     54  C   UNL A   1      39.813  33.475  35.724  1.00  0.00     0.134 A 
ATOM     55  C   UNL A   1      38.395  31.745  36.584  1.00  0.00     0.134 A 
ATOM     56  F   UNL A   1      40.736  33.925  34.859  1.00  0.00    -0.206 F 
ATOM     57  C   UNL A   1      39.345  34.351  36.704  1.00  0.00     0.040 A 
ATOM     58  C   UNL A   1      37.904  32.617  37.554  1.00  0.00     0.040 A 
ATOM     59  F   UNL A   1      37.907  30.496  36.552  1.00  0.00    -0.206 F 
ATOM     60  C   UNL A   1      38.378  33.925  37.615  1.00  0.00     0.006 A 
ENDBRANCH  36  53
ENDBRANCH  10  11
ENDBRANCH   3   5
ENDBRANCH   2   3
ENDBRANCH   1   2
BRANCH   1  61
ATOM     61  C   UNL A   1      42.756  20.703  26.500  1.00  0.00     0.274 C 
BRANCH  61  62
ATOM     62  O   UNL A   1      41.367  20.635  26.126  1.00  0.00    -0.462 OA
BRANCH  62  63
ATOM     63  C   UNL A   1      40.537  21.451  26.842  1.00  0.00     0.315 C 
ATOM     64  O   UNL A   1      40.506  21.471  28.069  1.00  0.00    -0.251 OA
BRANCH  63  65
ATOM     65  C   UNL A   1      39.576  22.267  25.971  1.00  0.00     0.148 C 
ATOM     66  C   UNL A   1      38.895  23.503  26.594  1.00  0.00     0.043 C 
ATOM     67  C   UNL A   1      38.400  21.444  25.578  1.00  0.00     0.033 A 
ATOM     68  C   UNL A   1      37.417  23.477  26.148  1.00  0.00     0.124 C 
ATOM     69  N   UNL A   1      37.209  22.102  25.743  1.00  0.00    -0.341 N 
ATOM     70  C   UNL A   1      38.152  20.213  25.045  1.00  0.00     0.025 A 
ATOM     71  C   UNL A   1      36.151  21.311  25.398  1.00  0.00     0.090 A 
ATOM     72  C   UNL A   1      36.745  20.132  24.927  1.00  0.00     0.032 A 
BRANCH  71  73
ATOM     73  C   UNL A   1      34.707  21.496  25.456  1.00  0.00     0.209 C 
ATOM     74  O   UNL A   1      34.156  21.966  26.454  1.00  0.00    -0.287 OA
BRANCH  73  75
ATOM     75  C   UNL A   1      33.797  21.244  24.319  1.00  0.00     0.024 A 
ATOM     76  C   UNL A   1      33.436  22.341  23.521  1.00  0.00     0.012 A 
ATOM     77  C   UNL A   1      33.151  20.018  24.144  1.00  0.00     0.012 A 
ATOM     78  C   UNL A   1      32.462  22.205  22.532  1.00  0.00     0.001 A 
ATOM     79  C   UNL A   1      32.189  19.880  23.139  1.00  0.00     0.001 A 
ATOM     80  C   UNL A   1      31.844  20.972  22.336  1.00  0.00     0.000 A 
ENDBRANCH  73  75
ENDBRANCH  71  73
ENDBRANCH  63  65
ENDBRANCH  62  63
ENDBRANCH  61  62
ENDBRANCH   1  61
TORSDOF 13
ENDMDL
MODEL 2
REMARK VINA RESULT:     -11.8      0.878      2.002
REMARK SMILES O=C(OCCOC(=O)[C@@H]1CCn2c(C(=O)c3ccccc3)ccc21)c1ccc(-c2c3nc(c(-c4c(F)cccc4F)c4ccc([nH]4)c(-c4c(F)cccc4F)c4nc(c(-c5c(F)cccc5F)c5ccc2[nH]5)C=C4)C=C3)cc1
REMARK SMILES IDX 4 1 3 2 2 3 1 4 25 5 26 6 78 7 27 8 77 9 28 10 29 11 30 12
REMARK SMILES IDX 71 13 31 14 76 15 70 16 72 17 32 18 75 19 69 20 68 21 33 23
REMARK SMILES IDX 59 24 42 25 58 26 43 27 46 28 57 29 73 30 44 31 45 32 56 34
REMARK SMILES IDX 74 35 47 36 34 37 35 38 40 39 36 40 37 41 39 42 41 43 38 44
REMARK SMILES IDX 60 45 61 46 66 47 62 48 63 49 65 50 67 51 64 52 48 53 49 54
REMARK SMILES IDX 54 55 50 56 51 57 53 58 55 59 52 60 5 61 6 62 7 63 8 64 9 65
REMARK SMILES IDX 10 66 24 67 11 68 12 69 23 70 13 71 22 72 14 73 15 74 16 75
REMARK SMILES IDX 17 76 21 77 18 78 20 79 19 80
REMARK H PARENT 72 22 46 33
REMARK Flexibility Score: inf
ROOT
ATOM      1  C   UNL A   1      44.380  22.227  24.583  1.00  0.00     0.275 C 
ENDROOT
BRANCH   1   2
ATOM      2  O   UNL A   1      43.719  23.497  24.566  1.00  0.00    -0.458 OA
BRANCH   2   3
ATOM      3  C   UNL A   1      44.214  24.677  25.018  1.00  0.00     0.338 C 
ATOM      4  O   UNL A   1      45.298  25.077  24.626  1.00  0.00    -0.246 OA
BRANCH   3   5
ATOM      5  C   UNL A   1      43.568  25.404  26.156  1.00  0.00     0.060 A 
ATOM      6  C   UNL A   1      42.413  25.010  26.843  1.00  0.00     0.016 A 
ATOM      7  C   UNL A   1      44.173  26.618  26.515  1.00  0.00     0.016 A 
ATOM      8  C   UNL A   1      41.924  25.754  27.925  1.00  0.00     0.010 A 
ATOM      9  C   UNL A   1      43.672  27.376  27.575  1.00  0.00     0.010 A 
ATOM     10  C   UNL A   1      42.561  26.934  28.309  1.00  0.00    -0.014 A 
BRANCH  10  11
ATOM     11  C   UNL A   1      42.010  27.805  29.372  1.00  0.00     0.031 A 
ATOM     12  C   UNL A   1      42.602  27.680  30.743  1.00  0.00     0.074 A 
ATOM     13  C   UNL A   1      40.959  28.615  29.151  1.00  0.00     0.049 A 
ATOM     14  N   UNL A   1      42.206  28.203  31.871  1.00  0.00    -0.248 NA
ATOM     15  C   UNL A   1      43.793  26.822  30.852  1.00  0.00     0.031 C 
ATOM     16  C   UNL A   1      40.310  28.840  27.862  1.00  0.00     0.029 A 
ATOM     17  N   UNL A   1      40.225  29.377  30.026  1.00  0.00    -0.354 N 
ATOM     18  C   UNL A   1      43.097  27.730  32.824  1.00  0.00     0.074 A 
ATOM     19  C   UNL A   1      43.993  26.812  32.157  1.00  0.00     0.031 C 
ATOM     20  C   UNL A   1      39.234  29.627  28.039  1.00  0.00     0.029 A 
ATOM     21  C   UNL A   1      39.126  29.973  29.453  1.00  0.00     0.049 A 
ATOM     22  H   UNL A   1      40.461  29.485  30.976  1.00  0.00     0.167 HD
ATOM     23  C   UNL A   1      43.193  28.065  34.131  1.00  0.00     0.037 A 
ATOM     24  C   UNL A   1      38.149  30.713  30.013  1.00  0.00     0.037 A 
ATOM     25  C   UNL A   1      42.310  28.988  34.782  1.00  0.00     0.049 A 
ATOM     26  C   UNL A   1      38.236  31.039  31.481  1.00  0.00     0.074 A 
ATOM     27  C   UNL A   1      42.328  29.431  36.091  1.00  0.00     0.029 A 
ATOM     28  N   UNL A   1      41.240  29.613  34.157  1.00  0.00    -0.354 N 
ATOM     29  N   UNL A   1      39.124  30.644  32.361  1.00  0.00    -0.248 NA
ATOM     30  C   UNL A   1      37.209  31.938  32.027  1.00  0.00     0.031 C 
ATOM     31  C   UNL A   1      41.253  30.311  36.263  1.00  0.00     0.029 A 
ATOM     32  C   UNL A   1      40.587  30.439  35.052  1.00  0.00     0.049 A 
ATOM     33  H   UNL A   1      40.984  29.488  33.214  1.00  0.00     0.167 HD
ATOM     34  C   UNL A   1      38.804  31.296  33.546  1.00  0.00     0.074 A 
ATOM     35  C   UNL A   1      37.624  32.093  33.277  1.00  0.00     0.031 C 
ATOM     36  C   UNL A   1      39.440  31.254  34.742  1.00  0.00     0.037 A 
BRANCH  23  37
ATOM     37  C   UNL A   1      44.303  27.413  34.897  1.00  0.00     0.057 A 
ATOM     38  C   UNL A   1      45.583  27.988  34.957  1.00  0.00     0.134 A 
ATOM     39  C   UNL A   1      44.130  26.154  35.482  1.00  0.00     0.134 A 
ATOM     40  F   UNL A   1      45.818  29.182  34.390  1.00  0.00    -0.206 F 
ATOM     41  C   UNL A   1      46.663  27.306  35.515  1.00  0.00     0.040 A 
ATOM     42  C   UNL A   1      45.198  25.475  36.071  1.00  0.00     0.040 A 
ATOM     43  F   UNL A   1      42.933  25.550  35.457  1.00  0.00    -0.206 F 
ATOM     44  C   UNL A   1      46.473  26.043  36.070  1.00  0.00     0.006 A 
ENDBRANCH  23  37
BRANCH  24  45
ATOM     45  C   UNL A   1      37.031  31.233  29.184  1.00  0.00     0.057 A 
ATOM     46  C   UNL A   1      37.016  32.562  28.743  1.00  0.00     0.134 A 
ATOM     47  C   UNL A   1      35.944  30.426  28.832  1.00  0.00     0.134 A 
ATOM     48  F   UNL A   1      38.022  33.389  29.060  1.00  0.00    -0.206 F 
ATOM     49  C   UNL A   1      35.949  33.076  28.002  1.00  0.00     0.040 A 
ATOM     50  C   UNL A   1      34.877  30.922  28.079  1.00  0.00     0.040 A 
ATOM     51  F   UNL A   1      35.903  29.141  29.217  1.00  0.00    -0.206 F 
ATOM     52  C   UNL A   1      34.875  32.253  27.667  1.00  0.00     0.006 A 
ENDBRANCH  24  45
BRANCH  36  53
ATOM     53  C   UNL A   1      38.932  32.151  35.829  1.00  0.00     0.057 A 
ATOM     54  C   UNL A   1      38.146  31.671  36.881  1.00  0.00     0.134 A 
ATOM     55  C   UNL A   1      39.326  33.496  35.869  1.00  0.00     0.134 A 
ATOM     56  F   UNL A   1      37.727  30.397  36.891  1.00  0.00    -0.206 F 
ATOM     57  C   UNL A   1      37.768  32.498  37.939  1.00  0.00     0.040 A 
ATOM     58  C   UNL A   1      38.973  34.326  36.931  1.00  0.00     0.040 A 
ATOM     59  F   UNL A   1      40.085  34.011  34.890  1.00  0.00    -0.206 F 
ATOM     60  C   UNL A   1      38.193  33.827  37.972  1.00  0.00     0.006 A 
ENDBRANCH  36  53
ENDBRANCH  10  11
ENDBRANCH   3   5
ENDBRANCH   2   3
ENDBRANCH   1   2
BRANCH   1  61
ATOM     61  C   UNL A   1      43.685  21.165  25.438  1.00  0.00     0.274 C 
BRANCH  61  62
ATOM     62  O   UNL A   1      42.247  21.245  25.437  1.00  0.00    -0.462 OA
BRANCH  62  63
ATOM     63  C   UNL A   1      41.673  21.294  26.676  1.00  0.00     0.315 C 
ATOM     64  O   UNL A   1      42.281  21.631  27.688  1.00  0.00    -0.251 OA
BRANCH  63  65
ATOM     65  C   UNL A   1      40.227  20.790  26.703  1.00  0.00     0.148 C 
ATOM     66  C   UNL A   1      39.834  19.642  25.751  1.00  0.00     0.043 C 
ATOM     67  C   UNL A   1      39.290  21.865  26.276  1.00  0.00     0.033 A 
ATOM     68  C   UNL A   1      38.460  20.006  25.147  1.00  0.00     0.124 C 
ATOM     69  N   UNL A   1      38.360  21.434  25.366  1.00  0.00    -0.341 N 
ATOM     70  C   UNL A   1      39.047  23.177  26.564  1.00  0.00     0.025 A 
ATOM     71  C   UNL A   1      37.535  22.449  24.976  1.00  0.00     0.090 A 
ATOM     72  C   UNL A   1      37.946  23.541  25.755  1.00  0.00     0.032 A 
BRANCH  71  73
ATOM     73  C   UNL A   1      36.457  22.539  24.001  1.00  0.00     0.209 C 
ATOM     74  O   UNL A   1      36.655  22.953  22.856  1.00  0.00    -0.287 OA
BRANCH  73  75
ATOM     75  C   UNL A   1      35.081  22.060  24.246  1.00  0.00     0.024 A 
ATOM     76  C   UNL A   1      34.923  20.933  25.068  1.00  0.00     0.012 A 
ATOM     77  C   UNL A   1      33.984  22.564  23.543  1.00  0.00     0.012 A 
ATOM     78  C   UNL A   1      33.671  20.336  25.215  1.00  0.00     0.001 A 
ATOM     79  C   UNL A   1      32.727  21.975  23.708  1.00  0.00     0.001 A 
ATOM     80  C   UNL A   1      32.571  20.862  24.540  1.00  0.00     0.000 A 
ENDBRANCH  73  75
ENDBRANCH  71  73
ENDBRANCH  63  65
ENDBRANCH  62  63
ENDBRANCH  61  62
ENDBRANCH   1  61
TORSDOF 13
ENDMDL
MODEL 3
REMARK VINA RESULT:     -11.7      4.015      8.177
REMARK SMILES O=C(OCCOC(=O)[C@@H]1CCn2c(C(=O)c3ccccc3)ccc21)c1ccc(-c2c3nc(c(-c4c(F)cccc4F)c4ccc([nH]4)c(-c4c(F)cccc4F)c4nc(c(-c5c(F)cccc5F)c5ccc2[nH]5)C=C4)C=C3)cc1
REMARK SMILES IDX 4 1 3 2 2 3 1 4 25 5 26 6 78 7 27 8 77 9 28 10 29 11 30 12
REMARK SMILES IDX 71 13 31 14 76 15 70 16 72 17 32 18 75 19 69 20 68 21 33 23
REMARK SMILES IDX 59 24 42 25 58 26 43 27 46 28 57 29 73 30 44 31 45 32 56 34
REMARK SMILES IDX 74 35 47 36 34 37 35 38 40 39 36 40 37 41 39 42 41 43 38 44
REMARK SMILES IDX 60 45 61 46 66 47 62 48 63 49 65 50 67 51 64 52 48 53 49 54
REMARK SMILES IDX 54 55 50 56 51 57 53 58 55 59 52 60 5 61 6 62 7 63 8 64 9 65
REMARK SMILES IDX 10 66 24 67 11 68 12 69 23 70 13 71 22 72 14 73 15 74 16 75
REMARK SMILES IDX 17 76 21 77 18 78 20 79 19 80
REMARK H PARENT 72 22 46 33
REMARK Flexibility Score: inf
ROOT
ATOM      1  C   UNL A   1      38.467  19.944  24.830  1.00  0.00     0.275 C 
ENDROOT
BRANCH   1   2
ATOM      2  O   UNL A   1      39.387  19.418  25.793  1.00  0.00    -0.458 OA
BRANCH   2   3
ATOM      3  C   UNL A   1      40.713  19.693  25.884  1.00  0.00     0.338 C 
ATOM      4  O   UNL A   1      41.536  18.853  25.557  1.00  0.00    -0.246 OA
BRANCH   3   5
ATOM      5  C   UNL A   1      41.205  20.921  26.583  1.00  0.00     0.060 A 
ATOM      6  C   UNL A   1      41.156  21.168  27.960  1.00  0.00     0.016 A 
ATOM      7  C   UNL A   1      41.713  21.927  25.745  1.00  0.00     0.016 A 
ATOM      8  C   UNL A   1      41.689  22.344  28.505  1.00  0.00     0.010 A 
ATOM      9  C   UNL A   1      42.220  23.111  26.282  1.00  0.00     0.010 A 
ATOM     10  C   UNL A   1      42.240  23.316  27.670  1.00  0.00    -0.014 A 
BRANCH  10  11
ATOM     11  C   UNL A   1      42.709  24.618  28.197  1.00  0.00     0.031 A 
ATOM     12  C   UNL A   1      41.686  25.697  28.382  1.00  0.00     0.074 A 
ATOM     13  C   UNL A   1      44.013  24.866  28.417  1.00  0.00     0.049 A 
ATOM     14  N   UNL A   1      41.851  26.959  28.673  1.00  0.00    -0.248 NA
ATOM     15  C   UNL A   1      40.285  25.294  28.183  1.00  0.00     0.031 C 
ATOM     16  C   UNL A   1      45.099  23.896  28.294  1.00  0.00     0.029 A 
ATOM     17  N   UNL A   1      44.651  26.033  28.758  1.00  0.00    -0.354 N 
ATOM     18  C   UNL A   1      40.574  27.499  28.685  1.00  0.00     0.074 A 
ATOM     19  C   UNL A   1      39.660  26.453  28.285  1.00  0.00     0.031 C 
ATOM     20  C   UNL A   1      46.275  24.520  28.488  1.00  0.00     0.029 A 
ATOM     21  C   UNL A   1      46.023  25.932  28.763  1.00  0.00     0.049 A 
ATOM     22  H   UNL A   1      44.173  26.865  28.977  1.00  0.00     0.167 HD
ATOM     23  C   UNL A   1      40.186  28.746  29.043  1.00  0.00     0.037 A 
ATOM     24  C   UNL A   1      46.962  26.876  28.966  1.00  0.00     0.037 A 
ATOM     25  C   UNL A   1      41.097  29.774  29.454  1.00  0.00     0.049 A 
ATOM     26  C   UNL A   1      46.522  28.274  29.314  1.00  0.00     0.074 A 
ATOM     27  C   UNL A   1      40.821  31.062  29.871  1.00  0.00     0.029 A 
ATOM     28  N   UNL A   1      42.475  29.620  29.497  1.00  0.00    -0.354 N 
ATOM     29  N   UNL A   1      45.307  28.759  29.393  1.00  0.00    -0.248 NA
ATOM     30  C   UNL A   1      47.578  29.246  29.635  1.00  0.00     0.031 C 
ATOM     31  C   UNL A   1      42.038  31.695  30.148  1.00  0.00     0.029 A 
ATOM     32  C   UNL A   1      43.068  30.790  29.932  1.00  0.00     0.049 A 
ATOM     33  H   UNL A   1      42.960  28.797  29.254  1.00  0.00     0.167 HD
ATOM     34  C   UNL A   1      45.446  30.070  29.835  1.00  0.00     0.074 A 
ATOM     35  C   UNL A   1      46.867  30.310  29.983  1.00  0.00     0.031 C 
ATOM     36  C   UNL A   1      44.485  30.984  30.111  1.00  0.00     0.037 A 
BRANCH  23  37
ATOM     37  C   UNL A   1      38.713  29.014  28.997  1.00  0.00     0.057 A 
ATOM     38  C   UNL A   1      38.095  29.497  27.833  1.00  0.00     0.134 A 
ATOM     39  C   UNL A   1      37.926  28.899  30.148  1.00  0.00     0.134 A 
ATOM     40  F   UNL A   1      38.805  29.656  26.704  1.00  0.00    -0.206 F 
ATOM     41  C   UNL A   1      36.765  29.915  27.833  1.00  0.00     0.040 A 
ATOM     42  C   UNL A   1      36.585  29.286  30.152  1.00  0.00     0.040 A 
ATOM     43  F   UNL A   1      38.456  28.445  31.294  1.00  0.00    -0.206 F 
ATOM     44  C   UNL A   1      36.007  29.814  28.997  1.00  0.00     0.006 A 
ENDBRANCH  23  37
BRANCH  24  45
ATOM     45  C   UNL A   1      48.405  26.531  28.891  1.00  0.00     0.057 A 
ATOM     46  C   UNL A   1      49.124  26.683  27.700  1.00  0.00     0.134 A 
ATOM     47  C   UNL A   1      49.093  26.020  29.998  1.00  0.00     0.134 A 
ATOM     48  F   UNL A   1      48.517  27.154  26.602  1.00  0.00    -0.206 F 
ATOM     49  C   UNL A   1      50.470  26.319  27.605  1.00  0.00     0.040 A 
ATOM     50  C   UNL A   1      50.442  25.666  29.921  1.00  0.00     0.040 A 
ATOM     51  F   UNL A   1      48.462  25.859  31.171  1.00  0.00    -0.206 F 
ATOM     52  C   UNL A   1      51.132  25.809  28.720  1.00  0.00     0.006 A 
ENDBRANCH  24  45
BRANCH  36  53
ATOM     53  C   UNL A   1      44.921  32.299  30.681  1.00  0.00     0.057 A 
ATOM     54  C   UNL A   1      45.152  33.417  29.874  1.00  0.00     0.134 A 
ATOM     55  C   UNL A   1      45.012  32.466  32.069  1.00  0.00     0.134 A 
ATOM     56  F   UNL A   1      45.094  33.316  28.537  1.00  0.00    -0.206 F 
ATOM     57  C   UNL A   1      45.458  34.660  30.429  1.00  0.00     0.040 A 
ATOM     58  C   UNL A   1      45.295  33.707  32.636  1.00  0.00     0.040 A 
ATOM     59  F   UNL A   1      44.795  31.430  32.894  1.00  0.00    -0.206 F 
ATOM     60  C   UNL A   1      45.518  34.810  31.814  1.00  0.00     0.006 A 
ENDBRANCH  36  53
ENDBRANCH  10  11
ENDBRANCH   3   5
ENDBRANCH   2   3
ENDBRANCH   1   2
BRANCH   1  61
ATOM     61  C   UNL A   1      37.786  21.247  25.254  1.00  0.00     0.274 C 
BRANCH  61  62
ATOM     62  O   UNL A   1      36.577  21.551  24.533  1.00  0.00    -0.462 OA
BRANCH  62  63
ATOM     63  C   UNL A   1      35.424  21.162  25.155  1.00  0.00     0.315 C 
ATOM     64  O   UNL A   1      34.717  20.243  24.750  1.00  0.00    -0.251 OA
BRANCH  63  65
ATOM     65  C   UNL A   1      35.040  22.044  26.346  1.00  0.00     0.148 C 
ATOM     66  C   UNL A   1      33.899  21.570  27.270  1.00  0.00     0.043 C 
ATOM     67  C   UNL A   1      34.519  23.358  25.878  1.00  0.00     0.033 A 
ATOM     68  C   UNL A   1      33.022  22.805  27.573  1.00  0.00     0.124 C 
ATOM     69  N   UNL A   1      33.367  23.735  26.518  1.00  0.00    -0.341 N 
ATOM     70  C   UNL A   1      34.883  24.345  25.010  1.00  0.00     0.025 A 
ATOM     71  C   UNL A   1      32.903  24.929  26.047  1.00  0.00     0.090 A 
ATOM     72  C   UNL A   1      33.875  25.331  25.120  1.00  0.00     0.032 A 
BRANCH  71  73
ATOM     73  C   UNL A   1      31.710  25.716  26.329  1.00  0.00     0.209 C 
ATOM     74  O   UNL A   1      30.659  25.186  26.698  1.00  0.00    -0.287 OA
BRANCH  73  75
ATOM     75  C   UNL A   1      31.670  27.193  26.301  1.00  0.00     0.024 A 
ATOM     76  C   UNL A   1      31.297  27.809  25.096  1.00  0.00     0.012 A 
ATOM     77  C   UNL A   1      32.170  27.968  27.349  1.00  0.00     0.012 A 
ATOM     78  C   UNL A   1      31.389  29.194  24.953  1.00  0.00     0.001 A 
ATOM     79  C   UNL A   1      32.242  29.358  27.209  1.00  0.00     0.001 A 
ATOM     80  C   UNL A   1      31.855  29.968  26.013  1.00  0.00     0.000 A 
ENDBRANCH  73  75
ENDBRANCH  71  73
ENDBRANCH  63  65
ENDBRANCH  62  63
ENDBRANCH  61  62
ENDBRANCH   1  61
TORSDOF 13
ENDMDL
