MODEL 1
REMARK VINA RESULT:     -12.1      0.000      0.000
REMARK SMILES C/C(=N\NC(N)=O)c1nnn(-c2ccc(C(=O)OCCOC(=O)c3ccc(-c4c5nc(c(-c6c(F)cccc6F)c6ccc([nH]6)c(-c6c(F)cccc6F)c6nc(c(-c7c(F)cccc7F)c7ccc4[nH]7)C=C6)C=C5)cc3)cc2)c1C
REMARK SMILES IDX 19 1 18 2 16 3 17 4 15 5 12 6 13 7 79 8 14 9 78 10 11 11
REMARK SMILES IDX 8 12 9 13 80 14 10 15 81 16 2 17 1 18 3 19 4 20 5 21 6 23
REMARK SMILES IDX 7 24 20 27 21 28 22 29 23 30 24 31 25 32 77 33 26 34 76 35
REMARK SMILES IDX 27 36 28 37 29 38 70 39 30 40 75 41 69 42 71 43 31 44 74 45
REMARK SMILES IDX 68 46 67 47 32 49 58 50 41 51 57 52 42 53 45 54 56 55 72 56
REMARK SMILES IDX 43 57 44 58 55 60 73 61 46 62 33 63 34 64 39 65 35 66 36 67
REMARK SMILES IDX 38 68 40 69 37 70 59 71 60 72 65 73 61 74 62 75 64 76 66 77
REMARK SMILES IDX 63 78 47 79 48 80 53 81 49 82 50 83 52 84 54 85 51 86
REMARK H PARENT 4 22 6 25 6 26 71 48 45 59
REMARK Flexibility Score: inf
ROOT
ATOM      1  C   UNL A   1      43.260  18.460  26.071  1.00  0.00     0.275 C 
ENDROOT
BRANCH   1   2
ATOM      2  O   UNL A   1      41.942  18.921  25.745  1.00  0.00    -0.458 OA
BRANCH   2   3
ATOM      3  C   UNL A   1      41.334  19.704  26.672  1.00  0.00     0.338 C 
ATOM      4  O   UNL A   1      41.729  19.922  27.809  1.00  0.00    -0.246 OA
BRANCH   3   5
ATOM      5  C   UNL A   1      40.120  20.329  26.093  1.00  0.00     0.060 A 
ATOM      6  C   UNL A   1      37.707  21.456  25.328  1.00  0.00     0.067 A 
ATOM      7  C   UNL A   1      38.666  22.272  25.932  1.00  0.00     0.029 A 
ATOM      8  C   UNL A   1      37.999  20.136  24.969  1.00  0.00     0.029 A 
ATOM      9  C   UNL A   1      39.872  21.691  26.336  1.00  0.00     0.018 A 
ATOM     10  C   UNL A   1      39.209  19.572  25.347  1.00  0.00     0.018 A 
BRANCH   6  11
ATOM     11  N   UNL A   1      36.365  21.875  25.286  1.00  0.00    -0.217 N 
ATOM     12  C   UNL A   1      34.460  22.711  24.655  1.00  0.00     0.132 A 
ATOM     13  N   UNL A   1      34.273  22.014  25.821  1.00  0.00    -0.128 NA
ATOM     14  C   UNL A   1      35.778  22.603  24.264  1.00  0.00     0.071 A 
ATOM     15  N   UNL A   1      35.421  21.426  26.140  1.00  0.00    -0.061 NA
ATOM     16  C   UNL A   1      36.466  22.992  23.007  1.00  0.00     0.069 C 
BRANCH  12  17
ATOM     17  C   UNL A   1      33.375  23.310  23.896  1.00  0.00     0.087 C 
ATOM     18  C   UNL A   1      32.489  22.360  23.128  1.00  0.00     0.071 C 
ATOM     19  N   UNL A   1      33.282  24.604  23.977  1.00  0.00    -0.174 NA
BRANCH  19  20
ATOM     20  N   UNL A   1      32.369  25.310  23.244  1.00  0.00    -0.229 N 
ATOM     21  C   UNL A   1      32.618  25.986  22.067  1.00  0.00     0.332 C 
ATOM     22  H   UNL A   1      31.446  25.339  23.588  1.00  0.00     0.195 HD
ATOM     23  N   UNL A   1      31.516  26.631  21.593  1.00  0.00    -0.350 N 
ATOM     24  O   UNL A   1      33.674  26.038  21.451  1.00  0.00    -0.247 OA
ATOM     25  H   UNL A   1      30.668  26.588  22.091  1.00  0.00     0.161 HD
ATOM     26  H   UNL A   1      31.568  27.141  20.752  1.00  0.00     0.161 HD
ENDBRANCH  19  20
ENDBRANCH  12  17
ENDBRANCH   6  11
ENDBRANCH   3   5
ENDBRANCH   2   3
ENDBRANCH   1   2
BRANCH   1  27
ATOM     27  C   UNL A   1      44.243  18.810  24.964  1.00  0.00     0.275 C 
BRANCH  27  28
ATOM     28  O   UNL A   1      44.942  20.024  25.242  1.00  0.00    -0.458 OA
BRANCH  28  29
ATOM     29  C   UNL A   1      44.525  21.095  24.531  1.00  0.00     0.338 C 
ATOM     30  O   UNL A   1      44.699  21.317  23.344  1.00  0.00    -0.246 OA
BRANCH  29  31
ATOM     31  C   UNL A   1      44.036  22.119  25.457  1.00  0.00     0.060 A 
ATOM     32  C   UNL A   1      42.990  22.938  25.024  1.00  0.00     0.016 A 
ATOM     33  C   UNL A   1      44.796  22.427  26.595  1.00  0.00     0.016 A 
ATOM     34  C   UNL A   1      42.797  24.147  25.659  1.00  0.00     0.010 A 
ATOM     35  C   UNL A   1      44.613  23.639  27.216  1.00  0.00     0.010 A 
ATOM     36  C   UNL A   1      43.656  24.511  26.706  1.00  0.00    -0.014 A 
BRANCH  36  37
ATOM     37  C   UNL A   1      43.412  25.771  27.378  1.00  0.00     0.031 A 
ATOM     38  C   UNL A   1      44.432  26.793  27.042  1.00  0.00     0.074 A 
ATOM     39  C   UNL A   1      42.305  26.019  28.103  1.00  0.00     0.049 A 
ATOM     40  N   UNL A   1      45.277  27.353  27.839  1.00  0.00    -0.248 NA
ATOM     41  C   UNL A   1      44.651  27.104  25.618  1.00  0.00     0.031 C 
ATOM     42  C   UNL A   1      41.112  25.182  28.243  1.00  0.00     0.029 A 
ATOM     43  N   UNL A   1      41.970  27.142  28.795  1.00  0.00    -0.354 N 
ATOM     44  C   UNL A   1      45.996  28.247  27.052  1.00  0.00     0.074 A 
ATOM     45  C   UNL A   1      45.706  27.916  25.684  1.00  0.00     0.031 C 
ATOM     46  C   UNL A   1      40.109  25.922  28.771  1.00  0.00     0.029 A 
ATOM     47  C   UNL A   1      40.622  27.238  29.117  1.00  0.00     0.049 A 
ATOM     48  H   UNL A   1      42.628  27.830  29.046  1.00  0.00     0.167 HD
ATOM     49  C   UNL A   1      46.543  29.364  27.602  1.00  0.00     0.037 A 
ATOM     50  C   UNL A   1      39.978  28.347  29.562  1.00  0.00     0.037 A 
ATOM     51  C   UNL A   1      46.699  29.213  29.028  1.00  0.00     0.049 A 
ATOM     52  C   UNL A   1      41.007  29.294  30.060  1.00  0.00     0.074 A 
ATOM     53  C   UNL A   1      47.361  28.316  29.844  1.00  0.00     0.029 A 
ATOM     54  N   UNL A   1      45.800  29.862  29.838  1.00  0.00    -0.354 N 
ATOM     55  N   UNL A   1      41.708  29.109  31.141  1.00  0.00    -0.248 NA
ATOM     56  C   UNL A   1      41.572  30.236  29.105  1.00  0.00     0.031 C 
ATOM     57  C   UNL A   1      46.503  28.136  30.969  1.00  0.00     0.029 A 
ATOM     58  C   UNL A   1      45.404  28.979  30.808  1.00  0.00     0.049 A 
ATOM     59  H   UNL A   1      45.496  30.793  29.740  1.00  0.00     0.167 HD
ATOM     60  C   UNL A   1      42.984  29.535  30.807  1.00  0.00     0.074 A 
ATOM     61  C   UNL A   1      42.819  30.304  29.575  1.00  0.00     0.031 C 
ATOM     62  C   UNL A   1      44.085  28.981  31.394  1.00  0.00     0.037 A 
BRANCH  49  63
ATOM     63  C   UNL A   1      46.512  30.717  26.931  1.00  0.00     0.057 A 
ATOM     64  C   UNL A   1      47.688  31.488  26.915  1.00  0.00     0.134 A 
ATOM     65  C   UNL A   1      45.335  31.421  26.596  1.00  0.00     0.134 A 
ATOM     66  F   UNL A   1      48.875  30.940  27.216  1.00  0.00    -0.206 F 
ATOM     67  C   UNL A   1      47.676  32.871  26.696  1.00  0.00     0.040 A 
ATOM     68  C   UNL A   1      45.320  32.790  26.325  1.00  0.00     0.040 A 
ATOM     69  F   UNL A   1      44.121  30.858  26.613  1.00  0.00    -0.206 F 
ATOM     70  C   UNL A   1      46.487  33.528  26.412  1.00  0.00     0.006 A 
ENDBRANCH  49  63
BRANCH  50  71
ATOM     71  C   UNL A   1      38.582  28.782  29.313  1.00  0.00     0.057 A 
ATOM     72  C   UNL A   1      37.656  28.879  30.364  1.00  0.00     0.134 A 
ATOM     73  C   UNL A   1      38.200  29.388  28.102  1.00  0.00     0.134 A 
ATOM     74  F   UNL A   1      37.941  28.369  31.571  1.00  0.00    -0.206 F 
ATOM     75  C   UNL A   1      36.440  29.563  30.230  1.00  0.00     0.040 A 
ATOM     76  C   UNL A   1      36.985  30.066  27.953  1.00  0.00     0.040 A 
ATOM     77  F   UNL A   1      39.031  29.424  27.051  1.00  0.00    -0.206 F 
ATOM     78  C   UNL A   1      36.107  30.170  29.023  1.00  0.00     0.006 A 
ENDBRANCH  50  71
BRANCH  62  79
ATOM     79  C   UNL A   1      43.882  28.120  32.608  1.00  0.00     0.057 A 
ATOM     80  C   UNL A   1      43.761  26.721  32.583  1.00  0.00     0.134 A 
ATOM     81  C   UNL A   1      43.946  28.726  33.869  1.00  0.00     0.134 A 
ATOM     82  F   UNL A   1      43.790  26.040  31.431  1.00  0.00    -0.206 F 
ATOM     83  C   UNL A   1      43.660  25.972  33.760  1.00  0.00     0.040 A 
ATOM     84  C   UNL A   1      43.886  27.985  35.050  1.00  0.00     0.040 A 
ATOM     85  F   UNL A   1      44.115  30.055  33.971  1.00  0.00    -0.206 F 
ATOM     86  C   UNL A   1      43.730  26.603  34.998  1.00  0.00     0.006 A 
ENDBRANCH  62  79
ENDBRANCH  36  37
ENDBRANCH  29  31
ENDBRANCH  28  29
ENDBRANCH  27  28
ENDBRANCH   1  27
TORSDOF 14
ENDMDL
MODEL 2
REMARK VINA RESULT:     -11.8      5.254     10.764
REMARK SMILES C/C(=N\NC(N)=O)c1nnn(-c2ccc(C(=O)OCCOC(=O)c3ccc(-c4c5nc(c(-c6c(F)cccc6F)c6ccc([nH]6)c(-c6c(F)cccc6F)c6nc(c(-c7c(F)cccc7F)c7ccc4[nH]7)C=C6)C=C5)cc3)cc2)c1C
REMARK SMILES IDX 19 1 18 2 16 3 17 4 15 5 12 6 13 7 79 8 14 9 78 10 11 11
REMARK SMILES IDX 8 12 9 13 80 14 10 15 81 16 2 17 1 18 3 19 4 20 5 21 6 23
REMARK SMILES IDX 7 24 20 27 21 28 22 29 23 30 24 31 25 32 77 33 26 34 76 35
REMARK SMILES IDX 27 36 28 37 29 38 70 39 30 40 75 41 69 42 71 43 31 44 74 45
REMARK SMILES IDX 68 46 67 47 32 49 58 50 41 51 57 52 42 53 45 54 56 55 72 56
REMARK SMILES IDX 43 57 44 58 55 60 73 61 46 62 33 63 34 64 39 65 35 66 36 67
REMARK SMILES IDX 38 68 40 69 37 70 59 71 60 72 65 73 61 74 62 75 64 76 66 77
REMARK SMILES IDX 63 78 47 79 48 80 53 81 49 82 50 83 52 84 54 85 51 86
REMARK H PARENT 4 22 6 25 6 26 71 48 45 59
REMARK Flexibility Score: inf
ROOT
ATOM      1  C   UNL A   1      33.529  36.414  28.882  1.00  0.00     0.275 C 
ENDROOT
BRANCH   1   2
ATOM      2  O   UNL A   1      33.092  35.067  28.658  1.00  0.00    -0.458 OA
BRANCH   2   3
ATOM      3  C   UNL A   1      33.963  34.255  28.008  1.00  0.00     0.338 C 
ATOM      4  O   UNL A   1      35.134  34.502  27.750  1.00  0.00    -0.246 OA
BRANCH   3   5
ATOM      5  C   UNL A   1      33.311  32.962  27.689  1.00  0.00     0.060 A 
ATOM      6  C   UNL A   1      32.271  30.555  26.792  1.00  0.00     0.067 A 
ATOM      7  C   UNL A   1      33.501  30.548  27.453  1.00  0.00     0.029 A 
ATOM      8  C   UNL A   1      31.496  31.717  26.713  1.00  0.00     0.029 A 
ATOM      9  C   UNL A   1      34.030  31.769  27.882  1.00  0.00     0.018 A 
ATOM     10  C   UNL A   1      32.014  32.921  27.166  1.00  0.00     0.018 A 
BRANCH   6  11
ATOM     11  N   UNL A   1      31.904  29.455  25.995  1.00  0.00    -0.217 N 
ATOM     12  C   UNL A   1      31.219  27.505  25.320  1.00  0.00     0.132 A 
ATOM     13  N   UNL A   1      31.329  28.336  24.234  1.00  0.00    -0.128 NA
ATOM     14  C   UNL A   1      31.536  28.205  26.466  1.00  0.00     0.071 A 
ATOM     15  N   UNL A   1      31.650  29.549  24.673  1.00  0.00    -0.061 NA
ATOM     16  C   UNL A   1      31.399  27.854  27.901  1.00  0.00     0.069 C 
BRANCH  12  17
ATOM     17  C   UNL A   1      30.683  26.157  25.245  1.00  0.00     0.087 C 
ATOM     18  C   UNL A   1      30.762  25.477  23.901  1.00  0.00     0.071 C 
ATOM     19  N   UNL A   1      30.205  25.682  26.357  1.00  0.00    -0.174 NA
BRANCH  19  20
ATOM     20  N   UNL A   1      29.585  24.465  26.415  1.00  0.00    -0.229 N 
ATOM     21  C   UNL A   1      30.120  23.303  26.932  1.00  0.00     0.332 C 
ATOM     22  H   UNL A   1      28.670  24.411  26.053  1.00  0.00     0.195 HD
ATOM     23  N   UNL A   1      29.277  22.241  26.810  1.00  0.00    -0.350 N 
ATOM     24  O   UNL A   1      31.212  23.163  27.466  1.00  0.00    -0.247 OA
ATOM     25  H   UNL A   1      28.399  22.355  26.380  1.00  0.00     0.161 HD
ATOM     26  H   UNL A   1      29.545  21.357  27.153  1.00  0.00     0.161 HD
ENDBRANCH  19  20
ENDBRANCH  12  17
ENDBRANCH   6  11
ENDBRANCH   3   5
ENDBRANCH   2   3
ENDBRANCH   1   2
BRANCH   1  27
ATOM     27  C   UNL A   1      33.032  36.927  30.225  1.00  0.00     0.275 C 
BRANCH  27  28
ATOM     28  O   UNL A   1      32.435  35.888  31.000  1.00  0.00    -0.458 OA
BRANCH  28  29
ATOM     29  C   UNL A   1      32.758  35.900  32.312  1.00  0.00     0.338 C 
ATOM     30  O   UNL A   1      32.319  36.634  33.182  1.00  0.00    -0.246 OA
BRANCH  29  31
ATOM     31  C   UNL A   1      33.936  35.055  32.519  1.00  0.00     0.060 A 
ATOM     32  C   UNL A   1      35.087  35.660  33.028  1.00  0.00     0.016 A 
ATOM     33  C   UNL A   1      33.963  33.773  31.949  1.00  0.00     0.016 A 
ATOM     34  C   UNL A   1      36.299  35.031  32.836  1.00  0.00     0.010 A 
ATOM     35  C   UNL A   1      35.173  33.154  31.745  1.00  0.00     0.010 A 
ATOM     36  C   UNL A   1      36.333  33.816  32.137  1.00  0.00    -0.014 A 
BRANCH  36  37
ATOM     37  C   UNL A   1      37.614  33.158  31.978  1.00  0.00     0.031 A 
ATOM     38  C   UNL A   1      38.399  33.146  33.235  1.00  0.00     0.074 A 
ATOM     39  C   UNL A   1      37.975  32.508  30.856  1.00  0.00     0.049 A 
ATOM     40  N   UNL A   1      39.532  33.722  33.461  1.00  0.00    -0.248 NA
ATOM     41  C   UNL A   1      37.768  32.568  34.435  1.00  0.00     0.031 C 
ATOM     42  C   UNL A   1      37.154  32.211  29.680  1.00  0.00     0.029 A 
ATOM     43  N   UNL A   1      39.146  31.874  30.574  1.00  0.00    -0.354 N 
ATOM     44  C   UNL A   1      39.859  33.399  34.774  1.00  0.00     0.074 A 
ATOM     45  C   UNL A   1      38.668  32.861  35.373  1.00  0.00     0.031 C 
ATOM     46  C   UNL A   1      37.772  31.267  28.932  1.00  0.00     0.029 A 
ATOM     47  C   UNL A   1      39.078  30.987  29.507  1.00  0.00     0.049 A 
ATOM     48  H   UNL A   1      39.973  32.030  31.085  1.00  0.00     0.167 HD
ATOM     49  C   UNL A   1      41.159  33.338  35.166  1.00  0.00     0.037 A 
ATOM     50  C   UNL A   1      40.001  30.047  29.181  1.00  0.00     0.037 A 
ATOM     51  C   UNL A   1      42.003  34.088  34.268  1.00  0.00     0.049 A 
ATOM     52  C   UNL A   1      41.269  30.407  29.865  1.00  0.00     0.074 A 
ATOM     53  C   UNL A   1      42.045  35.402  33.844  1.00  0.00     0.029 A 
ATOM     54  N   UNL A   1      42.763  33.381  33.369  1.00  0.00    -0.354 N 
ATOM     55  N   UNL A   1      42.007  31.431  29.543  1.00  0.00    -0.248 NA
ATOM     56  C   UNL A   1      41.483  29.882  31.205  1.00  0.00     0.031 C 
ATOM     57  C   UNL A   1      42.416  35.335  32.468  1.00  0.00     0.029 A 
ATOM     58  C   UNL A   1      42.643  33.996  32.151  1.00  0.00     0.049 A 
ATOM     59  H   UNL A   1      43.296  32.577  33.564  1.00  0.00     0.167 HD
ATOM     60  C   UNL A   1      42.427  31.954  30.755  1.00  0.00     0.074 A 
ATOM     61  C   UNL A   1      42.152  30.907  31.738  1.00  0.00     0.031 C 
ATOM     62  C   UNL A   1      42.683  33.288  30.894  1.00  0.00     0.037 A 
BRANCH  49  63
ATOM     63  C   UNL A   1      41.701  32.257  36.071  1.00  0.00     0.057 A 
ATOM     64  C   UNL A   1      42.548  32.628  37.130  1.00  0.00     0.134 A 
ATOM     65  C   UNL A   1      41.698  30.878  35.767  1.00  0.00     0.134 A 
ATOM     66  F   UNL A   1      42.645  33.908  37.518  1.00  0.00    -0.206 F 
ATOM     67  C   UNL A   1      43.407  31.718  37.759  1.00  0.00     0.040 A 
ATOM     68  C   UNL A   1      42.512  29.954  36.424  1.00  0.00     0.040 A 
ATOM     69  F   UNL A   1      40.993  30.358  34.756  1.00  0.00    -0.206 F 
ATOM     70  C   UNL A   1      43.399  30.378  37.397  1.00  0.00     0.006 A 
ENDBRANCH  49  63
BRANCH  50  71
ATOM     71  C   UNL A   1      39.801  28.704  28.583  1.00  0.00     0.057 A 
ATOM     72  C   UNL A   1      40.391  28.366  27.355  1.00  0.00     0.134 A 
ATOM     73  C   UNL A   1      39.274  27.633  29.326  1.00  0.00     0.134 A 
ATOM     74  F   UNL A   1      40.957  29.308  26.588  1.00  0.00    -0.206 F 
ATOM     75  C   UNL A   1      40.479  27.040  26.908  1.00  0.00     0.040 A 
ATOM     76  C   UNL A   1      39.349  26.307  28.887  1.00  0.00     0.040 A 
ATOM     77  F   UNL A   1      38.752  27.824  30.546  1.00  0.00    -0.206 F 
ATOM     78  C   UNL A   1      39.967  26.003  27.682  1.00  0.00     0.006 A 
ENDBRANCH  50  71
BRANCH  62  79
ATOM     79  C   UNL A   1      42.785  34.122  29.648  1.00  0.00     0.057 A 
ATOM     80  C   UNL A   1      43.923  34.197  28.830  1.00  0.00     0.134 A 
ATOM     81  C   UNL A   1      41.632  34.769  29.189  1.00  0.00     0.134 A 
ATOM     82  F   UNL A   1      45.044  33.530  29.133  1.00  0.00    -0.206 F 
ATOM     83  C   UNL A   1      43.922  34.925  27.636  1.00  0.00     0.040 A 
ATOM     84  C   UNL A   1      41.608  35.466  27.980  1.00  0.00     0.040 A 
ATOM     85  F   UNL A   1      40.490  34.696  29.891  1.00  0.00    -0.206 F 
ATOM     86  C   UNL A   1      42.760  35.557  27.204  1.00  0.00     0.006 A 
ENDBRANCH  62  79
ENDBRANCH  36  37
ENDBRANCH  29  31
ENDBRANCH  28  29
ENDBRANCH  27  28
ENDBRANCH   1  27
TORSDOF 14
ENDMDL
MODEL 3
REMARK VINA RESULT:     -11.6      4.526     10.130
REMARK SMILES C/C(=N\NC(N)=O)c1nnn(-c2ccc(C(=O)OCCOC(=O)c3ccc(-c4c5nc(c(-c6c(F)cccc6F)c6ccc([nH]6)c(-c6c(F)cccc6F)c6nc(c(-c7c(F)cccc7F)c7ccc4[nH]7)C=C6)C=C5)cc3)cc2)c1C
REMARK SMILES IDX 19 1 18 2 16 3 17 4 15 5 12 6 13 7 79 8 14 9 78 10 11 11
REMARK SMILES IDX 8 12 9 13 80 14 10 15 81 16 2 17 1 18 3 19 4 20 5 21 6 23
REMARK SMILES IDX 7 24 20 27 21 28 22 29 23 30 24 31 25 32 77 33 26 34 76 35
REMARK SMILES IDX 27 36 28 37 29 38 70 39 30 40 75 41 69 42 71 43 31 44 74 45
REMARK SMILES IDX 68 46 67 47 32 49 58 50 41 51 57 52 42 53 45 54 56 55 72 56
REMARK SMILES IDX 43 57 44 58 55 60 73 61 46 62 33 63 34 64 39 65 35 66 36 67
REMARK SMILES IDX 38 68 40 69 37 70 59 71 60 72 65 73 61 74 62 75 64 76 66 77
REMARK SMILES IDX 63 78 47 79 48 80 53 81 49 82 50 83 52 84 54 85 51 86
REMARK H PARENT 4 22 6 25 6 26 71 48 45 59
REMARK Flexibility Score: inf
ROOT
ATOM      1  C   UNL A   1      33.142  36.094  29.205  1.00  0.00     0.275 C 
ENDROOT
BRANCH   1   2
ATOM      2  O   UNL A   1      32.879  34.711  28.936  1.00  0.00    -0.458 OA
BRANCH   2   3
ATOM      3  C   UNL A   1      33.956  33.943  28.634  1.00  0.00     0.338 C 
ATOM      4  O   UNL A   1      35.118  34.168  28.942  1.00  0.00    -0.246 OA
BRANCH   3   5
ATOM      5  C   UNL A   1      33.523  32.725  27.906  1.00  0.00     0.060 A 
ATOM      6  C   UNL A   1      32.533  30.369  26.835  1.00  0.00     0.067 A 
ATOM      7  C   UNL A   1      31.759  31.527  26.737  1.00  0.00     0.029 A 
ATOM      8  C   UNL A   1      33.845  30.412  27.320  1.00  0.00     0.029 A 
ATOM      9  C   UNL A   1      32.255  32.706  27.300  1.00  0.00     0.018 A 
ATOM     10  C   UNL A   1      34.342  31.593  27.852  1.00  0.00     0.018 A 
BRANCH   6  11
ATOM     11  N   UNL A   1      31.926  29.111  26.669  1.00  0.00    -0.217 N 
ATOM     12  C   UNL A   1      31.157  27.261  25.822  1.00  0.00     0.132 A 
ATOM     13  N   UNL A   1      31.099  27.180  27.190  1.00  0.00    -0.128 NA
ATOM     14  C   UNL A   1      31.723  28.466  25.459  1.00  0.00     0.071 A 
ATOM     15  N   UNL A   1      31.664  28.273  27.694  1.00  0.00    -0.061 NA
ATOM     16  C   UNL A   1      32.189  28.977  24.146  1.00  0.00     0.069 C 
BRANCH  12  17
ATOM     17  C   UNL A   1      30.823  26.157  24.939  1.00  0.00     0.087 C 
ATOM     18  C   UNL A   1      29.491  26.242  24.235  1.00  0.00     0.071 C 
ATOM     19  N   UNL A   1      31.721  25.222  24.845  1.00  0.00    -0.174 NA
BRANCH  19  20
ATOM     20  N   UNL A   1      31.503  24.081  24.125  1.00  0.00    -0.229 N 
ATOM     21  C   UNL A   1      32.219  23.667  23.022  1.00  0.00     0.332 C 
ATOM     22  H   UNL A   1      30.765  23.499  24.422  1.00  0.00     0.195 HD
ATOM     23  N   UNL A   1      31.737  22.507  22.493  1.00  0.00    -0.350 N 
ATOM     24  O   UNL A   1      33.193  24.213  22.521  1.00  0.00    -0.247 OA
ATOM     25  H   UNL A   1      30.954  22.070  22.896  1.00  0.00     0.161 HD
ATOM     26  H   UNL A   1      32.174  22.107  21.706  1.00  0.00     0.161 HD
ENDBRANCH  19  20
ENDBRANCH  12  17
ENDBRANCH   6  11
ENDBRANCH   3   5
ENDBRANCH   2   3
ENDBRANCH   1   2
BRANCH   1  27
ATOM     27  C   UNL A   1      32.790  36.442  30.643  1.00  0.00     0.275 C 
BRANCH  27  28
ATOM     28  O   UNL A   1      33.794  35.997  31.556  1.00  0.00    -0.458 OA
BRANCH  28  29
ATOM     29  C   UNL A   1      33.470  34.892  32.263  1.00  0.00     0.338 C 
ATOM     30  O   UNL A   1      32.426  34.663  32.852  1.00  0.00    -0.246 OA
BRANCH  29  31
ATOM     31  C   UNL A   1      34.673  34.078  32.452  1.00  0.00     0.060 A 
ATOM     32  C   UNL A   1      35.890  34.746  32.603  1.00  0.00     0.016 A 
ATOM     33  C   UNL A   1      34.610  32.701  32.194  1.00  0.00     0.016 A 
ATOM     34  C   UNL A   1      37.055  34.052  32.355  1.00  0.00     0.010 A 
ATOM     35  C   UNL A   1      35.771  32.014  31.931  1.00  0.00     0.010 A 
ATOM     36  C   UNL A   1      36.977  32.710  31.957  1.00  0.00    -0.014 A 
BRANCH  36  37
ATOM     37  C   UNL A   1      38.216  31.992  31.734  1.00  0.00     0.031 A 
ATOM     38  C   UNL A   1      38.973  31.777  32.989  1.00  0.00     0.074 A 
ATOM     39  C   UNL A   1      38.556  31.460  30.545  1.00  0.00     0.049 A 
ATOM     40  N   UNL A   1      40.135  32.244  33.298  1.00  0.00    -0.248 NA
ATOM     41  C   UNL A   1      38.282  31.101  34.102  1.00  0.00     0.031 C 
ATOM     42  C   UNL A   1      37.741  31.363  29.332  1.00  0.00     0.029 A 
ATOM     43  N   UNL A   1      39.689  30.788  30.203  1.00  0.00    -0.354 N 
ATOM     44  C   UNL A   1      40.414  31.744  34.565  1.00  0.00     0.074 A 
ATOM     45  C   UNL A   1      39.179  31.218  35.080  1.00  0.00     0.031 C 
ATOM     46  C   UNL A   1      38.312  30.477  28.483  1.00  0.00     0.029 A 
ATOM     47  C   UNL A   1      39.585  30.043  29.035  1.00  0.00     0.049 A 
ATOM     48  H   UNL A   1      40.515  30.826  30.739  1.00  0.00     0.167 HD
ATOM     49  C   UNL A   1      41.700  31.550  34.963  1.00  0.00     0.037 A 
ATOM     50  C   UNL A   1      40.453  29.090  28.608  1.00  0.00     0.037 A 
ATOM     51  C   UNL A   1      42.608  32.345  34.173  1.00  0.00     0.049 A 
ATOM     52  C   UNL A   1      41.727  29.281  29.346  1.00  0.00     0.074 A 
ATOM     53  C   UNL A   1      42.744  33.695  33.912  1.00  0.00     0.029 A 
ATOM     54  N   UNL A   1      43.339  31.703  33.204  1.00  0.00    -0.354 N 
ATOM     55  N   UNL A   1      42.536  30.285  29.160  1.00  0.00    -0.248 NA
ATOM     56  C   UNL A   1      41.881  28.584  30.614  1.00  0.00     0.031 C 
ATOM     57  C   UNL A   1      43.137  33.771  32.544  1.00  0.00     0.029 A 
ATOM     58  C   UNL A   1      43.284  32.468  32.069  1.00  0.00     0.049 A 
ATOM     59  H   UNL A   1      43.815  30.848  33.306  1.00  0.00     0.167 HD
ATOM     60  C   UNL A   1      42.964  30.628  30.432  1.00  0.00     0.074 A 
ATOM     61  C   UNL A   1      42.603  29.491  31.276  1.00  0.00     0.031 C 
ATOM     62  C   UNL A   1      43.303  31.915  30.735  1.00  0.00     0.037 A 
BRANCH  49  63
ATOM     63  C   UNL A   1      42.153  30.334  35.736  1.00  0.00     0.057 A 
ATOM     64  C   UNL A   1      43.116  30.500  36.747  1.00  0.00     0.134 A 
ATOM     65  C   UNL A   1      41.941  28.999  35.329  1.00  0.00     0.134 A 
ATOM     66  F   UNL A   1      43.413  31.719  37.222  1.00  0.00    -0.206 F 
ATOM     67  C   UNL A   1      43.885  29.436  37.233  1.00  0.00     0.040 A 
ATOM     68  C   UNL A   1      42.666  27.924  35.845  1.00  0.00     0.040 A 
ATOM     69  F   UNL A   1      41.102  28.663  34.343  1.00  0.00    -0.206 F 
ATOM     70  C   UNL A   1      43.670  28.144  36.772  1.00  0.00     0.006 A 
ENDBRANCH  49  63
BRANCH  50  71
ATOM     71  C   UNL A   1      40.178  27.846  27.848  1.00  0.00     0.057 A 
ATOM     72  C   UNL A   1      40.816  27.593  26.623  1.00  0.00     0.134 A 
ATOM     73  C   UNL A   1      39.516  26.752  28.432  1.00  0.00     0.134 A 
ATOM     74  F   UNL A   1      41.508  28.559  26.003  1.00  0.00    -0.206 F 
ATOM     75  C   UNL A   1      40.820  26.322  26.031  1.00  0.00     0.040 A 
ATOM     76  C   UNL A   1      39.506  25.481  27.847  1.00  0.00     0.040 A 
ATOM     77  F   UNL A   1      38.935  26.854  29.636  1.00  0.00    -0.206 F 
ATOM     78  C   UNL A   1      40.174  25.257  26.651  1.00  0.00     0.006 A 
ENDBRANCH  50  71
BRANCH  62  79
ATOM     79  C   UNL A   1      43.483  32.885  29.602  1.00  0.00     0.057 A 
ATOM     80  C   UNL A   1      42.508  33.798  29.170  1.00  0.00     0.134 A 
ATOM     81  C   UNL A   1      44.750  32.987  29.013  1.00  0.00     0.134 A 
ATOM     82  F   UNL A   1      41.298  33.846  29.741  1.00  0.00    -0.206 F 
ATOM     83  C   UNL A   1      42.772  34.733  28.164  1.00  0.00     0.040 A 
ATOM     84  C   UNL A   1      45.036  33.942  28.036  1.00  0.00     0.040 A 
ATOM     85  F   UNL A   1      45.748  32.183  29.414  1.00  0.00    -0.206 F 
ATOM     86  C   UNL A   1      44.041  34.812  27.599  1.00  0.00     0.006 A 
ENDBRANCH  62  79
ENDBRANCH  36  37
ENDBRANCH  29  31
ENDBRANCH  28  29
ENDBRANCH  27  28
ENDBRANCH   1  27
TORSDOF 14
ENDMDL
