MODEL 1
REMARK VINA RESULT:     -11.0      0.000      0.000
REMARK SMILES CC(C)[C@@H](CNC(=O)NCC1C(C)(C)C1(C)C)C(=O)OCCOC(=O)c1ccc(-c2c3nc(c(-c4c(F)cccc4F)c4ccc([nH]4)c(-c4c(F)cccc4F)c4nc(c(-c5c(F)cccc5F)c5ccc2[nH]5)C=C4)C=C3)cc1
REMARK SMILES IDX 21 1 20 2 18 3 19 4 4 5 2 6 1 7 3 8 5 9 6 10 7 11 8 13 9 14
REMARK SMILES IDX 10 16 11 17 12 18 15 19 13 20 14 21 16 22 17 23 22 24 23 25
REMARK SMILES IDX 24 26 25 27 26 28 27 29 79 30 28 31 78 32 29 33 30 34 31 35
REMARK SMILES IDX 72 36 32 37 77 38 71 39 73 40 33 41 76 42 70 43 69 44 34 46
REMARK SMILES IDX 60 47 43 48 59 49 44 50 47 51 58 52 74 53 45 54 46 55 57 57
REMARK SMILES IDX 75 58 48 59 35 60 36 61 41 62 37 63 38 64 40 65 42 66 39 67
REMARK SMILES IDX 61 68 62 69 67 70 63 71 64 72 66 73 68 74 65 75 49 76 50 77
REMARK SMILES IDX 55 78 51 79 52 80 54 81 56 82 53 83
REMARK H PARENT 6 12 9 15 73 45 47 56
REMARK Flexibility Score: inf
ROOT
ATOM      1  C   UNL A   1      32.115  29.949  26.929  1.00  0.00     0.274 C 
ENDROOT
BRANCH   1   2
ATOM      2  O   UNL A   1      32.040  28.839  26.014  1.00  0.00    -0.462 OA
BRANCH   2   3
ATOM      3  C   UNL A   1      31.484  27.708  26.517  1.00  0.00     0.311 C 
ATOM      4  O   UNL A   1      31.036  27.602  27.654  1.00  0.00    -0.252 OA
BRANCH   3   5
ATOM      5  C   UNL A   1      31.511  26.534  25.553  1.00  0.00     0.121 C 
BRANCH   5   6
ATOM      6  C   UNL A   1      32.351  26.746  24.264  1.00  0.00    -0.001 C 
ATOM      7  C   UNL A   1      33.745  26.109  24.386  1.00  0.00     0.008 C 
ATOM      8  C   UNL A   1      31.664  26.128  23.037  1.00  0.00     0.008 C 
ENDBRANCH   5   6
BRANCH   5   9
ATOM      9  C   UNL A   1      31.856  25.263  26.349  1.00  0.00     0.133 C 
BRANCH   9  10
ATOM     10  N   UNL A   1      30.705  24.507  26.789  1.00  0.00    -0.337 N 
ATOM     11  C   UNL A   1      30.522  23.223  27.115  1.00  0.00     0.314 C 
ATOM     12  H   UNL A   1      29.887  25.048  26.863  1.00  0.00     0.165 HD
ATOM     13  O   UNL A   1      29.438  22.914  27.618  1.00  0.00    -0.249 OA
ATOM     14  N   UNL A   1      31.421  22.251  26.939  1.00  0.00    -0.338 N 
ATOM     15  H   UNL A   1      31.173  21.431  27.425  1.00  0.00     0.165 HD
BRANCH  14  16
ATOM     16  C   UNL A   1      32.671  22.093  26.217  1.00  0.00     0.122 C 
BRANCH  16  17
ATOM     17  C   UNL A   1      32.414  21.700  24.794  1.00  0.00     0.021 C 
ATOM     18  C   UNL A   1      33.431  22.007  23.696  1.00  0.00    -0.025 C 
ATOM     19  C   UNL A   1      33.102  20.546  24.056  1.00  0.00    -0.025 C 
ATOM     20  C   UNL A   1      32.898  22.599  22.409  1.00  0.00     0.012 C 
ATOM     21  C   UNL A   1      34.790  22.575  24.053  1.00  0.00     0.012 C 
ATOM     22  C   UNL A   1      34.181  19.698  24.693  1.00  0.00     0.012 C 
ATOM     23  C   UNL A   1      32.236  19.726  23.119  1.00  0.00     0.012 C 
ENDBRANCH  16  17
ENDBRANCH  14  16
ENDBRANCH   9  10
ENDBRANCH   5   9
ENDBRANCH   3   5
ENDBRANCH   2   3
ENDBRANCH   1   2
BRANCH   1  24
ATOM     24  C   UNL A   1      33.487  30.626  26.907  1.00  0.00     0.275 C 
BRANCH  24  25
ATOM     25  O   UNL A   1      34.447  29.860  27.656  1.00  0.00    -0.458 OA
BRANCH  25  26
ATOM     26  C   UNL A   1      35.243  30.558  28.492  1.00  0.00     0.338 C 
ATOM     27  O   UNL A   1      34.983  31.594  29.087  1.00  0.00    -0.246 OA
BRANCH  26  28
ATOM     28  C   UNL A   1      36.556  29.905  28.583  1.00  0.00     0.060 A 
ATOM     29  C   UNL A   1      37.006  29.372  29.796  1.00  0.00     0.016 A 
ATOM     30  C   UNL A   1      37.388  29.927  27.466  1.00  0.00     0.016 A 
ATOM     31  C   UNL A   1      38.298  28.860  29.899  1.00  0.00     0.010 A 
ATOM     32  C   UNL A   1      38.674  29.400  27.563  1.00  0.00     0.010 A 
ATOM     33  C   UNL A   1      39.141  28.879  28.783  1.00  0.00    -0.014 A 
BRANCH  33  34
ATOM     34  C   UNL A   1      40.543  28.416  28.867  1.00  0.00     0.031 A 
ATOM     35  C   UNL A   1      41.626  29.416  29.135  1.00  0.00     0.074 A 
ATOM     36  C   UNL A   1      40.845  27.128  28.627  1.00  0.00     0.049 A 
ATOM     37  N   UNL A   1      42.917  29.301  28.974  1.00  0.00    -0.248 NA
ATOM     38  C   UNL A   1      41.191  30.728  29.640  1.00  0.00     0.031 C 
ATOM     39  C   UNL A   1      39.873  26.056  28.416  1.00  0.00     0.029 A 
ATOM     40  N   UNL A   1      42.063  26.515  28.482  1.00  0.00    -0.354 N 
ATOM     41  C   UNL A   1      43.449  30.536  29.320  1.00  0.00     0.074 A 
ATOM     42  C   UNL A   1      42.341  31.384  29.707  1.00  0.00     0.031 C 
ATOM     43  C   UNL A   1      40.533  24.921  28.134  1.00  0.00     0.029 A 
ATOM     44  C   UNL A   1      41.965  25.205  28.085  1.00  0.00     0.049 A 
ATOM     45  H   UNL A   1      42.921  26.970  28.646  1.00  0.00     0.167 HD
ATOM     46  C   UNL A   1      44.746  30.925  29.302  1.00  0.00     0.037 A 
ATOM     47  C   UNL A   1      42.919  24.350  27.672  1.00  0.00     0.037 A 
ATOM     48  C   UNL A   1      45.837  30.067  28.926  1.00  0.00     0.049 A 
ATOM     49  C   UNL A   1      44.344  24.821  27.595  1.00  0.00     0.074 A 
ATOM     50  C   UNL A   1      47.189  30.358  28.877  1.00  0.00     0.029 A 
ATOM     51  N   UNL A   1      45.696  28.743  28.537  1.00  0.00    -0.354 N 
ATOM     52  N   UNL A   1      44.841  25.999  27.886  1.00  0.00    -0.248 NA
ATOM     53  C   UNL A   1      45.339  23.851  27.115  1.00  0.00     0.031 C 
ATOM     54  C   UNL A   1      47.864  29.217  28.430  1.00  0.00     0.029 A 
ATOM     55  C   UNL A   1      46.936  28.207  28.234  1.00  0.00     0.049 A 
ATOM     56  H   UNL A   1      44.842  28.257  28.483  1.00  0.00     0.167 HD
ATOM     57  C   UNL A   1      46.205  25.907  27.646  1.00  0.00     0.074 A 
ATOM     58  C   UNL A   1      46.460  24.557  27.187  1.00  0.00     0.031 C 
ATOM     59  C   UNL A   1      47.162  26.855  27.793  1.00  0.00     0.037 A 
BRANCH  46  60
ATOM     60  C   UNL A   1      45.045  32.347  29.661  1.00  0.00     0.057 A 
ATOM     61  C   UNL A   1      45.033  33.370  28.706  1.00  0.00     0.134 A 
ATOM     62  C   UNL A   1      45.323  32.700  30.988  1.00  0.00     0.134 A 
ATOM     63  F   UNL A   1      44.790  33.094  27.416  1.00  0.00    -0.206 F 
ATOM     64  C   UNL A   1      45.301  34.695  29.056  1.00  0.00     0.040 A 
ATOM     65  C   UNL A   1      45.575  34.024  31.353  1.00  0.00     0.040 A 
ATOM     66  F   UNL A   1      45.350  31.766  31.950  1.00  0.00    -0.206 F 
ATOM     67  C   UNL A   1      45.567  35.025  30.384  1.00  0.00     0.006 A 
ENDBRANCH  46  60
BRANCH  47  68
ATOM     68  C   UNL A   1      42.546  22.979  27.250  1.00  0.00     0.057 A 
ATOM     69  C   UNL A   1      42.234  21.996  28.193  1.00  0.00     0.134 A 
ATOM     70  C   UNL A   1      42.480  22.623  25.897  1.00  0.00     0.134 A 
ATOM     71  F   UNL A   1      42.301  22.272  29.504  1.00  0.00    -0.206 F 
ATOM     72  C   UNL A   1      41.874  20.703  27.808  1.00  0.00     0.040 A 
ATOM     73  C   UNL A   1      42.102  21.341  25.496  1.00  0.00     0.040 A 
ATOM     74  F   UNL A   1      42.767  23.524  24.945  1.00  0.00    -0.206 F 
ATOM     75  C   UNL A   1      41.801  20.375  26.455  1.00  0.00     0.006 A 
ENDBRANCH  47  68
BRANCH  59  76
ATOM     76  C   UNL A   1      48.574  26.453  27.498  1.00  0.00     0.057 A 
ATOM     77  C   UNL A   1      49.386  25.857  28.469  1.00  0.00     0.134 A 
ATOM     78  C   UNL A   1      49.103  26.614  26.212  1.00  0.00     0.134 A 
ATOM     79  F   UNL A   1      48.937  25.689  29.722  1.00  0.00    -0.206 F 
ATOM     80  C   UNL A   1      50.684  25.439  28.171  1.00  0.00     0.040 A 
ATOM     81  C   UNL A   1      50.393  26.184  25.899  1.00  0.00     0.040 A 
ATOM     82  F   UNL A   1      48.370  27.173  25.238  1.00  0.00    -0.206 F 
ATOM     83  C   UNL A   1      51.187  25.596  26.881  1.00  0.00     0.006 A 
ENDBRANCH  59  76
ENDBRANCH  33  34
ENDBRANCH  26  28
ENDBRANCH  25  26
ENDBRANCH  24  25
ENDBRANCH   1  24
TORSDOF 16
ENDMDL
MODEL 2
REMARK VINA RESULT:     -10.9      0.953      1.980
REMARK SMILES CC(C)[C@@H](CNC(=O)NCC1C(C)(C)C1(C)C)C(=O)OCCOC(=O)c1ccc(-c2c3nc(c(-c4c(F)cccc4F)c4ccc([nH]4)c(-c4c(F)cccc4F)c4nc(c(-c5c(F)cccc5F)c5ccc2[nH]5)C=C4)C=C3)cc1
REMARK SMILES IDX 21 1 20 2 18 3 19 4 4 5 2 6 1 7 3 8 5 9 6 10 7 11 8 13 9 14
REMARK SMILES IDX 10 16 11 17 12 18 15 19 13 20 14 21 16 22 17 23 22 24 23 25
REMARK SMILES IDX 24 26 25 27 26 28 27 29 79 30 28 31 78 32 29 33 30 34 31 35
REMARK SMILES IDX 72 36 32 37 77 38 71 39 73 40 33 41 76 42 70 43 69 44 34 46
REMARK SMILES IDX 60 47 43 48 59 49 44 50 47 51 58 52 74 53 45 54 46 55 57 57
REMARK SMILES IDX 75 58 48 59 35 60 36 61 41 62 37 63 38 64 40 65 42 66 39 67
REMARK SMILES IDX 61 68 62 69 67 70 63 71 64 72 66 73 68 74 65 75 49 76 50 77
REMARK SMILES IDX 55 78 51 79 52 80 54 81 56 82 53 83
REMARK H PARENT 6 12 9 15 73 45 47 56
REMARK Flexibility Score: inf
ROOT
ATOM      1  C   UNL A   1      32.021  29.060  26.756  1.00  0.00     0.274 C 
ENDROOT
BRANCH   1   2
ATOM      2  O   UNL A   1      31.326  28.340  25.719  1.00  0.00    -0.462 OA
BRANCH   2   3
ATOM      3  C   UNL A   1      31.184  27.008  25.932  1.00  0.00     0.311 C 
ATOM      4  O   UNL A   1      31.388  26.451  27.005  1.00  0.00    -0.252 OA
BRANCH   3   5
ATOM      5  C   UNL A   1      30.796  26.228  24.686  1.00  0.00     0.121 C 
BRANCH   5   6
ATOM      6  C   UNL A   1      31.359  26.783  23.349  1.00  0.00    -0.001 C 
ATOM      7  C   UNL A   1      31.695  25.652  22.364  1.00  0.00     0.008 C 
ATOM      8  C   UNL A   1      30.351  27.715  22.658  1.00  0.00     0.008 C 
ENDBRANCH   5   6
BRANCH   5   9
ATOM      9  C   UNL A   1      31.081  24.739  24.939  1.00  0.00     0.133 C 
BRANCH   9  10
ATOM     10  N   UNL A   1      30.194  24.118  25.897  1.00  0.00    -0.337 N 
ATOM     11  C   UNL A   1      30.372  23.195  26.848  1.00  0.00     0.314 C 
ATOM     12  H   UNL A   1      29.266  24.442  25.837  1.00  0.00     0.165 HD
ATOM     13  O   UNL A   1      29.433  22.991  27.623  1.00  0.00    -0.249 OA
ATOM     14  N   UNL A   1      31.485  22.479  27.023  1.00  0.00    -0.338 N 
ATOM     15  H   UNL A   1      31.486  22.010  27.888  1.00  0.00     0.165 HD
BRANCH  14  16
ATOM     16  C   UNL A   1      32.695  22.215  26.265  1.00  0.00     0.122 C 
BRANCH  16  17
ATOM     17  C   UNL A   1      32.406  21.313  25.103  1.00  0.00     0.021 C 
ATOM     18  C   UNL A   1      32.964  21.615  23.713  1.00  0.00    -0.025 C 
ATOM     19  C   UNL A   1      33.408  20.345  24.463  1.00  0.00    -0.025 C 
ATOM     20  C   UNL A   1      32.006  21.500  22.547  1.00  0.00     0.012 C 
ATOM     21  C   UNL A   1      33.950  22.750  23.518  1.00  0.00     0.012 C 
ATOM     22  C   UNL A   1      34.847  20.241  24.917  1.00  0.00     0.012 C 
ATOM     23  C   UNL A   1      32.867  18.998  24.027  1.00  0.00     0.012 C 
ENDBRANCH  16  17
ENDBRANCH  14  16
ENDBRANCH   9  10
ENDBRANCH   5   9
ENDBRANCH   3   5
ENDBRANCH   2   3
ENDBRANCH   1   2
BRANCH   1  24
ATOM     24  C   UNL A   1      33.496  29.284  26.417  1.00  0.00     0.275 C 
BRANCH  24  25
ATOM     25  O   UNL A   1      34.324  29.068  27.574  1.00  0.00    -0.458 OA
BRANCH  25  26
ATOM     26  C   UNL A   1      34.902  30.165  28.104  1.00  0.00     0.338 C 
ATOM     27  O   UNL A   1      34.387  31.250  28.332  1.00  0.00    -0.246 OA
BRANCH  26  28
ATOM     28  C   UNL A   1      36.323  29.898  28.362  1.00  0.00     0.060 A 
ATOM     29  C   UNL A   1      37.278  30.078  27.356  1.00  0.00     0.016 A 
ATOM     30  C   UNL A   1      36.685  29.357  29.594  1.00  0.00     0.016 A 
ATOM     31  C   UNL A   1      38.605  29.710  27.576  1.00  0.00     0.010 A 
ATOM     32  C   UNL A   1      38.014  29.006  29.821  1.00  0.00     0.010 A 
ATOM     33  C   UNL A   1      38.977  29.166  28.809  1.00  0.00    -0.014 A 
BRANCH  33  34
ATOM     34  C   UNL A   1      40.356  28.694  29.060  1.00  0.00     0.031 A 
ATOM     35  C   UNL A   1      41.384  29.670  29.543  1.00  0.00     0.074 A 
ATOM     36  C   UNL A   1      40.696  27.423  28.780  1.00  0.00     0.049 A 
ATOM     37  N   UNL A   1      42.686  29.561  29.559  1.00  0.00    -0.248 NA
ATOM     38  C   UNL A   1      40.875  30.947  30.068  1.00  0.00     0.031 C 
ATOM     39  C   UNL A   1      39.771  26.372  28.363  1.00  0.00     0.029 A 
ATOM     40  N   UNL A   1      41.926  26.817  28.769  1.00  0.00    -0.354 N 
ATOM     41  C   UNL A   1      43.156  30.769  30.058  1.00  0.00     0.074 A 
ATOM     42  C   UNL A   1      42.000  31.593  30.340  1.00  0.00     0.031 C 
ATOM     43  C   UNL A   1      40.471  25.255  28.103  1.00  0.00     0.029 A 
ATOM     44  C   UNL A   1      41.893  25.536  28.276  1.00  0.00     0.049 A 
ATOM     45  H   UNL A   1      42.750  27.257  29.082  1.00  0.00     0.167 HD
ATOM     46  C   UNL A   1      44.440  31.153  30.249  1.00  0.00     0.037 A 
ATOM     47  C   UNL A   1      42.901  24.707  27.946  1.00  0.00     0.037 A 
ATOM     48  C   UNL A   1      45.579  30.319  29.976  1.00  0.00     0.049 A 
ATOM     49  C   UNL A   1      44.319  25.178  28.103  1.00  0.00     0.074 A 
ATOM     50  C   UNL A   1      46.922  30.607  30.137  1.00  0.00     0.029 A 
ATOM     51  N   UNL A   1      45.502  29.024  29.484  1.00  0.00    -0.354 N 
ATOM     52  N   UNL A   1      44.763  26.332  28.539  1.00  0.00    -0.248 NA
ATOM     53  C   UNL A   1      45.378  24.238  27.705  1.00  0.00     0.031 C 
ATOM     54  C   UNL A   1      47.660  29.496  29.717  1.00  0.00     0.029 A 
ATOM     55  C   UNL A   1      46.775  28.504  29.324  1.00  0.00     0.049 A 
ATOM     56  H   UNL A   1      44.666  28.546  29.278  1.00  0.00     0.167 HD
ATOM     57  C   UNL A   1      46.149  26.251  28.489  1.00  0.00     0.074 A 
ATOM     58  C   UNL A   1      46.473  24.933  27.982  1.00  0.00     0.031 C 
ATOM     59  C   UNL A   1      47.069  27.184  28.832  1.00  0.00     0.037 A 
BRANCH  46  60
ATOM     60  C   UNL A   1      44.677  32.548  30.741  1.00  0.00     0.057 A 
ATOM     61  C   UNL A   1      44.790  32.842  32.105  1.00  0.00     0.134 A 
ATOM     62  C   UNL A   1      44.819  33.605  29.834  1.00  0.00     0.134 A 
ATOM     63  F   UNL A   1      44.646  31.876  33.024  1.00  0.00    -0.206 F 
ATOM     64  C   UNL A   1      45.023  34.145  32.551  1.00  0.00     0.040 A 
ATOM     65  C   UNL A   1      45.072  34.908  30.267  1.00  0.00     0.040 A 
ATOM     66  F   UNL A   1      44.722  33.388  28.514  1.00  0.00    -0.206 F 
ATOM     67  C   UNL A   1      45.171  35.180  31.630  1.00  0.00     0.006 A 
ENDBRANCH  46  60
BRANCH  47  68
ATOM     68  C   UNL A   1      42.599  23.369  27.386  1.00  0.00     0.057 A 
ATOM     69  C   UNL A   1      42.613  23.146  26.006  1.00  0.00     0.134 A 
ATOM     70  C   UNL A   1      42.302  22.280  28.216  1.00  0.00     0.134 A 
ATOM     71  F   UNL A   1      42.869  24.156  25.162  1.00  0.00    -0.206 F 
ATOM     72  C   UNL A   1      42.337  21.888  25.468  1.00  0.00     0.040 A 
ATOM     73  C   UNL A   1      42.044  21.012  27.693  1.00  0.00     0.040 A 
ATOM     74  F   UNL A   1      42.275  22.432  29.548  1.00  0.00    -0.206 F 
ATOM     75  C   UNL A   1      42.058  20.815  26.313  1.00  0.00     0.006 A 
ENDBRANCH  47  68
BRANCH  59  76
ATOM     76  C   UNL A   1      48.511  26.798  28.714  1.00  0.00     0.057 A 
ATOM     77  C   UNL A   1      49.265  27.111  27.578  1.00  0.00     0.134 A 
ATOM     78  C   UNL A   1      49.162  26.155  29.774  1.00  0.00     0.134 A 
ATOM     79  F   UNL A   1      48.691  27.714  26.525  1.00  0.00    -0.206 F 
ATOM     80  C   UNL A   1      50.621  26.791  27.497  1.00  0.00     0.040 A 
ATOM     81  C   UNL A   1      50.521  25.846  29.711  1.00  0.00     0.040 A 
ATOM     82  F   UNL A   1      48.493  25.835  30.891  1.00  0.00    -0.206 F 
ATOM     83  C   UNL A   1      51.253  26.163  28.569  1.00  0.00     0.006 A 
ENDBRANCH  59  76
ENDBRANCH  33  34
ENDBRANCH  26  28
ENDBRANCH  25  26
ENDBRANCH  24  25
ENDBRANCH   1  24
TORSDOF 16
ENDMDL
MODEL 3
REMARK VINA RESULT:     -10.8      4.055      7.499
REMARK SMILES CC(C)[C@@H](CNC(=O)NCC1C(C)(C)C1(C)C)C(=O)OCCOC(=O)c1ccc(-c2c3nc(c(-c4c(F)cccc4F)c4ccc([nH]4)c(-c4c(F)cccc4F)c4nc(c(-c5c(F)cccc5F)c5ccc2[nH]5)C=C4)C=C3)cc1
REMARK SMILES IDX 21 1 20 2 18 3 19 4 4 5 2 6 1 7 3 8 5 9 6 10 7 11 8 13 9 14
REMARK SMILES IDX 10 16 11 17 12 18 15 19 13 20 14 21 16 22 17 23 22 24 23 25
REMARK SMILES IDX 24 26 25 27 26 28 27 29 79 30 28 31 78 32 29 33 30 34 31 35
REMARK SMILES IDX 72 36 32 37 77 38 71 39 73 40 33 41 76 42 70 43 69 44 34 46
REMARK SMILES IDX 60 47 43 48 59 49 44 50 47 51 58 52 74 53 45 54 46 55 57 57
REMARK SMILES IDX 75 58 48 59 35 60 36 61 41 62 37 63 38 64 40 65 42 66 39 67
REMARK SMILES IDX 61 68 62 69 67 70 63 71 64 72 66 73 68 74 65 75 49 76 50 77
REMARK SMILES IDX 55 78 51 79 52 80 54 81 56 82 53 83
REMARK H PARENT 6 12 9 15 73 45 47 56
REMARK Flexibility Score: inf
ROOT
ATOM      1  C   UNL A   1      31.896  29.089  24.256  1.00  0.00     0.274 C 
ENDROOT
BRANCH   1   2
ATOM      2  O   UNL A   1      31.076  27.904  24.244  1.00  0.00    -0.462 OA
BRANCH   2   3
ATOM      3  C   UNL A   1      31.003  27.261  23.051  1.00  0.00     0.311 C 
ATOM      4  O   UNL A   1      30.373  27.668  22.080  1.00  0.00    -0.252 OA
BRANCH   3   5
ATOM      5  C   UNL A   1      31.736  25.930  23.030  1.00  0.00     0.121 C 
BRANCH   5   6
ATOM      6  C   UNL A   1      32.920  25.835  22.029  1.00  0.00    -0.001 C 
ATOM      7  C   UNL A   1      32.429  25.564  20.597  1.00  0.00     0.008 C 
ATOM      8  C   UNL A   1      33.740  27.134  22.001  1.00  0.00     0.008 C 
ENDBRANCH   5   6
BRANCH   5   9
ATOM      9  C   UNL A   1      32.081  25.544  24.478  1.00  0.00     0.133 C 
BRANCH   9  10
ATOM     10  N   UNL A   1      30.935  25.207  25.292  1.00  0.00    -0.337 N 
ATOM     11  C   UNL A   1      30.740  24.330  26.283  1.00  0.00     0.314 C 
ATOM     12  H   UNL A   1      30.131  25.731  25.072  1.00  0.00     0.165 HD
ATOM     13  O   UNL A   1      29.671  24.398  26.898  1.00  0.00    -0.249 OA
ATOM     14  N   UNL A   1      31.610  23.390  26.658  1.00  0.00    -0.338 N 
ATOM     15  H   UNL A   1      31.366  22.990  27.523  1.00  0.00     0.165 HD
BRANCH  14  16
ATOM     16  C   UNL A   1      32.825  22.807  26.117  1.00  0.00     0.122 C 
BRANCH  16  17
ATOM     17  C   UNL A   1      32.516  21.949  24.927  1.00  0.00     0.021 C 
ATOM     18  C   UNL A   1      33.303  22.094  23.625  1.00  0.00    -0.025 C 
ATOM     19  C   UNL A   1      33.377  20.782  24.430  1.00  0.00    -0.025 C 
ATOM     20  C   UNL A   1      32.505  22.140  22.340  1.00  0.00     0.012 C 
ATOM     21  C   UNL A   1      34.515  23.001  23.565  1.00  0.00     0.012 C 
ATOM     22  C   UNL A   1      34.692  20.404  25.075  1.00  0.00     0.012 C 
ATOM     23  C   UNL A   1      32.637  19.559  23.925  1.00  0.00     0.012 C 
ENDBRANCH  16  17
ENDBRANCH  14  16
ENDBRANCH   9  10
ENDBRANCH   5   9
ENDBRANCH   3   5
ENDBRANCH   2   3
ENDBRANCH   1   2
BRANCH   1  24
ATOM     24  C   UNL A   1      31.789  29.852  25.578  1.00  0.00     0.275 C 
BRANCH  24  25
ATOM     25  O   UNL A   1      33.077  30.349  25.986  1.00  0.00    -0.458 OA
BRANCH  25  26
ATOM     26  C   UNL A   1      33.071  31.319  26.923  1.00  0.00     0.338 C 
ATOM     27  O   UNL A   1      32.242  32.204  27.082  1.00  0.00    -0.246 OA
BRANCH  26  28
ATOM     28  C   UNL A   1      34.269  31.201  27.763  1.00  0.00     0.060 A 
ATOM     29  C   UNL A   1      35.083  32.312  28.006  1.00  0.00     0.016 A 
ATOM     30  C   UNL A   1      34.638  29.939  28.221  1.00  0.00     0.016 A 
ATOM     31  C   UNL A   1      36.280  32.165  28.707  1.00  0.00     0.010 A 
ATOM     32  C   UNL A   1      35.825  29.792  28.937  1.00  0.00     0.010 A 
ATOM     33  C   UNL A   1      36.659  30.901  29.170  1.00  0.00    -0.014 A 
BRANCH  33  34
ATOM     34  C   UNL A   1      37.953  30.685  29.851  1.00  0.00     0.031 A 
ATOM     35  C   UNL A   1      38.978  29.802  29.206  1.00  0.00     0.074 A 
ATOM     36  C   UNL A   1      38.172  31.211  31.069  1.00  0.00     0.049 A 
ATOM     37  N   UNL A   1      40.040  29.249  29.728  1.00  0.00    -0.248 NA
ATOM     38  C   UNL A   1      38.768  29.491  27.783  1.00  0.00     0.031 C 
ATOM     39  C   UNL A   1      37.275  32.131  31.766  1.00  0.00     0.029 A 
ATOM     40  N   UNL A   1      39.203  31.010  31.949  1.00  0.00    -0.354 N 
ATOM     41  C   UNL A   1      40.606  28.492  28.711  1.00  0.00     0.074 A 
ATOM     42  C   UNL A   1      39.774  28.663  27.538  1.00  0.00     0.031 C 
ATOM     43  C   UNL A   1      37.780  32.390  32.984  1.00  0.00     0.029 A 
ATOM     44  C   UNL A   1      38.998  31.605  33.169  1.00  0.00     0.049 A 
ATOM     45  H   UNL A   1      40.011  30.490  31.728  1.00  0.00     0.167 HD
ATOM     46  C   UNL A   1      41.714  27.716  28.761  1.00  0.00     0.037 A 
ATOM     47  C   UNL A   1      39.683  31.483  34.321  1.00  0.00     0.037 A 
ATOM     48  C   UNL A   1      42.538  27.565  29.930  1.00  0.00     0.049 A 
ATOM     49  C   UNL A   1      40.871  30.564  34.374  1.00  0.00     0.074 A 
ATOM     50  C   UNL A   1      43.685  26.808  30.089  1.00  0.00     0.029 A 
ATOM     51  N   UNL A   1      42.299  28.192  31.145  1.00  0.00    -0.354 N 
ATOM     52  N   UNL A   1      41.384  29.821  33.423  1.00  0.00    -0.248 NA
ATOM     53  C   UNL A   1      41.566  30.453  35.665  1.00  0.00     0.031 C 
ATOM     54  C   UNL A   1      44.125  26.954  31.409  1.00  0.00     0.029 A 
ATOM     55  C   UNL A   1      43.270  27.829  32.062  1.00  0.00     0.049 A 
ATOM     56  H   UNL A   1      41.550  28.804  31.327  1.00  0.00     0.167 HD
ATOM     57  C   UNL A   1      42.471  29.171  33.992  1.00  0.00     0.074 A 
ATOM     58  C   UNL A   1      42.547  29.610  35.371  1.00  0.00     0.031 C 
ATOM     59  C   UNL A   1      43.330  28.291  33.423  1.00  0.00     0.037 A 
BRANCH  46  60
ATOM     60  C   UNL A   1      42.073  26.945  27.529  1.00  0.00     0.057 A 
ATOM     61  C   UNL A   1      41.650  25.625  27.333  1.00  0.00     0.134 A 
ATOM     62  C   UNL A   1      42.832  27.541  26.514  1.00  0.00     0.134 A 
ATOM     63  F   UNL A   1      40.934  24.993  28.275  1.00  0.00    -0.206 F 
ATOM     64  C   UNL A   1      41.980  24.920  26.174  1.00  0.00     0.040 A 
ATOM     65  C   UNL A   1      43.153  26.853  25.343  1.00  0.00     0.040 A 
ATOM     66  F   UNL A   1      43.268  28.803  26.642  1.00  0.00    -0.206 F 
ATOM     67  C   UNL A   1      42.729  25.537  25.173  1.00  0.00     0.006 A 
ENDBRANCH  46  60
BRANCH  47  68
ATOM     68  C   UNL A   1      39.227  32.210  35.529  1.00  0.00     0.057 A 
ATOM     69  C   UNL A   1      39.626  33.528  35.769  1.00  0.00     0.134 A 
ATOM     70  C   UNL A   1      38.373  31.611  36.464  1.00  0.00     0.134 A 
ATOM     71  F   UNL A   1      40.461  34.146  34.920  1.00  0.00    -0.206 F 
ATOM     72  C   UNL A   1      39.197  34.226  36.899  1.00  0.00     0.040 A 
ATOM     73  C   UNL A   1      37.919  32.303  37.587  1.00  0.00     0.040 A 
ATOM     74  F   UNL A   1      37.954  30.350  36.287  1.00  0.00    -0.206 F 
ATOM     75  C   UNL A   1      38.336  33.615  37.809  1.00  0.00     0.006 A 
ENDBRANCH  47  68
BRANCH  59  76
ATOM     76  C   UNL A   1      44.449  27.780  34.277  1.00  0.00     0.057 A 
ATOM     77  C   UNL A   1      45.686  28.432  34.334  1.00  0.00     0.134 A 
ATOM     78  C   UNL A   1      44.264  26.657  35.091  1.00  0.00     0.134 A 
ATOM     79  F   UNL A   1      45.925  29.506  33.566  1.00  0.00    -0.206 F 
ATOM     80  C   UNL A   1      46.706  27.978  35.171  1.00  0.00     0.040 A 
ATOM     81  C   UNL A   1      45.271  26.204  35.944  1.00  0.00     0.040 A 
ATOM     82  F   UNL A   1      43.098  25.994  35.084  1.00  0.00    -0.206 F 
ATOM     83  C   UNL A   1      46.497  26.865  35.984  1.00  0.00     0.006 A 
ENDBRANCH  59  76
ENDBRANCH  33  34
ENDBRANCH  26  28
ENDBRANCH  25  26
ENDBRANCH  24  25
ENDBRANCH   1  24
TORSDOF 16
ENDMDL
