MODEL 1
REMARK VINA RESULT:     -10.5      0.000      0.000
REMARK SMILES CS(=O)(=O)CCSCc1cc(F)cc(/C=C/C(=O)OCCOC(=O)c2ccc(-c3c4nc(c(-c5c(F)cccc5F)c5ccc([nH]5)c(-c5c(F)cccc5F)c5nc(c(-c6c(F)cccc6F)c6ccc3[nH]6)C=C5)C=C4)cc2)c1
REMARK SMILES IDX 17 1 18 2 16 3 15 4 14 5 9 6 10 7 79 8 11 9 12 10 13 11 8 12
REMARK SMILES IDX 7 13 6 14 5 15 2 16 1 17 3 18 4 19 19 20 20 21 21 22 22 23
REMARK SMILES IDX 23 24 24 25 25 26 26 27 78 28 27 29 77 30 28 31 29 32 30 33
REMARK SMILES IDX 71 34 31 35 76 36 70 37 72 38 32 39 75 40 69 41 68 42 33 44
REMARK SMILES IDX 59 45 42 46 58 47 43 48 46 49 57 50 73 51 44 52 45 53 56 55
REMARK SMILES IDX 74 56 47 57 34 58 35 59 40 60 36 61 37 62 39 63 41 64 38 65
REMARK SMILES IDX 60 66 61 67 66 68 62 69 63 70 65 71 67 72 64 73 48 74 49 75
REMARK SMILES IDX 54 76 50 77 51 78 53 79 55 80 52 81
REMARK H PARENT 72 43 46 54
REMARK Flexibility Score: inf
ROOT
ATOM      1  C   UNL A   1      33.642  34.851  29.657  1.00  0.00     0.330 C 
ATOM      2  O   UNL A   1      33.560  35.779  28.864  1.00  0.00    -0.247 OA
ENDROOT
BRANCH   1   3
ATOM      3  C   UNL A   1      34.109  33.522  29.216  1.00  0.00     0.094 C 
ATOM      4  C   UNL A   1      33.839  32.946  28.035  1.00  0.00     0.016 C 
BRANCH   4   5
ATOM      5  C   UNL A   1      34.306  31.587  27.727  1.00  0.00    -0.022 A 
ATOM      6  C   UNL A   1      33.792  29.332  26.925  1.00  0.00    -0.035 A 
ATOM      7  C   UNL A   1      35.149  29.001  27.021  1.00  0.00     0.043 A 
ATOM      8  C   UNL A   1      33.381  30.623  27.309  1.00  0.00     0.013 A 
ATOM      9  C   UNL A   1      36.057  29.942  27.490  1.00  0.00     0.124 A 
ATOM     10  F   UNL A   1      37.350  29.610  27.599  1.00  0.00    -0.207 F 
ATOM     11  C   UNL A   1      35.651  31.225  27.841  1.00  0.00     0.047 A 
BRANCH   6  12
ATOM     12  C   UNL A   1      32.789  28.333  26.421  1.00  0.00     0.105 C 
BRANCH  12  13
ATOM     13  S   UNL A   1      33.416  27.180  25.161  1.00  0.00    -0.156 SA
BRANCH  13  14
ATOM     14  C   UNL A   1      32.706  27.847  23.609  1.00  0.00     0.086 C 
BRANCH  14  15
ATOM     15  C   UNL A   1      33.436  27.398  22.355  1.00  0.00     0.147 C 
BRANCH  15  16
ATOM     16  S   UNL A   1      33.138  25.711  21.866  1.00  0.00     0.148 S 
ATOM     17  C   UNL A   1      31.539  25.299  22.530  1.00  0.00     0.158 C 
ATOM     18  O   UNL A   1      34.109  24.893  22.569  1.00  0.00    -0.229 OA
ATOM     19  O   UNL A   1      33.052  25.653  20.419  1.00  0.00    -0.229 OA
ENDBRANCH  15  16
ENDBRANCH  14  15
ENDBRANCH  13  14
ENDBRANCH  12  13
ENDBRANCH   6  12
ENDBRANCH   4   5
ENDBRANCH   1   3
BRANCH   1  20
ATOM     20  O   UNL A   1      33.384  34.903  30.984  1.00  0.00    -0.459 OA
BRANCH  20  21
ATOM     21  C   UNL A   1      34.509  34.654  31.847  1.00  0.00     0.275 C 
BRANCH  21  22
ATOM     22  C   UNL A   1      34.268  33.428  32.730  1.00  0.00     0.275 C 
BRANCH  22  23
ATOM     23  O   UNL A   1      35.096  32.314  32.343  1.00  0.00    -0.458 OA
BRANCH  23  24
ATOM     24  C   UNL A   1      36.234  32.173  33.063  1.00  0.00     0.338 C 
ATOM     25  O   UNL A   1      36.392  32.403  34.253  1.00  0.00    -0.246 OA
BRANCH  24  26
ATOM     26  C   UNL A   1      37.288  31.573  32.228  1.00  0.00     0.060 A 
ATOM     27  C   UNL A   1      38.302  30.858  32.870  1.00  0.00     0.016 A 
ATOM     28  C   UNL A   1      37.331  31.778  30.848  1.00  0.00     0.016 A 
ATOM     29  C   UNL A   1      39.369  30.346  32.137  1.00  0.00     0.010 A 
ATOM     30  C   UNL A   1      38.408  31.269  30.111  1.00  0.00     0.010 A 
ATOM     31  C   UNL A   1      39.437  30.560  30.753  1.00  0.00    -0.014 A 
BRANCH  31  32
ATOM     32  C   UNL A   1      40.615  30.073  29.994  1.00  0.00     0.031 A 
ATOM     33  C   UNL A   1      41.790  30.980  29.765  1.00  0.00     0.074 A 
ATOM     34  C   UNL A   1      40.645  28.804  29.547  1.00  0.00     0.049 A 
ATOM     35  N   UNL A   1      42.894  30.749  29.102  1.00  0.00    -0.248 NA
ATOM     36  C   UNL A   1      41.716  32.322  30.364  1.00  0.00     0.031 C 
ATOM     37  C   UNL A   1      39.587  27.816  29.747  1.00  0.00     0.029 A 
ATOM     38  N   UNL A   1      41.607  28.129  28.838  1.00  0.00    -0.354 N 
ATOM     39  C   UNL A   1      43.644  31.913  29.201  1.00  0.00     0.074 A 
ATOM     40  C   UNL A   1      42.862  32.859  29.969  1.00  0.00     0.031 C 
ATOM     41  C   UNL A   1      39.961  26.655  29.182  1.00  0.00     0.029 A 
ATOM     42  C   UNL A   1      41.267  26.831  28.549  1.00  0.00     0.049 A 
ATOM     43  H   UNL A   1      42.461  28.537  28.564  1.00  0.00     0.167 HD
ATOM     44  C   UNL A   1      44.879  32.165  28.703  1.00  0.00     0.037 A 
ATOM     45  C   UNL A   1      41.924  25.894  27.840  1.00  0.00     0.037 A 
ATOM     46  C   UNL A   1      45.661  31.222  27.948  1.00  0.00     0.049 A 
ATOM     47  C   UNL A   1      43.262  26.224  27.238  1.00  0.00     0.074 A 
ATOM     48  C   UNL A   1      46.923  31.391  27.404  1.00  0.00     0.029 A 
ATOM     49  N   UNL A   1      45.259  29.933  27.633  1.00  0.00    -0.354 N 
ATOM     50  N   UNL A   1      43.957  27.331  27.328  1.00  0.00    -0.248 NA
ATOM     51  C   UNL A   1      43.905  25.177  26.430  1.00  0.00     0.031 C 
ATOM     52  C   UNL A   1      47.270  30.218  26.729  1.00  0.00     0.029 A 
ATOM     53  C   UNL A   1      46.241  29.303  26.887  1.00  0.00     0.049 A 
ATOM     54  H   UNL A   1      44.404  29.527  27.900  1.00  0.00     0.167 HD
ATOM     55  C   UNL A   1      45.122  27.111  26.606  1.00  0.00     0.074 A 
ATOM     56  C   UNL A   1      45.048  25.758  26.094  1.00  0.00     0.031 C 
ATOM     57  C   UNL A   1      46.158  27.954  26.387  1.00  0.00     0.037 A 
BRANCH  44  58
ATOM     58  C   UNL A   1      45.466  33.522  28.945  1.00  0.00     0.057 A 
ATOM     59  C   UNL A   1      46.228  33.776  30.093  1.00  0.00     0.134 A 
ATOM     60  C   UNL A   1      45.212  34.597  28.084  1.00  0.00     0.134 A 
ATOM     61  F   UNL A   1      46.500  32.790  30.960  1.00  0.00    -0.206 F 
ATOM     62  C   UNL A   1      46.704  35.055  30.384  1.00  0.00     0.040 A 
ATOM     63  C   UNL A   1      45.698  35.876  28.355  1.00  0.00     0.040 A 
ATOM     64  F   UNL A   1      44.497  34.415  26.964  1.00  0.00    -0.206 F 
ATOM     65  C   UNL A   1      46.438  36.110  29.513  1.00  0.00     0.006 A 
ENDBRANCH  44  58
BRANCH  45  66
ATOM     66  C   UNL A   1      41.319  24.552  27.652  1.00  0.00     0.057 A 
ATOM     67  C   UNL A   1      40.273  24.346  26.746  1.00  0.00     0.134 A 
ATOM     68  C   UNL A   1      41.772  23.446  28.379  1.00  0.00     0.134 A 
ATOM     69  F   UNL A   1      39.796  25.366  26.017  1.00  0.00    -0.206 F 
ATOM     70  C   UNL A   1      39.686  23.090  26.581  1.00  0.00     0.040 A 
ATOM     71  C   UNL A   1      41.210  22.180  28.209  1.00  0.00     0.040 A 
ATOM     72  F   UNL A   1      42.788  23.577  29.244  1.00  0.00    -0.206 F 
ATOM     73  C   UNL A   1      40.158  22.002  27.311  1.00  0.00     0.006 A 
ENDBRANCH  45  66
BRANCH  57  74
ATOM     74  C   UNL A   1      47.311  27.444  25.576  1.00  0.00     0.057 A 
ATOM     75  C   UNL A   1      48.386  26.792  26.194  1.00  0.00     0.134 A 
ATOM     76  C   UNL A   1      47.391  27.663  24.197  1.00  0.00     0.134 A 
ATOM     77  F   UNL A   1      48.374  26.561  27.516  1.00  0.00    -0.206 F 
ATOM     78  C   UNL A   1      49.507  26.389  25.469  1.00  0.00     0.040 A 
ATOM     79  C   UNL A   1      48.497  27.245  23.456  1.00  0.00     0.040 A 
ATOM     80  F   UNL A   1      46.388  28.272  23.546  1.00  0.00    -0.206 F 
ATOM     81  C   UNL A   1      49.564  26.613  24.094  1.00  0.00     0.006 A 
ENDBRANCH  57  74
ENDBRANCH  31  32
ENDBRANCH  24  26
ENDBRANCH  23  24
ENDBRANCH  22  23
ENDBRANCH  21  22
ENDBRANCH  20  21
ENDBRANCH   1  20
TORSDOF 17
ENDMDL
MODEL 2
REMARK VINA RESULT:     -10.4      4.704      7.298
REMARK SMILES CS(=O)(=O)CCSCc1cc(F)cc(/C=C/C(=O)OCCOC(=O)c2ccc(-c3c4nc(c(-c5c(F)cccc5F)c5ccc([nH]5)c(-c5c(F)cccc5F)c5nc(c(-c6c(F)cccc6F)c6ccc3[nH]6)C=C5)C=C4)cc2)c1
REMARK SMILES IDX 17 1 18 2 16 3 15 4 14 5 9 6 10 7 79 8 11 9 12 10 13 11 8 12
REMARK SMILES IDX 7 13 6 14 5 15 2 16 1 17 3 18 4 19 19 20 20 21 21 22 22 23
REMARK SMILES IDX 23 24 24 25 25 26 26 27 78 28 27 29 77 30 28 31 29 32 30 33
REMARK SMILES IDX 71 34 31 35 76 36 70 37 72 38 32 39 75 40 69 41 68 42 33 44
REMARK SMILES IDX 59 45 42 46 58 47 43 48 46 49 57 50 73 51 44 52 45 53 56 55
REMARK SMILES IDX 74 56 47 57 34 58 35 59 40 60 36 61 37 62 39 63 41 64 38 65
REMARK SMILES IDX 60 66 61 67 66 68 62 69 63 70 65 71 67 72 64 73 48 74 49 75
REMARK SMILES IDX 54 76 50 77 51 78 53 79 55 80 52 81
REMARK H PARENT 72 43 46 54
REMARK Flexibility Score: inf
ROOT
ATOM      1  C   UNL A   1      34.320  36.090  33.325  1.00  0.00     0.330 C 
ATOM      2  O   UNL A   1      33.774  37.001  33.932  1.00  0.00    -0.247 OA
ENDROOT
BRANCH   1   3
ATOM      3  C   UNL A   1      35.310  35.225  33.994  1.00  0.00     0.094 C 
ATOM      4  C   UNL A   1      35.710  34.015  33.574  1.00  0.00     0.016 C 
BRANCH   4   5
ATOM      5  C   UNL A   1      36.658  33.212  34.358  1.00  0.00    -0.022 A 
ATOM      6  C   UNL A   1      37.980  31.164  34.579  1.00  0.00    -0.035 A 
ATOM      7  C   UNL A   1      38.547  31.670  35.754  1.00  0.00     0.043 A 
ATOM      8  C   UNL A   1      37.015  31.937  33.906  1.00  0.00     0.013 A 
ATOM      9  C   UNL A   1      38.150  32.913  36.232  1.00  0.00     0.124 A 
ATOM     10  F   UNL A   1      38.682  33.380  37.370  1.00  0.00    -0.207 F 
ATOM     11  C   UNL A   1      37.217  33.685  35.549  1.00  0.00     0.047 A 
BRANCH   6  12
ATOM     12  C   UNL A   1      38.392  29.823  34.041  1.00  0.00     0.105 C 
BRANCH  12  13
ATOM     13  S   UNL A   1      40.046  29.770  33.286  1.00  0.00    -0.156 SA
BRANCH  13  14
ATOM     14  C   UNL A   1      41.131  29.384  34.710  1.00  0.00     0.086 C 
BRANCH  14  15
ATOM     15  C   UNL A   1      41.680  27.967  34.700  1.00  0.00     0.147 C 
BRANCH  15  16
ATOM     16  S   UNL A   1      42.071  27.293  36.303  1.00  0.00     0.148 S 
ATOM     17  C   UNL A   1      43.085  25.866  35.984  1.00  0.00     0.158 C 
ATOM     18  O   UNL A   1      40.826  26.807  36.869  1.00  0.00    -0.229 OA
ATOM     19  O   UNL A   1      42.870  28.260  37.032  1.00  0.00    -0.229 OA
ENDBRANCH  15  16
ENDBRANCH  14  15
ENDBRANCH  13  14
ENDBRANCH  12  13
ENDBRANCH   6  12
ENDBRANCH   4   5
ENDBRANCH   1   3
BRANCH   1  20
ATOM     20  O   UNL A   1      34.082  35.722  32.045  1.00  0.00    -0.459 OA
BRANCH  20  21
ATOM     21  C   UNL A   1      33.297  36.645  31.268  1.00  0.00     0.275 C 
BRANCH  21  22
ATOM     22  C   UNL A   1      32.407  35.906  30.265  1.00  0.00     0.275 C 
BRANCH  22  23
ATOM     23  O   UNL A   1      33.053  35.748  28.986  1.00  0.00    -0.458 OA
BRANCH  23  24
ATOM     24  C   UNL A   1      33.201  34.466  28.578  1.00  0.00     0.338 C 
ATOM     25  O   UNL A   1      32.462  33.833  27.839  1.00  0.00    -0.246 OA
BRANCH  24  26
ATOM     26  C   UNL A   1      34.483  33.927  29.064  1.00  0.00     0.060 A 
ATOM     27  C   UNL A   1      35.654  34.366  28.443  1.00  0.00     0.016 A 
ATOM     28  C   UNL A   1      34.532  32.944  30.055  1.00  0.00     0.016 A 
ATOM     29  C   UNL A   1      36.884  33.823  28.805  1.00  0.00     0.010 A 
ATOM     30  C   UNL A   1      35.768  32.393  30.415  1.00  0.00     0.010 A 
ATOM     31  C   UNL A   1      36.948  32.821  29.784  1.00  0.00    -0.014 A 
BRANCH  31  32
ATOM     32  C   UNL A   1      38.254  32.199  30.109  1.00  0.00     0.031 A 
ATOM     33  C   UNL A   1      39.203  32.887  31.050  1.00  0.00     0.074 A 
ATOM     34  C   UNL A   1      38.571  30.997  29.593  1.00  0.00     0.049 A 
ATOM     35  N   UNL A   1      40.398  32.518  31.432  1.00  0.00    -0.248 NA
ATOM     36  C   UNL A   1      38.743  34.153  31.641  1.00  0.00     0.031 C 
ATOM     37  C   UNL A   1      37.715  30.210  28.707  1.00  0.00     0.029 A 
ATOM     38  N   UNL A   1      39.696  30.226  29.747  1.00  0.00    -0.354 N 
ATOM     39  C   UNL A   1      40.837  33.505  32.305  1.00  0.00     0.074 A 
ATOM     40  C   UNL A   1      39.788  34.501  32.380  1.00  0.00     0.031 C 
ATOM     41  C   UNL A   1      38.341  29.061  28.402  1.00  0.00     0.029 A 
ATOM     42  C   UNL A   1      39.656  29.050  29.040  1.00  0.00     0.049 A 
ATOM     43  H   UNL A   1      40.458  30.491  30.311  1.00  0.00     0.167 HD
ATOM     44  C   UNL A   1      42.004  33.568  32.988  1.00  0.00     0.037 A 
ATOM     45  C   UNL A   1      40.582  28.080  28.907  1.00  0.00     0.037 A 
ATOM     46  C   UNL A   1      43.043  32.573  32.921  1.00  0.00     0.049 A 
ATOM     47  C   UNL A   1      41.899  28.210  29.621  1.00  0.00     0.074 A 
ATOM     48  C   UNL A   1      44.260  32.555  33.579  1.00  0.00     0.029 A 
ATOM     49  N   UNL A   1      42.985  31.421  32.153  1.00  0.00    -0.354 N 
ATOM     50  N   UNL A   1      42.306  29.153  30.434  1.00  0.00    -0.248 NA
ATOM     51  C   UNL A   1      42.887  27.145  29.394  1.00  0.00     0.031 C 
ATOM     52  C   UNL A   1      44.955  31.410  33.183  1.00  0.00     0.029 A 
ATOM     53  C   UNL A   1      44.154  30.693  32.308  1.00  0.00     0.049 A 
ATOM     54  H   UNL A   1      42.228  31.158  31.583  1.00  0.00     0.167 HD
ATOM     55  C   UNL A   1      43.586  28.789  30.829  1.00  0.00     0.074 A 
ATOM     56  C   UNL A   1      43.885  27.531  30.176  1.00  0.00     0.031 C 
ATOM     57  C   UNL A   1      44.437  29.441  31.657  1.00  0.00     0.037 A 
BRANCH  44  58
ATOM     58  C   UNL A   1      42.236  34.760  33.866  1.00  0.00     0.057 A 
ATOM     59  C   UNL A   1      41.855  34.739  35.213  1.00  0.00     0.134 A 
ATOM     60  C   UNL A   1      42.763  35.954  33.359  1.00  0.00     0.134 A 
ATOM     61  F   UNL A   1      41.338  33.628  35.757  1.00  0.00    -0.206 F 
ATOM     62  C   UNL A   1      41.976  35.870  36.023  1.00  0.00     0.040 A 
ATOM     63  C   UNL A   1      42.906  37.085  34.163  1.00  0.00     0.040 A 
ATOM     64  F   UNL A   1      43.156  36.033  32.078  1.00  0.00    -0.206 F 
ATOM     65  C   UNL A   1      42.503  37.048  35.497  1.00  0.00     0.006 A 
ENDBRANCH  44  58
BRANCH  45  66
ATOM     66  C   UNL A   1      40.297  26.900  28.052  1.00  0.00     0.057 A 
ATOM     67  C   UNL A   1      39.498  25.846  28.510  1.00  0.00     0.134 A 
ATOM     68  C   UNL A   1      40.822  26.800  26.760  1.00  0.00     0.134 A 
ATOM     69  F   UNL A   1      38.964  25.884  29.740  1.00  0.00    -0.206 F 
ATOM     70  C   UNL A   1      39.245  24.725  27.718  1.00  0.00     0.040 A 
ATOM     71  C   UNL A   1      40.559  25.696  25.949  1.00  0.00     0.040 A 
ATOM     72  F   UNL A   1      41.574  27.791  26.258  1.00  0.00    -0.206 F 
ATOM     73  C   UNL A   1      39.773  24.650  26.432  1.00  0.00     0.006 A 
ENDBRANCH  45  66
BRANCH  57  74
ATOM     74  C   UNL A   1      45.768  28.805  31.927  1.00  0.00     0.057 A 
ATOM     75  C   UNL A   1      46.865  29.064  31.095  1.00  0.00     0.134 A 
ATOM     76  C   UNL A   1      45.942  27.881  32.963  1.00  0.00     0.134 A 
ATOM     77  F   UNL A   1      46.759  29.933  30.078  1.00  0.00    -0.206 F 
ATOM     78  C   UNL A   1      48.086  28.415  31.278  1.00  0.00     0.040 A 
ATOM     79  C   UNL A   1      47.165  27.241  33.169  1.00  0.00     0.040 A 
ATOM     80  F   UNL A   1      44.932  27.599  33.799  1.00  0.00    -0.206 F 
ATOM     81  C   UNL A   1      48.239  27.501  32.319  1.00  0.00     0.006 A 
ENDBRANCH  57  74
ENDBRANCH  31  32
ENDBRANCH  24  26
ENDBRANCH  23  24
ENDBRANCH  22  23
ENDBRANCH  21  22
ENDBRANCH  20  21
ENDBRANCH   1  20
TORSDOF 17
ENDMDL
MODEL 3
REMARK VINA RESULT:     -10.3      5.242     10.202
REMARK SMILES CS(=O)(=O)CCSCc1cc(F)cc(/C=C/C(=O)OCCOC(=O)c2ccc(-c3c4nc(c(-c5c(F)cccc5F)c5ccc([nH]5)c(-c5c(F)cccc5F)c5nc(c(-c6c(F)cccc6F)c6ccc3[nH]6)C=C5)C=C4)cc2)c1
REMARK SMILES IDX 17 1 18 2 16 3 15 4 14 5 9 6 10 7 79 8 11 9 12 10 13 11 8 12
REMARK SMILES IDX 7 13 6 14 5 15 2 16 1 17 3 18 4 19 19 20 20 21 21 22 22 23
REMARK SMILES IDX 23 24 24 25 25 26 26 27 78 28 27 29 77 30 28 31 29 32 30 33
REMARK SMILES IDX 71 34 31 35 76 36 70 37 72 38 32 39 75 40 69 41 68 42 33 44
REMARK SMILES IDX 59 45 42 46 58 47 43 48 46 49 57 50 73 51 44 52 45 53 56 55
REMARK SMILES IDX 74 56 47 57 34 58 35 59 40 60 36 61 37 62 39 63 41 64 38 65
REMARK SMILES IDX 60 66 61 67 66 68 62 69 63 70 65 71 67 72 64 73 48 74 49 75
REMARK SMILES IDX 54 76 50 77 51 78 53 79 55 80 52 81
REMARK H PARENT 72 43 46 54
REMARK Flexibility Score: inf
ROOT
ATOM      1  C   UNL A   1      34.076  36.833  33.047  1.00  0.00     0.330 C 
ATOM      2  O   UNL A   1      33.771  37.541  33.996  1.00  0.00    -0.247 OA
ENDROOT
BRANCH   1   3
ATOM      3  C   UNL A   1      34.966  35.670  33.229  1.00  0.00     0.094 C 
ATOM      4  C   UNL A   1      34.966  34.837  34.281  1.00  0.00     0.016 C 
BRANCH   4   5
ATOM      5  C   UNL A   1      35.943  33.745  34.387  1.00  0.00    -0.022 A 
ATOM      6  C   UNL A   1      37.721  32.649  35.663  1.00  0.00    -0.035 A 
ATOM      7  C   UNL A   1      37.763  31.628  34.705  1.00  0.00     0.043 A 
ATOM      8  C   UNL A   1      36.823  33.716  35.475  1.00  0.00     0.013 A 
ATOM      9  C   UNL A   1      36.928  31.688  33.597  1.00  0.00     0.124 A 
ATOM     10  F   UNL A   1      36.990  30.718  32.674  1.00  0.00    -0.207 F 
ATOM     11  C   UNL A   1      36.023  32.730  33.429  1.00  0.00     0.047 A 
BRANCH   6  12
ATOM     12  C   UNL A   1      38.614  32.608  36.871  1.00  0.00     0.105 C 
BRANCH  12  13
ATOM     13  S   UNL A   1      37.928  33.390  38.363  1.00  0.00    -0.156 SA
BRANCH  13  14
ATOM     14  C   UNL A   1      38.948  34.902  38.536  1.00  0.00     0.086 C 
BRANCH  14  15
ATOM     15  C   UNL A   1      39.173  35.332  39.977  1.00  0.00     0.147 C 
BRANCH  15  16
ATOM     16  S   UNL A   1      39.482  37.071  40.209  1.00  0.00     0.148 S 
ATOM     17  C   UNL A   1      41.191  37.313  39.776  1.00  0.00     0.158 C 
ATOM     18  O   UNL A   1      39.368  37.330  41.634  1.00  0.00    -0.229 OA
ATOM     19  O   UNL A   1      38.669  37.819  39.269  1.00  0.00    -0.229 OA
ENDBRANCH  15  16
ENDBRANCH  14  15
ENDBRANCH  13  14
ENDBRANCH  12  13
ENDBRANCH   6  12
ENDBRANCH   4   5
ENDBRANCH   1   3
BRANCH   1  20
ATOM     20  O   UNL A   1      33.637  36.963  31.774  1.00  0.00    -0.459 OA
BRANCH  20  21
ATOM     21  C   UNL A   1      33.360  35.732  31.081  1.00  0.00     0.275 C 
BRANCH  21  22
ATOM     22  C   UNL A   1      32.523  35.980  29.824  1.00  0.00     0.275 C 
BRANCH  22  23
ATOM     23  O   UNL A   1      33.235  35.622  28.624  1.00  0.00    -0.458 OA
BRANCH  23  24
ATOM     24  C   UNL A   1      33.203  34.304  28.314  1.00  0.00     0.338 C 
ATOM     25  O   UNL A   1      32.299  33.694  27.762  1.00  0.00    -0.246 OA
BRANCH  24  26
ATOM     26  C   UNL A   1      34.496  33.678  28.637  1.00  0.00     0.060 A 
ATOM     27  C   UNL A   1      34.525  32.734  29.666  1.00  0.00     0.016 A 
ATOM     28  C   UNL A   1      35.676  34.069  28.001  1.00  0.00     0.016 A 
ATOM     29  C   UNL A   1      35.736  32.177  30.070  1.00  0.00     0.010 A 
ATOM     30  C   UNL A   1      36.894  33.513  28.411  1.00  0.00     0.010 A 
ATOM     31  C   UNL A   1      36.931  32.574  29.455  1.00  0.00    -0.014 A 
BRANCH  31  32
ATOM     32  C   UNL A   1      38.221  32.028  29.942  1.00  0.00     0.031 A 
ATOM     33  C   UNL A   1      38.705  30.691  29.456  1.00  0.00     0.074 A 
ATOM     34  C   UNL A   1      38.978  32.752  30.788  1.00  0.00     0.049 A 
ATOM     35  N   UNL A   1      39.786  30.034  29.788  1.00  0.00    -0.248 NA
ATOM     36  C   UNL A   1      37.863  30.005  28.464  1.00  0.00     0.031 C 
ATOM     37  C   UNL A   1      38.639  34.081  31.293  1.00  0.00     0.029 A 
ATOM     38  N   UNL A   1      40.191  32.471  31.364  1.00  0.00    -0.354 N 
ATOM     39  C   UNL A   1      39.756  28.859  29.050  1.00  0.00     0.074 A 
ATOM     40  C   UNL A   1      38.537  28.880  28.268  1.00  0.00     0.031 C 
ATOM     41  C   UNL A   1      39.627  34.507  32.098  1.00  0.00     0.029 A 
ATOM     42  C   UNL A   1      40.648  33.465  32.195  1.00  0.00     0.049 A 
ATOM     43  H   UNL A   1      40.688  31.637  31.198  1.00  0.00     0.167 HD
ATOM     44  C   UNL A   1      40.667  27.857  29.021  1.00  0.00     0.037 A 
ATOM     45  C   UNL A   1      41.754  33.523  32.960  1.00  0.00     0.037 A 
ATOM     46  C   UNL A   1      41.883  27.840  29.791  1.00  0.00     0.049 A 
ATOM     47  C   UNL A   1      42.714  32.366  32.963  1.00  0.00     0.074 A 
ATOM     48  C   UNL A   1      42.866  26.866  29.824  1.00  0.00     0.029 A 
ATOM     49  N   UNL A   1      42.284  28.843  30.659  1.00  0.00    -0.354 N 
ATOM     50  N   UNL A   1      42.669  31.255  32.270  1.00  0.00    -0.248 NA
ATOM     51  C   UNL A   1      43.875  32.467  33.860  1.00  0.00     0.031 C 
ATOM     52  C   UNL A   1      43.845  27.262  30.740  1.00  0.00     0.029 A 
ATOM     53  C   UNL A   1      43.492  28.502  31.247  1.00  0.00     0.049 A 
ATOM     54  H   UNL A   1      41.786  29.674  30.832  1.00  0.00     0.167 HD
ATOM     55  C   UNL A   1      43.799  30.533  32.631  1.00  0.00     0.074 A 
ATOM     56  C   UNL A   1      44.519  31.338  33.597  1.00  0.00     0.031 C 
ATOM     57  C   UNL A   1      44.201  29.314  32.202  1.00  0.00     0.037 A 
BRANCH  44  58
ATOM     58  C   UNL A   1      40.386  26.682  28.136  1.00  0.00     0.057 A 
ATOM     59  C   UNL A   1      40.964  26.592  26.863  1.00  0.00     0.134 A 
ATOM     60  C   UNL A   1      39.481  25.680  28.510  1.00  0.00     0.134 A 
ATOM     61  F   UNL A   1      41.833  27.523  26.444  1.00  0.00    -0.206 F 
ATOM     62  C   UNL A   1      40.641  25.553  25.988  1.00  0.00     0.040 A 
ATOM     63  C   UNL A   1      39.165  24.628  27.650  1.00  0.00     0.040 A 
ATOM     64  F   UNL A   1      38.902  25.706  29.720  1.00  0.00    -0.206 F 
ATOM     65  C   UNL A   1      39.739  24.568  26.381  1.00  0.00     0.006 A 
ENDBRANCH  44  58
BRANCH  45  66
ATOM     66  C   UNL A   1      42.010  34.722  33.798  1.00  0.00     0.057 A 
ATOM     67  C   UNL A   1      41.569  34.790  35.124  1.00  0.00     0.134 A 
ATOM     68  C   UNL A   1      42.696  35.828  33.287  1.00  0.00     0.134 A 
ATOM     69  F   UNL A   1      40.907  33.760  35.672  1.00  0.00    -0.206 F 
ATOM     70  C   UNL A   1      41.788  35.922  35.909  1.00  0.00     0.040 A 
ATOM     71  C   UNL A   1      42.942  36.958  34.067  1.00  0.00     0.040 A 
ATOM     72  F   UNL A   1      43.163  35.811  32.030  1.00  0.00    -0.206 F 
ATOM     73  C   UNL A   1      42.480  37.010  35.382  1.00  0.00     0.006 A 
ENDBRANCH  45  66
BRANCH  57  74
ATOM     74  C   UNL A   1      45.487  28.773  32.751  1.00  0.00     0.057 A 
ATOM     75  C   UNL A   1      45.498  28.015  33.929  1.00  0.00     0.134 A 
ATOM     76  C   UNL A   1      46.719  29.065  32.155  1.00  0.00     0.134 A 
ATOM     77  F   UNL A   1      44.350  27.710  34.554  1.00  0.00    -0.206 F 
ATOM     78  C   UNL A   1      46.692  27.578  34.503  1.00  0.00     0.040 A 
ATOM     79  C   UNL A   1      47.919  28.615  32.707  1.00  0.00     0.040 A 
ATOM     80  F   UNL A   1      46.773  29.778  31.020  1.00  0.00    -0.206 F 
ATOM     81  C   UNL A   1      47.908  27.876  33.890  1.00  0.00     0.006 A 
ENDBRANCH  57  74
ENDBRANCH  31  32
ENDBRANCH  24  26
ENDBRANCH  23  24
ENDBRANCH  22  23
ENDBRANCH  21  22
ENDBRANCH  20  21
ENDBRANCH   1  20
TORSDOF 17
ENDMDL
