MODEL 1
REMARK VINA RESULT:     -10.5      0.000      0.000
REMARK SMILES Cc1cc(C(=O)N[C@@H]2C(=O)N3C(C(=O)OCCOC(=O)c4ccc(-c5c6nc(c(-c7c(F)cccc7F)c7ccc([nH]7)c(-c7c(F)cccc7F)c7nc(c(-c8c(F)cccc8F)c8ccc5[nH]8)C=C7)C=C6)cc4)=C(CSc4nnc(C)s4)CS[C@H]23)n(C)n1
REMARK SMILES IDX 16 1 15 2 13 3 14 4 12 5 8 6 9 7 86 8 10 9 11 10 85 11 84 12
REMARK SMILES IDX 75 13 7 14 5 15 6 16 4 18 1 19 2 20 3 21 89 22 87 23 88 24
REMARK SMILES IDX 76 25 77 26 78 27 79 28 83 29 80 30 81 31 82 32 17 33 18 34
REMARK SMILES IDX 19 35 20 36 21 37 22 38 74 39 23 40 73 41 24 42 25 43 26 44
REMARK SMILES IDX 67 45 27 46 72 47 66 48 68 49 28 50 71 51 65 52 64 53 29 55
REMARK SMILES IDX 55 56 38 57 54 58 39 59 42 60 53 61 69 62 40 63 41 64 52 66
REMARK SMILES IDX 70 67 43 68 30 69 31 70 36 71 32 72 33 73 35 74 37 75 34 76
REMARK SMILES IDX 56 77 57 78 62 79 58 80 59 81 61 82 63 83 60 84 44 85 45 86
REMARK SMILES IDX 50 87 46 88 47 89 49 90 51 91 48 92
REMARK H PARENT 7 17 68 54 42 65
REMARK Flexibility Score: inf
ROOT
ATOM      1  C   UNL A   1      36.862  29.551  29.872  1.00  0.00     0.275 C 
ENDROOT
BRANCH   1   2
ATOM      2  O   UNL A   1      35.700  29.275  29.064  1.00  0.00    -0.457 OA
BRANCH   2   3
ATOM      3  C   UNL A   1      35.660  29.853  27.847  1.00  0.00     0.355 C 
ATOM      4  O   UNL A   1      36.632  30.126  27.152  1.00  0.00    -0.244 OA
BRANCH   3   5
ATOM      5  C   UNL A   1      34.270  30.196  27.397  1.00  0.00     0.132 C 
ATOM      6  C   UNL A   1      32.832  28.409  24.881  1.00  0.00     0.206 C 
ATOM      7  C   UNL A   1      33.215  28.178  26.381  1.00  0.00     0.253 C 
ATOM      8  C   UNL A   1      32.977  29.911  25.303  1.00  0.00     0.181 C 
ATOM      9  O   UNL A   1      33.040  27.326  27.222  1.00  0.00    -0.272 OA
ATOM     10  N   UNL A   1      33.796  29.407  26.390  1.00  0.00    -0.289 N 
ATOM     11  S   UNL A   1      31.517  30.710  26.025  1.00  0.00    -0.129 SA
ATOM     12  C   UNL A   1      32.477  31.929  26.952  1.00  0.00     0.106 C 
ATOM     13  C   UNL A   1      33.703  31.394  27.678  1.00  0.00    -0.019 C 
BRANCH   6  14
ATOM     14  N   UNL A   1      31.550  27.850  24.406  1.00  0.00    -0.336 N 
ATOM     15  C   UNL A   1      31.247  26.565  24.009  1.00  0.00     0.270 C 
ATOM     16  O   UNL A   1      30.073  26.314  23.747  1.00  0.00    -0.268 OA
ATOM     17  H   UNL A   1      30.802  28.488  24.368  1.00  0.00     0.164 HD
BRANCH  15  18
ATOM     18  C   UNL A   1      32.321  25.616  23.847  1.00  0.00     0.126 A 
ATOM     19  C   UNL A   1      35.332  23.818  24.849  1.00  0.00     0.069 C 
ATOM     20  C   UNL A   1      34.154  24.411  24.175  1.00  0.00     0.060 A 
ATOM     21  C   UNL A   1      32.896  24.720  24.733  1.00  0.00     0.059 A 
ATOM     22  N   UNL A   1      34.226  24.810  22.905  1.00  0.00    -0.178 NA
ATOM     23  N   UNL A   1      33.052  25.447  22.693  1.00  0.00    -0.263 N 
ATOM     24  C   UNL A   1      32.776  25.917  21.355  1.00  0.00     0.174 C 
ENDBRANCH  15  18
ENDBRANCH   6  14
BRANCH  13  25
ATOM     25  C   UNL A   1      34.283  32.412  28.635  1.00  0.00     0.111 C 
BRANCH  25  26
ATOM     26  S   UNL A   1      34.330  34.133  28.087  1.00  0.00    -0.089 SA
BRANCH  26  27
ATOM     27  C   UNL A   1      33.574  35.049  29.361  1.00  0.00     0.174 A 
ATOM     28  N   UNL A   1      32.735  36.036  29.136  1.00  0.00    -0.132 NA
ATOM     29  S   UNL A   1      33.954  34.810  31.014  1.00  0.00    -0.091 S 
ATOM     30  N   UNL A   1      32.341  36.659  30.305  1.00  0.00    -0.143 NA
ATOM     31  C   UNL A   1      32.925  36.139  31.366  1.00  0.00     0.115 A 
ATOM     32  C   UNL A   1      32.774  36.654  32.750  1.00  0.00     0.081 C 
ENDBRANCH  26  27
ENDBRANCH  25  26
ENDBRANCH  13  25
ENDBRANCH   3   5
ENDBRANCH   2   3
ENDBRANCH   1   2
BRANCH   1  33
ATOM     33  C   UNL A   1      36.442  30.165  31.201  1.00  0.00     0.275 C 
BRANCH  33  34
ATOM     34  O   UNL A   1      37.277  31.302  31.481  1.00  0.00    -0.458 OA
BRANCH  34  35
ATOM     35  C   UNL A   1      38.193  31.104  32.457  1.00  0.00     0.338 C 
ATOM     36  O   UNL A   1      37.993  31.070  33.659  1.00  0.00    -0.246 OA
BRANCH  35  37
ATOM     37  C   UNL A   1      39.520  30.913  31.852  1.00  0.00     0.060 A 
ATOM     38  C   UNL A   1      39.786  31.448  30.594  1.00  0.00     0.016 A 
ATOM     39  C   UNL A   1      40.429  30.046  32.450  1.00  0.00     0.016 A 
ATOM     40  C   UNL A   1      40.879  30.986  29.867  1.00  0.00     0.010 A 
ATOM     41  C   UNL A   1      41.602  29.699  31.770  1.00  0.00     0.010 A 
ATOM     42  C   UNL A   1      41.818  30.120  30.447  1.00  0.00    -0.014 A 
BRANCH  42  43
ATOM     43  C   UNL A   1      42.997  29.645  29.664  1.00  0.00     0.031 A 
ATOM     44  C   UNL A   1      42.981  28.296  28.985  1.00  0.00     0.074 A 
ATOM     45  C   UNL A   1      44.095  30.423  29.551  1.00  0.00     0.049 A 
ATOM     46  N   UNL A   1      43.975  27.625  28.456  1.00  0.00    -0.248 NA
ATOM     47  C   UNL A   1      41.685  27.604  28.905  1.00  0.00     0.031 C 
ATOM     48  C   UNL A   1      44.246  31.766  30.112  1.00  0.00     0.029 A 
ATOM     49  N   UNL A   1      45.294  30.198  28.920  1.00  0.00    -0.354 N 
ATOM     50  C   UNL A   1      43.440  26.406  28.050  1.00  0.00     0.074 A 
ATOM     51  C   UNL A   1      42.034  26.432  28.391  1.00  0.00     0.031 C 
ATOM     52  C   UNL A   1      45.436  32.266  29.755  1.00  0.00     0.029 A 
ATOM     53  C   UNL A   1      46.185  31.234  29.053  1.00  0.00     0.049 A 
ATOM     54  H   UNL A   1      45.495  29.373  28.420  1.00  0.00     0.167 HD
ATOM     55  C   UNL A   1      44.068  25.363  27.453  1.00  0.00     0.037 A 
ATOM     56  C   UNL A   1      47.484  31.333  28.714  1.00  0.00     0.037 A 
ATOM     57  C   UNL A   1      45.456  25.371  27.056  1.00  0.00     0.049 A 
ATOM     58  C   UNL A   1      48.167  30.155  28.087  1.00  0.00     0.074 A 
ATOM     59  C   UNL A   1      46.176  24.375  26.418  1.00  0.00     0.029 A 
ATOM     60  N   UNL A   1      46.327  26.433  27.242  1.00  0.00    -0.354 N 
ATOM     61  N   UNL A   1      47.669  28.985  27.770  1.00  0.00    -0.248 NA
ATOM     62  C   UNL A   1      49.599  30.302  27.793  1.00  0.00     0.031 C 
ATOM     63  C   UNL A   1      47.495  24.817  26.263  1.00  0.00     0.029 A 
ATOM     64  C   UNL A   1      47.583  26.110  26.752  1.00  0.00     0.049 A 
ATOM     65  H   UNL A   1      46.088  27.292  27.662  1.00  0.00     0.167 HD
ATOM     66  C   UNL A   1      48.721  28.260  27.230  1.00  0.00     0.074 A 
ATOM     67  C   UNL A   1      49.879  29.131  27.241  1.00  0.00     0.031 C 
ATOM     68  C   UNL A   1      48.728  26.984  26.771  1.00  0.00     0.037 A 
BRANCH  55  69
ATOM     69  C   UNL A   1      43.278  24.102  27.227  1.00  0.00     0.057 A 
ATOM     70  C   UNL A   1      42.709  23.780  25.989  1.00  0.00     0.134 A 
ATOM     71  C   UNL A   1      43.126  23.170  28.265  1.00  0.00     0.134 A 
ATOM     72  F   UNL A   1      42.808  24.627  24.954  1.00  0.00    -0.206 F 
ATOM     73  C   UNL A   1      41.995  22.593  25.798  1.00  0.00     0.040 A 
ATOM     74  C   UNL A   1      42.440  21.969  28.079  1.00  0.00     0.040 A 
ATOM     75  F   UNL A   1      43.655  23.407  29.476  1.00  0.00    -0.206 F 
ATOM     76  C   UNL A   1      41.865  21.681  26.844  1.00  0.00     0.006 A 
ENDBRANCH  55  69
BRANCH  56  77
ATOM     77  C   UNL A   1      48.231  32.581  29.020  1.00  0.00     0.057 A 
ATOM     78  C   UNL A   1      48.905  32.741  30.235  1.00  0.00     0.134 A 
ATOM     79  C   UNL A   1      48.312  33.629  28.093  1.00  0.00     0.134 A 
ATOM     80  F   UNL A   1      48.846  31.783  31.171  1.00  0.00    -0.206 F 
ATOM     81  C   UNL A   1      49.630  33.900  30.519  1.00  0.00     0.040 A 
ATOM     82  C   UNL A   1      49.061  34.777  28.350  1.00  0.00     0.040 A 
ATOM     83  F   UNL A   1      47.694  33.535  26.907  1.00  0.00    -0.206 F 
ATOM     84  C   UNL A   1      49.719  34.917  29.570  1.00  0.00     0.006 A 
ENDBRANCH  56  77
BRANCH  68  85
ATOM     85  C   UNL A   1      50.021  26.473  26.210  1.00  0.00     0.057 A 
ATOM     86  C   UNL A   1      50.892  25.677  26.966  1.00  0.00     0.134 A 
ATOM     87  C   UNL A   1      50.394  26.770  24.893  1.00  0.00     0.134 A 
ATOM     88  F   UNL A   1      50.603  25.370  28.239  1.00  0.00    -0.206 F 
ATOM     89  C   UNL A   1      52.102  25.220  26.439  1.00  0.00     0.040 A 
ATOM     90  C   UNL A   1      51.586  26.296  24.348  1.00  0.00     0.040 A 
ATOM     91  F   UNL A   1      49.602  27.522  24.115  1.00  0.00    -0.206 F 
ATOM     92  C   UNL A   1      52.449  25.524  25.125  1.00  0.00     0.006 A 
ENDBRANCH  68  85
ENDBRANCH  42  43
ENDBRANCH  35  37
ENDBRANCH  34  35
ENDBRANCH  33  34
ENDBRANCH   1  33
TORSDOF 16
ENDMDL
MODEL 2
REMARK VINA RESULT:     -10.5      9.039     16.386
REMARK SMILES Cc1cc(C(=O)N[C@@H]2C(=O)N3C(C(=O)OCCOC(=O)c4ccc(-c5c6nc(c(-c7c(F)cccc7F)c7ccc([nH]7)c(-c7c(F)cccc7F)c7nc(c(-c8c(F)cccc8F)c8ccc5[nH]8)C=C7)C=C6)cc4)=C(CSc4nnc(C)s4)CS[C@H]23)n(C)n1
REMARK SMILES IDX 16 1 15 2 13 3 14 4 12 5 8 6 9 7 86 8 10 9 11 10 85 11 84 12
REMARK SMILES IDX 75 13 7 14 5 15 6 16 4 18 1 19 2 20 3 21 89 22 87 23 88 24
REMARK SMILES IDX 76 25 77 26 78 27 79 28 83 29 80 30 81 31 82 32 17 33 18 34
REMARK SMILES IDX 19 35 20 36 21 37 22 38 74 39 23 40 73 41 24 42 25 43 26 44
REMARK SMILES IDX 67 45 27 46 72 47 66 48 68 49 28 50 71 51 65 52 64 53 29 55
REMARK SMILES IDX 55 56 38 57 54 58 39 59 42 60 53 61 69 62 40 63 41 64 52 66
REMARK SMILES IDX 70 67 43 68 30 69 31 70 36 71 32 72 33 73 35 74 37 75 34 76
REMARK SMILES IDX 56 77 57 78 62 79 58 80 59 81 61 82 63 83 60 84 44 85 45 86
REMARK SMILES IDX 50 87 46 88 47 89 49 90 51 91 48 92
REMARK H PARENT 7 17 68 54 42 65
REMARK Flexibility Score: inf
ROOT
ATOM      1  C   UNL A   1      45.999  22.635  35.994  1.00  0.00     0.275 C 
ENDROOT
BRANCH   1   2
ATOM      2  O   UNL A   1      45.647  21.357  36.564  1.00  0.00    -0.457 OA
BRANCH   2   3
ATOM      3  C   UNL A   1      46.442  20.316  36.246  1.00  0.00     0.355 C 
ATOM      4  O   UNL A   1      46.282  19.556  35.298  1.00  0.00    -0.244 OA
BRANCH   3   5
ATOM      5  C   UNL A   1      47.573  20.115  37.211  1.00  0.00     0.132 C 
ATOM      6  C   UNL A   1      50.782  20.531  36.148  1.00  0.00     0.206 C 
ATOM      7  C   UNL A   1      49.544  21.441  36.453  1.00  0.00     0.253 C 
ATOM      8  C   UNL A   1      49.969  19.511  37.017  1.00  0.00     0.181 C 
ATOM      9  O   UNL A   1      49.311  22.626  36.531  1.00  0.00    -0.272 OA
ATOM     10  N   UNL A   1      48.811  20.318  36.675  1.00  0.00    -0.289 N 
ATOM     11  S   UNL A   1      50.197  19.592  38.814  1.00  0.00    -0.129 SA
ATOM     12  C   UNL A   1      48.576  18.887  39.187  1.00  0.00     0.106 C 
ATOM     13  C   UNL A   1      47.412  19.430  38.369  1.00  0.00    -0.019 C 
BRANCH   6  14
ATOM     14  N   UNL A   1      52.112  21.022  36.558  1.00  0.00    -0.336 N 
ATOM     15  C   UNL A   1      52.941  21.931  35.938  1.00  0.00     0.270 C 
ATOM     16  O   UNL A   1      53.968  22.258  36.528  1.00  0.00    -0.268 OA
ATOM     17  H   UNL A   1      52.458  20.644  37.398  1.00  0.00     0.164 HD
BRANCH  15  18
ATOM     18  C   UNL A   1      52.605  22.386  34.611  1.00  0.00     0.126 A 
ATOM     19  C   UNL A   1      50.644  24.203  32.129  1.00  0.00     0.069 C 
ATOM     20  C   UNL A   1      51.583  23.350  32.895  1.00  0.00     0.060 A 
ATOM     21  C   UNL A   1      52.184  23.620  34.142  1.00  0.00     0.059 A 
ATOM     22  N   UNL A   1      51.889  22.125  32.469  1.00  0.00    -0.178 NA
ATOM     23  N   UNL A   1      52.606  21.593  33.485  1.00  0.00    -0.263 N 
ATOM     24  C   UNL A   1      53.180  20.283  33.287  1.00  0.00     0.174 C 
ENDBRANCH  15  18
ENDBRANCH   6  14
BRANCH  13  25
ATOM     25  C   UNL A   1      46.076  18.991  38.925  1.00  0.00     0.111 C 
BRANCH  25  26
ATOM     26  S   UNL A   1      46.095  17.890  40.358  1.00  0.00    -0.089 SA
BRANCH  26  27
ATOM     27  C   UNL A   1      44.815  16.742  40.082  1.00  0.00     0.174 A 
ATOM     28  N   UNL A   1      44.508  16.280  38.890  1.00  0.00    -0.132 NA
ATOM     29  S   UNL A   1      43.775  16.208  41.334  1.00  0.00    -0.091 S 
ATOM     30  N   UNL A   1      43.403  15.451  38.922  1.00  0.00    -0.143 NA
ATOM     31  C   UNL A   1      42.898  15.346  40.135  1.00  0.00     0.115 A 
ATOM     32  C   UNL A   1      41.658  14.602  40.471  1.00  0.00     0.081 C 
ENDBRANCH  26  27
ENDBRANCH  25  26
ENDBRANCH  13  25
ENDBRANCH   3   5
ENDBRANCH   2   3
ENDBRANCH   1   2
BRANCH   1  33
ATOM     33  C   UNL A   1      44.810  23.585  36.068  1.00  0.00     0.275 C 
BRANCH  33  34
ATOM     34  O   UNL A   1      44.931  24.401  37.246  1.00  0.00    -0.458 OA
BRANCH  34  35
ATOM     35  C   UNL A   1      45.675  25.519  37.087  1.00  0.00     0.338 C 
ATOM     36  O   UNL A   1      46.860  25.657  37.333  1.00  0.00    -0.246 OA
BRANCH  35  37
ATOM     37  C   UNL A   1      44.832  26.593  36.537  1.00  0.00     0.060 A 
ATOM     38  C   UNL A   1      43.470  26.612  36.824  1.00  0.00     0.016 A 
ATOM     39  C   UNL A   1      45.361  27.464  35.590  1.00  0.00     0.016 A 
ATOM     40  C   UNL A   1      42.614  27.386  36.045  1.00  0.00     0.010 A 
ATOM     41  C   UNL A   1      44.511  28.346  34.913  1.00  0.00     0.010 A 
ATOM     42  C   UNL A   1      43.118  28.281  35.091  1.00  0.00    -0.014 A 
BRANCH  42  43
ATOM     43  C   UNL A   1      42.192  29.120  34.273  1.00  0.00     0.031 A 
ATOM     44  C   UNL A   1      41.596  30.388  34.839  1.00  0.00     0.074 A 
ATOM     45  C   UNL A   1      41.880  28.755  33.012  1.00  0.00     0.049 A 
ATOM     46  N   UNL A   1      40.613  31.119  34.372  1.00  0.00    -0.248 NA
ATOM     47  C   UNL A   1      42.164  30.888  36.100  1.00  0.00     0.031 C 
ATOM     48  C   UNL A   1      42.408  27.583  32.311  1.00  0.00     0.029 A 
ATOM     49  N   UNL A   1      41.044  29.336  32.090  1.00  0.00    -0.354 N 
ATOM     50  C   UNL A   1      40.399  32.119  35.316  1.00  0.00     0.074 A 
ATOM     51  C   UNL A   1      41.355  31.901  36.380  1.00  0.00     0.031 C 
ATOM     52  C   UNL A   1      41.932  27.563  31.060  1.00  0.00     0.029 A 
ATOM     53  C   UNL A   1      40.966  28.641  30.907  1.00  0.00     0.049 A 
ATOM     54  H   UNL A   1      40.548  30.170  32.259  1.00  0.00     0.167 HD
ATOM     55  C   UNL A   1      39.484  33.120  35.296  1.00  0.00     0.037 A 
ATOM     56  C   UNL A   1      40.164  28.800  29.838  1.00  0.00     0.037 A 
ATOM     57  C   UNL A   1      38.579  33.369  34.199  1.00  0.00     0.049 A 
ATOM     58  C   UNL A   1      39.137  29.892  29.852  1.00  0.00     0.074 A 
ATOM     59  C   UNL A   1      37.636  34.375  34.071  1.00  0.00     0.029 A 
ATOM     60  N   UNL A   1      38.516  32.617  33.037  1.00  0.00    -0.354 N 
ATOM     61  N   UNL A   1      38.898  30.787  30.779  1.00  0.00    -0.248 NA
ATOM     62  C   UNL A   1      38.252  29.980  28.683  1.00  0.00     0.031 C 
ATOM     63  C   UNL A   1      36.971  34.202  32.852  1.00  0.00     0.029 A 
ATOM     64  C   UNL A   1      37.537  33.123  32.195  1.00  0.00     0.049 A 
ATOM     65  H   UNL A   1      39.084  31.836  32.838  1.00  0.00     0.167 HD
ATOM     66  C   UNL A   1      37.843  31.552  30.302  1.00  0.00     0.074 A 
ATOM     67  C   UNL A   1      37.505  31.029  28.993  1.00  0.00     0.031 C 
ATOM     68  C   UNL A   1      37.208  32.591  30.897  1.00  0.00     0.037 A 
BRANCH  55  69
ATOM     69  C   UNL A   1      39.379  34.001  36.511  1.00  0.00     0.057 A 
ATOM     70  C   UNL A   1      38.654  33.631  37.650  1.00  0.00     0.134 A 
ATOM     71  C   UNL A   1      40.058  35.227  36.553  1.00  0.00     0.134 A 
ATOM     72  F   UNL A   1      37.973  32.476  37.678  1.00  0.00    -0.206 F 
ATOM     73  C   UNL A   1      38.585  34.459  38.775  1.00  0.00     0.040 A 
ATOM     74  C   UNL A   1      40.020  36.050  37.681  1.00  0.00     0.040 A 
ATOM     75  F   UNL A   1      40.782  35.642  35.501  1.00  0.00    -0.206 F 
ATOM     76  C   UNL A   1      39.276  35.669  38.794  1.00  0.00     0.006 A 
ENDBRANCH  55  69
BRANCH  56  77
ATOM     77  C   UNL A   1      40.270  27.859  28.694  1.00  0.00     0.057 A 
ATOM     78  C   UNL A   1      41.027  28.178  27.561  1.00  0.00     0.134 A 
ATOM     79  C   UNL A   1      39.641  26.607  28.718  1.00  0.00     0.134 A 
ATOM     80  F   UNL A   1      41.635  29.369  27.469  1.00  0.00    -0.206 F 
ATOM     81  C   UNL A   1      41.152  27.287  26.494  1.00  0.00     0.040 A 
ATOM     82  C   UNL A   1      39.785  25.694  27.673  1.00  0.00     0.040 A 
ATOM     83  F   UNL A   1      38.905  26.238  29.777  1.00  0.00    -0.206 F 
ATOM     84  C   UNL A   1      40.539  26.036  26.554  1.00  0.00     0.006 A 
ENDBRANCH  56  77
BRANCH  68  85
ATOM     85  C   UNL A   1      36.109  33.251  30.118  1.00  0.00     0.057 A 
ATOM     86  C   UNL A   1      34.757  33.018  30.403  1.00  0.00     0.134 A 
ATOM     87  C   UNL A   1      36.408  34.139  29.077  1.00  0.00     0.134 A 
ATOM     88  F   UNL A   1      34.403  32.166  31.377  1.00  0.00    -0.206 F 
ATOM     89  C   UNL A   1      33.742  33.625  29.661  1.00  0.00     0.040 A 
ATOM     90  C   UNL A   1      35.402  34.771  28.347  1.00  0.00     0.040 A 
ATOM     91  F   UNL A   1      37.682  34.409  28.757  1.00  0.00    -0.206 F 
ATOM     92  C   UNL A   1      34.063  34.508  28.633  1.00  0.00     0.006 A 
ENDBRANCH  68  85
ENDBRANCH  42  43
ENDBRANCH  35  37
ENDBRANCH  34  35
ENDBRANCH  33  34
ENDBRANCH   1  33
TORSDOF 16
ENDMDL
MODEL 3
REMARK VINA RESULT:     -10.4      8.224     14.632
REMARK SMILES Cc1cc(C(=O)N[C@@H]2C(=O)N3C(C(=O)OCCOC(=O)c4ccc(-c5c6nc(c(-c7c(F)cccc7F)c7ccc([nH]7)c(-c7c(F)cccc7F)c7nc(c(-c8c(F)cccc8F)c8ccc5[nH]8)C=C7)C=C6)cc4)=C(CSc4nnc(C)s4)CS[C@H]23)n(C)n1
REMARK SMILES IDX 16 1 15 2 13 3 14 4 12 5 8 6 9 7 86 8 10 9 11 10 85 11 84 12
REMARK SMILES IDX 75 13 7 14 5 15 6 16 4 18 1 19 2 20 3 21 89 22 87 23 88 24
REMARK SMILES IDX 76 25 77 26 78 27 79 28 83 29 80 30 81 31 82 32 17 33 18 34
REMARK SMILES IDX 19 35 20 36 21 37 22 38 74 39 23 40 73 41 24 42 25 43 26 44
REMARK SMILES IDX 67 45 27 46 72 47 66 48 68 49 28 50 71 51 65 52 64 53 29 55
REMARK SMILES IDX 55 56 38 57 54 58 39 59 42 60 53 61 69 62 40 63 41 64 52 66
REMARK SMILES IDX 70 67 43 68 30 69 31 70 36 71 32 72 33 73 35 74 37 75 34 76
REMARK SMILES IDX 56 77 57 78 62 79 58 80 59 81 61 82 63 83 60 84 44 85 45 86
REMARK SMILES IDX 50 87 46 88 47 89 49 90 51 91 48 92
REMARK H PARENT 7 17 68 54 42 65
REMARK Flexibility Score: inf
ROOT
ATOM      1  C   UNL A   1      50.300  20.850  34.025  1.00  0.00     0.275 C 
ENDROOT
BRANCH   1   2
ATOM      2  O   UNL A   1      48.974  21.418  34.017  1.00  0.00    -0.457 OA
BRANCH   2   3
ATOM      3  C   UNL A   1      47.986  20.652  34.521  1.00  0.00     0.355 C 
ATOM      4  O   UNL A   1      47.509  19.657  33.987  1.00  0.00    -0.244 OA
BRANCH   3   5
ATOM      5  C   UNL A   1      47.453  21.155  35.830  1.00  0.00     0.132 C 
ATOM      6  C   UNL A   1      47.753  19.222  38.617  1.00  0.00     0.206 C 
ATOM      7  C   UNL A   1      48.697  20.064  37.695  1.00  0.00     0.253 C 
ATOM      8  C   UNL A   1      46.656  20.103  37.927  1.00  0.00     0.181 C 
ATOM      9  O   UNL A   1      49.852  20.426  37.700  1.00  0.00    -0.272 OA
ATOM     10  N   UNL A   1      47.638  20.299  36.876  1.00  0.00    -0.289 N 
ATOM     11  S   UNL A   1      46.304  21.718  38.674  1.00  0.00    -0.129 SA
ATOM     12  C   UNL A   1      45.711  22.452  37.133  1.00  0.00     0.106 C 
ATOM     13  C   UNL A   1      46.546  22.158  35.894  1.00  0.00    -0.019 C 
BRANCH   6  14
ATOM     14  N   UNL A   1      47.993  19.270  40.073  1.00  0.00    -0.336 N 
ATOM     15  C   UNL A   1      47.363  18.585  41.090  1.00  0.00     0.270 C 
ATOM     16  O   UNL A   1      47.809  18.718  42.226  1.00  0.00    -0.268 OA
ATOM     17  H   UNL A   1      48.709  19.881  40.360  1.00  0.00     0.164 HD
BRANCH  15  18
ATOM     18  C   UNL A   1      46.179  17.821  40.782  1.00  0.00     0.126 A 
ATOM     19  C   UNL A   1      43.909  15.953  38.622  1.00  0.00     0.069 C 
ATOM     20  C   UNL A   1      44.609  16.684  39.705  1.00  0.00     0.060 A 
ATOM     21  C   UNL A   1      45.989  16.698  39.993  1.00  0.00     0.059 A 
ATOM     22  N   UNL A   1      43.943  17.519  40.502  1.00  0.00    -0.178 NA
ATOM     23  N   UNL A   1      44.911  18.123  41.227  1.00  0.00    -0.263 N 
ATOM     24  C   UNL A   1      44.498  19.030  42.273  1.00  0.00     0.174 C 
ENDBRANCH  15  18
ENDBRANCH   6  14
BRANCH  13  25
ATOM     25  C   UNL A   1      46.138  23.021  34.720  1.00  0.00     0.111 C 
BRANCH  25  26
ATOM     26  S   UNL A   1      44.489  22.757  34.031  1.00  0.00    -0.089 SA
BRANCH  26  27
ATOM     27  C   UNL A   1      43.545  24.131  34.539  1.00  0.00     0.174 A 
ATOM     28  N   UNL A   1      42.527  24.037  35.364  1.00  0.00    -0.132 NA
ATOM     29  S   UNL A   1      43.802  25.703  33.910  1.00  0.00    -0.091 S 
ATOM     30  N   UNL A   1      41.890  25.251  35.543  1.00  0.00    -0.143 NA
ATOM     31  C   UNL A   1      42.434  26.207  34.819  1.00  0.00     0.115 A 
ATOM     32  C   UNL A   1      41.916  27.596  34.727  1.00  0.00     0.081 C 
ENDBRANCH  26  27
ENDBRANCH  25  26
ENDBRANCH  13  25
ENDBRANCH   3   5
ENDBRANCH   2   3
ENDBRANCH   1   2
BRANCH   1  33
ATOM     33  C   UNL A   1      51.336  21.934  33.762  1.00  0.00     0.275 C 
BRANCH  33  34
ATOM     34  O   UNL A   1      50.959  22.672  32.586  1.00  0.00    -0.458 OA
BRANCH  34  35
ATOM     35  C   UNL A   1      51.340  23.970  32.586  1.00  0.00     0.338 C 
ATOM     36  O   UNL A   1      52.450  24.412  32.825  1.00  0.00    -0.246 OA
BRANCH  35  37
ATOM     37  C   UNL A   1      50.190  24.816  32.230  1.00  0.00     0.060 A 
ATOM     38  C   UNL A   1      49.127  24.941  33.120  1.00  0.00     0.016 A 
ATOM     39  C   UNL A   1      50.088  25.328  30.940  1.00  0.00     0.016 A 
ATOM     40  C   UNL A   1      47.904  25.430  32.666  1.00  0.00     0.010 A 
ATOM     41  C   UNL A   1      48.902  25.951  30.537  1.00  0.00     0.010 A 
ATOM     42  C   UNL A   1      47.774  25.962  31.376  1.00  0.00    -0.014 A 
BRANCH  42  43
ATOM     43  C   UNL A   1      46.463  26.501  30.905  1.00  0.00     0.031 A 
ATOM     44  C   UNL A   1      46.000  27.878  31.319  1.00  0.00     0.074 A 
ATOM     45  C   UNL A   1      45.675  25.760  30.099  1.00  0.00     0.049 A 
ATOM     46  N   UNL A   1      44.814  28.423  31.198  1.00  0.00    -0.248 NA
ATOM     47  C   UNL A   1      46.993  28.749  31.967  1.00  0.00     0.031 C 
ATOM     48  C   UNL A   1      46.001  24.431  29.578  1.00  0.00     0.029 A 
ATOM     49  N   UNL A   1      44.435  26.020  29.568  1.00  0.00    -0.354 N 
ATOM     50  C   UNL A   1      44.899  29.665  31.819  1.00  0.00     0.074 A 
ATOM     51  C   UNL A   1      46.254  29.794  32.313  1.00  0.00     0.031 C 
ATOM     52  C   UNL A   1      45.022  24.020  28.764  1.00  0.00     0.029 A 
ATOM     53  C   UNL A   1      43.939  24.992  28.804  1.00  0.00     0.049 A 
ATOM     54  H   UNL A   1      43.948  26.864  29.719  1.00  0.00     0.167 HD
ATOM     55  C   UNL A   1      43.933  30.606  31.967  1.00  0.00     0.037 A 
ATOM     56  C   UNL A   1      42.727  24.807  28.248  1.00  0.00     0.037 A 
ATOM     57  C   UNL A   1      42.605  30.497  31.413  1.00  0.00     0.049 A 
ATOM     58  C   UNL A   1      41.664  25.843  28.454  1.00  0.00     0.074 A 
ATOM     59  C   UNL A   1      41.564  31.409  31.482  1.00  0.00     0.029 A 
ATOM     60  N   UNL A   1      42.140  29.420  30.675  1.00  0.00    -0.354 N 
ATOM     61  N   UNL A   1      41.735  26.981  29.100  1.00  0.00    -0.248 NA
ATOM     62  C   UNL A   1      40.345  25.558  27.874  1.00  0.00     0.031 C 
ATOM     63  C   UNL A   1      40.456  30.861  30.826  1.00  0.00     0.029 A 
ATOM     64  C   UNL A   1      40.822  29.634  30.300  1.00  0.00     0.049 A 
ATOM     65  H   UNL A   1      42.668  28.620  30.449  1.00  0.00     0.167 HD
ATOM     66  C   UNL A   1      40.476  27.554  28.996  1.00  0.00     0.074 A 
ATOM     67  C   UNL A   1      39.668  26.648  28.205  1.00  0.00     0.031 C 
ATOM     68  C   UNL A   1      40.028  28.723  29.515  1.00  0.00     0.037 A 
BRANCH  55  69
ATOM     69  C   UNL A   1      44.255  31.821  32.794  1.00  0.00     0.057 A 
ATOM     70  C   UNL A   1      44.664  33.033  32.226  1.00  0.00     0.134 A 
ATOM     71  C   UNL A   1      44.105  31.784  34.188  1.00  0.00     0.134 A 
ATOM     72  F   UNL A   1      44.835  33.140  30.900  1.00  0.00    -0.206 F 
ATOM     73  C   UNL A   1      44.940  34.155  33.014  1.00  0.00     0.040 A 
ATOM     74  C   UNL A   1      44.349  32.905  34.983  1.00  0.00     0.040 A 
ATOM     75  F   UNL A   1      43.705  30.658  34.801  1.00  0.00    -0.206 F 
ATOM     76  C   UNL A   1      44.775  34.094  34.396  1.00  0.00     0.006 A 
ENDBRANCH  55  69
BRANCH  56  77
ATOM     77  C   UNL A   1      42.447  23.557  27.496  1.00  0.00     0.057 A 
ATOM     78  C   UNL A   1      41.941  22.422  28.140  1.00  0.00     0.134 A 
ATOM     79  C   UNL A   1      42.650  23.476  26.112  1.00  0.00     0.134 A 
ATOM     80  F   UNL A   1      41.747  22.429  29.467  1.00  0.00    -0.206 F 
ATOM     81  C   UNL A   1      41.651  21.253  27.436  1.00  0.00     0.040 A 
ATOM     82  C   UNL A   1      42.332  22.325  25.390  1.00  0.00     0.040 A 
ATOM     83  F   UNL A   1      43.126  24.531  25.434  1.00  0.00    -0.206 F 
ATOM     84  C   UNL A   1      41.835  21.207  26.054  1.00  0.00     0.006 A 
ENDBRANCH  56  77
BRANCH  68  85
ATOM     85  C   UNL A   1      38.609  29.102  29.208  1.00  0.00     0.057 A 
ATOM     86  C   UNL A   1      38.223  29.559  27.941  1.00  0.00     0.134 A 
ATOM     87  C   UNL A   1      37.615  28.996  30.189  1.00  0.00     0.134 A 
ATOM     88  F   UNL A   1      39.130  29.700  26.962  1.00  0.00    -0.206 F 
ATOM     89  C   UNL A   1      36.903  29.925  27.670  1.00  0.00     0.040 A 
ATOM     90  C   UNL A   1      36.288  29.332  29.921  1.00  0.00     0.040 A 
ATOM     91  F   UNL A   1      37.917  28.559  31.420  1.00  0.00    -0.206 F 
ATOM     92  C   UNL A   1      35.930  29.806  28.661  1.00  0.00     0.006 A 
ENDBRANCH  68  85
ENDBRANCH  42  43
ENDBRANCH  35  37
ENDBRANCH  34  35
ENDBRANCH  33  34
ENDBRANCH   1  33
TORSDOF 16
ENDMDL
