MODEL 1
REMARK VINA RESULT:     -12.8      0.000      0.000
REMARK SMILES O=C(OCCOC(=O)C1(Cc2ccccc2Cl)CCN(c2ncnc3[nH]ccc23)CC1)c1ccc(-c2c3nc(c(-c4c(F)cccc4F)c4ccc([nH]4)c(-c4c(F)cccc4F)c4nc(c(-c5c(F)cccc5F)c5ccc2[nH]5)C=C4)C=C3)cc1
REMARK SMILES IDX 4 1 3 2 2 3 1 4 32 5 33 6 85 7 34 8 84 9 35 10 36 11 37 12
REMARK SMILES IDX 78 13 38 14 83 15 77 16 79 17 39 18 82 19 76 20 75 21 40 23
REMARK SMILES IDX 66 24 49 25 65 26 50 27 53 28 64 29 80 30 51 31 52 32 63 34
REMARK SMILES IDX 81 35 54 36 41 37 42 38 47 39 43 40 44 41 46 42 48 43 45 44
REMARK SMILES IDX 67 45 68 46 73 47 69 48 70 49 72 50 74 51 71 52 55 53 56 54
REMARK SMILES IDX 61 55 57 56 58 57 60 58 62 59 59 60 5 61 6 62 7 63 8 64 9 65
REMARK SMILES IDX 18 66 31 67 19 68 30 69 20 70 10 71 11 72 12 73 16 74 13 75
REMARK SMILES IDX 15 76 17 77 14 78 21 79 22 80 29 81 23 82 25 83 28 84 24 85
REMARK SMILES IDX 26 86 27 87
REMARK H PARENT 79 22 53 33 26 88
REMARK Flexibility Score: inf
ROOT
ATOM      1  C   UNL A   1      32.532  29.433  27.245  1.00  0.00     0.275 C 
ENDROOT
BRANCH   1   2
ATOM      2  O   UNL A   1      33.953  29.387  27.296  1.00  0.00    -0.458 OA
BRANCH   2   3
ATOM      3  C   UNL A   1      34.782  30.331  27.770  1.00  0.00     0.338 C 
ATOM      4  O   UNL A   1      34.428  31.511  27.655  1.00  0.00    -0.246 OA
BRANCH   3   5
ATOM      5  C   UNL A   1      36.114  30.056  28.419  1.00  0.00     0.060 A 
ATOM      6  C   UNL A   1      36.398  29.602  29.723  1.00  0.00     0.016 A 
ATOM      7  C   UNL A   1      37.196  30.182  27.551  1.00  0.00     0.016 A 
ATOM      8  C   UNL A   1      37.683  29.160  30.109  1.00  0.00     0.010 A 
ATOM      9  C   UNL A   1      38.452  29.713  27.921  1.00  0.00     0.010 A 
ATOM     10  C   UNL A   1      38.722  29.152  29.192  1.00  0.00    -0.014 A 
BRANCH  10  11
ATOM     11  C   UNL A   1      40.088  28.575  29.422  1.00  0.00     0.031 A 
ATOM     12  C   UNL A   1      41.163  29.554  29.816  1.00  0.00     0.074 A 
ATOM     13  C   UNL A   1      40.464  27.326  29.055  1.00  0.00     0.049 A 
ATOM     14  N   UNL A   1      42.456  29.485  29.655  1.00  0.00    -0.248 NA
ATOM     15  C   UNL A   1      40.681  30.855  30.321  1.00  0.00     0.031 C 
ATOM     16  C   UNL A   1      39.600  26.247  28.574  1.00  0.00     0.029 A 
ATOM     17  N   UNL A   1      41.732  26.792  28.935  1.00  0.00    -0.354 N 
ATOM     18  C   UNL A   1      42.900  30.763  29.957  1.00  0.00     0.074 A 
ATOM     19  C   UNL A   1      41.734  31.606  30.054  1.00  0.00     0.031 C 
ATOM     20  C   UNL A   1      40.360  25.230  28.122  1.00  0.00     0.029 A 
ATOM     21  C   UNL A   1      41.767  25.559  28.319  1.00  0.00     0.049 A 
ATOM     22  H   UNL A   1      42.539  27.251  29.259  1.00  0.00     0.167 HD
ATOM     23  C   UNL A   1      44.141  31.184  30.285  1.00  0.00     0.037 A 
ATOM     24  C   UNL A   1      42.813  24.781  27.964  1.00  0.00     0.037 A 
ATOM     25  C   UNL A   1      45.273  30.311  30.326  1.00  0.00     0.049 A 
ATOM     26  C   UNL A   1      44.208  25.210  28.346  1.00  0.00     0.074 A 
ATOM     27  C   UNL A   1      46.541  30.557  30.808  1.00  0.00     0.029 A 
ATOM     28  N   UNL A   1      45.247  29.000  29.880  1.00  0.00    -0.354 N 
ATOM     29  N   UNL A   1      44.617  26.359  28.824  1.00  0.00    -0.248 NA
ATOM     30  C   UNL A   1      45.279  24.208  28.207  1.00  0.00     0.031 C 
ATOM     31  C   UNL A   1      47.300  29.397  30.624  1.00  0.00     0.029 A 
ATOM     32  C   UNL A   1      46.485  28.421  30.068  1.00  0.00     0.049 A 
ATOM     33  H   UNL A   1      44.464  28.550  29.488  1.00  0.00     0.167 HD
ATOM     34  C   UNL A   1      45.960  26.186  29.138  1.00  0.00     0.074 A 
ATOM     35  C   UNL A   1      46.314  24.840  28.746  1.00  0.00     0.031 C 
ATOM     36  C   UNL A   1      46.809  27.059  29.732  1.00  0.00     0.037 A 
BRANCH  23  37
ATOM     37  C   UNL A   1      44.260  32.616  30.714  1.00  0.00     0.057 A 
ATOM     38  C   UNL A   1      44.018  33.006  32.043  1.00  0.00     0.134 A 
ATOM     39  C   UNL A   1      44.499  33.626  29.779  1.00  0.00     0.134 A 
ATOM     40  F   UNL A   1      43.779  32.086  32.991  1.00  0.00    -0.206 F 
ATOM     41  C   UNL A   1      43.893  34.347  32.400  1.00  0.00     0.040 A 
ATOM     42  C   UNL A   1      44.431  34.974  30.139  1.00  0.00     0.040 A 
ATOM     43  F   UNL A   1      44.766  33.325  28.500  1.00  0.00    -0.206 F 
ATOM     44  C   UNL A   1      44.096  35.335  31.443  1.00  0.00     0.006 A 
ENDBRANCH  23  37
BRANCH  24  45
ATOM     45  C   UNL A   1      42.600  23.454  27.323  1.00  0.00     0.057 A 
ATOM     46  C   UNL A   1      42.351  22.317  28.103  1.00  0.00     0.134 A 
ATOM     47  C   UNL A   1      42.703  23.272  25.939  1.00  0.00     0.134 A 
ATOM     48  F   UNL A   1      42.266  22.424  29.437  1.00  0.00    -0.206 F 
ATOM     49  C   UNL A   1      42.244  21.045  27.538  1.00  0.00     0.040 A 
ATOM     50  C   UNL A   1      42.584  22.005  25.358  1.00  0.00     0.040 A 
ATOM     51  F   UNL A   1      42.936  24.318  25.134  1.00  0.00    -0.206 F 
ATOM     52  C   UNL A   1      42.363  20.885  26.159  1.00  0.00     0.006 A 
ENDBRANCH  24  45
BRANCH  36  53
ATOM     53  C   UNL A   1      48.173  26.581  30.118  1.00  0.00     0.057 A 
ATOM     54  C   UNL A   1      48.421  25.929  31.329  1.00  0.00     0.134 A 
ATOM     55  C   UNL A   1      49.220  26.648  29.187  1.00  0.00     0.134 A 
ATOM     56  F   UNL A   1      47.462  25.843  32.264  1.00  0.00    -0.206 F 
ATOM     57  C   UNL A   1      49.661  25.347  31.596  1.00  0.00     0.040 A 
ATOM     58  C   UNL A   1      50.454  26.048  29.431  1.00  0.00     0.040 A 
ATOM     59  F   UNL A   1      49.039  27.255  28.003  1.00  0.00    -0.206 F 
ATOM     60  C   UNL A   1      50.675  25.391  30.639  1.00  0.00     0.006 A 
ENDBRANCH  36  53
ENDBRANCH  10  11
ENDBRANCH   3   5
ENDBRANCH   2   3
ENDBRANCH   1   2
BRANCH   1  61
ATOM     61  C   UNL A   1      31.959  29.796  25.871  1.00  0.00     0.274 C 
BRANCH  61  62
ATOM     62  O   UNL A   1      31.348  28.741  25.074  1.00  0.00    -0.462 OA
BRANCH  62  63
ATOM     63  C   UNL A   1      32.126  28.247  24.065  1.00  0.00     0.312 C 
ATOM     64  O   UNL A   1      33.015  28.919  23.540  1.00  0.00    -0.252 OA
BRANCH  63  65
ATOM     65  C   UNL A   1      31.695  26.873  23.486  1.00  0.00     0.075 C 
ATOM     66  C   UNL A   1      30.894  25.900  24.366  1.00  0.00     0.040 C 
ATOM     67  C   UNL A   1      33.002  26.135  23.015  1.00  0.00     0.040 C 
ATOM     68  C   UNL A   1      31.653  25.002  25.296  1.00  0.00     0.119 C 
ATOM     69  C   UNL A   1      33.738  25.354  24.135  1.00  0.00     0.119 C 
ATOM     70  N   UNL A   1      32.805  24.374  24.687  1.00  0.00    -0.356 N 
BRANCH  65  71
ATOM     71  C   UNL A   1      30.750  27.225  22.257  1.00  0.00     0.056 C 
BRANCH  71  72
ATOM     72  C   UNL A   1      29.742  28.359  22.525  1.00  0.00    -0.028 A 
ATOM     73  C   UNL A   1      30.054  29.675  22.117  1.00  0.00     0.005 A 
ATOM     74  C   UNL A   1      28.458  28.145  23.044  1.00  0.00     0.044 A 
ATOM     75  C   UNL A   1      29.076  30.671  22.042  1.00  0.00     0.000 A 
ATOM     76  C   UNL A   1      27.471  29.138  22.950  1.00  0.00     0.021 A 
ATOM     77  Cl  UNL A   1      28.043  26.697  23.886  1.00  0.00    -0.084 Cl
ATOM     78  C   UNL A   1      27.771  30.389  22.415  1.00  0.00     0.002 A 
ENDBRANCH  71  72
ENDBRANCH  65  71
BRANCH  70  79
ATOM     79  C   UNL A   1      33.301  23.365  25.536  1.00  0.00     0.141 A 
ATOM     80  N   UNL A   1      33.954  23.689  26.686  1.00  0.00    -0.219 NA
ATOM     81  C   UNL A   1      33.046  21.985  25.311  1.00  0.00     0.061 A 
ATOM     82  C   UNL A   1      34.287  22.701  27.550  1.00  0.00     0.226 A 
ATOM     83  C   UNL A   1      33.441  21.090  26.296  1.00  0.00     0.142 A 
ATOM     84  C   UNL A   1      32.428  21.201  24.290  1.00  0.00     0.033 A 
ATOM     85  N   UNL A   1      34.062  21.382  27.446  1.00  0.00    -0.218 NA
ATOM     86  N   UNL A   1      33.073  19.827  25.909  1.00  0.00    -0.346 N 
ATOM     87  C   UNL A   1      32.467  19.878  24.680  1.00  0.00     0.085 A 
ATOM     88  H   UNL A   1      33.221  19.008  26.436  1.00  0.00     0.167 HD
ENDBRANCH  70  79
ENDBRANCH  63  65
ENDBRANCH  62  63
ENDBRANCH  61  62
ENDBRANCH   1  61
TORSDOF 14
ENDMDL
MODEL 2
REMARK VINA RESULT:     -12.8      3.455      6.971
REMARK SMILES O=C(OCCOC(=O)C1(Cc2ccccc2Cl)CCN(c2ncnc3[nH]ccc23)CC1)c1ccc(-c2c3nc(c(-c4c(F)cccc4F)c4ccc([nH]4)c(-c4c(F)cccc4F)c4nc(c(-c5c(F)cccc5F)c5ccc2[nH]5)C=C4)C=C3)cc1
REMARK SMILES IDX 4 1 3 2 2 3 1 4 32 5 33 6 85 7 34 8 84 9 35 10 36 11 37 12
REMARK SMILES IDX 78 13 38 14 83 15 77 16 79 17 39 18 82 19 76 20 75 21 40 23
REMARK SMILES IDX 66 24 49 25 65 26 50 27 53 28 64 29 80 30 51 31 52 32 63 34
REMARK SMILES IDX 81 35 54 36 41 37 42 38 47 39 43 40 44 41 46 42 48 43 45 44
REMARK SMILES IDX 67 45 68 46 73 47 69 48 70 49 72 50 74 51 71 52 55 53 56 54
REMARK SMILES IDX 61 55 57 56 58 57 60 58 62 59 59 60 5 61 6 62 7 63 8 64 9 65
REMARK SMILES IDX 18 66 31 67 19 68 30 69 20 70 10 71 11 72 12 73 16 74 13 75
REMARK SMILES IDX 15 76 17 77 14 78 21 79 22 80 29 81 23 82 25 83 28 84 24 85
REMARK SMILES IDX 26 86 27 87
REMARK H PARENT 79 22 53 33 26 88
REMARK Flexibility Score: inf
ROOT
ATOM      1  C   UNL A   1      31.622  31.317  26.101  1.00  0.00     0.275 C 
ENDROOT
BRANCH   1   2
ATOM      2  O   UNL A   1      31.719  32.035  27.326  1.00  0.00    -0.458 OA
BRANCH   2   3
ATOM      3  C   UNL A   1      32.586  33.015  27.629  1.00  0.00     0.338 C 
ATOM      4  O   UNL A   1      32.171  34.179  27.586  1.00  0.00    -0.246 OA
BRANCH   3   5
ATOM      5  C   UNL A   1      34.029  32.796  28.006  1.00  0.00     0.060 A 
ATOM      6  C   UNL A   1      35.102  33.710  28.008  1.00  0.00     0.016 A 
ATOM      7  C   UNL A   1      34.288  31.527  28.518  1.00  0.00     0.016 A 
ATOM      8  C   UNL A   1      36.344  33.421  28.617  1.00  0.00     0.010 A 
ATOM      9  C   UNL A   1      35.497  31.256  29.148  1.00  0.00     0.010 A 
ATOM     10  C   UNL A   1      36.541  32.205  29.253  1.00  0.00    -0.014 A 
BRANCH  10  11
ATOM     11  C   UNL A   1      37.748  31.827  30.062  1.00  0.00     0.031 A 
ATOM     12  C   UNL A   1      38.586  30.702  29.514  1.00  0.00     0.074 A 
ATOM     13  C   UNL A   1      37.975  32.233  31.334  1.00  0.00     0.049 A 
ATOM     14  N   UNL A   1      39.375  29.868  30.135  1.00  0.00    -0.248 NA
ATOM     15  C   UNL A   1      38.374  30.390  28.087  1.00  0.00     0.031 C 
ATOM     16  C   UNL A   1      37.238  33.252  32.083  1.00  0.00     0.029 A 
ATOM     17  N   UNL A   1      38.859  31.732  32.270  1.00  0.00    -0.354 N 
ATOM     18  C   UNL A   1      39.661  28.905  29.182  1.00  0.00     0.074 A 
ATOM     19  C   UNL A   1      38.774  29.132  28.067  1.00  0.00     0.031 C 
ATOM     20  C   UNL A   1      37.627  33.231  33.373  1.00  0.00     0.029 A 
ATOM     21  C   UNL A   1      38.674  32.230  33.542  1.00  0.00     0.049 A 
ATOM     22  H   UNL A   1      39.559  31.077  32.048  1.00  0.00     0.167 HD
ATOM     23  C   UNL A   1      40.670  28.005  29.147  1.00  0.00     0.037 A 
ATOM     24  C   UNL A   1      39.284  31.920  34.706  1.00  0.00     0.037 A 
ATOM     25  C   UNL A   1      41.635  27.879  30.194  1.00  0.00     0.049 A 
ATOM     26  C   UNL A   1      40.435  30.944  34.694  1.00  0.00     0.074 A 
ATOM     27  C   UNL A   1      42.802  27.144  30.215  1.00  0.00     0.029 A 
ATOM     28  N   UNL A   1      41.542  28.540  31.408  1.00  0.00    -0.354 N 
ATOM     29  N   UNL A   1      40.844  30.163  33.724  1.00  0.00    -0.248 NA
ATOM     30  C   UNL A   1      41.256  30.859  35.914  1.00  0.00     0.031 C 
ATOM     31  C   UNL A   1      43.404  27.336  31.462  1.00  0.00     0.029 A 
ATOM     32  C   UNL A   1      42.630  28.224  32.194  1.00  0.00     0.049 A 
ATOM     33  H   UNL A   1      40.809  29.144  31.669  1.00  0.00     0.167 HD
ATOM     34  C   UNL A   1      42.020  29.576  34.179  1.00  0.00     0.074 A 
ATOM     35  C   UNL A   1      42.232  30.048  35.529  1.00  0.00     0.031 C 
ATOM     36  C   UNL A   1      42.863  28.749  33.514  1.00  0.00     0.037 A 
BRANCH  23  37
ATOM     37  C   UNL A   1      40.793  27.200  27.888  1.00  0.00     0.057 A 
ATOM     38  C   UNL A   1      40.240  25.911  27.785  1.00  0.00     0.134 A 
ATOM     39  C   UNL A   1      41.566  27.658  26.818  1.00  0.00     0.134 A 
ATOM     40  F   UNL A   1      39.490  25.409  28.780  1.00  0.00    -0.206 F 
ATOM     41  C   UNL A   1      40.547  25.067  26.720  1.00  0.00     0.040 A 
ATOM     42  C   UNL A   1      41.833  26.839  25.719  1.00  0.00     0.040 A 
ATOM     43  F   UNL A   1      42.099  28.888  26.836  1.00  0.00    -0.206 F 
ATOM     44  C   UNL A   1      41.351  25.531  25.684  1.00  0.00     0.006 A 
ENDBRANCH  23  37
BRANCH  24  45
ATOM     45  C   UNL A   1      38.928  32.621  35.970  1.00  0.00     0.057 A 
ATOM     46  C   UNL A   1      39.416  33.908  36.234  1.00  0.00     0.134 A 
ATOM     47  C   UNL A   1      38.157  32.012  36.966  1.00  0.00     0.134 A 
ATOM     48  F   UNL A   1      40.181  34.535  35.327  1.00  0.00    -0.206 F 
ATOM     49  C   UNL A   1      39.179  34.551  37.451  1.00  0.00     0.040 A 
ATOM     50  C   UNL A   1      37.900  32.651  38.185  1.00  0.00     0.040 A 
ATOM     51  F   UNL A   1      37.656  30.783  36.778  1.00  0.00    -0.206 F 
ATOM     52  C   UNL A   1      38.420  33.921  38.433  1.00  0.00     0.006 A 
ENDBRANCH  24  45
BRANCH  36  53
ATOM     53  C   UNL A   1      44.160  28.377  34.162  1.00  0.00     0.057 A 
ATOM     54  C   UNL A   1      44.322  27.191  34.881  1.00  0.00     0.134 A 
ATOM     55  C   UNL A   1      45.301  29.159  33.926  1.00  0.00     0.134 A 
ATOM     56  F   UNL A   1      43.266  26.407  35.147  1.00  0.00    -0.206 F 
ATOM     57  C   UNL A   1      45.579  26.786  35.335  1.00  0.00     0.040 A 
ATOM     58  C   UNL A   1      46.564  28.752  34.351  1.00  0.00     0.040 A 
ATOM     59  F   UNL A   1      45.209  30.305  33.233  1.00  0.00    -0.206 F 
ATOM     60  C   UNL A   1      46.706  27.558  35.055  1.00  0.00     0.006 A 
ENDBRANCH  36  53
ENDBRANCH  10  11
ENDBRANCH   3   5
ENDBRANCH   2   3
ENDBRANCH   1   2
BRANCH   1  61
ATOM     61  C   UNL A   1      32.000  29.836  26.204  1.00  0.00     0.274 C 
BRANCH  61  62
ATOM     62  O   UNL A   1      31.374  28.896  25.285  1.00  0.00    -0.462 OA
BRANCH  62  63
ATOM     63  C   UNL A   1      32.170  28.458  24.265  1.00  0.00     0.312 C 
ATOM     64  O   UNL A   1      33.016  29.185  23.742  1.00  0.00    -0.252 OA
BRANCH  63  65
ATOM     65  C   UNL A   1      31.811  27.069  23.671  1.00  0.00     0.075 C 
ATOM     66  C   UNL A   1      30.996  26.075  24.514  1.00  0.00     0.040 C 
ATOM     67  C   UNL A   1      33.163  26.369  23.273  1.00  0.00     0.040 C 
ATOM     68  C   UNL A   1      31.731  25.204  25.486  1.00  0.00     0.119 C 
ATOM     69  C   UNL A   1      33.863  25.615  24.434  1.00  0.00     0.119 C 
ATOM     70  N   UNL A   1      32.932  24.610  24.942  1.00  0.00    -0.356 N 
BRANCH  65  71
ATOM     71  C   UNL A   1      30.922  27.387  22.392  1.00  0.00     0.056 C 
BRANCH  71  72
ATOM     72  C   UNL A   1      29.825  28.446  22.620  1.00  0.00    -0.028 A 
ATOM     73  C   UNL A   1      30.062  29.784  22.235  1.00  0.00     0.005 A 
ATOM     74  C   UNL A   1      28.537  28.138  23.078  1.00  0.00     0.044 A 
ATOM     75  C   UNL A   1      29.021  30.710  22.119  1.00  0.00     0.000 A 
ATOM     76  C   UNL A   1      27.487  29.059  22.943  1.00  0.00     0.021 A 
ATOM     77  Cl  UNL A   1      28.187  26.657  23.891  1.00  0.00    -0.084 Cl
ATOM     78  C   UNL A   1      27.723  30.333  22.429  1.00  0.00     0.002 A 
ENDBRANCH  71  72
ENDBRANCH  65  71
BRANCH  70  79
ATOM     79  C   UNL A   1      33.414  23.620  25.820  1.00  0.00     0.141 A 
ATOM     80  N   UNL A   1      32.812  23.411  27.024  1.00  0.00    -0.219 NA
ATOM     81  C   UNL A   1      34.451  22.718  25.459  1.00  0.00     0.061 A 
ATOM     82  C   UNL A   1      33.204  22.358  27.778  1.00  0.00     0.226 A 
ATOM     83  C   UNL A   1      34.734  21.679  26.336  1.00  0.00     0.142 A 
ATOM     84  C   UNL A   1      35.336  22.550  24.351  1.00  0.00     0.033 A 
ATOM     85  N   UNL A   1      34.142  21.436  27.513  1.00  0.00    -0.218 NA
ATOM     86  N   UNL A   1      35.727  20.907  25.790  1.00  0.00    -0.346 N 
ATOM     87  C   UNL A   1      36.114  21.435  24.586  1.00  0.00     0.085 A 
ATOM     88  H   UNL A   1      36.104  20.095  26.202  1.00  0.00     0.167 HD
ENDBRANCH  70  79
ENDBRANCH  63  65
ENDBRANCH  62  63
ENDBRANCH  61  62
ENDBRANCH   1  61
TORSDOF 14
ENDMDL
MODEL 3
REMARK VINA RESULT:     -12.7      4.600      9.303
REMARK SMILES O=C(OCCOC(=O)C1(Cc2ccccc2Cl)CCN(c2ncnc3[nH]ccc23)CC1)c1ccc(-c2c3nc(c(-c4c(F)cccc4F)c4ccc([nH]4)c(-c4c(F)cccc4F)c4nc(c(-c5c(F)cccc5F)c5ccc2[nH]5)C=C4)C=C3)cc1
REMARK SMILES IDX 4 1 3 2 2 3 1 4 32 5 33 6 85 7 34 8 84 9 35 10 36 11 37 12
REMARK SMILES IDX 78 13 38 14 83 15 77 16 79 17 39 18 82 19 76 20 75 21 40 23
REMARK SMILES IDX 66 24 49 25 65 26 50 27 53 28 64 29 80 30 51 31 52 32 63 34
REMARK SMILES IDX 81 35 54 36 41 37 42 38 47 39 43 40 44 41 46 42 48 43 45 44
REMARK SMILES IDX 67 45 68 46 73 47 69 48 70 49 72 50 74 51 71 52 55 53 56 54
REMARK SMILES IDX 61 55 57 56 58 57 60 58 62 59 59 60 5 61 6 62 7 63 8 64 9 65
REMARK SMILES IDX 18 66 31 67 19 68 30 69 20 70 10 71 11 72 12 73 16 74 13 75
REMARK SMILES IDX 15 76 17 77 14 78 21 79 22 80 29 81 23 82 25 83 28 84 24 85
REMARK SMILES IDX 26 86 27 87
REMARK H PARENT 79 22 53 33 26 88
REMARK Flexibility Score: inf
ROOT
ATOM      1  C   UNL A   1      37.467  23.006  25.371  1.00  0.00     0.275 C 
ENDROOT
BRANCH   1   2
ATOM      2  O   UNL A   1      38.226  24.134  25.790  1.00  0.00    -0.458 OA
BRANCH   2   3
ATOM      3  C   UNL A   1      39.363  24.130  26.505  1.00  0.00     0.338 C 
ATOM      4  O   UNL A   1      40.052  23.104  26.477  1.00  0.00    -0.246 OA
BRANCH   3   5
ATOM      5  C   UNL A   1      39.850  25.282  27.346  1.00  0.00     0.060 A 
ATOM      6  C   UNL A   1      40.722  26.335  27.004  1.00  0.00     0.016 A 
ATOM      7  C   UNL A   1      39.260  25.344  28.606  1.00  0.00     0.016 A 
ATOM      8  C   UNL A   1      40.895  27.474  27.823  1.00  0.00     0.010 A 
ATOM      9  C   UNL A   1      39.403  26.481  29.395  1.00  0.00     0.010 A 
ATOM     10  C   UNL A   1      40.189  27.592  29.010  1.00  0.00    -0.014 A 
BRANCH  10  11
ATOM     11  C   UNL A   1      40.164  28.803  29.896  1.00  0.00     0.031 A 
ATOM     12  C   UNL A   1      40.947  28.702  31.178  1.00  0.00     0.074 A 
ATOM     13  C   UNL A   1      39.304  29.840  29.752  1.00  0.00     0.049 A 
ATOM     14  N   UNL A   1      40.785  29.332  32.309  1.00  0.00    -0.248 NA
ATOM     15  C   UNL A   1      41.955  27.624  31.222  1.00  0.00     0.031 C 
ATOM     16  C   UNL A   1      38.400  30.092  28.629  1.00  0.00     0.029 A 
ATOM     17  N   UNL A   1      38.978  30.840  30.647  1.00  0.00    -0.354 N 
ATOM     18  C   UNL A   1      41.607  28.652  33.193  1.00  0.00     0.074 A 
ATOM     19  C   UNL A   1      42.043  27.448  32.528  1.00  0.00     0.031 C 
ATOM     20  C   UNL A   1      37.565  31.102  28.940  1.00  0.00     0.029 A 
ATOM     21  C   UNL A   1      37.896  31.606  30.268  1.00  0.00     0.049 A 
ATOM     22  H   UNL A   1      39.475  30.993  31.483  1.00  0.00     0.167 HD
ATOM     23  C   UNL A   1      42.095  29.049  34.389  1.00  0.00     0.037 A 
ATOM     24  C   UNL A   1      37.253  32.603  30.914  1.00  0.00     0.037 A 
ATOM     25  C   UNL A   1      41.770  30.308  34.982  1.00  0.00     0.049 A 
ATOM     26  C   UNL A   1      37.795  33.089  32.235  1.00  0.00     0.074 A 
ATOM     27  C   UNL A   1      42.323  30.914  36.090  1.00  0.00     0.029 A 
ATOM     28  N   UNL A   1      40.808  31.169  34.478  1.00  0.00    -0.354 N 
ATOM     29  N   UNL A   1      38.722  32.557  32.994  1.00  0.00    -0.248 NA
ATOM     30  C   UNL A   1      37.252  34.356  32.757  1.00  0.00     0.031 C 
ATOM     31  C   UNL A   1      41.669  32.135  36.280  1.00  0.00     0.029 A 
ATOM     32  C   UNL A   1      40.742  32.302  35.261  1.00  0.00     0.049 A 
ATOM     33  H   UNL A   1      40.254  30.996  33.682  1.00  0.00     0.167 HD
ATOM     34  C   UNL A   1      38.944  33.469  34.020  1.00  0.00     0.074 A 
ATOM     35  C   UNL A   1      38.019  34.562  33.820  1.00  0.00     0.031 C 
ATOM     36  C   UNL A   1      39.862  33.414  35.016  1.00  0.00     0.037 A 
BRANCH  23  37
ATOM     37  C   UNL A   1      43.094  28.133  35.031  1.00  0.00     0.057 A 
ATOM     38  C   UNL A   1      42.720  27.238  36.049  1.00  0.00     0.134 A 
ATOM     39  C   UNL A   1      44.453  28.225  34.721  1.00  0.00     0.134 A 
ATOM     40  F   UNL A   1      41.430  27.103  36.399  1.00  0.00    -0.206 F 
ATOM     41  C   UNL A   1      43.669  26.559  36.810  1.00  0.00     0.040 A 
ATOM     42  C   UNL A   1      45.408  27.505  35.442  1.00  0.00     0.040 A 
ATOM     43  F   UNL A   1      44.878  29.036  33.741  1.00  0.00    -0.206 F 
ATOM     44  C   UNL A   1      45.019  26.696  36.509  1.00  0.00     0.006 A 
ENDBRANCH  23  37
BRANCH  24  45
ATOM     45  C   UNL A   1      36.106  33.311  30.283  1.00  0.00     0.057 A 
ATOM     46  C   UNL A   1      34.794  33.061  30.705  1.00  0.00     0.134 A 
ATOM     47  C   UNL A   1      36.277  34.196  29.212  1.00  0.00     0.134 A 
ATOM     48  F   UNL A   1      34.564  32.205  31.711  1.00  0.00    -0.206 F 
ATOM     49  C   UNL A   1      33.692  33.636  30.068  1.00  0.00     0.040 A 
ATOM     50  C   UNL A   1      35.183  34.790  28.573  1.00  0.00     0.040 A 
ATOM     51  F   UNL A   1      37.506  34.482  28.759  1.00  0.00    -0.206 F 
ATOM     52  C   UNL A   1      33.885  34.503  28.996  1.00  0.00     0.006 A 
ENDBRANCH  24  45
BRANCH  36  53
ATOM     53  C   UNL A   1      40.020  34.603  35.910  1.00  0.00     0.057 A 
ATOM     54  C   UNL A   1      39.326  34.728  37.116  1.00  0.00     0.134 A 
ATOM     55  C   UNL A   1      41.002  35.562  35.620  1.00  0.00     0.134 A 
ATOM     56  F   UNL A   1      38.367  33.847  37.443  1.00  0.00    -0.206 F 
ATOM     57  C   UNL A   1      39.610  35.761  38.011  1.00  0.00     0.040 A 
ATOM     58  C   UNL A   1      41.314  36.581  36.517  1.00  0.00     0.040 A 
ATOM     59  F   UNL A   1      41.709  35.488  34.481  1.00  0.00    -0.206 F 
ATOM     60  C   UNL A   1      40.618  36.680  37.720  1.00  0.00     0.006 A 
ENDBRANCH  36  53
ENDBRANCH  10  11
ENDBRANCH   3   5
ENDBRANCH   2   3
ENDBRANCH   1   2
BRANCH   1  61
ATOM     61  C   UNL A   1      36.229  22.722  26.228  1.00  0.00     0.274 C 
BRANCH  61  62
ATOM     62  O   UNL A   1      35.404  21.569  25.893  1.00  0.00    -0.462 OA
BRANCH  62  63
ATOM     63  C   UNL A   1      34.112  21.628  26.334  1.00  0.00     0.312 C 
ATOM     64  O   UNL A   1      33.783  21.195  27.439  1.00  0.00    -0.252 OA
BRANCH  63  65
ATOM     65  C   UNL A   1      33.057  22.081  25.289  1.00  0.00     0.075 C 
ATOM     66  C   UNL A   1      33.518  22.501  23.884  1.00  0.00     0.040 C 
ATOM     67  C   UNL A   1      32.267  23.287  25.919  1.00  0.00     0.040 C 
ATOM     68  C   UNL A   1      33.975  23.914  23.683  1.00  0.00     0.119 C 
ATOM     69  C   UNL A   1      32.946  24.669  25.731  1.00  0.00     0.119 C 
ATOM     70  N   UNL A   1      33.110  24.897  24.297  1.00  0.00    -0.356 N 
BRANCH  65  71
ATOM     71  C   UNL A   1      32.118  20.816  25.080  1.00  0.00     0.056 C 
BRANCH  71  72
ATOM     72  C   UNL A   1      32.746  19.681  24.248  1.00  0.00    -0.028 A 
ATOM     73  C   UNL A   1      33.594  18.745  24.880  1.00  0.00     0.005 A 
ATOM     74  C   UNL A   1      32.425  19.437  22.906  1.00  0.00     0.044 A 
ATOM     75  C   UNL A   1      33.934  17.533  24.271  1.00  0.00     0.000 A 
ATOM     76  C   UNL A   1      32.747  18.213  22.300  1.00  0.00     0.021 A 
ATOM     77  Cl  UNL A   1      31.690  20.640  21.910  1.00  0.00    -0.084 Cl
ATOM     78  C   UNL A   1      33.470  17.246  22.996  1.00  0.00     0.002 A 
ENDBRANCH  71  72
ENDBRANCH  65  71
BRANCH  70  79
ATOM     79  C   UNL A   1      33.461  26.186  23.849  1.00  0.00     0.141 A 
ATOM     80  N   UNL A   1      33.527  26.461  22.517  1.00  0.00    -0.219 NA
ATOM     81  C   UNL A   1      33.641  27.280  24.738  1.00  0.00     0.061 A 
ATOM     82  C   UNL A   1      33.722  27.740  22.121  1.00  0.00     0.226 A 
ATOM     83  C   UNL A   1      33.822  28.538  24.179  1.00  0.00     0.142 A 
ATOM     84  C   UNL A   1      33.663  27.470  26.153  1.00  0.00     0.033 A 
ATOM     85  N   UNL A   1      33.867  28.841  22.875  1.00  0.00    -0.218 NA
ATOM     86  N   UNL A   1      33.935  29.453  25.195  1.00  0.00    -0.346 N 
ATOM     87  C   UNL A   1      33.855  28.813  26.404  1.00  0.00     0.085 A 
ATOM     88  H   UNL A   1      34.055  30.423  25.072  1.00  0.00     0.167 HD
ENDBRANCH  70  79
ENDBRANCH  63  65
ENDBRANCH  62  63
ENDBRANCH  61  62
ENDBRANCH   1  61
TORSDOF 14
ENDMDL
