MODEL 1
REMARK VINA RESULT:      -9.3      0.000      0.000
REMARK SMILES O=C(CCC(=O)OCCOC(=O)c1ccc(-c2c3nc(c(-c4c(F)cccc4F)c4ccc([nH]4)c(-c4c(F)cccc4F)c4nc(c(-c5c(F)cccc5F)c5ccc2[nH]5)C=C4)C=C3)cc1)Nc1nncs1
REMARK SMILES IDX 8 1 7 2 5 3 6 4 4 5 3 6 2 7 1 8 67 9 68 11 69 12 72 13 70 14
REMARK SMILES IDX 71 15 9 16 10 17 11 18 12 19 13 20 14 21 66 22 15 23 65 24
REMARK SMILES IDX 16 25 17 26 18 27 59 28 19 29 64 30 58 31 60 32 20 33 63 34
REMARK SMILES IDX 57 35 56 36 21 38 47 39 30 40 46 41 31 42 34 43 45 44 61 45
REMARK SMILES IDX 32 46 33 47 44 49 62 50 35 51 22 52 23 53 28 54 24 55 25 56
REMARK SMILES IDX 27 57 29 58 26 59 48 60 49 61 54 62 50 63 51 64 53 65 55 66
REMARK SMILES IDX 52 67 36 68 37 69 42 70 38 71 39 72 41 73 43 74 40 75
REMARK H PARENT 67 10 60 37 34 48
REMARK Flexibility Score: inf
ROOT
ATOM      1  C   UNL A   1      32.485  35.960  31.015  1.00  0.00     0.274 C 
ENDROOT
BRANCH   1   2
ATOM      2  O   UNL A   1      32.860  35.324  32.260  1.00  0.00    -0.462 OA
BRANCH   2   3
ATOM      3  C   UNL A   1      33.687  36.014  33.089  1.00  0.00     0.306 C 
ATOM      4  O   UNL A   1      33.464  37.143  33.506  1.00  0.00    -0.252 OA
BRANCH   3   5
ATOM      5  C   UNL A   1      34.965  35.258  33.400  1.00  0.00     0.132 C 
BRANCH   5   6
ATOM      6  C   UNL A   1      34.857  33.735  33.434  1.00  0.00     0.112 C 
BRANCH   6   7
ATOM      7  C   UNL A   1      36.141  33.084  33.917  1.00  0.00     0.226 C 
ATOM      8  O   UNL A   1      36.935  33.711  34.607  1.00  0.00    -0.275 OA
ATOM      9  N   UNL A   1      36.294  31.805  33.445  1.00  0.00    -0.301 N 
ATOM     10  H   UNL A   1      35.528  31.368  33.007  1.00  0.00     0.172 HD
BRANCH   9  11
ATOM     11  C   UNL A   1      37.465  31.116  33.559  1.00  0.00     0.212 A 
ATOM     12  N   UNL A   1      38.600  31.442  34.126  1.00  0.00    -0.120 NA
ATOM     13  S   UNL A   1      37.475  29.612  32.741  1.00  0.00    -0.083 S 
ATOM     14  N   UNL A   1      39.580  30.491  33.899  1.00  0.00    -0.145 NA
ATOM     15  C   UNL A   1      39.137  29.505  33.151  1.00  0.00     0.204 A 
ENDBRANCH   9  11
ENDBRANCH   6   7
ENDBRANCH   5   6
ENDBRANCH   3   5
ENDBRANCH   2   3
ENDBRANCH   1   2
BRANCH   1  16
ATOM     16  C   UNL A   1      33.506  35.659  29.914  1.00  0.00     0.275 C 
BRANCH  16  17
ATOM     17  O   UNL A   1      32.839  35.384  28.670  1.00  0.00    -0.458 OA
BRANCH  17  18
ATOM     18  C   UNL A   1      32.955  34.107  28.234  1.00  0.00     0.338 C 
ATOM     19  O   UNL A   1      32.174  33.508  27.519  1.00  0.00    -0.246 OA
BRANCH  18  20
ATOM     20  C   UNL A   1      34.274  33.590  28.627  1.00  0.00     0.060 A 
ATOM     21  C   UNL A   1      34.357  32.713  29.713  1.00  0.00     0.016 A 
ATOM     22  C   UNL A   1      35.422  33.989  27.943  1.00  0.00     0.016 A 
ATOM     23  C   UNL A   1      35.595  32.224  30.119  1.00  0.00     0.010 A 
ATOM     24  C   UNL A   1      36.663  33.491  28.348  1.00  0.00     0.010 A 
ATOM     25  C   UNL A   1      36.757  32.612  29.441  1.00  0.00    -0.014 A 
BRANCH  25  26
ATOM     26  C   UNL A   1      38.083  32.126  29.892  1.00  0.00     0.031 A 
ATOM     27  C   UNL A   1      38.597  30.805  29.399  1.00  0.00     0.074 A 
ATOM     28  C   UNL A   1      38.812  32.863  30.748  1.00  0.00     0.049 A 
ATOM     29  N   UNL A   1      39.675  30.152  29.749  1.00  0.00    -0.248 NA
ATOM     30  C   UNL A   1      37.783  30.123  28.381  1.00  0.00     0.031 C 
ATOM     31  C   UNL A   1      38.432  34.177  31.267  1.00  0.00     0.029 A 
ATOM     32  N   UNL A   1      40.022  32.606  31.341  1.00  0.00    -0.354 N 
ATOM     33  C   UNL A   1      39.663  28.978  29.007  1.00  0.00     0.074 A 
ATOM     34  C   UNL A   1      38.454  28.993  28.212  1.00  0.00     0.031 C 
ATOM     35  C   UNL A   1      39.391  34.611  32.102  1.00  0.00     0.029 A 
ATOM     36  C   UNL A   1      40.424  33.587  32.215  1.00  0.00     0.049 A 
ATOM     37  H   UNL A   1      40.552  31.797  31.158  1.00  0.00     0.167 HD
ATOM     38  C   UNL A   1      40.583  27.984  28.988  1.00  0.00     0.037 A 
ATOM     39  C   UNL A   1      41.490  33.637  33.037  1.00  0.00     0.037 A 
ATOM     40  C   UNL A   1      41.783  27.979  29.784  1.00  0.00     0.049 A 
ATOM     41  C   UNL A   1      42.457  32.484  33.052  1.00  0.00     0.074 A 
ATOM     42  C   UNL A   1      42.784  27.025  29.829  1.00  0.00     0.029 A 
ATOM     43  N   UNL A   1      42.142  28.978  30.678  1.00  0.00    -0.354 N 
ATOM     44  N   UNL A   1      42.442  31.382  32.342  1.00  0.00    -0.248 NA
ATOM     45  C   UNL A   1      43.587  32.581  33.986  1.00  0.00     0.031 C 
ATOM     46  C   UNL A   1      43.721  27.419  30.790  1.00  0.00     0.029 A 
ATOM     47  C   UNL A   1      43.336  28.649  31.299  1.00  0.00     0.049 A 
ATOM     48  H   UNL A   1      41.624  29.798  30.847  1.00  0.00     0.167 HD
ATOM     49  C   UNL A   1      43.574  30.671  32.718  1.00  0.00     0.074 A 
ATOM     50  C   UNL A   1      44.259  31.473  33.712  1.00  0.00     0.031 C 
ATOM     51  C   UNL A   1      44.010  29.463  32.282  1.00  0.00     0.037 A 
BRANCH  38  52
ATOM     52  C   UNL A   1      40.309  26.805  28.098  1.00  0.00     0.057 A 
ATOM     53  C   UNL A   1      39.471  25.753  28.493  1.00  0.00     0.134 A 
ATOM     54  C   UNL A   1      40.868  26.736  26.815  1.00  0.00     0.134 A 
ATOM     55  F   UNL A   1      38.914  25.750  29.713  1.00  0.00    -0.206 F 
ATOM     56  C   UNL A   1      39.222  24.664  27.657  1.00  0.00     0.040 A 
ATOM     57  C   UNL A   1      40.603  25.666  25.959  1.00  0.00     0.040 A 
ATOM     58  F   UNL A   1      41.675  27.710  26.370  1.00  0.00    -0.206 F 
ATOM     59  C   UNL A   1      39.784  24.622  26.382  1.00  0.00     0.006 A 
ENDBRANCH  38  52
BRANCH  39  60
ATOM     60  C   UNL A   1      41.694  34.813  33.920  1.00  0.00     0.057 A 
ATOM     61  C   UNL A   1      42.483  35.894  33.515  1.00  0.00     0.134 A 
ATOM     62  C   UNL A   1      41.116  34.879  35.195  1.00  0.00     0.134 A 
ATOM     63  F   UNL A   1      43.081  35.881  32.315  1.00  0.00    -0.206 F 
ATOM     64  C   UNL A   1      42.705  36.991  34.350  1.00  0.00     0.040 A 
ATOM     65  C   UNL A   1      41.306  35.981  36.029  1.00  0.00     0.040 A 
ATOM     66  F   UNL A   1      40.347  33.876  35.643  1.00  0.00    -0.206 F 
ATOM     67  C   UNL A   1      42.110  37.039  35.609  1.00  0.00     0.006 A 
ENDBRANCH  39  60
BRANCH  51  68
ATOM     68  C   UNL A   1      45.308  28.956  32.840  1.00  0.00     0.057 A 
ATOM     69  C   UNL A   1      45.361  28.138  33.975  1.00  0.00     0.134 A 
ATOM     70  C   UNL A   1      46.521  29.262  32.208  1.00  0.00     0.134 A 
ATOM     71  F   UNL A   1      44.238  27.818  34.636  1.00  0.00    -0.206 F 
ATOM     72  C   UNL A   1      46.574  27.663  34.476  1.00  0.00     0.040 A 
ATOM     73  C   UNL A   1      47.737  28.768  32.681  1.00  0.00     0.040 A 
ATOM     74  F   UNL A   1      46.541  30.032  31.110  1.00  0.00    -0.206 F 
ATOM     75  C   UNL A   1      47.767  27.972  33.823  1.00  0.00     0.006 A 
ENDBRANCH  51  68
ENDBRANCH  25  26
ENDBRANCH  18  20
ENDBRANCH  17  18
ENDBRANCH  16  17
ENDBRANCH   1  16
TORSDOF 14
ENDMDL
MODEL 2
REMARK VINA RESULT:      -8.8      4.090      8.467
REMARK SMILES O=C(CCC(=O)OCCOC(=O)c1ccc(-c2c3nc(c(-c4c(F)cccc4F)c4ccc([nH]4)c(-c4c(F)cccc4F)c4nc(c(-c5c(F)cccc5F)c5ccc2[nH]5)C=C4)C=C3)cc1)Nc1nncs1
REMARK SMILES IDX 8 1 7 2 5 3 6 4 4 5 3 6 2 7 1 8 67 9 68 11 69 12 72 13 70 14
REMARK SMILES IDX 71 15 9 16 10 17 11 18 12 19 13 20 14 21 66 22 15 23 65 24
REMARK SMILES IDX 16 25 17 26 18 27 59 28 19 29 64 30 58 31 60 32 20 33 63 34
REMARK SMILES IDX 57 35 56 36 21 38 47 39 30 40 46 41 31 42 34 43 45 44 61 45
REMARK SMILES IDX 32 46 33 47 44 49 62 50 35 51 22 52 23 53 28 54 24 55 25 56
REMARK SMILES IDX 27 57 29 58 26 59 48 60 49 61 54 62 50 63 51 64 53 65 55 66
REMARK SMILES IDX 52 67 36 68 37 69 42 70 38 71 39 72 41 73 43 74 40 75
REMARK H PARENT 67 10 60 37 34 48
REMARK Flexibility Score: inf
ROOT
ATOM      1  C   UNL A   1      31.629  32.073  27.165  1.00  0.00     0.274 C 
ENDROOT
BRANCH   1   2
ATOM      2  O   UNL A   1      32.220  31.063  26.313  1.00  0.00    -0.462 OA
BRANCH   2   3
ATOM      3  C   UNL A   1      32.848  30.023  26.922  1.00  0.00     0.306 C 
ATOM      4  O   UNL A   1      33.850  30.131  27.619  1.00  0.00    -0.252 OA
BRANCH   3   5
ATOM      5  C   UNL A   1      32.214  28.684  26.595  1.00  0.00     0.132 C 
BRANCH   5   6
ATOM      6  C   UNL A   1      32.308  28.231  25.139  1.00  0.00     0.112 C 
BRANCH   6   7
ATOM      7  C   UNL A   1      30.983  28.376  24.411  1.00  0.00     0.226 C 
ATOM      8  O   UNL A   1      30.219  27.424  24.314  1.00  0.00    -0.275 OA
ATOM      9  N   UNL A   1      30.816  29.623  23.866  1.00  0.00    -0.301 N 
ATOM     10  H   UNL A   1      31.441  30.340  24.123  1.00  0.00     0.172 HD
BRANCH   9  11
ATOM     11  C   UNL A   1      29.817  29.910  22.982  1.00  0.00     0.212 A 
ATOM     12  N   UNL A   1      29.589  29.463  21.773  1.00  0.00    -0.120 NA
ATOM     13  S   UNL A   1      28.739  31.128  23.516  1.00  0.00    -0.083 S 
ATOM     14  N   UNL A   1      28.525  30.117  21.175  1.00  0.00    -0.145 NA
ATOM     15  C   UNL A   1      28.019  31.042  21.961  1.00  0.00     0.204 A 
ENDBRANCH   9  11
ENDBRANCH   6   7
ENDBRANCH   5   6
ENDBRANCH   3   5
ENDBRANCH   2   3
ENDBRANCH   1   2
BRANCH   1  16
ATOM     16  C   UNL A   1      32.416  33.384  27.091  1.00  0.00     0.275 C 
BRANCH  16  17
ATOM     17  O   UNL A   1      32.302  34.112  28.325  1.00  0.00    -0.458 OA
BRANCH  17  18
ATOM     18  C   UNL A   1      33.353  34.917  28.609  1.00  0.00     0.338 C 
ATOM     19  O   UNL A   1      33.370  36.133  28.573  1.00  0.00    -0.246 OA
BRANCH  18  20
ATOM     20  C   UNL A   1      34.450  34.094  29.137  1.00  0.00     0.060 A 
ATOM     21  C   UNL A   1      34.150  33.072  30.044  1.00  0.00     0.016 A 
ATOM     22  C   UNL A   1      35.768  34.346  28.758  1.00  0.00     0.016 A 
ATOM     23  C   UNL A   1      35.173  32.291  30.575  1.00  0.00     0.010 A 
ATOM     24  C   UNL A   1      36.792  33.556  29.286  1.00  0.00     0.010 A 
ATOM     25  C   UNL A   1      36.502  32.529  30.201  1.00  0.00    -0.014 A 
BRANCH  25  26
ATOM     26  C   UNL A   1      37.598  31.727  30.792  1.00  0.00     0.031 A 
ATOM     27  C   UNL A   1      38.034  31.989  32.204  1.00  0.00     0.074 A 
ATOM     28  C   UNL A   1      38.205  30.776  30.059  1.00  0.00     0.049 A 
ATOM     29  N   UNL A   1      39.035  31.476  32.872  1.00  0.00    -0.248 NA
ATOM     30  C   UNL A   1      37.240  32.968  32.963  1.00  0.00     0.031 C 
ATOM     31  C   UNL A   1      37.845  30.408  28.689  1.00  0.00     0.029 A 
ATOM     32  N   UNL A   1      39.261  29.954  30.360  1.00  0.00    -0.354 N 
ATOM     33  C   UNL A   1      39.002  32.078  34.123  1.00  0.00     0.074 A 
ATOM     34  C   UNL A   1      37.901  33.018  34.111  1.00  0.00     0.031 C 
ATOM     35  C   UNL A   1      38.667  29.432  28.269  1.00  0.00     0.029 A 
ATOM     36  C   UNL A   1      39.641  29.144  29.318  1.00  0.00     0.049 A 
ATOM     37  H   UNL A   1      39.704  29.945  31.239  1.00  0.00     0.167 HD
ATOM     38  C   UNL A   1      39.812  31.858  35.186  1.00  0.00     0.037 A 
ATOM     39  C   UNL A   1      40.676  28.289  29.212  1.00  0.00     0.037 A 
ATOM     40  C   UNL A   1      40.905  30.920  35.187  1.00  0.00     0.049 A 
ATOM     41  C   UNL A   1      41.607  28.120  30.381  1.00  0.00     0.074 A 
ATOM     42  C   UNL A   1      41.779  30.615  36.216  1.00  0.00     0.029 A 
ATOM     43  N   UNL A   1      41.275  30.137  34.103  1.00  0.00    -0.354 N 
ATOM     44  N   UNL A   1      41.563  28.686  31.563  1.00  0.00    -0.248 NA
ATOM     45  C   UNL A   1      42.734  27.193  30.201  1.00  0.00     0.031 C 
ATOM     46  C   UNL A   1      42.711  29.689  35.737  1.00  0.00     0.029 A 
ATOM     47  C   UNL A   1      42.381  29.369  34.430  1.00  0.00     0.049 A 
ATOM     48  H   UNL A   1      40.820  30.129  33.230  1.00  0.00     0.167 HD
ATOM     49  C   UNL A   1      42.634  28.163  32.277  1.00  0.00     0.074 A 
ATOM     50  C   UNL A   1      43.302  27.224  31.397  1.00  0.00     0.031 C 
ATOM     51  C   UNL A   1      43.030  28.433  33.545  1.00  0.00     0.037 A 
BRANCH  38  52
ATOM     52  C   UNL A   1      39.563  32.669  36.425  1.00  0.00     0.057 A 
ATOM     53  C   UNL A   1      40.254  33.860  36.686  1.00  0.00     0.134 A 
ATOM     54  C   UNL A   1      38.597  32.268  37.357  1.00  0.00     0.134 A 
ATOM     55  F   UNL A   1      41.202  34.295  35.842  1.00  0.00    -0.206 F 
ATOM     56  C   UNL A   1      40.013  34.607  37.841  1.00  0.00     0.040 A 
ATOM     57  C   UNL A   1      38.327  33.022  38.501  1.00  0.00     0.040 A 
ATOM     58  F   UNL A   1      37.894  31.141  37.169  1.00  0.00    -0.206 F 
ATOM     59  C   UNL A   1      39.042  34.192  38.748  1.00  0.00     0.006 A 
ENDBRANCH  38  52
BRANCH  39  60
ATOM     60  C   UNL A   1      40.894  27.537  27.950  1.00  0.00     0.057 A 
ATOM     61  C   UNL A   1      40.343  26.265  27.761  1.00  0.00     0.134 A 
ATOM     62  C   UNL A   1      41.668  28.066  26.908  1.00  0.00     0.134 A 
ATOM     63  F   UNL A   1      39.611  25.696  28.729  1.00  0.00    -0.206 F 
ATOM     64  C   UNL A   1      40.567  25.538  26.591  1.00  0.00     0.040 A 
ATOM     65  C   UNL A   1      41.877  27.361  25.721  1.00  0.00     0.040 A 
ATOM     66  F   UNL A   1      42.223  29.281  27.025  1.00  0.00    -0.206 F 
ATOM     67  C   UNL A   1      41.331  26.089  25.564  1.00  0.00     0.006 A 
ENDBRANCH  39  60
BRANCH  51  68
ATOM     68  C   UNL A   1      44.211  27.672  34.074  1.00  0.00     0.057 A 
ATOM     69  C   UNL A   1      44.078  26.412  34.672  1.00  0.00     0.134 A 
ATOM     70  C   UNL A   1      45.506  28.192  33.949  1.00  0.00     0.134 A 
ATOM     71  F   UNL A   1      42.865  25.862  34.835  1.00  0.00    -0.206 F 
ATOM     72  C   UNL A   1      45.186  25.710  35.149  1.00  0.00     0.040 A 
ATOM     73  C   UNL A   1      46.624  27.486  34.394  1.00  0.00     0.040 A 
ATOM     74  F   UNL A   1      45.707  29.389  33.377  1.00  0.00    -0.206 F 
ATOM     75  C   UNL A   1      46.465  26.244  35.002  1.00  0.00     0.006 A 
ENDBRANCH  51  68
ENDBRANCH  25  26
ENDBRANCH  18  20
ENDBRANCH  17  18
ENDBRANCH  16  17
ENDBRANCH   1  16
TORSDOF 14
ENDMDL
MODEL 3
REMARK VINA RESULT:      -8.7      5.679     10.666
REMARK SMILES O=C(CCC(=O)OCCOC(=O)c1ccc(-c2c3nc(c(-c4c(F)cccc4F)c4ccc([nH]4)c(-c4c(F)cccc4F)c4nc(c(-c5c(F)cccc5F)c5ccc2[nH]5)C=C4)C=C3)cc1)Nc1nncs1
REMARK SMILES IDX 8 1 7 2 5 3 6 4 4 5 3 6 2 7 1 8 67 9 68 11 69 12 72 13 70 14
REMARK SMILES IDX 71 15 9 16 10 17 11 18 12 19 13 20 14 21 66 22 15 23 65 24
REMARK SMILES IDX 16 25 17 26 18 27 59 28 19 29 64 30 58 31 60 32 20 33 63 34
REMARK SMILES IDX 57 35 56 36 21 38 47 39 30 40 46 41 31 42 34 43 45 44 61 45
REMARK SMILES IDX 32 46 33 47 44 49 62 50 35 51 22 52 23 53 28 54 24 55 25 56
REMARK SMILES IDX 27 57 29 58 26 59 48 60 49 61 54 62 50 63 51 64 53 65 55 66
REMARK SMILES IDX 52 67 36 68 37 69 42 70 38 71 39 72 41 73 43 74 40 75
REMARK H PARENT 67 10 60 37 34 48
REMARK Flexibility Score: inf
ROOT
ATOM      1  C   UNL A   1      44.878  25.855  25.366  1.00  0.00     0.274 C 
ENDROOT
BRANCH   1   2
ATOM      2  O   UNL A   1      46.030  25.246  24.736  1.00  0.00    -0.462 OA
BRANCH   2   3
ATOM      3  C   UNL A   1      46.430  24.035  25.206  1.00  0.00     0.306 C 
ATOM      4  O   UNL A   1      46.804  23.826  26.354  1.00  0.00    -0.252 OA
BRANCH   3   5
ATOM      5  C   UNL A   1      46.429  22.962  24.133  1.00  0.00     0.132 C 
BRANCH   5   6
ATOM      6  C   UNL A   1      46.482  21.517  24.624  1.00  0.00     0.112 C 
BRANCH   6   7
ATOM      7  C   UNL A   1      45.139  20.821  24.490  1.00  0.00     0.226 C 
ATOM      8  O   UNL A   1      44.474  20.945  23.470  1.00  0.00    -0.275 OA
ATOM      9  N   UNL A   1      44.785  20.138  25.625  1.00  0.00    -0.301 N 
ATOM     10  H   UNL A   1      45.461  20.006  26.329  1.00  0.00     0.172 HD
BRANCH   9  11
ATOM     11  C   UNL A   1      43.532  19.633  25.816  1.00  0.00     0.212 A 
ATOM     12  N   UNL A   1      43.038  18.446  25.566  1.00  0.00    -0.120 NA
ATOM     13  S   UNL A   1      42.397  20.778  26.393  1.00  0.00    -0.083 S 
ATOM     14  N   UNL A   1      41.675  18.397  25.798  1.00  0.00    -0.145 NA
ATOM     15  C   UNL A   1      41.206  19.561  26.190  1.00  0.00     0.204 A 
ENDBRANCH   9  11
ENDBRANCH   6   7
ENDBRANCH   5   6
ENDBRANCH   3   5
ENDBRANCH   2   3
ENDBRANCH   1   2
BRANCH   1  16
ATOM     16  C   UNL A   1      43.634  24.976  25.203  1.00  0.00     0.275 C 
BRANCH  16  17
ATOM     17  O   UNL A   1      42.439  25.752  25.400  1.00  0.00    -0.458 OA
BRANCH  17  18
ATOM     18  C   UNL A   1      41.524  25.186  26.221  1.00  0.00     0.338 C 
ATOM     19  O   UNL A   1      41.086  24.052  26.153  1.00  0.00    -0.246 OA
BRANCH  18  20
ATOM     20  C   UNL A   1      41.247  26.110  27.330  1.00  0.00     0.060 A 
ATOM     21  C   UNL A   1      42.029  27.263  27.457  1.00  0.00     0.016 A 
ATOM     22  C   UNL A   1      40.240  25.826  28.252  1.00  0.00     0.016 A 
ATOM     23  C   UNL A   1      41.801  28.144  28.511  1.00  0.00     0.010 A 
ATOM     24  C   UNL A   1      40.008  26.715  29.303  1.00  0.00     0.010 A 
ATOM     25  C   UNL A   1      40.791  27.875  29.443  1.00  0.00    -0.014 A 
BRANCH  25  26
ATOM     26  C   UNL A   1      40.569  28.789  30.588  1.00  0.00     0.031 A 
ATOM     27  C   UNL A   1      39.507  29.846  30.500  1.00  0.00     0.074 A 
ATOM     28  C   UNL A   1      41.326  28.676  31.694  1.00  0.00     0.049 A 
ATOM     29  N   UNL A   1      39.222  30.807  31.341  1.00  0.00    -0.248 NA
ATOM     30  C   UNL A   1      38.656  29.822  29.301  1.00  0.00     0.031 C 
ATOM     31  C   UNL A   1      42.364  27.667  31.907  1.00  0.00     0.029 A 
ATOM     32  N   UNL A   1      41.347  29.426  32.842  1.00  0.00    -0.354 N 
ATOM     33  C   UNL A   1      38.170  31.510  30.767  1.00  0.00     0.074 A 
ATOM     34  C   UNL A   1      37.889  30.886  29.493  1.00  0.00     0.031 C 
ATOM     35  C   UNL A   1      42.920  27.861  33.114  1.00  0.00     0.029 A 
ATOM     36  C   UNL A   1      42.315  29.035  33.735  1.00  0.00     0.049 A 
ATOM     37  H   UNL A   1      40.727  30.172  33.011  1.00  0.00     0.167 HD
ATOM     38  C   UNL A   1      37.498  32.576  31.266  1.00  0.00     0.037 A 
ATOM     39  C   UNL A   1      42.690  29.582  34.907  1.00  0.00     0.037 A 
ATOM     40  C   UNL A   1      37.787  33.190  32.536  1.00  0.00     0.049 A 
ATOM     41  C   UNL A   1      41.977  30.811  35.402  1.00  0.00     0.074 A 
ATOM     42  C   UNL A   1      37.158  34.266  33.136  1.00  0.00     0.029 A 
ATOM     43  N   UNL A   1      38.794  32.783  33.400  1.00  0.00    -0.354 N 
ATOM     44  N   UNL A   1      40.979  31.465  34.857  1.00  0.00    -0.248 NA
ATOM     45  C   UNL A   1      42.446  31.381  36.673  1.00  0.00     0.031 C 
ATOM     46  C   UNL A   1      37.818  34.544  34.337  1.00  0.00     0.029 A 
ATOM     47  C   UNL A   1      38.819  33.603  34.516  1.00  0.00     0.049 A 
ATOM     48  H   UNL A   1      39.400  32.023  33.243  1.00  0.00     0.167 HD
ATOM     49  C   UNL A   1      40.680  32.501  35.733  1.00  0.00     0.074 A 
ATOM     50  C   UNL A   1      41.595  32.381  36.850  1.00  0.00     0.031 C 
ATOM     51  C   UNL A   1      39.733  33.465  35.624  1.00  0.00     0.037 A 
BRANCH  38  52
ATOM     52  C   UNL A   1      36.405  33.161  30.419  1.00  0.00     0.057 A 
ATOM     53  C   UNL A   1      36.673  34.038  29.359  1.00  0.00     0.134 A 
ATOM     54  C   UNL A   1      35.065  32.820  30.649  1.00  0.00     0.134 A 
ATOM     55  F   UNL A   1      37.932  34.416  29.091  1.00  0.00    -0.206 F 
ATOM     56  C   UNL A   1      35.648  34.574  28.577  1.00  0.00     0.040 A 
ATOM     57  C   UNL A   1      34.034  33.327  29.856  1.00  0.00     0.040 A 
ATOM     58  F   UNL A   1      34.736  31.983  31.644  1.00  0.00    -0.206 F 
ATOM     59  C   UNL A   1      34.325  34.214  28.821  1.00  0.00     0.006 A 
ENDBRANCH  38  52
BRANCH  39  60
ATOM     60  C   UNL A   1      43.801  28.981  35.687  1.00  0.00     0.057 A 
ATOM     61  C   UNL A   1      43.568  27.948  36.601  1.00  0.00     0.134 A 
ATOM     62  C   UNL A   1      45.120  29.432  35.548  1.00  0.00     0.134 A 
ATOM     63  F   UNL A   1      42.323  27.487  36.795  1.00  0.00    -0.206 F 
ATOM     64  C   UNL A   1      44.600  27.396  37.361  1.00  0.00     0.040 A 
ATOM     65  C   UNL A   1      46.167  28.870  36.280  1.00  0.00     0.040 A 
ATOM     66  F   UNL A   1      45.412  30.418  34.687  1.00  0.00    -0.206 F 
ATOM     67  C   UNL A   1      45.906  27.853  37.197  1.00  0.00     0.006 A 
ENDBRANCH  39  60
BRANCH  51  68
ATOM     68  C   UNL A   1      39.606  34.438  36.761  1.00  0.00     0.057 A 
ATOM     69  C   UNL A   1      38.854  34.150  37.907  1.00  0.00     0.134 A 
ATOM     70  C   UNL A   1      40.280  35.666  36.724  1.00  0.00     0.134 A 
ATOM     71  F   UNL A   1      38.174  32.997  38.001  1.00  0.00    -0.206 F 
ATOM     72  C   UNL A   1      38.755  35.058  38.962  1.00  0.00     0.040 A 
ATOM     73  C   UNL A   1      40.214  36.569  37.785  1.00  0.00     0.040 A 
ATOM     74  F   UNL A   1      41.026  36.002  35.661  1.00  0.00    -0.206 F 
ATOM     75  C   UNL A   1      39.444  36.269  38.907  1.00  0.00     0.006 A 
ENDBRANCH  51  68
ENDBRANCH  25  26
ENDBRANCH  18  20
ENDBRANCH  17  18
ENDBRANCH  16  17
ENDBRANCH   1  16
TORSDOF 14
ENDMDL
