MODEL 1
REMARK VINA RESULT:     -11.4      0.000      0.000
REMARK SMILES COc1cccc(CSc2nc3ccccc3c(=O)n2CCC(=O)OCCOC(=O)c2ccc(-c3c4nc(c(-c5c(F)cccc5F)c5ccc([nH]5)c(-c5c(F)cccc5F)c5nc(c(-c6c(F)cccc6F)c6ccc3[nH]6)C=C5)C=C4)cc2)c1
REMARK SMILES IDX 23 1 24 2 22 3 21 4 20 5 10 6 11 7 12 8 18 9 13 10 17 11
REMARK SMILES IDX 19 12 14 13 16 14 15 15 9 16 8 17 7 18 3 19 4 20 85 21 5 22
REMARK SMILES IDX 6 23 2 24 1 25 25 26 26 27 27 28 28 29 29 30 30 31 31 32
REMARK SMILES IDX 32 33 84 34 33 35 83 36 34 37 35 38 36 39 77 40 37 41 82 42
REMARK SMILES IDX 76 43 78 44 38 45 81 46 75 47 74 48 39 50 65 51 48 52 64 53
REMARK SMILES IDX 49 54 52 55 63 56 79 57 50 58 51 59 62 61 80 62 53 63 40 64
REMARK SMILES IDX 41 65 46 66 42 67 43 68 45 69 47 70 44 71 66 72 67 73 72 74
REMARK SMILES IDX 68 75 69 76 71 77 73 78 70 79 54 80 55 81 60 82 56 83 57 84
REMARK SMILES IDX 59 85 61 86 58 87
REMARK H PARENT 78 49 52 60
REMARK Flexibility Score: inf
ROOT
ATOM      1  C   UNL A   1      36.591  22.928  24.853  1.00  0.00     0.307 C 
ATOM      2  O   UNL A   1      36.127  23.363  25.899  1.00  0.00    -0.252 OA
ENDROOT
BRANCH   1   3
ATOM      3  C   UNL A   1      36.087  23.388  23.501  1.00  0.00     0.144 C 
BRANCH   3   4
ATOM      4  C   UNL A   1      34.629  23.148  23.090  1.00  0.00     0.140 C 
BRANCH   4   5
ATOM      5  N   UNL A   1      33.636  24.109  23.548  1.00  0.00    -0.286 N 
ATOM      6  C   UNL A   1      32.912  24.019  24.711  1.00  0.00     0.171 A 
ATOM      7  N   UNL A   1      32.828  25.029  25.525  1.00  0.00    -0.224 NA
ATOM      8  C   UNL A   1      33.332  26.262  25.078  1.00  0.00     0.079 A 
ATOM      9  C   UNL A   1      33.570  25.312  22.858  1.00  0.00     0.262 A 
ATOM     10  C   UNL A   1      33.580  27.309  25.963  1.00  0.00     0.029 A 
ATOM     11  C   UNL A   1      33.461  26.506  23.712  1.00  0.00     0.066 A 
ATOM     12  O   UNL A   1      33.682  25.422  21.641  1.00  0.00    -0.269 OA
ATOM     13  C   UNL A   1      33.870  28.589  25.472  1.00  0.00     0.002 A 
ATOM     14  C   UNL A   1      33.669  27.789  23.204  1.00  0.00     0.016 A 
ATOM     15  C   UNL A   1      33.865  28.838  24.096  1.00  0.00     0.001 A 
BRANCH   6  16
ATOM     16  S   UNL A   1      31.861  22.676  25.102  1.00  0.00    -0.083 SA
BRANCH  16  17
ATOM     17  C   UNL A   1      32.738  21.271  25.804  1.00  0.00     0.113 C 
BRANCH  17  18
ATOM     18  C   UNL A   1      32.677  19.995  25.003  1.00  0.00    -0.034 A 
ATOM     19  C   UNL A   1      32.936  17.576  24.832  1.00  0.00     0.119 A 
ATOM     20  C   UNL A   1      32.737  17.665  23.457  1.00  0.00     0.046 A 
ATOM     21  C   UNL A   1      32.835  18.731  25.606  1.00  0.00     0.051 A 
ATOM     22  C   UNL A   1      32.451  18.890  22.858  1.00  0.00     0.004 A 
ATOM     23  C   UNL A   1      32.431  20.051  23.626  1.00  0.00     0.005 A 
BRANCH  19  24
ATOM     24  O   UNL A   1      33.227  16.324  25.296  1.00  0.00    -0.497 OA
ATOM     25  C   UNL A   1      34.580  15.890  25.222  1.00  0.00     0.278 C 
ENDBRANCH  19  24
ENDBRANCH  17  18
ENDBRANCH  16  17
ENDBRANCH   6  16
ENDBRANCH   4   5
ENDBRANCH   3   4
ENDBRANCH   1   3
BRANCH   1  26
ATOM     26  O   UNL A   1      37.644  22.081  24.777  1.00  0.00    -0.462 OA
BRANCH  26  27
ATOM     27  C   UNL A   1      37.310  20.679  24.856  1.00  0.00     0.274 C 
BRANCH  27  28
ATOM     28  C   UNL A   1      38.534  19.840  25.262  1.00  0.00     0.275 C 
BRANCH  28  29
ATOM     29  O   UNL A   1      39.474  20.510  26.128  1.00  0.00    -0.458 OA
BRANCH  29  30
ATOM     30  C   UNL A   1      40.764  20.132  26.042  1.00  0.00     0.338 C 
ATOM     31  O   UNL A   1      41.198  19.046  25.691  1.00  0.00    -0.246 OA
BRANCH  30  32
ATOM     32  C   UNL A   1      41.623  21.187  26.604  1.00  0.00     0.060 A 
ATOM     33  C   UNL A   1      42.225  22.082  25.713  1.00  0.00     0.016 A 
ATOM     34  C   UNL A   1      41.751  21.364  27.984  1.00  0.00     0.016 A 
ATOM     35  C   UNL A   1      42.887  23.206  26.202  1.00  0.00     0.010 A 
ATOM     36  C   UNL A   1      42.357  22.527  28.469  1.00  0.00     0.010 A 
ATOM     37  C   UNL A   1      42.873  23.486  27.579  1.00  0.00    -0.014 A 
BRANCH  37  38
ATOM     38  C   UNL A   1      43.164  24.868  28.053  1.00  0.00     0.031 A 
ATOM     39  C   UNL A   1      44.542  25.306  28.446  1.00  0.00     0.074 A 
ATOM     40  C   UNL A   1      42.125  25.719  28.189  1.00  0.00     0.049 A 
ATOM     41  N   UNL A   1      44.923  26.454  28.948  1.00  0.00    -0.248 NA
ATOM     42  C   UNL A   1      45.627  24.334  28.265  1.00  0.00     0.031 C 
ATOM     43  C   UNL A   1      40.729  25.404  27.874  1.00  0.00     0.029 A 
ATOM     44  N   UNL A   1      42.074  27.018  28.633  1.00  0.00    -0.354 N 
ATOM     45  C   UNL A   1      46.291  26.345  29.154  1.00  0.00     0.074 A 
ATOM     46  C   UNL A   1      46.667  25.005  28.745  1.00  0.00     0.031 C 
ATOM     47  C   UNL A   1      39.967  26.482  28.104  1.00  0.00     0.029 A 
ATOM     48  C   UNL A   1      40.804  27.545  28.645  1.00  0.00     0.049 A 
ATOM     49  H   UNL A   1      42.871  27.523  28.914  1.00  0.00     0.167 HD
ATOM     50  C   UNL A   1      47.151  27.278  29.634  1.00  0.00     0.037 A 
ATOM     51  C   UNL A   1      40.350  28.740  29.067  1.00  0.00     0.037 A 
ATOM     52  C   UNL A   1      46.774  28.610  30.039  1.00  0.00     0.049 A 
ATOM     53  C   UNL A   1      41.320  29.737  29.627  1.00  0.00     0.074 A 
ATOM     54  C   UNL A   1      47.586  29.633  30.504  1.00  0.00     0.029 A 
ATOM     55  N   UNL A   1      45.477  29.106  30.043  1.00  0.00    -0.354 N 
ATOM     56  N   UNL A   1      42.619  29.633  29.773  1.00  0.00    -0.248 NA
ATOM     57  C   UNL A   1      40.764  31.018  30.082  1.00  0.00     0.031 C 
ATOM     58  C   UNL A   1      46.778  30.725  30.833  1.00  0.00     0.029 A 
ATOM     59  C   UNL A   1      45.466  30.408  30.521  1.00  0.00     0.049 A 
ATOM     60  H   UNL A   1      44.682  28.606  29.748  1.00  0.00     0.167 HD
ATOM     61  C   UNL A   1      43.037  30.844  30.309  1.00  0.00     0.074 A 
ATOM     62  C   UNL A   1      41.857  31.670  30.448  1.00  0.00     0.031 C 
ATOM     63  C   UNL A   1      44.290  31.231  30.651  1.00  0.00     0.037 A 
BRANCH  50  64
ATOM     64  C   UNL A   1      48.597  26.888  29.763  1.00  0.00     0.057 A 
ATOM     65  C   UNL A   1      49.085  26.217  30.891  1.00  0.00     0.134 A 
ATOM     66  C   UNL A   1      49.501  27.139  28.721  1.00  0.00     0.134 A 
ATOM     67  F   UNL A   1      48.273  25.948  31.926  1.00  0.00    -0.206 F 
ATOM     68  C   UNL A   1      50.424  25.833  30.992  1.00  0.00     0.040 A 
ATOM     69  C   UNL A   1      50.835  26.735  28.798  1.00  0.00     0.040 A 
ATOM     70  F   UNL A   1      49.098  27.764  27.605  1.00  0.00    -0.206 F 
ATOM     71  C   UNL A   1      51.302  26.086  29.939  1.00  0.00     0.006 A 
ENDBRANCH  50  64
BRANCH  51  72
ATOM     72  C   UNL A   1      38.901  29.054  28.983  1.00  0.00     0.057 A 
ATOM     73  C   UNL A   1      38.324  29.481  27.782  1.00  0.00     0.134 A 
ATOM     74  C   UNL A   1      38.063  28.944  30.099  1.00  0.00     0.134 A 
ATOM     75  F   UNL A   1      39.079  29.623  26.683  1.00  0.00    -0.206 F 
ATOM     76  C   UNL A   1      36.969  29.805  27.698  1.00  0.00     0.040 A 
ATOM     77  C   UNL A   1      36.701  29.235  30.022  1.00  0.00     0.040 A 
ATOM     78  F   UNL A   1      38.554  28.532  31.278  1.00  0.00    -0.206 F 
ATOM     79  C   UNL A   1      36.151  29.676  28.820  1.00  0.00     0.006 A 
ENDBRANCH  51  72
BRANCH  63  80
ATOM     80  C   UNL A   1      44.455  32.632  31.166  1.00  0.00     0.057 A 
ATOM     81  C   UNL A   1      44.679  33.719  30.312  1.00  0.00     0.134 A 
ATOM     82  C   UNL A   1      44.370  32.899  32.540  1.00  0.00     0.134 A 
ATOM     83  F   UNL A   1      44.790  33.532  28.988  1.00  0.00    -0.206 F 
ATOM     84  C   UNL A   1      44.838  35.015  30.805  1.00  0.00     0.040 A 
ATOM     85  C   UNL A   1      44.497  34.194  33.042  1.00  0.00     0.040 A 
ATOM     86  F   UNL A   1      44.152  31.905  33.414  1.00  0.00    -0.206 F 
ATOM     87  C   UNL A   1      44.739  35.256  32.174  1.00  0.00     0.006 A 
ENDBRANCH  63  80
ENDBRANCH  37  38
ENDBRANCH  30  32
ENDBRANCH  29  30
ENDBRANCH  28  29
ENDBRANCH  27  28
ENDBRANCH  26  27
ENDBRANCH   1  26
TORSDOF 17
ENDMDL
MODEL 2
REMARK VINA RESULT:     -11.4      4.449      8.741
REMARK SMILES COc1cccc(CSc2nc3ccccc3c(=O)n2CCC(=O)OCCOC(=O)c2ccc(-c3c4nc(c(-c5c(F)cccc5F)c5ccc([nH]5)c(-c5c(F)cccc5F)c5nc(c(-c6c(F)cccc6F)c6ccc3[nH]6)C=C5)C=C4)cc2)c1
REMARK SMILES IDX 23 1 24 2 22 3 21 4 20 5 10 6 11 7 12 8 18 9 13 10 17 11
REMARK SMILES IDX 19 12 14 13 16 14 15 15 9 16 8 17 7 18 3 19 4 20 85 21 5 22
REMARK SMILES IDX 6 23 2 24 1 25 25 26 26 27 27 28 28 29 29 30 30 31 31 32
REMARK SMILES IDX 32 33 84 34 33 35 83 36 34 37 35 38 36 39 77 40 37 41 82 42
REMARK SMILES IDX 76 43 78 44 38 45 81 46 75 47 74 48 39 50 65 51 48 52 64 53
REMARK SMILES IDX 49 54 52 55 63 56 79 57 50 58 51 59 62 61 80 62 53 63 40 64
REMARK SMILES IDX 41 65 46 66 42 67 43 68 45 69 47 70 44 71 66 72 67 73 72 74
REMARK SMILES IDX 68 75 69 76 71 77 73 78 70 79 54 80 55 81 60 82 56 83 57 84
REMARK SMILES IDX 59 85 61 86 58 87
REMARK H PARENT 78 49 52 60
REMARK Flexibility Score: inf
ROOT
ATOM      1  C   UNL A   1      32.248  29.485  25.277  1.00  0.00     0.307 C 
ATOM      2  O   UNL A   1      31.371  28.731  25.679  1.00  0.00    -0.252 OA
ENDROOT
BRANCH   1   3
ATOM      3  C   UNL A   1      32.940  29.271  23.947  1.00  0.00     0.144 C 
BRANCH   3   4
ATOM      4  C   UNL A   1      34.042  28.214  23.803  1.00  0.00     0.140 C 
BRANCH   4   5
ATOM      5  N   UNL A   1      33.650  26.816  23.913  1.00  0.00    -0.286 N 
ATOM      6  C   UNL A   1      33.090  26.060  22.914  1.00  0.00     0.171 A 
ATOM      7  N   UNL A   1      33.561  24.885  22.622  1.00  0.00    -0.224 NA
ATOM      8  C   UNL A   1      34.522  24.340  23.490  1.00  0.00     0.079 A 
ATOM      9  C   UNL A   1      34.067  26.141  25.052  1.00  0.00     0.262 A 
ATOM     10  C   UNL A   1      35.311  23.256  23.113  1.00  0.00     0.029 A 
ATOM     11  C   UNL A   1      34.604  24.793  24.806  1.00  0.00     0.066 A 
ATOM     12  O   UNL A   1      34.090  26.626  26.179  1.00  0.00    -0.269 OA
ATOM     13  C   UNL A   1      36.099  22.596  24.066  1.00  0.00     0.002 A 
ATOM     14  C   UNL A   1      35.320  24.102  25.784  1.00  0.00     0.016 A 
ATOM     15  C   UNL A   1      36.064  22.988  25.408  1.00  0.00     0.001 A 
BRANCH   6  16
ATOM     16  S   UNL A   1      31.590  26.466  22.110  1.00  0.00    -0.083 SA
BRANCH  16  17
ATOM     17  C   UNL A   1      30.183  26.539  23.228  1.00  0.00     0.113 C 
BRANCH  17  18
ATOM     18  C   UNL A   1      29.260  27.718  23.044  1.00  0.00    -0.034 A 
ATOM     19  C   UNL A   1      28.864  30.020  22.345  1.00  0.00     0.119 A 
ATOM     20  C   UNL A   1      27.581  29.948  22.883  1.00  0.00     0.046 A 
ATOM     21  C   UNL A   1      29.670  28.883  22.367  1.00  0.00     0.051 A 
ATOM     22  C   UNL A   1      27.111  28.762  23.444  1.00  0.00     0.004 A 
ATOM     23  C   UNL A   1      27.950  27.656  23.533  1.00  0.00     0.005 A 
BRANCH  19  24
ATOM     24  O   UNL A   1      29.213  31.241  21.842  1.00  0.00    -0.497 OA
ATOM     25  C   UNL A   1      28.376  32.348  22.155  1.00  0.00     0.278 C 
ENDBRANCH  19  24
ENDBRANCH  17  18
ENDBRANCH  16  17
ENDBRANCH   6  16
ENDBRANCH   4   5
ENDBRANCH   3   4
ENDBRANCH   1   3
BRANCH   1  26
ATOM     26  O   UNL A   1      32.629  30.621  25.907  1.00  0.00    -0.462 OA
BRANCH  26  27
ATOM     27  C   UNL A   1      31.686  31.129  26.877  1.00  0.00     0.274 C 
BRANCH  27  28
ATOM     28  C   UNL A   1      31.547  32.657  26.765  1.00  0.00     0.275 C 
BRANCH  28  29
ATOM     29  O   UNL A   1      32.777  33.395  26.922  1.00  0.00    -0.458 OA
BRANCH  29  30
ATOM     30  C   UNL A   1      33.255  33.531  28.174  1.00  0.00     0.338 C 
ATOM     31  O   UNL A   1      32.824  34.252  29.060  1.00  0.00    -0.246 OA
BRANCH  30  32
ATOM     32  C   UNL A   1      34.518  32.786  28.300  1.00  0.00     0.060 A 
ATOM     33  C   UNL A   1      35.707  33.522  28.347  1.00  0.00     0.016 A 
ATOM     34  C   UNL A   1      34.532  31.401  28.478  1.00  0.00     0.016 A 
ATOM     35  C   UNL A   1      36.906  32.882  28.656  1.00  0.00     0.010 A 
ATOM     36  C   UNL A   1      35.724  30.773  28.854  1.00  0.00     0.010 A 
ATOM     37  C   UNL A   1      36.905  31.521  29.007  1.00  0.00    -0.014 A 
BRANCH  37  38
ATOM     38  C   UNL A   1      38.058  30.954  29.761  1.00  0.00     0.031 A 
ATOM     39  C   UNL A   1      38.990  29.946  29.160  1.00  0.00     0.074 A 
ATOM     40  C   UNL A   1      38.212  31.324  31.050  1.00  0.00     0.049 A 
ATOM     41  N   UNL A   1      39.987  29.313  29.727  1.00  0.00    -0.248 NA
ATOM     42  C   UNL A   1      38.772  29.594  27.751  1.00  0.00     0.031 C 
ATOM     43  C   UNL A   1      37.350  32.271  31.764  1.00  0.00     0.029 A 
ATOM     44  N   UNL A   1      39.136  30.948  31.994  1.00  0.00    -0.354 N 
ATOM     45  C   UNL A   1      40.513  28.479  28.750  1.00  0.00     0.074 A 
ATOM     46  C   UNL A   1      39.705  28.670  27.562  1.00  0.00     0.031 C 
ATOM     47  C   UNL A   1      37.802  32.424  33.017  1.00  0.00     0.029 A 
ATOM     48  C   UNL A   1      38.942  31.540  33.219  1.00  0.00     0.049 A 
ATOM     49  H   UNL A   1      39.867  30.315  31.809  1.00  0.00     0.167 HD
ATOM     50  C   UNL A   1      41.575  27.639  28.839  1.00  0.00     0.037 A 
ATOM     51  C   UNL A   1      39.588  31.376  34.389  1.00  0.00     0.037 A 
ATOM     52  C   UNL A   1      42.377  27.452  30.024  1.00  0.00     0.049 A 
ATOM     53  C   UNL A   1      40.735  30.412  34.465  1.00  0.00     0.074 A 
ATOM     54  C   UNL A   1      43.492  26.647  30.192  1.00  0.00     0.029 A 
ATOM     55  N   UNL A   1      42.146  28.065  31.248  1.00  0.00    -0.354 N 
ATOM     56  N   UNL A   1      41.248  29.664  33.519  1.00  0.00    -0.248 NA
ATOM     57  C   UNL A   1      41.392  30.268  35.771  1.00  0.00     0.031 C 
ATOM     58  C   UNL A   1      43.905  26.735  31.525  1.00  0.00     0.029 A 
ATOM     59  C   UNL A   1      43.083  27.639  32.178  1.00  0.00     0.049 A 
ATOM     60  H   UNL A   1      41.423  28.708  31.429  1.00  0.00     0.167 HD
ATOM     61  C   UNL A   1      42.305  28.983  34.108  1.00  0.00     0.074 A 
ATOM     62  C   UNL A   1      42.368  29.418  35.486  1.00  0.00     0.031 C 
ATOM     63  C   UNL A   1      43.148  28.080  33.549  1.00  0.00     0.037 A 
BRANCH  50  64
ATOM     64  C   UNL A   1      41.929  26.837  27.618  1.00  0.00     0.057 A 
ATOM     65  C   UNL A   1      42.707  27.369  26.583  1.00  0.00     0.134 A 
ATOM     66  C   UNL A   1      41.530  25.498  27.502  1.00  0.00     0.134 A 
ATOM     67  F   UNL A   1      43.120  28.646  26.630  1.00  0.00    -0.206 F 
ATOM     68  C   UNL A   1      43.054  26.609  25.463  1.00  0.00     0.040 A 
ATOM     69  C   UNL A   1      41.895  24.720  26.402  1.00  0.00     0.040 A 
ATOM     70  F   UNL A   1      40.796  24.920  28.464  1.00  0.00    -0.206 F 
ATOM     71  C   UNL A   1      42.653  25.278  25.375  1.00  0.00     0.006 A 
ENDBRANCH  50  64
BRANCH  51  72
ATOM     72  C   UNL A   1      39.157  32.139  35.588  1.00  0.00     0.057 A 
ATOM     73  C   UNL A   1      38.322  31.561  36.550  1.00  0.00     0.134 A 
ATOM     74  C   UNL A   1      39.563  33.463  35.796  1.00  0.00     0.134 A 
ATOM     75  F   UNL A   1      37.885  30.303  36.398  1.00  0.00    -0.206 F 
ATOM     76  C   UNL A   1      37.890  32.278  37.667  1.00  0.00     0.040 A 
ATOM     77  C   UNL A   1      39.163  34.182  36.923  1.00  0.00     0.040 A 
ATOM     78  F   UNL A   1      40.371  34.072  34.914  1.00  0.00    -0.206 F 
ATOM     79  C   UNL A   1      38.315  33.592  37.859  1.00  0.00     0.006 A 
ENDBRANCH  51  72
BRANCH  63  80
ATOM     80  C   UNL A   1      44.243  27.537  34.420  1.00  0.00     0.057 A 
ATOM     81  C   UNL A   1      44.127  26.309  35.085  1.00  0.00     0.134 A 
ATOM     82  C   UNL A   1      45.442  28.245  34.580  1.00  0.00     0.134 A 
ATOM     83  F   UNL A   1      43.000  25.588  34.990  1.00  0.00    -0.206 F 
ATOM     84  C   UNL A   1      45.152  25.819  35.897  1.00  0.00     0.040 A 
ATOM     85  C   UNL A   1      46.484  27.752  35.365  1.00  0.00     0.040 A 
ATOM     86  F   UNL A   1      45.622  29.425  33.968  1.00  0.00    -0.206 F 
ATOM     87  C   UNL A   1      46.338  26.538  36.033  1.00  0.00     0.006 A 
ENDBRANCH  63  80
ENDBRANCH  37  38
ENDBRANCH  30  32
ENDBRANCH  29  30
ENDBRANCH  28  29
ENDBRANCH  27  28
ENDBRANCH  26  27
ENDBRANCH   1  26
TORSDOF 17
ENDMDL
MODEL 3
REMARK VINA RESULT:     -11.3      1.161      7.359
REMARK SMILES COc1cccc(CSc2nc3ccccc3c(=O)n2CCC(=O)OCCOC(=O)c2ccc(-c3c4nc(c(-c5c(F)cccc5F)c5ccc([nH]5)c(-c5c(F)cccc5F)c5nc(c(-c6c(F)cccc6F)c6ccc3[nH]6)C=C5)C=C4)cc2)c1
REMARK SMILES IDX 23 1 24 2 22 3 21 4 20 5 10 6 11 7 12 8 18 9 13 10 17 11
REMARK SMILES IDX 19 12 14 13 16 14 15 15 9 16 8 17 7 18 3 19 4 20 85 21 5 22
REMARK SMILES IDX 6 23 2 24 1 25 25 26 26 27 27 28 28 29 29 30 30 31 31 32
REMARK SMILES IDX 32 33 84 34 33 35 83 36 34 37 35 38 36 39 77 40 37 41 82 42
REMARK SMILES IDX 76 43 78 44 38 45 81 46 75 47 74 48 39 50 65 51 48 52 64 53
REMARK SMILES IDX 49 54 52 55 63 56 79 57 50 58 51 59 62 61 80 62 53 63 40 64
REMARK SMILES IDX 41 65 46 66 42 67 43 68 45 69 47 70 44 71 66 72 67 73 72 74
REMARK SMILES IDX 68 75 69 76 71 77 73 78 70 79 54 80 55 81 60 82 56 83 57 84
REMARK SMILES IDX 59 85 61 86 58 87
REMARK H PARENT 78 49 52 60
REMARK Flexibility Score: inf
ROOT
ATOM      1  C   UNL A   1      36.290  23.064  23.967  1.00  0.00     0.307 C 
ATOM      2  O   UNL A   1      36.334  22.983  22.746  1.00  0.00    -0.252 OA
ENDROOT
BRANCH   1   3
ATOM      3  C   UNL A   1      35.343  24.011  24.673  1.00  0.00     0.144 C 
BRANCH   3   4
ATOM      4  C   UNL A   1      34.535  23.543  25.889  1.00  0.00     0.140 C 
BRANCH   4   5
ATOM      5  N   UNL A   1      33.345  22.743  25.637  1.00  0.00    -0.286 N 
ATOM      6  C   UNL A   1      32.318  23.082  24.792  1.00  0.00     0.171 A 
ATOM      7  N   UNL A   1      31.873  22.238  23.909  1.00  0.00    -0.224 NA
ATOM      8  C   UNL A   1      32.342  20.915  23.986  1.00  0.00     0.079 A 
ATOM      9  C   UNL A   1      33.352  21.445  26.129  1.00  0.00     0.262 A 
ATOM     10  C   UNL A   1      32.186  20.026  22.926  1.00  0.00     0.029 A 
ATOM     11  C   UNL A   1      32.851  20.429  25.190  1.00  0.00     0.066 A 
ATOM     12  O   UNL A   1      33.815  21.117  27.216  1.00  0.00    -0.269 OA
ATOM     13  C   UNL A   1      32.460  18.663  23.106  1.00  0.00     0.002 A 
ATOM     14  C   UNL A   1      33.053  19.066  25.411  1.00  0.00     0.016 A 
ATOM     15  C   UNL A   1      32.844  18.178  24.360  1.00  0.00     0.001 A 
BRANCH   6  16
ATOM     16  S   UNL A   1      31.361  24.538  24.956  1.00  0.00    -0.083 SA
BRANCH  16  17
ATOM     17  C   UNL A   1      31.801  25.516  26.400  1.00  0.00     0.113 C 
BRANCH  17  18
ATOM     18  C   UNL A   1      32.007  26.990  26.154  1.00  0.00    -0.034 A 
ATOM     19  C   UNL A   1      32.880  28.819  24.798  1.00  0.00     0.119 A 
ATOM     20  C   UNL A   1      32.541  29.714  25.810  1.00  0.00     0.046 A 
ATOM     21  C   UNL A   1      32.548  27.473  24.947  1.00  0.00     0.051 A 
ATOM     22  C   UNL A   1      31.888  29.272  26.960  1.00  0.00     0.004 A 
ATOM     23  C   UNL A   1      31.632  27.916  27.135  1.00  0.00     0.005 A 
BRANCH  19  24
ATOM     24  O   UNL A   1      33.531  29.371  23.731  1.00  0.00    -0.497 OA
ATOM     25  C   UNL A   1      33.713  28.560  22.576  1.00  0.00     0.278 C 
ENDBRANCH  19  24
ENDBRANCH  17  18
ENDBRANCH  16  17
ENDBRANCH   6  16
ENDBRANCH   4   5
ENDBRANCH   3   4
ENDBRANCH   1   3
BRANCH   1  26
ATOM     26  O   UNL A   1      36.991  22.272  24.812  1.00  0.00    -0.462 OA
BRANCH  26  27
ATOM     27  C   UNL A   1      36.769  20.854  24.649  1.00  0.00     0.274 C 
BRANCH  27  28
ATOM     28  C   UNL A   1      38.062  20.059  24.899  1.00  0.00     0.275 C 
BRANCH  28  29
ATOM     29  O   UNL A   1      38.941  20.620  25.896  1.00  0.00    -0.458 OA
BRANCH  29  30
ATOM     30  C   UNL A   1      40.202  20.148  25.937  1.00  0.00     0.338 C 
ATOM     31  O   UNL A   1      40.587  19.029  25.638  1.00  0.00    -0.246 OA
BRANCH  30  32
ATOM     32  C   UNL A   1      41.079  21.146  26.570  1.00  0.00     0.060 A 
ATOM     33  C   UNL A   1      41.734  22.061  25.738  1.00  0.00     0.016 A 
ATOM     34  C   UNL A   1      41.175  21.254  27.960  1.00  0.00     0.016 A 
ATOM     35  C   UNL A   1      42.418  23.138  26.297  1.00  0.00     0.010 A 
ATOM     36  C   UNL A   1      41.806  22.372  28.515  1.00  0.00     0.010 A 
ATOM     37  C   UNL A   1      42.376  23.354  27.685  1.00  0.00    -0.014 A 
BRANCH  37  38
ATOM     38  C   UNL A   1      42.699  24.701  28.231  1.00  0.00     0.031 A 
ATOM     39  C   UNL A   1      41.654  25.756  28.431  1.00  0.00     0.074 A 
ATOM     40  C   UNL A   1      43.995  24.985  28.486  1.00  0.00     0.049 A 
ATOM     41  N   UNL A   1      41.807  26.996  28.825  1.00  0.00    -0.248 NA
ATOM     42  C   UNL A   1      40.264  25.379  28.144  1.00  0.00     0.031 C 
ATOM     43  C   UNL A   1      45.113  24.056  28.300  1.00  0.00     0.029 A 
ATOM     44  N   UNL A   1      44.595  26.131  28.947  1.00  0.00    -0.354 N 
ATOM     45  C   UNL A   1      40.537  27.556  28.826  1.00  0.00     0.074 A 
ATOM     46  C   UNL A   1      39.628  26.523  28.366  1.00  0.00     0.031 C 
ATOM     47  C   UNL A   1      46.254  24.655  28.669  1.00  0.00     0.029 A 
ATOM     48  C   UNL A   1      45.961  26.030  29.056  1.00  0.00     0.049 A 
ATOM     49  H   UNL A   1      44.094  26.946  29.177  1.00  0.00     0.167 HD
ATOM     50  C   UNL A   1      40.167  28.811  29.182  1.00  0.00     0.037 A 
ATOM     51  C   UNL A   1      46.888  26.943  29.401  1.00  0.00     0.037 A 
ATOM     52  C   UNL A   1      41.074  29.836  29.639  1.00  0.00     0.049 A 
ATOM     53  C   UNL A   1      46.451  28.334  29.755  1.00  0.00     0.074 A 
ATOM     54  C   UNL A   1      40.780  31.125  30.055  1.00  0.00     0.029 A 
ATOM     55  N   UNL A   1      42.452  29.698  29.730  1.00  0.00    -0.354 N 
ATOM     56  N   UNL A   1      45.240  28.833  29.793  1.00  0.00    -0.248 NA
ATOM     57  C   UNL A   1      47.508  29.288  30.113  1.00  0.00     0.031 C 
ATOM     58  C   UNL A   1      41.980  31.779  30.349  1.00  0.00     0.029 A 
ATOM     59  C   UNL A   1      43.021  30.883  30.174  1.00  0.00     0.049 A 
ATOM     60  H   UNL A   1      42.952  28.878  29.514  1.00  0.00     0.167 HD
ATOM     61  C   UNL A   1      45.387  30.151  30.206  1.00  0.00     0.074 A 
ATOM     62  C   UNL A   1      46.802  30.367  30.420  1.00  0.00     0.031 C 
ATOM     63  C   UNL A   1      44.431  31.093  30.392  1.00  0.00     0.037 A 
BRANCH  50  64
ATOM     64  C   UNL A   1      38.708  29.160  29.079  1.00  0.00     0.057 A 
ATOM     65  C   UNL A   1      37.855  29.110  30.187  1.00  0.00     0.134 A 
ATOM     66  C   UNL A   1      38.164  29.602  27.865  1.00  0.00     0.134 A 
ATOM     67  F   UNL A   1      38.311  28.693  31.379  1.00  0.00    -0.206 F 
ATOM     68  C   UNL A   1      36.506  29.461  30.089  1.00  0.00     0.040 A 
ATOM     69  C   UNL A   1      36.825  29.983  27.761  1.00  0.00     0.040 A 
ATOM     70  F   UNL A   1      38.928  29.688  26.766  1.00  0.00    -0.206 F 
ATOM     71  C   UNL A   1      35.990  29.907  28.874  1.00  0.00     0.006 A 
ENDBRANCH  50  64
BRANCH  51  72
ATOM     72  C   UNL A   1      48.325  26.571  29.422  1.00  0.00     0.057 A 
ATOM     73  C   UNL A   1      49.152  26.823  28.321  1.00  0.00     0.134 A 
ATOM     74  C   UNL A   1      48.904  25.949  30.535  1.00  0.00     0.134 A 
ATOM     75  F   UNL A   1      48.652  27.400  27.219  1.00  0.00    -0.206 F 
ATOM     76  C   UNL A   1      50.498  26.454  28.320  1.00  0.00     0.040 A 
ATOM     77  C   UNL A   1      50.255  25.602  30.559  1.00  0.00     0.040 A 
ATOM     78  F   UNL A   1      48.166  25.688  31.625  1.00  0.00    -0.206 F 
ATOM     79  C   UNL A   1      51.055  25.846  29.444  1.00  0.00     0.006 A 
ENDBRANCH  51  72
BRANCH  63  80
ATOM     80  C   UNL A   1      44.880  32.433  30.898  1.00  0.00     0.057 A 
ATOM     81  C   UNL A   1      44.991  32.715  32.266  1.00  0.00     0.134 A 
ATOM     82  C   UNL A   1      45.226  33.452  30.000  1.00  0.00     0.134 A 
ATOM     83  F   UNL A   1      44.660  31.791  33.179  1.00  0.00    -0.206 F 
ATOM     84  C   UNL A   1      45.405  33.968  32.721  1.00  0.00     0.040 A 
ATOM     85  C   UNL A   1      45.668  34.698  30.443  1.00  0.00     0.040 A 
ATOM     86  F   UNL A   1      45.148  33.248  28.676  1.00  0.00    -0.206 F 
ATOM     87  C   UNL A   1      45.752  34.962  31.808  1.00  0.00     0.006 A 
ENDBRANCH  63  80
ENDBRANCH  37  38
ENDBRANCH  30  32
ENDBRANCH  29  30
ENDBRANCH  28  29
ENDBRANCH  27  28
ENDBRANCH  26  27
ENDBRANCH   1  26
TORSDOF 17
ENDMDL
