MODEL 1
REMARK VINA RESULT:     -10.2      0.000      0.000
REMARK SMILES O=C(OCCOC(=O)[C@H]1CS[C@H](c2cc(F)ccc2F)[NH2+]1)c1ccc(-c2c3nc(c(-c4c(F)cccc4F)c4ccc([nH]4)c(-c4c(F)cccc4F)c4nc(c(-c5c(F)cccc5F)c5ccc2[nH]5)C=C4)C=C3)cc1
REMARK SMILES IDX 4 1 3 2 2 3 1 4 22 5 23 6 75 7 24 8 74 9 25 10 26 11 27 12
REMARK SMILES IDX 68 13 28 14 73 15 67 16 69 17 29 18 72 19 66 20 65 21 30 23
REMARK SMILES IDX 56 24 39 25 55 26 40 27 43 28 54 29 70 30 41 31 42 32 53 34
REMARK SMILES IDX 71 35 44 36 31 37 32 38 37 39 33 40 34 41 36 42 38 43 35 44
REMARK SMILES IDX 57 45 58 46 63 47 59 48 60 49 62 50 64 51 61 52 45 53 46 54
REMARK SMILES IDX 51 55 47 56 48 57 50 58 52 59 49 60 5 61 6 62 7 63 8 64 9 65
REMARK SMILES IDX 10 66 21 67 11 68 12 69 13 72 14 73 19 74 15 75 18 76 20 77
REMARK SMILES IDX 16 78 17 79
REMARK H PARENT 69 22 43 33 21 70 21 71
REMARK Flexibility Score: inf
ROOT
ATOM      1  C   UNL A   1      40.857  19.691  26.340  1.00  0.00     0.275 C 
ENDROOT
BRANCH   1   2
ATOM      2  O   UNL A   1      40.998  21.126  26.359  1.00  0.00    -0.458 OA
BRANCH   2   3
ATOM      3  C   UNL A   1      40.068  22.103  26.487  1.00  0.00     0.338 C 
ATOM      4  O   UNL A   1      38.899  21.836  26.211  1.00  0.00    -0.246 OA
BRANCH   3   5
ATOM      5  C   UNL A   1      40.379  23.532  26.829  1.00  0.00     0.060 A 
ATOM      6  C   UNL A   1      40.147  24.646  26.016  1.00  0.00     0.016 A 
ATOM      7  C   UNL A   1      40.960  23.760  28.093  1.00  0.00     0.016 A 
ATOM      8  C   UNL A   1      40.402  25.946  26.471  1.00  0.00     0.010 A 
ATOM      9  C   UNL A   1      41.233  25.055  28.548  1.00  0.00     0.010 A 
ATOM     10  C   UNL A   1      40.938  26.161  27.741  1.00  0.00    -0.014 A 
BRANCH  10  11
ATOM     11  C   UNL A   1      41.290  27.530  28.183  1.00  0.00     0.031 A 
ATOM     12  C   UNL A   1      42.735  27.900  28.277  1.00  0.00     0.074 A 
ATOM     13  C   UNL A   1      40.337  28.434  28.483  1.00  0.00     0.049 A 
ATOM     14  N   UNL A   1      43.265  29.046  28.609  1.00  0.00    -0.248 NA
ATOM     15  C   UNL A   1      43.710  26.864  27.899  1.00  0.00     0.031 C 
ATOM     16  C   UNL A   1      38.905  28.239  28.303  1.00  0.00     0.029 A 
ATOM     17  N   UNL A   1      40.421  29.688  29.032  1.00  0.00    -0.354 N 
ATOM     18  C   UNL A   1      44.628  28.891  28.416  1.00  0.00     0.074 A 
ATOM     19  C   UNL A   1      44.854  27.520  28.016  1.00  0.00     0.031 C 
ATOM     20  C   UNL A   1      38.233  29.259  28.857  1.00  0.00     0.029 A 
ATOM     21  C   UNL A   1      39.197  30.216  29.377  1.00  0.00     0.049 A 
ATOM     22  H   UNL A   1      41.273  30.164  29.166  1.00  0.00     0.167 HD
ATOM     23  C   UNL A   1      45.593  29.830  28.523  1.00  0.00     0.037 A 
ATOM     24  C   UNL A   1      38.892  31.349  30.034  1.00  0.00     0.037 A 
ATOM     25  C   UNL A   1      45.351  31.177  28.964  1.00  0.00     0.049 A 
ATOM     26  C   UNL A   1      40.008  32.310  30.329  1.00  0.00     0.074 A 
ATOM     27  C   UNL A   1      46.254  32.214  29.106  1.00  0.00     0.029 A 
ATOM     28  N   UNL A   1      44.114  31.662  29.365  1.00  0.00    -0.354 N 
ATOM     29  N   UNL A   1      41.286  32.188  30.056  1.00  0.00    -0.248 NA
ATOM     30  C   UNL A   1      39.643  33.585  30.957  1.00  0.00     0.031 C 
ATOM     31  C   UNL A   1      45.574  33.308  29.651  1.00  0.00     0.029 A 
ATOM     32  C   UNL A   1      44.238  32.970  29.799  1.00  0.00     0.049 A 
ATOM     33  H   UNL A   1      43.273  31.151  29.344  1.00  0.00     0.167 HD
ATOM     34  C   UNL A   1      41.866  33.393  30.418  1.00  0.00     0.074 A 
ATOM     35  C   UNL A   1      40.801  34.229  30.937  1.00  0.00     0.031 C 
ATOM     36  C   UNL A   1      43.160  33.782  30.307  1.00  0.00     0.037 A 
BRANCH  23  37
ATOM     37  C   UNL A   1      46.987  29.415  28.168  1.00  0.00     0.057 A 
ATOM     38  C   UNL A   1      47.881  28.940  29.138  1.00  0.00     0.134 A 
ATOM     39  C   UNL A   1      47.441  29.489  26.848  1.00  0.00     0.134 A 
ATOM     40  F   UNL A   1      47.513  28.868  30.426  1.00  0.00    -0.206 F 
ATOM     41  C   UNL A   1      49.184  28.569  28.807  1.00  0.00     0.040 A 
ATOM     42  C   UNL A   1      48.735  29.101  26.501  1.00  0.00     0.040 A 
ATOM     43  F   UNL A   1      46.636  29.944  25.875  1.00  0.00    -0.206 F 
ATOM     44  C   UNL A   1      49.612  28.643  27.483  1.00  0.00     0.006 A 
ENDBRANCH  23  37
BRANCH  24  45
ATOM     45  C   UNL A   1      37.490  31.654  30.422  1.00  0.00     0.057 A 
ATOM     46  C   UNL A   1      36.632  32.373  29.583  1.00  0.00     0.134 A 
ATOM     47  C   UNL A   1      36.990  31.270  31.674  1.00  0.00     0.134 A 
ATOM     48  F   UNL A   1      37.053  32.779  28.376  1.00  0.00    -0.206 F 
ATOM     49  C   UNL A   1      35.343  32.732  29.986  1.00  0.00     0.040 A 
ATOM     50  C   UNL A   1      35.696  31.604  32.082  1.00  0.00     0.040 A 
ATOM     51  F   UNL A   1      37.757  30.573  32.525  1.00  0.00    -0.206 F 
ATOM     52  C   UNL A   1      34.872  32.350  31.240  1.00  0.00     0.006 A 
ENDBRANCH  24  45
BRANCH  36  53
ATOM     53  C   UNL A   1      43.482  35.185  30.723  1.00  0.00     0.057 A 
ATOM     54  C   UNL A   1      43.857  35.500  32.035  1.00  0.00     0.134 A 
ATOM     55  C   UNL A   1      43.453  36.226  29.787  1.00  0.00     0.134 A 
ATOM     56  F   UNL A   1      43.886  34.548  32.981  1.00  0.00    -0.206 F 
ATOM     57  C   UNL A   1      44.169  36.807  32.408  1.00  0.00     0.040 A 
ATOM     58  C   UNL A   1      43.795  37.531  30.140  1.00  0.00     0.040 A 
ATOM     59  F   UNL A   1      43.110  35.988  28.513  1.00  0.00    -0.206 F 
ATOM     60  C   UNL A   1      44.147  37.825  31.455  1.00  0.00     0.006 A 
ENDBRANCH  36  53
ENDBRANCH  10  11
ENDBRANCH   3   5
ENDBRANCH   2   3
ENDBRANCH   1   2
BRANCH   1  61
ATOM     61  C   UNL A   1      42.164  18.941  26.079  1.00  0.00     0.274 C 
BRANCH  61  62
ATOM     62  O   UNL A   1      42.932  19.606  25.070  1.00  0.00    -0.458 OA
BRANCH  62  63
ATOM     63  C   UNL A   1      44.294  19.492  25.134  1.00  0.00     0.365 C 
ATOM     64  O   UNL A   1      44.918  18.452  25.001  1.00  0.00    -0.245 OA
BRANCH  63  65
ATOM     65  C   UNL A   1      44.914  20.880  25.359  1.00  0.00     0.304 C 
ATOM     66  C   UNL A   1      44.897  21.674  24.060  1.00  0.00     0.153 C 
ATOM     67  N   UNL A   1      44.223  21.624  26.453  1.00  0.00    -0.319 N 
ATOM     68  S   UNL A   1      43.800  23.064  24.351  1.00  0.00    -0.087 SA
ATOM     69  C   UNL A   1      44.196  23.049  26.118  1.00  0.00     0.277 C 
ATOM     70  H   UNL A   1      44.725  21.489  27.330  1.00  0.00     0.348 HD
ATOM     71  H   UNL A   1      43.269  21.278  26.556  1.00  0.00     0.348 HD
BRANCH  69  72
ATOM     72  C   UNL A   1      45.445  23.860  26.438  1.00  0.00     0.059 A 
ATOM     73  C   UNL A   1      46.077  24.575  25.395  1.00  0.00     0.053 A 
ATOM     74  C   UNL A   1      45.995  24.002  27.722  1.00  0.00     0.133 A 
ATOM     75  C   UNL A   1      47.191  25.377  25.643  1.00  0.00     0.123 A 
ATOM     76  C   UNL A   1      47.116  24.804  27.963  1.00  0.00     0.043 A 
ATOM     77  F   UNL A   1      45.472  23.370  28.780  1.00  0.00    -0.206 F 
ATOM     78  F   UNL A   1      47.754  26.050  24.631  1.00  0.00    -0.207 F 
ATOM     79  C   UNL A   1      47.715  25.500  26.920  1.00  0.00     0.042 A 
ENDBRANCH  69  72
ENDBRANCH  63  65
ENDBRANCH  62  63
ENDBRANCH  61  62
ENDBRANCH   1  61
TORSDOF 12
ENDMDL
MODEL 2
REMARK VINA RESULT:     -10.2      5.136     11.431
REMARK SMILES O=C(OCCOC(=O)[C@H]1CS[C@H](c2cc(F)ccc2F)[NH2+]1)c1ccc(-c2c3nc(c(-c4c(F)cccc4F)c4ccc([nH]4)c(-c4c(F)cccc4F)c4nc(c(-c5c(F)cccc5F)c5ccc2[nH]5)C=C4)C=C3)cc1
REMARK SMILES IDX 4 1 3 2 2 3 1 4 22 5 23 6 75 7 24 8 74 9 25 10 26 11 27 12
REMARK SMILES IDX 68 13 28 14 73 15 67 16 69 17 29 18 72 19 66 20 65 21 30 23
REMARK SMILES IDX 56 24 39 25 55 26 40 27 43 28 54 29 70 30 41 31 42 32 53 34
REMARK SMILES IDX 71 35 44 36 31 37 32 38 37 39 33 40 34 41 36 42 38 43 35 44
REMARK SMILES IDX 57 45 58 46 63 47 59 48 60 49 62 50 64 51 61 52 45 53 46 54
REMARK SMILES IDX 51 55 47 56 48 57 50 58 52 59 49 60 5 61 6 62 7 63 8 64 9 65
REMARK SMILES IDX 10 66 21 67 11 68 12 69 13 72 14 73 19 74 15 75 18 76 20 77
REMARK SMILES IDX 16 78 17 79
REMARK H PARENT 69 22 43 33 21 70 21 71
REMARK Flexibility Score: inf
ROOT
ATOM      1  C   UNL A   1      33.345  33.985  27.990  1.00  0.00     0.275 C 
ENDROOT
BRANCH   1   2
ATOM      2  O   UNL A   1      34.167  33.038  28.700  1.00  0.00    -0.458 OA
BRANCH   2   3
ATOM      3  C   UNL A   1      34.539  31.775  28.378  1.00  0.00     0.338 C 
ATOM      4  O   UNL A   1      33.779  31.103  27.681  1.00  0.00    -0.246 OA
BRANCH   3   5
ATOM      5  C   UNL A   1      35.763  31.087  28.912  1.00  0.00     0.060 A 
ATOM      6  C   UNL A   1      35.784  30.024  29.820  1.00  0.00     0.016 A 
ATOM      7  C   UNL A   1      37.003  31.569  28.445  1.00  0.00     0.016 A 
ATOM      8  C   UNL A   1      36.985  29.404  30.188  1.00  0.00     0.010 A 
ATOM      9  C   UNL A   1      38.208  30.965  28.822  1.00  0.00     0.010 A 
ATOM     10  C   UNL A   1      38.204  29.863  29.687  1.00  0.00    -0.014 A 
BRANCH  10  11
ATOM     11  C   UNL A   1      39.476  29.263  30.148  1.00  0.00     0.031 A 
ATOM     12  C   UNL A   1      40.209  29.921  31.271  1.00  0.00     0.074 A 
ATOM     13  C   UNL A   1      39.964  28.141  29.585  1.00  0.00     0.049 A 
ATOM     14  N   UNL A   1      41.319  29.551  31.851  1.00  0.00    -0.248 NA
ATOM     15  C   UNL A   1      39.590  31.124  31.852  1.00  0.00     0.031 C 
ATOM     16  C   UNL A   1      39.280  27.336  28.581  1.00  0.00     0.029 A 
ATOM     17  N   UNL A   1      41.163  27.494  29.748  1.00  0.00    -0.354 N 
ATOM     18  C   UNL A   1      41.495  30.432  32.906  1.00  0.00     0.074 A 
ATOM     19  C   UNL A   1      40.426  31.403  32.841  1.00  0.00     0.031 C 
ATOM     20  C   UNL A   1      40.110  26.393  28.111  1.00  0.00     0.029 A 
ATOM     21  C   UNL A   1      41.370  26.487  28.831  1.00  0.00     0.049 A 
ATOM     22  H   UNL A   1      41.812  27.727  30.451  1.00  0.00     0.167 HD
ATOM     23  C   UNL A   1      42.445  30.397  33.866  1.00  0.00     0.037 A 
ATOM     24  C   UNL A   1      42.455  25.725  28.606  1.00  0.00     0.037 A 
ATOM     25  C   UNL A   1      43.524  29.447  33.888  1.00  0.00     0.049 A 
ATOM     26  C   UNL A   1      43.599  25.833  29.572  1.00  0.00     0.074 A 
ATOM     27  C   UNL A   1      44.540  29.317  34.816  1.00  0.00     0.029 A 
ATOM     28  N   UNL A   1      43.741  28.482  32.914  1.00  0.00    -0.354 N 
ATOM     29  N   UNL A   1      43.712  26.610  30.623  1.00  0.00    -0.248 NA
ATOM     30  C   UNL A   1      44.733  24.923  29.368  1.00  0.00     0.031 C 
ATOM     31  C   UNL A   1      45.406  28.313  34.370  1.00  0.00     0.029 A 
ATOM     32  C   UNL A   1      44.901  27.782  33.193  1.00  0.00     0.049 A 
ATOM     33  H   UNL A   1      43.155  28.319  32.140  1.00  0.00     0.167 HD
ATOM     34  C   UNL A   1      44.895  26.239  31.243  1.00  0.00     0.074 A 
ATOM     35  C   UNL A   1      45.466  25.172  30.444  1.00  0.00     0.031 C 
ATOM     36  C   UNL A   1      45.446  26.721  32.384  1.00  0.00     0.037 A 
BRANCH  23  37
ATOM     37  C   UNL A   1      42.351  31.424  34.951  1.00  0.00     0.057 A 
ATOM     38  C   UNL A   1      43.011  32.657  34.852  1.00  0.00     0.134 A 
ATOM     39  C   UNL A   1      41.597  31.182  36.103  1.00  0.00     0.134 A 
ATOM     40  F   UNL A   1      43.771  32.939  33.783  1.00  0.00    -0.206 F 
ATOM     41  C   UNL A   1      42.936  33.607  35.871  1.00  0.00     0.040 A 
ATOM     42  C   UNL A   1      41.497  32.133  37.119  1.00  0.00     0.040 A 
ATOM     43  F   UNL A   1      40.949  30.019  36.260  1.00  0.00    -0.206 F 
ATOM     44  C   UNL A   1      42.171  33.348  37.007  1.00  0.00     0.006 A 
ENDBRANCH  23  37
BRANCH  24  45
ATOM     45  C   UNL A   1      42.501  24.782  27.458  1.00  0.00     0.057 A 
ATOM     46  C   UNL A   1      42.091  23.450  27.581  1.00  0.00     0.134 A 
ATOM     47  C   UNL A   1      43.008  25.185  26.215  1.00  0.00     0.134 A 
ATOM     48  F   UNL A   1      41.606  22.999  28.747  1.00  0.00    -0.206 F 
ATOM     49  C   UNL A   1      42.216  22.544  26.524  1.00  0.00     0.040 A 
ATOM     50  C   UNL A   1      43.120  24.295  25.144  1.00  0.00     0.040 A 
ATOM     51  F   UNL A   1      43.414  26.450  26.027  1.00  0.00    -0.206 F 
ATOM     52  C   UNL A   1      42.734  22.965  25.302  1.00  0.00     0.006 A 
ENDBRANCH  24  45
BRANCH  36  53
ATOM     53  C   UNL A   1      46.712  26.069  32.851  1.00  0.00     0.057 A 
ATOM     54  C   UNL A   1      46.702  24.972  33.720  1.00  0.00     0.134 A 
ATOM     55  C   UNL A   1      47.954  26.524  32.391  1.00  0.00     0.134 A 
ATOM     56  F   UNL A   1      45.543  24.502  34.208  1.00  0.00    -0.206 F 
ATOM     57  C   UNL A   1      47.886  24.364  34.137  1.00  0.00     0.040 A 
ATOM     58  C   UNL A   1      49.143  25.904  32.774  1.00  0.00     0.040 A 
ATOM     59  F   UNL A   1      48.031  27.566  31.550  1.00  0.00    -0.206 F 
ATOM     60  C   UNL A   1      49.110  24.825  33.654  1.00  0.00     0.006 A 
ENDBRANCH  36  53
ENDBRANCH  10  11
ENDBRANCH   3   5
ENDBRANCH   2   3
ENDBRANCH   1   2
BRANCH   1  61
ATOM     61  C   UNL A   1      32.937  35.202  28.821  1.00  0.00     0.274 C 
BRANCH  61  62
ATOM     62  O   UNL A   1      32.851  34.857  30.208  1.00  0.00    -0.458 OA
BRANCH  62  63
ATOM     63  C   UNL A   1      33.241  35.798  31.121  1.00  0.00     0.365 C 
ATOM     64  O   UNL A   1      32.712  36.888  31.273  1.00  0.00    -0.245 OA
BRANCH  63  65
ATOM     65  C   UNL A   1      34.417  35.257  31.947  1.00  0.00     0.304 C 
ATOM     66  C   UNL A   1      33.926  34.184  32.911  1.00  0.00     0.153 C 
ATOM     67  N   UNL A   1      35.512  34.735  31.076  1.00  0.00    -0.319 N 
ATOM     68  S   UNL A   1      34.709  32.658  32.384  1.00  0.00    -0.087 SA
ATOM     69  C   UNL A   1      36.124  33.574  31.723  1.00  0.00     0.277 C 
ATOM     70  H   UNL A   1      36.215  35.460  30.939  1.00  0.00     0.348 HD
ATOM     71  H   UNL A   1      35.130  34.462  30.170  1.00  0.00     0.348 HD
BRANCH  69  72
ATOM     72  C   UNL A   1      37.182  33.849  32.784  1.00  0.00     0.059 A 
ATOM     73  C   UNL A   1      36.993  33.326  34.083  1.00  0.00     0.053 A 
ATOM     74  C   UNL A   1      38.379  34.544  32.552  1.00  0.00     0.133 A 
ATOM     75  C   UNL A   1      37.956  33.501  35.078  1.00  0.00     0.123 A 
ATOM     76  C   UNL A   1      39.339  34.721  33.555  1.00  0.00     0.043 A 
ATOM     77  F   UNL A   1      38.658  35.077  31.356  1.00  0.00    -0.206 F 
ATOM     78  F   UNL A   1      37.748  32.979  36.293  1.00  0.00    -0.207 F 
ATOM     79  C   UNL A   1      39.130  34.193  34.824  1.00  0.00     0.042 A 
ENDBRANCH  69  72
ENDBRANCH  63  65
ENDBRANCH  62  63
ENDBRANCH  61  62
ENDBRANCH   1  61
TORSDOF 12
ENDMDL
MODEL 3
REMARK VINA RESULT:      -9.9      4.216     10.053
REMARK SMILES O=C(OCCOC(=O)[C@H]1CS[C@H](c2cc(F)ccc2F)[NH2+]1)c1ccc(-c2c3nc(c(-c4c(F)cccc4F)c4ccc([nH]4)c(-c4c(F)cccc4F)c4nc(c(-c5c(F)cccc5F)c5ccc2[nH]5)C=C4)C=C3)cc1
REMARK SMILES IDX 4 1 3 2 2 3 1 4 22 5 23 6 75 7 24 8 74 9 25 10 26 11 27 12
REMARK SMILES IDX 68 13 28 14 73 15 67 16 69 17 29 18 72 19 66 20 65 21 30 23
REMARK SMILES IDX 56 24 39 25 55 26 40 27 43 28 54 29 70 30 41 31 42 32 53 34
REMARK SMILES IDX 71 35 44 36 31 37 32 38 37 39 33 40 34 41 36 42 38 43 35 44
REMARK SMILES IDX 57 45 58 46 63 47 59 48 60 49 62 50 64 51 61 52 45 53 46 54
REMARK SMILES IDX 51 55 47 56 48 57 50 58 52 59 49 60 5 61 6 62 7 63 8 64 9 65
REMARK SMILES IDX 10 66 21 67 11 68 12 69 13 72 14 73 19 74 15 75 18 76 20 77
REMARK SMILES IDX 16 78 17 79
REMARK H PARENT 69 22 43 33 21 70 21 71
REMARK Flexibility Score: inf
ROOT
ATOM      1  C   UNL A   1      33.966  32.861  28.021  1.00  0.00     0.275 C 
ENDROOT
BRANCH   1   2
ATOM      2  O   UNL A   1      33.809  31.451  28.281  1.00  0.00    -0.458 OA
BRANCH   2   3
ATOM      3  C   UNL A   1      34.479  30.383  27.786  1.00  0.00     0.338 C 
ATOM      4  O   UNL A   1      33.890  29.636  27.006  1.00  0.00    -0.246 OA
BRANCH   3   5
ATOM      5  C   UNL A   1      35.859  29.971  28.214  1.00  0.00     0.060 A 
ATOM      6  C   UNL A   1      36.217  29.454  29.463  1.00  0.00     0.016 A 
ATOM      7  C   UNL A   1      36.882  30.127  27.257  1.00  0.00     0.016 A 
ATOM      8  C   UNL A   1      37.525  29.026  29.726  1.00  0.00     0.010 A 
ATOM      9  C   UNL A   1      38.195  29.718  27.519  1.00  0.00     0.010 A 
ATOM     10  C   UNL A   1      38.520  29.147  28.756  1.00  0.00    -0.014 A 
BRANCH  10  11
ATOM     11  C   UNL A   1      39.919  28.777  29.069  1.00  0.00     0.031 A 
ATOM     12  C   UNL A   1      40.811  29.810  29.677  1.00  0.00     0.074 A 
ATOM     13  C   UNL A   1      40.385  27.536  28.829  1.00  0.00     0.049 A 
ATOM     14  N   UNL A   1      42.054  29.695  30.059  1.00  0.00    -0.248 NA
ATOM     15  C   UNL A   1      40.214  31.131  29.938  1.00  0.00     0.031 C 
ATOM     16  C   UNL A   1      39.583  26.411  28.368  1.00  0.00     0.029 A 
ATOM     17  N   UNL A   1      41.651  27.014  28.907  1.00  0.00    -0.354 N 
ATOM     18  C   UNL A   1      42.368  30.901  30.665  1.00  0.00     0.074 A 
ATOM     19  C   UNL A   1      41.215  31.764  30.530  1.00  0.00     0.031 C 
ATOM     20  C   UNL A   1      40.381  25.376  28.066  1.00  0.00     0.029 A 
ATOM     21  C   UNL A   1      41.753  25.747  28.376  1.00  0.00     0.049 A 
ATOM     22  H   UNL A   1      42.412  27.497  29.303  1.00  0.00     0.167 HD
ATOM     23  C   UNL A   1      43.505  31.233  31.313  1.00  0.00     0.037 A 
ATOM     24  C   UNL A   1      42.834  24.974  28.170  1.00  0.00     0.037 A 
ATOM     25  C   UNL A   1      44.656  30.375  31.397  1.00  0.00     0.049 A 
ATOM     26  C   UNL A   1      44.147  25.445  28.726  1.00  0.00     0.074 A 
ATOM     27  C   UNL A   1      45.861  30.608  32.033  1.00  0.00     0.029 A 
ATOM     28  N   UNL A   1      44.750  29.126  30.797  1.00  0.00    -0.354 N 
ATOM     29  N   UNL A   1      44.410  26.552  29.380  1.00  0.00    -0.248 NA
ATOM     30  C   UNL A   1      45.297  24.544  28.579  1.00  0.00     0.031 C 
ATOM     31  C   UNL A   1      46.707  29.526  31.765  1.00  0.00     0.029 A 
ATOM     32  C   UNL A   1      46.011  28.596  31.008  1.00  0.00     0.049 A 
ATOM     33  H   UNL A   1      44.028  28.684  30.296  1.00  0.00     0.167 HD
ATOM     34  C   UNL A   1      45.733  26.451  29.780  1.00  0.00     0.074 A 
ATOM     35  C   UNL A   1      46.220  25.178  29.286  1.00  0.00     0.031 C 
ATOM     36  C   UNL A   1      46.470  27.324  30.510  1.00  0.00     0.037 A 
BRANCH  23  37
ATOM     37  C   UNL A   1      43.549  32.582  31.961  1.00  0.00     0.057 A 
ATOM     38  C   UNL A   1      43.775  33.747  31.215  1.00  0.00     0.134 A 
ATOM     39  C   UNL A   1      43.362  32.719  33.339  1.00  0.00     0.134 A 
ATOM     40  F   UNL A   1      43.986  33.678  29.891  1.00  0.00    -0.206 F 
ATOM     41  C   UNL A   1      43.831  35.002  31.823  1.00  0.00     0.040 A 
ATOM     42  C   UNL A   1      43.395  33.971  33.956  1.00  0.00     0.040 A 
ATOM     43  F   UNL A   1      43.150  31.642  34.109  1.00  0.00    -0.206 F 
ATOM     44  C   UNL A   1      43.634  35.116  33.198  1.00  0.00     0.006 A 
ENDBRANCH  23  37
BRANCH  24  45
ATOM     45  C   UNL A   1      42.723  23.681  27.447  1.00  0.00     0.057 A 
ATOM     46  C   UNL A   1      42.865  23.598  26.057  1.00  0.00     0.134 A 
ATOM     47  C   UNL A   1      42.421  22.496  28.133  1.00  0.00     0.134 A 
ATOM     48  F   UNL A   1      43.144  24.697  25.342  1.00  0.00    -0.206 F 
ATOM     49  C   UNL A   1      42.675  22.396  25.372  1.00  0.00     0.040 A 
ATOM     50  C   UNL A   1      42.248  21.283  27.462  1.00  0.00     0.040 A 
ATOM     51  F   UNL A   1      42.277  22.503  29.466  1.00  0.00    -0.206 F 
ATOM     52  C   UNL A   1      42.363  21.233  26.074  1.00  0.00     0.006 A 
ENDBRANCH  24  45
BRANCH  36  53
ATOM     53  C   UNL A   1      47.870  26.908  30.848  1.00  0.00     0.057 A 
ATOM     54  C   UNL A   1      48.968  27.316  30.081  1.00  0.00     0.134 A 
ATOM     55  C   UNL A   1      48.122  26.120  31.978  1.00  0.00     0.134 A 
ATOM     56  F   UNL A   1      48.787  28.057  28.976  1.00  0.00    -0.206 F 
ATOM     57  C   UNL A   1      50.267  26.935  30.413  1.00  0.00     0.040 A 
ATOM     58  C   UNL A   1      49.419  25.761  32.339  1.00  0.00     0.040 A 
ATOM     59  F   UNL A   1      47.113  25.704  32.758  1.00  0.00    -0.206 F 
ATOM     60  C   UNL A   1      50.495  26.163  31.551  1.00  0.00     0.006 A 
ENDBRANCH  36  53
ENDBRANCH  10  11
ENDBRANCH   3   5
ENDBRANCH   2   3
ENDBRANCH   1   2
BRANCH   1  61
ATOM     61  C   UNL A   1      34.168  33.707  29.279  1.00  0.00     0.274 C 
BRANCH  61  62
ATOM     62  O   UNL A   1      35.301  33.241  30.021  1.00  0.00    -0.458 OA
BRANCH  62  63
ATOM     63  C   UNL A   1      35.067  32.670  31.241  1.00  0.00     0.365 C 
ATOM     64  O   UNL A   1      34.003  32.703  31.839  1.00  0.00    -0.245 OA
BRANCH  63  65
ATOM     65  C   UNL A   1      36.336  31.949  31.722  1.00  0.00     0.304 C 
ATOM     66  C   UNL A   1      37.529  32.893  31.648  1.00  0.00     0.153 C 
ATOM     67  N   UNL A   1      36.171  31.399  33.100  1.00  0.00    -0.319 N 
ATOM     68  S   UNL A   1      38.062  33.141  33.344  1.00  0.00    -0.087 SA
ATOM     69  C   UNL A   1      37.446  31.504  33.811  1.00  0.00     0.277 C 
ATOM     70  H   UNL A   1      35.889  30.420  33.046  1.00  0.00     0.348 HD
ATOM     71  H   UNL A   1      35.455  31.928  33.599  1.00  0.00     0.348 HD
BRANCH  69  72
ATOM     72  C   UNL A   1      38.472  30.406  33.561  1.00  0.00     0.059 A 
ATOM     73  C   UNL A   1      38.040  29.193  32.977  1.00  0.00     0.053 A 
ATOM     74  C   UNL A   1      39.847  30.527  33.816  1.00  0.00     0.133 A 
ATOM     75  C   UNL A   1      38.946  28.175  32.676  1.00  0.00     0.123 A 
ATOM     76  C   UNL A   1      40.750  29.501  33.516  1.00  0.00     0.043 A 
ATOM     77  F   UNL A   1      40.361  31.636  34.364  1.00  0.00    -0.206 F 
ATOM     78  F   UNL A   1      38.501  27.046  32.110  1.00  0.00    -0.207 F 
ATOM     79  C   UNL A   1      40.299  28.320  32.938  1.00  0.00     0.042 A 
ENDBRANCH  69  72
ENDBRANCH  63  65
ENDBRANCH  62  63
ENDBRANCH  61  62
ENDBRANCH   1  61
TORSDOF 12
ENDMDL
