MODEL 1
REMARK VINA RESULT:     -11.5      0.000      0.000
REMARK SMILES CCOC(=O)C1=NN(c2ccc(C)cc2Cl)[C@@](C)(C(=O)OCCOC(=O)c2ccc(-c3c4nc(c(-c5c(F)cccc5F)c5ccc([nH]5)c(-c5c(F)cccc5F)c5nc(c(-c6c(F)cccc6F)c6ccc3[nH]6)C=C5)C=C4)cc2)C1
REMARK SMILES IDX 22 1 21 2 19 3 20 4 17 5 6 6 7 7 81 8 8 9 18 10 4 11 5 12
REMARK SMILES IDX 3 13 2 14 1 15 9 16 10 17 15 18 11 19 14 20 16 21 12 22
REMARK SMILES IDX 13 23 23 24 24 25 25 26 26 27 27 28 28 29 80 30 29 31 79 32
REMARK SMILES IDX 30 33 31 34 32 35 73 36 33 37 78 38 72 39 74 40 34 41 77 42
REMARK SMILES IDX 71 43 70 44 35 46 61 47 44 48 60 49 45 50 48 51 59 52 75 53
REMARK SMILES IDX 46 54 47 55 58 57 76 58 49 59 36 60 37 61 42 62 38 63 39 64
REMARK SMILES IDX 41 65 43 66 40 67 62 68 63 69 68 70 64 71 65 72 67 73 69 74
REMARK SMILES IDX 66 75 50 76 51 77 56 78 52 79 53 80 55 81 57 82 54 83
REMARK H PARENT 74 45 48 56
REMARK Flexibility Score: inf
ROOT
ATOM      1  C   UNL A   1      35.963  23.347  23.557  1.00  0.00     0.274 C 
ENDROOT
BRANCH   1   2
ATOM      2  O   UNL A   1      34.771  23.118  22.777  1.00  0.00    -0.460 OA
BRANCH   2   3
ATOM      3  C   UNL A   1      33.846  24.112  22.751  1.00  0.00     0.334 C 
ATOM      4  O   UNL A   1      34.028  25.198  22.205  1.00  0.00    -0.249 OA
BRANCH   3   5
ATOM      5  C   UNL A   1      32.559  23.808  23.545  1.00  0.00     0.163 C 
ATOM      6  C   UNL A   1      32.825  22.016  24.983  1.00  0.00     0.149 C 
ATOM      7  N   UNL A   1      32.930  23.047  25.759  1.00  0.00    -0.169 NA
ATOM      8  C   UNL A   1      32.331  22.283  23.601  1.00  0.00     0.108 C 
ATOM      9  N   UNL A   1      32.639  24.139  24.985  1.00  0.00    -0.246 N 
ATOM     10  C   UNL A   1      31.418  24.477  22.785  1.00  0.00     0.050 C 
BRANCH   6  11
ATOM     11  C   UNL A   1      33.122  20.611  25.442  1.00  0.00     0.354 C 
ATOM     12  O   UNL A   1      34.103  20.341  26.096  1.00  0.00    -0.245 OA
BRANCH  11  13
ATOM     13  O   UNL A   1      32.153  19.782  25.000  1.00  0.00    -0.461 OA
BRANCH  13  14
ATOM     14  C   UNL A   1      32.610  18.510  24.509  1.00  0.00     0.230 C 
ATOM     15  C   UNL A   1      32.427  18.449  23.006  1.00  0.00     0.049 C 
ENDBRANCH  13  14
ENDBRANCH  11  13
ENDBRANCH   6  11
BRANCH   9  16
ATOM     16  C   UNL A   1      32.590  25.393  25.586  1.00  0.00     0.079 A 
ATOM     17  C   UNL A   1      33.750  26.186  25.638  1.00  0.00     0.030 A 
ATOM     18  C   UNL A   1      31.406  25.975  26.086  1.00  0.00     0.066 A 
ATOM     19  C   UNL A   1      33.751  27.476  26.180  1.00  0.00     0.006 A 
ATOM     20  C   UNL A   1      31.403  27.270  26.629  1.00  0.00     0.026 A 
ATOM     21  Cl  UNL A   1      29.893  25.128  26.127  1.00  0.00    -0.082 Cl
ATOM     22  C   UNL A   1      32.576  28.030  26.681  1.00  0.00    -0.049 A 
ATOM     23  C   UNL A   1      32.554  29.415  27.250  1.00  0.00     0.044 C 
ENDBRANCH   9  16
ENDBRANCH   3   5
ENDBRANCH   2   3
ENDBRANCH   1   2
BRANCH   1  24
ATOM     24  C   UNL A   1      36.640  22.032  23.930  1.00  0.00     0.275 C 
BRANCH  24  25
ATOM     25  O   UNL A   1      36.898  22.018  25.345  1.00  0.00    -0.458 OA
BRANCH  25  26
ATOM     26  C   UNL A   1      38.168  21.714  25.696  1.00  0.00     0.338 C 
ATOM     27  O   UNL A   1      38.782  20.693  25.437  1.00  0.00    -0.246 OA
BRANCH  26  28
ATOM     28  C   UNL A   1      38.765  22.819  26.470  1.00  0.00     0.060 A 
ATOM     29  C   UNL A   1      38.171  24.078  26.477  1.00  0.00     0.016 A 
ATOM     30  C   UNL A   1      40.026  22.642  27.035  1.00  0.00     0.016 A 
ATOM     31  C   UNL A   1      38.912  25.189  26.877  1.00  0.00     0.010 A 
ATOM     32  C   UNL A   1      40.716  23.740  27.555  1.00  0.00     0.010 A 
ATOM     33  C   UNL A   1      40.204  25.040  27.406  1.00  0.00    -0.014 A 
BRANCH  33  34
ATOM     34  C   UNL A   1      41.052  26.233  27.705  1.00  0.00     0.031 A 
ATOM     35  C   UNL A   1      40.510  27.362  28.553  1.00  0.00     0.074 A 
ATOM     36  C   UNL A   1      42.331  26.297  27.281  1.00  0.00     0.049 A 
ATOM     37  N   UNL A   1      41.045  28.529  28.821  1.00  0.00    -0.248 NA
ATOM     38  C   UNL A   1      39.200  27.152  29.190  1.00  0.00     0.031 C 
ATOM     39  C   UNL A   1      43.023  25.262  26.512  1.00  0.00     0.029 A 
ATOM     40  N   UNL A   1      43.284  27.272  27.453  1.00  0.00    -0.354 N 
ATOM     41  C   UNL A   1      40.124  29.200  29.618  1.00  0.00     0.074 A 
ATOM     42  C   UNL A   1      38.988  28.319  29.780  1.00  0.00     0.031 C 
ATOM     43  C   UNL A   1      44.299  25.631  26.326  1.00  0.00     0.029 A 
ATOM     44  C   UNL A   1      44.490  26.971  26.868  1.00  0.00     0.049 A 
ATOM     45  H   UNL A   1      43.119  28.106  27.949  1.00  0.00     0.167 HD
ATOM     46  C   UNL A   1      40.216  30.431  30.176  1.00  0.00     0.037 A 
ATOM     47  C   UNL A   1      45.612  27.704  26.731  1.00  0.00     0.037 A 
ATOM     48  C   UNL A   1      41.354  31.305  30.052  1.00  0.00     0.049 A 
ATOM     49  C   UNL A   1      45.650  29.106  27.261  1.00  0.00     0.074 A 
ATOM     50  C   UNL A   1      41.529  32.575  30.574  1.00  0.00     0.029 A 
ATOM     51  N   UNL A   1      42.516  30.992  29.365  1.00  0.00    -0.354 N 
ATOM     52  N   UNL A   1      44.742  29.754  27.949  1.00  0.00    -0.248 NA
ATOM     53  C   UNL A   1      46.858  29.891  26.970  1.00  0.00     0.031 C 
ATOM     54  C   UNL A   1      42.786  33.044  30.177  1.00  0.00     0.029 A 
ATOM     55  C   UNL A   1      43.407  32.051  29.438  1.00  0.00     0.049 A 
ATOM     56  H   UNL A   1      42.683  30.144  28.894  1.00  0.00     0.167 HD
ATOM     57  C   UNL A   1      45.271  31.016  28.180  1.00  0.00     0.074 A 
ATOM     58  C   UNL A   1      46.587  31.038  27.576  1.00  0.00     0.031 C 
ATOM     59  C   UNL A   1      44.712  32.065  28.831  1.00  0.00     0.037 A 
BRANCH  46  60
ATOM     60  C   UNL A   1      39.037  30.921  30.965  1.00  0.00     0.057 A 
ATOM     61  C   UNL A   1      38.927  30.703  32.344  1.00  0.00     0.134 A 
ATOM     62  C   UNL A   1      38.019  31.655  30.343  1.00  0.00     0.134 A 
ATOM     63  F   UNL A   1      39.862  29.994  32.996  1.00  0.00    -0.206 F 
ATOM     64  C   UNL A   1      37.838  31.183  33.073  1.00  0.00     0.040 A 
ATOM     65  C   UNL A   1      36.935  32.158  31.065  1.00  0.00     0.040 A 
ATOM     66  F   UNL A   1      38.068  31.907  29.026  1.00  0.00    -0.206 F 
ATOM     67  C   UNL A   1      36.841  31.918  32.434  1.00  0.00     0.006 A 
ENDBRANCH  46  60
BRANCH  47  68
ATOM     68  C   UNL A   1      46.776  27.136  26.004  1.00  0.00     0.057 A 
ATOM     69  C   UNL A   1      47.754  26.391  26.670  1.00  0.00     0.134 A 
ATOM     70  C   UNL A   1      46.931  27.319  24.623  1.00  0.00     0.134 A 
ATOM     71  F   UNL A   1      47.675  26.206  27.996  1.00  0.00    -0.206 F 
ATOM     72  C   UNL A   1      48.844  25.845  25.991  1.00  0.00     0.040 A 
ATOM     73  C   UNL A   1      48.000  26.755  23.927  1.00  0.00     0.040 A 
ATOM     74  F   UNL A   1      46.029  28.026  23.929  1.00  0.00    -0.206 F 
ATOM     75  C   UNL A   1      48.963  26.019  24.613  1.00  0.00     0.006 A 
ENDBRANCH  47  68
BRANCH  59  76
ATOM     76  C   UNL A   1      45.534  33.313  28.945  1.00  0.00     0.057 A 
ATOM     77  C   UNL A   1      45.450  34.339  27.997  1.00  0.00     0.134 A 
ATOM     78  C   UNL A   1      46.407  33.497  30.025  1.00  0.00     0.134 A 
ATOM     79  F   UNL A   1      44.644  34.215  26.931  1.00  0.00    -0.206 F 
ATOM     80  C   UNL A   1      46.221  35.497  28.106  1.00  0.00     0.040 A 
ATOM     81  C   UNL A   1      47.168  34.660  30.156  1.00  0.00     0.040 A 
ATOM     82  F   UNL A   1      46.530  32.552  30.970  1.00  0.00    -0.206 F 
ATOM     83  C   UNL A   1      47.081  35.661  29.192  1.00  0.00     0.006 A 
ENDBRANCH  59  76
ENDBRANCH  33  34
ENDBRANCH  26  28
ENDBRANCH  25  26
ENDBRANCH  24  25
ENDBRANCH   1  24
TORSDOF 15
ENDMDL
MODEL 2
REMARK VINA RESULT:     -11.2      4.197      8.562
REMARK SMILES CCOC(=O)C1=NN(c2ccc(C)cc2Cl)[C@@](C)(C(=O)OCCOC(=O)c2ccc(-c3c4nc(c(-c5c(F)cccc5F)c5ccc([nH]5)c(-c5c(F)cccc5F)c5nc(c(-c6c(F)cccc6F)c6ccc3[nH]6)C=C5)C=C4)cc2)C1
REMARK SMILES IDX 22 1 21 2 19 3 20 4 17 5 6 6 7 7 81 8 8 9 18 10 4 11 5 12
REMARK SMILES IDX 3 13 2 14 1 15 9 16 10 17 15 18 11 19 14 20 16 21 12 22
REMARK SMILES IDX 13 23 23 24 24 25 25 26 26 27 27 28 28 29 80 30 29 31 79 32
REMARK SMILES IDX 30 33 31 34 32 35 73 36 33 37 78 38 72 39 74 40 34 41 77 42
REMARK SMILES IDX 71 43 70 44 35 46 61 47 44 48 60 49 45 50 48 51 59 52 75 53
REMARK SMILES IDX 46 54 47 55 58 57 76 58 49 59 36 60 37 61 42 62 38 63 39 64
REMARK SMILES IDX 41 65 43 66 40 67 62 68 63 69 68 70 64 71 65 72 67 73 69 74
REMARK SMILES IDX 66 75 50 76 51 77 56 78 52 79 53 80 55 81 57 82 54 83
REMARK H PARENT 74 45 48 56
REMARK Flexibility Score: inf
ROOT
ATOM      1  C   UNL A   1      31.954  28.448  27.163  1.00  0.00     0.274 C 
ENDROOT
BRANCH   1   2
ATOM      2  O   UNL A   1      31.638  27.685  25.980  1.00  0.00    -0.460 OA
BRANCH   2   3
ATOM      3  C   UNL A   1      32.606  26.867  25.493  1.00  0.00     0.334 C 
ATOM      4  O   UNL A   1      33.260  26.093  26.190  1.00  0.00    -0.249 OA
BRANCH   3   5
ATOM      5  C   UNL A   1      32.892  27.042  23.988  1.00  0.00     0.163 C 
ATOM      6  C   UNL A   1      32.621  25.068  22.814  1.00  0.00     0.149 C 
ATOM      7  N   UNL A   1      31.529  25.719  22.571  1.00  0.00    -0.169 NA
ATOM      8  C   UNL A   1      33.713  25.841  23.472  1.00  0.00     0.108 C 
ATOM      9  N   UNL A   1      31.693  26.960  23.126  1.00  0.00    -0.246 N 
ATOM     10  C   UNL A   1      33.707  28.325  23.853  1.00  0.00     0.050 C 
BRANCH   6  11
ATOM     11  C   UNL A   1      32.823  23.628  22.413  1.00  0.00     0.354 C 
ATOM     12  O   UNL A   1      33.700  23.288  21.653  1.00  0.00    -0.245 OA
BRANCH  11  13
ATOM     13  O   UNL A   1      31.893  22.861  23.019  1.00  0.00    -0.461 OA
BRANCH  13  14
ATOM     14  C   UNL A   1      32.157  22.550  24.398  1.00  0.00     0.230 C 
ATOM     15  C   UNL A   1      31.038  23.089  25.266  1.00  0.00     0.049 C 
ENDBRANCH  13  14
ENDBRANCH  11  13
ENDBRANCH   6  11
BRANCH   9  16
ATOM     16  C   UNL A   1      30.697  27.914  22.941  1.00  0.00     0.079 A 
ATOM     17  C   UNL A   1      30.988  29.099  22.242  1.00  0.00     0.030 A 
ATOM     18  C   UNL A   1      29.357  27.733  23.345  1.00  0.00     0.066 A 
ATOM     19  C   UNL A   1      30.015  30.070  21.979  1.00  0.00     0.006 A 
ATOM     20  C   UNL A   1      28.379  28.705  23.080  1.00  0.00     0.026 A 
ATOM     21  Cl  UNL A   1      28.829  26.346  24.242  1.00  0.00    -0.082 Cl
ATOM     22  C   UNL A   1      28.700  29.881  22.396  1.00  0.00    -0.049 A 
ATOM     23  C   UNL A   1      27.643  30.902  22.108  1.00  0.00     0.044 C 
ENDBRANCH   9  16
ENDBRANCH   3   5
ENDBRANCH   2   3
ENDBRANCH   1   2
BRANCH   1  24
ATOM     24  C   UNL A   1      31.773  29.943  26.919  1.00  0.00     0.275 C 
BRANCH  24  25
ATOM     25  O   UNL A   1      33.015  30.501  26.455  1.00  0.00    -0.458 OA
BRANCH  25  26
ATOM     26  C   UNL A   1      33.559  31.443  27.257  1.00  0.00     0.338 C 
ATOM     27  O   UNL A   1      33.047  32.486  27.625  1.00  0.00    -0.246 OA
BRANCH  26  28
ATOM     28  C   UNL A   1      34.920  31.044  27.667  1.00  0.00     0.060 A 
ATOM     29  C   UNL A   1      35.227  29.704  27.886  1.00  0.00     0.016 A 
ATOM     30  C   UNL A   1      35.836  32.035  28.014  1.00  0.00     0.016 A 
ATOM     31  C   UNL A   1      36.363  29.368  28.621  1.00  0.00     0.010 A 
ATOM     32  C   UNL A   1      37.037  31.683  28.637  1.00  0.00     0.010 A 
ATOM     33  C   UNL A   1      37.278  30.354  29.024  1.00  0.00    -0.014 A 
BRANCH  33  34
ATOM     34  C   UNL A   1      38.419  30.018  29.928  1.00  0.00     0.031 A 
ATOM     35  C   UNL A   1      39.538  29.122  29.443  1.00  0.00     0.074 A 
ATOM     36  C   UNL A   1      38.506  30.553  31.162  1.00  0.00     0.049 A 
ATOM     37  N   UNL A   1      40.547  28.619  30.114  1.00  0.00    -0.248 NA
ATOM     38  C   UNL A   1      39.527  28.747  28.020  1.00  0.00     0.031 C 
ATOM     39  C   UNL A   1      37.546  31.487  31.751  1.00  0.00     0.029 A 
ATOM     40  N   UNL A   1      39.461  30.402  32.140  1.00  0.00    -0.354 N 
ATOM     41  C   UNL A   1      41.261  27.843  29.208  1.00  0.00     0.074 A 
ATOM     42  C   UNL A   1      40.564  27.926  27.942  1.00  0.00     0.031 C 
ATOM     43  C   UNL A   1      37.985  31.866  32.960  1.00  0.00     0.029 A 
ATOM     44  C   UNL A   1      39.200  31.125  33.279  1.00  0.00     0.049 A 
ATOM     45  H   UNL A   1      40.255  29.832  32.033  1.00  0.00     0.167 HD
ATOM     46  C   UNL A   1      42.399  27.134  29.402  1.00  0.00     0.037 A 
ATOM     47  C   UNL A   1      39.831  31.155  34.469  1.00  0.00     0.037 A 
ATOM     48  C   UNL A   1      43.122  27.069  30.646  1.00  0.00     0.049 A 
ATOM     49  C   UNL A   1      41.025  30.276  34.696  1.00  0.00     0.074 A 
ATOM     50  C   UNL A   1      44.278  26.366  30.938  1.00  0.00     0.029 A 
ATOM     51  N   UNL A   1      42.762  27.743  31.803  1.00  0.00    -0.354 N 
ATOM     52  N   UNL A   1      41.644  29.490  33.850  1.00  0.00    -0.248 NA
ATOM     53  C   UNL A   1      41.589  30.265  36.053  1.00  0.00     0.031 C 
ATOM     54  C   UNL A   1      44.601  26.590  32.281  1.00  0.00     0.029 A 
ATOM     55  C   UNL A   1      43.666  27.461  32.814  1.00  0.00     0.049 A 
ATOM     56  H   UNL A   1      41.980  28.334  31.892  1.00  0.00     0.167 HD
ATOM     57  C   UNL A   1      42.675  28.899  34.568  1.00  0.00     0.074 A 
ATOM     58  C   UNL A   1      42.610  29.431  35.914  1.00  0.00     0.031 C 
ATOM     59  C   UNL A   1      43.591  27.992  34.150  1.00  0.00     0.037 A 
BRANCH  46  60
ATOM     60  C   UNL A   1      42.930  26.347  28.240  1.00  0.00     0.057 A 
ATOM     61  C   UNL A   1      42.489  25.047  27.964  1.00  0.00     0.134 A 
ATOM     62  C   UNL A   1      43.865  26.913  27.363  1.00  0.00     0.134 A 
ATOM     63  F   UNL A   1      41.605  24.443  28.774  1.00  0.00    -0.206 F 
ATOM     64  C   UNL A   1      42.971  24.332  26.867  1.00  0.00     0.040 A 
ATOM     65  C   UNL A   1      44.339  26.215  26.251  1.00  0.00     0.040 A 
ATOM     66  F   UNL A   1      44.322  28.158  27.567  1.00  0.00    -0.206 F 
ATOM     67  C   UNL A   1      43.894  24.919  26.003  1.00  0.00     0.006 A 
ENDBRANCH  46  60
BRANCH  47  68
ATOM     68  C   UNL A   1      39.301  32.011  35.560  1.00  0.00     0.057 A 
ATOM     69  C   UNL A   1      39.778  33.310  35.759  1.00  0.00     0.134 A 
ATOM     70  C   UNL A   1      38.297  31.551  36.423  1.00  0.00     0.134 A 
ATOM     71  F   UNL A   1      40.758  33.796  34.983  1.00  0.00    -0.206 F 
ATOM     72  C   UNL A   1      39.276  34.124  36.775  1.00  0.00     0.040 A 
ATOM     73  C   UNL A   1      37.765  32.364  37.424  1.00  0.00     0.040 A 
ATOM     74  F   UNL A   1      37.800  30.314  36.286  1.00  0.00    -0.206 F 
ATOM     75  C   UNL A   1      38.259  33.654  37.605  1.00  0.00     0.006 A 
ENDBRANCH  47  68
BRANCH  59  76
ATOM     76  C   UNL A   1      44.610  27.541  35.151  1.00  0.00     0.057 A 
ATOM     77  C   UNL A   1      44.413  26.399  35.938  1.00  0.00     0.134 A 
ATOM     78  C   UNL A   1      45.809  28.245  35.318  1.00  0.00     0.134 A 
ATOM     79  F   UNL A   1      43.278  25.691  35.836  1.00  0.00    -0.206 F 
ATOM     80  C   UNL A   1      45.364  25.986  36.872  1.00  0.00     0.040 A 
ATOM     81  C   UNL A   1      46.777  27.830  36.234  1.00  0.00     0.040 A 
ATOM     82  F   UNL A   1      46.059  29.345  34.591  1.00  0.00    -0.206 F 
ATOM     83  C   UNL A   1      46.553  26.700  37.019  1.00  0.00     0.006 A 
ENDBRANCH  59  76
ENDBRANCH  33  34
ENDBRANCH  26  28
ENDBRANCH  25  26
ENDBRANCH  24  25
ENDBRANCH   1  24
TORSDOF 15
ENDMDL
MODEL 3
REMARK VINA RESULT:     -11.1      1.455      3.719
REMARK SMILES CCOC(=O)C1=NN(c2ccc(C)cc2Cl)[C@@](C)(C(=O)OCCOC(=O)c2ccc(-c3c4nc(c(-c5c(F)cccc5F)c5ccc([nH]5)c(-c5c(F)cccc5F)c5nc(c(-c6c(F)cccc6F)c6ccc3[nH]6)C=C5)C=C4)cc2)C1
REMARK SMILES IDX 22 1 21 2 19 3 20 4 17 5 6 6 7 7 81 8 8 9 18 10 4 11 5 12
REMARK SMILES IDX 3 13 2 14 1 15 9 16 10 17 15 18 11 19 14 20 16 21 12 22
REMARK SMILES IDX 13 23 23 24 24 25 25 26 26 27 27 28 28 29 80 30 29 31 79 32
REMARK SMILES IDX 30 33 31 34 32 35 73 36 33 37 78 38 72 39 74 40 34 41 77 42
REMARK SMILES IDX 71 43 70 44 35 46 61 47 44 48 60 49 45 50 48 51 59 52 75 53
REMARK SMILES IDX 46 54 47 55 58 57 76 58 49 59 36 60 37 61 42 62 38 63 39 64
REMARK SMILES IDX 41 65 43 66 40 67 62 68 63 69 68 70 64 71 65 72 67 73 69 74
REMARK SMILES IDX 66 75 50 76 51 77 56 78 52 79 53 80 55 81 57 82 54 83
REMARK H PARENT 74 45 48 56
REMARK Flexibility Score: inf
ROOT
ATOM      1  C   UNL A   1      36.524  22.681  23.655  1.00  0.00     0.274 C 
ENDROOT
BRANCH   1   2
ATOM      2  O   UNL A   1      35.875  23.506  24.645  1.00  0.00    -0.460 OA
BRANCH   2   3
ATOM      3  C   UNL A   1      34.552  23.758  24.471  1.00  0.00     0.334 C 
ATOM      4  O   UNL A   1      34.094  24.355  23.498  1.00  0.00    -0.249 OA
BRANCH   3   5
ATOM      5  C   UNL A   1      33.656  23.312  25.643  1.00  0.00     0.163 C 
ATOM      6  C   UNL A   1      31.532  24.217  25.511  1.00  0.00     0.149 C 
ATOM      7  N   UNL A   1      31.375  23.009  25.075  1.00  0.00    -0.169 NA
ATOM      8  C   UNL A   1      32.841  24.515  26.162  1.00  0.00     0.108 C 
ATOM      9  N   UNL A   1      32.575  22.376  25.263  1.00  0.00    -0.246 N 
ATOM     10  C   UNL A   1      34.597  22.812  26.736  1.00  0.00     0.050 C 
BRANCH   6  11
ATOM     11  C   UNL A   1      30.449  25.263  25.432  1.00  0.00     0.354 C 
ATOM     12  O   UNL A   1      29.880  25.678  26.415  1.00  0.00    -0.245 OA
BRANCH  11  13
ATOM     13  O   UNL A   1      30.254  25.608  24.142  1.00  0.00    -0.461 OA
BRANCH  13  14
ATOM     14  C   UNL A   1      29.038  26.328  23.875  1.00  0.00     0.230 C 
ATOM     15  C   UNL A   1      29.370  27.719  23.373  1.00  0.00     0.049 C 
ENDBRANCH  13  14
ENDBRANCH  11  13
ENDBRANCH   6  11
BRANCH   9  16
ATOM     16  C   UNL A   1      32.675  21.022  24.958  1.00  0.00     0.079 A 
ATOM     17  C   UNL A   1      32.901  20.091  25.988  1.00  0.00     0.030 A 
ATOM     18  C   UNL A   1      32.475  20.494  23.665  1.00  0.00     0.066 A 
ATOM     19  C   UNL A   1      32.957  18.713  25.752  1.00  0.00     0.006 A 
ATOM     20  C   UNL A   1      32.528  19.112  23.425  1.00  0.00     0.026 A 
ATOM     21  Cl  UNL A   1      32.212  21.499  22.276  1.00  0.00    -0.082 Cl
ATOM     22  C   UNL A   1      32.770  18.211  24.466  1.00  0.00    -0.049 A 
ATOM     23  C   UNL A   1      32.810  16.737  24.198  1.00  0.00     0.044 C 
ENDBRANCH   9  16
ENDBRANCH   3   5
ENDBRANCH   2   3
ENDBRANCH   1   2
BRANCH   1  24
ATOM     24  C   UNL A   1      37.065  21.397  24.276  1.00  0.00     0.275 C 
BRANCH  24  25
ATOM     25  O   UNL A   1      37.398  21.640  25.654  1.00  0.00    -0.458 OA
BRANCH  25  26
ATOM     26  C   UNL A   1      38.703  21.482  25.968  1.00  0.00     0.338 C 
ATOM     27  O   UNL A   1      39.409  20.518  25.725  1.00  0.00    -0.246 OA
BRANCH  26  28
ATOM     28  C   UNL A   1      39.209  22.673  26.676  1.00  0.00     0.060 A 
ATOM     29  C   UNL A   1      38.602  23.913  26.495  1.00  0.00     0.016 A 
ATOM     30  C   UNL A   1      40.412  22.582  27.374  1.00  0.00     0.016 A 
ATOM     31  C   UNL A   1      39.288  25.075  26.846  1.00  0.00     0.010 A 
ATOM     32  C   UNL A   1      41.035  23.742  27.839  1.00  0.00     0.010 A 
ATOM     33  C   UNL A   1      40.525  25.009  27.508  1.00  0.00    -0.014 A 
BRANCH  33  34
ATOM     34  C   UNL A   1      41.326  26.245  27.760  1.00  0.00     0.031 A 
ATOM     35  C   UNL A   1      40.745  27.377  28.578  1.00  0.00     0.074 A 
ATOM     36  C   UNL A   1      42.597  26.347  27.321  1.00  0.00     0.049 A 
ATOM     37  N   UNL A   1      41.234  28.573  28.802  1.00  0.00    -0.248 NA
ATOM     38  C   UNL A   1      39.450  27.134  29.234  1.00  0.00     0.031 C 
ATOM     39  C   UNL A   1      43.324  25.317  26.579  1.00  0.00     0.029 A 
ATOM     40  N   UNL A   1      43.511  27.365  27.453  1.00  0.00    -0.354 N 
ATOM     41  C   UNL A   1      40.293  29.232  29.587  1.00  0.00     0.074 A 
ATOM     42  C   UNL A   1      39.196  28.311  29.788  1.00  0.00     0.031 C 
ATOM     43  C   UNL A   1      44.582  25.731  26.369  1.00  0.00     0.029 A 
ATOM     44  C   UNL A   1      44.723  27.095  26.865  1.00  0.00     0.049 A 
ATOM     45  H   UNL A   1      43.316  28.207  27.924  1.00  0.00     0.167 HD
ATOM     46  C   UNL A   1      40.340  30.482  30.105  1.00  0.00     0.037 A 
ATOM     47  C   UNL A   1      45.813  27.868  26.694  1.00  0.00     0.037 A 
ATOM     48  C   UNL A   1      41.439  31.397  29.941  1.00  0.00     0.049 A 
ATOM     49  C   UNL A   1      45.798  29.287  27.179  1.00  0.00     0.074 A 
ATOM     50  C   UNL A   1      41.567  32.690  30.421  1.00  0.00     0.029 A 
ATOM     51  N   UNL A   1      42.608  31.111  29.253  1.00  0.00    -0.354 N 
ATOM     52  N   UNL A   1      44.870  29.919  27.855  1.00  0.00    -0.248 NA
ATOM     53  C   UNL A   1      46.970  30.110  26.850  1.00  0.00     0.031 C 
ATOM     54  C   UNL A   1      42.800  33.197  29.997  1.00  0.00     0.029 A 
ATOM     55  C   UNL A   1      43.455  32.207  29.283  1.00  0.00     0.049 A 
ATOM     56  H   UNL A   1      42.805  30.255  28.808  1.00  0.00     0.167 HD
ATOM     57  C   UNL A   1      45.348  31.208  28.040  1.00  0.00     0.074 A 
ATOM     58  C   UNL A   1      46.657  31.265  27.422  1.00  0.00     0.031 C 
ATOM     59  C   UNL A   1      44.753  32.255  28.663  1.00  0.00     0.037 A 
BRANCH  46  60
ATOM     60  C   UNL A   1      39.148  30.950  30.889  1.00  0.00     0.057 A 
ATOM     61  C   UNL A   1      38.065  31.591  30.276  1.00  0.00     0.134 A 
ATOM     62  C   UNL A   1      39.067  30.719  32.268  1.00  0.00     0.134 A 
ATOM     63  F   UNL A   1      38.087  31.854  28.960  1.00  0.00    -0.206 F 
ATOM     64  C   UNL A   1      36.951  32.001  31.010  1.00  0.00     0.040 A 
ATOM     65  C   UNL A   1      37.949  31.106  33.009  1.00  0.00     0.040 A 
ATOM     66  F   UNL A   1      40.068  30.101  32.915  1.00  0.00    -0.206 F 
ATOM     67  C   UNL A   1      36.888  31.753  32.380  1.00  0.00     0.006 A 
ENDBRANCH  46  60
BRANCH  47  68
ATOM     68  C   UNL A   1      46.993  27.325  25.974  1.00  0.00     0.057 A 
ATOM     69  C   UNL A   1      47.125  27.466  24.589  1.00  0.00     0.134 A 
ATOM     70  C   UNL A   1      48.021  26.662  26.657  1.00  0.00     0.134 A 
ATOM     71  F   UNL A   1      46.160  28.067  23.877  1.00  0.00    -0.206 F 
ATOM     72  C   UNL A   1      48.237  26.969  23.908  1.00  0.00     0.040 A 
ATOM     73  C   UNL A   1      49.151  26.185  25.994  1.00  0.00     0.040 A 
ATOM     74  F   UNL A   1      47.951  26.492  27.985  1.00  0.00    -0.206 F 
ATOM     75  C   UNL A   1      49.259  26.336  24.613  1.00  0.00     0.006 A 
ENDBRANCH  47  68
BRANCH  59  76
ATOM     76  C   UNL A   1      45.524  33.537  28.729  1.00  0.00     0.057 A 
ATOM     77  C   UNL A   1      46.427  33.800  29.767  1.00  0.00     0.134 A 
ATOM     78  C   UNL A   1      45.376  34.513  27.735  1.00  0.00     0.134 A 
ATOM     79  F   UNL A   1      46.601  32.912  30.757  1.00  0.00    -0.206 F 
ATOM     80  C   UNL A   1      47.140  34.999  29.825  1.00  0.00     0.040 A 
ATOM     81  C   UNL A   1      46.099  35.706  27.772  1.00  0.00     0.040 A 
ATOM     82  F   UNL A   1      44.530  34.319  26.712  1.00  0.00    -0.206 F 
ATOM     83  C   UNL A   1      46.980  35.954  28.822  1.00  0.00     0.006 A 
ENDBRANCH  59  76
ENDBRANCH  33  34
ENDBRANCH  26  28
ENDBRANCH  25  26
ENDBRANCH  24  25
ENDBRANCH   1  24
TORSDOF 15
ENDMDL
