MODEL 1
REMARK VINA RESULT:     -10.9      0.000      0.000
REMARK SMILES O=C(CC1(C[S@@](=O)C[C@H]2Cc3ccccc3S2)CC1)OCCOC(=O)c1ccc(-c2c3nc(c(-c4c(F)cccc4F)c4ccc([nH]4)c(-c4c(F)cccc4F)c4nc(c(-c5c(F)cccc5F)c5ccc2[nH]5)C=C4)C=C3)cc1
REMARK SMILES IDX 20 1 2 2 1 3 3 4 4 5 18 6 19 7 5 8 6 9 7 10 8 11 9 12 10 13
REMARK SMILES IDX 17 14 11 15 16 16 12 17 15 18 13 19 14 20 21 21 22 22 23 23
REMARK SMILES IDX 24 24 25 25 26 26 27 27 79 28 28 29 78 30 29 31 30 32 31 33
REMARK SMILES IDX 72 34 32 35 77 36 71 37 73 38 33 39 76 40 70 41 69 42 34 44
REMARK SMILES IDX 60 45 43 46 59 47 44 48 47 49 58 50 74 51 45 52 46 53 57 55
REMARK SMILES IDX 75 56 48 57 35 58 36 59 41 60 37 61 38 62 40 63 42 64 39 65
REMARK SMILES IDX 61 66 62 67 67 68 63 69 64 70 66 71 68 72 65 73 49 74 50 75
REMARK SMILES IDX 55 76 51 77 52 78 54 79 56 80 53 81
REMARK H PARENT 73 43 47 54
REMARK Flexibility Score: inf
ROOT
ATOM      1  O   UNL A   1      32.576  30.466  26.389  1.00  0.00    -0.462 OA
ENDROOT
BRANCH   1   2
ATOM      2  C   UNL A   1      32.718  29.204  25.963  1.00  0.00     0.306 C 
ATOM      3  O   UNL A   1      33.792  28.696  25.669  1.00  0.00    -0.252 OA
BRANCH   2   4
ATOM      4  C   UNL A   1      31.391  28.591  25.597  1.00  0.00     0.130 C 
BRANCH   4   5
ATOM      5  C   UNL A   1      31.148  27.192  25.005  1.00  0.00    -0.008 C 
ATOM      6  C   UNL A   1      30.304  27.357  23.723  1.00  0.00     0.009 C 
ATOM      7  C   UNL A   1      31.695  26.859  23.614  1.00  0.00     0.009 C 
BRANCH   5   8
ATOM      8  C   UNL A   1      30.673  26.036  25.890  1.00  0.00     0.112 C 
BRANCH   8   9
ATOM      9  S   UNL A   1      31.568  24.493  25.995  1.00  0.00     0.023 S 
ATOM     10  O   UNL A   1      31.513  23.948  27.388  1.00  0.00    -0.260 OA
BRANCH   9  11
ATOM     11  C   UNL A   1      30.966  23.303  24.815  1.00  0.00     0.120 C 
BRANCH  11  12
ATOM     12  C   UNL A   1      31.994  22.429  24.076  1.00  0.00     0.068 C 
ATOM     13  C   UNL A   1      33.136  23.208  23.410  1.00  0.00     0.052 C 
ATOM     14  S   UNL A   1      32.724  21.032  25.017  1.00  0.00    -0.121 SA
ATOM     15  C   UNL A   1      34.453  22.602  23.790  1.00  0.00    -0.033 A 
ATOM     16  C   UNL A   1      34.382  21.447  24.565  1.00  0.00     0.011 A 
ATOM     17  C   UNL A   1      35.695  23.114  23.416  1.00  0.00     0.005 A 
ATOM     18  C   UNL A   1      35.537  20.786  24.967  1.00  0.00     0.015 A 
ATOM     19  C   UNL A   1      36.861  22.484  23.854  1.00  0.00     0.000 A 
ATOM     20  C   UNL A   1      36.783  21.318  24.620  1.00  0.00     0.001 A 
ENDBRANCH  11  12
ENDBRANCH   9  11
ENDBRANCH   8   9
ENDBRANCH   5   8
ENDBRANCH   4   5
ENDBRANCH   2   4
ENDBRANCH   1   2
BRANCH   1  21
ATOM     21  C   UNL A   1      31.395  31.228  26.089  1.00  0.00     0.274 C 
BRANCH  21  22
ATOM     22  C   UNL A   1      31.503  32.502  26.925  1.00  0.00     0.275 C 
BRANCH  22  23
ATOM     23  O   UNL A   1      32.824  33.073  26.819  1.00  0.00    -0.458 OA
BRANCH  23  24
ATOM     24  C   UNL A   1      33.264  33.733  27.924  1.00  0.00     0.338 C 
ATOM     25  O   UNL A   1      32.681  34.607  28.512  1.00  0.00    -0.246 OA
BRANCH  24  26
ATOM     26  C   UNL A   1      34.515  33.066  28.394  1.00  0.00     0.060 A 
ATOM     27  C   UNL A   1      35.752  33.721  28.383  1.00  0.00     0.016 A 
ATOM     28  C   UNL A   1      34.445  31.725  28.793  1.00  0.00     0.016 A 
ATOM     29  C   UNL A   1      36.902  33.048  28.803  1.00  0.00     0.010 A 
ATOM     30  C   UNL A   1      35.593  31.055  29.232  1.00  0.00     0.010 A 
ATOM     31  C   UNL A   1      36.824  31.723  29.270  1.00  0.00    -0.014 A 
BRANCH  31  32
ATOM     32  C   UNL A   1      37.974  31.148  30.013  1.00  0.00     0.031 A 
ATOM     33  C   UNL A   1      38.285  31.495  31.437  1.00  0.00     0.074 A 
ATOM     34  C   UNL A   1      38.761  30.285  29.344  1.00  0.00     0.049 A 
ATOM     35  N   UNL A   1      39.195  30.976  32.224  1.00  0.00    -0.248 NA
ATOM     36  C   UNL A   1      37.486  32.559  32.057  1.00  0.00     0.031 C 
ATOM     37  C   UNL A   1      38.589  29.914  27.936  1.00  0.00     0.029 A 
ATOM     38  N   UNL A   1      39.852  29.561  29.748  1.00  0.00    -0.354 N 
ATOM     39  C   UNL A   1      39.062  31.622  33.444  1.00  0.00     0.074 A 
ATOM     40  C   UNL A   1      38.014  32.612  33.275  1.00  0.00     0.031 C 
ATOM     41  C   UNL A   1      39.527  29.017  27.600  1.00  0.00     0.029 A 
ATOM     42  C   UNL A   1      40.375  28.766  28.759  1.00  0.00     0.049 A 
ATOM     43  H   UNL A   1      40.223  29.607  30.658  1.00  0.00     0.167 HD
ATOM     44  C   UNL A   1      39.740  31.398  34.598  1.00  0.00     0.037 A 
ATOM     45  C   UNL A   1      41.422  27.923  28.780  1.00  0.00     0.037 A 
ATOM     46  C   UNL A   1      40.816  30.446  34.745  1.00  0.00     0.049 A 
ATOM     47  C   UNL A   1      42.179  27.726  30.058  1.00  0.00     0.074 A 
ATOM     48  C   UNL A   1      41.540  30.126  35.882  1.00  0.00     0.029 A 
ATOM     49  N   UNL A   1      41.340  29.675  33.716  1.00  0.00    -0.354 N 
ATOM     50  N   UNL A   1      41.975  28.271  31.233  1.00  0.00    -0.248 NA
ATOM     51  C   UNL A   1      43.307  26.787  30.015  1.00  0.00     0.031 C 
ATOM     52  C   UNL A   1      42.531  29.200  35.531  1.00  0.00     0.029 A 
ATOM     53  C   UNL A   1      42.395  28.904  34.186  1.00  0.00     0.049 A 
ATOM     54  H   UNL A   1      41.011  29.675  32.788  1.00  0.00     0.167 HD
ATOM     55  C   UNL A   1      42.938  27.730  32.073  1.00  0.00     0.074 A 
ATOM     56  C   UNL A   1      43.706  26.792  31.278  1.00  0.00     0.031 C 
ATOM     57  C   UNL A   1      43.167  27.990  33.383  1.00  0.00     0.037 A 
BRANCH  44  58
ATOM     58  C   UNL A   1      39.334  32.195  35.805  1.00  0.00     0.057 A 
ATOM     59  C   UNL A   1      38.370  31.716  36.702  1.00  0.00     0.134 A 
ATOM     60  C   UNL A   1      39.856  33.474  36.044  1.00  0.00     0.134 A 
ATOM     61  F   UNL A   1      37.818  30.507  36.526  1.00  0.00    -0.206 F 
ATOM     62  C   UNL A   1      37.942  32.480  37.791  1.00  0.00     0.040 A 
ATOM     63  C   UNL A   1      39.452  34.238  37.141  1.00  0.00     0.040 A 
ATOM     64  F   UNL A   1      40.785  33.993  35.226  1.00  0.00    -0.206 F 
ATOM     65  C   UNL A   1      38.487  33.743  38.015  1.00  0.00     0.006 A 
ENDBRANCH  44  58
BRANCH  45  66
ATOM     66  C   UNL A   1      41.798  27.185  27.551  1.00  0.00     0.057 A 
ATOM     67  C   UNL A   1      42.705  27.722  26.630  1.00  0.00     0.134 A 
ATOM     68  C   UNL A   1      41.263  25.923  27.274  1.00  0.00     0.134 A 
ATOM     69  F   UNL A   1      43.242  28.934  26.836  1.00  0.00    -0.206 F 
ATOM     70  C   UNL A   1      43.065  27.030  25.474  1.00  0.00     0.040 A 
ATOM     71  C   UNL A   1      41.634  25.208  26.135  1.00  0.00     0.040 A 
ATOM     72  F   UNL A   1      40.400  25.354  28.128  1.00  0.00    -0.206 F 
ATOM     73  C   UNL A   1      42.537  25.764  25.229  1.00  0.00     0.006 A 
ENDBRANCH  45  66
BRANCH  57  74
ATOM     74  C   UNL A   1      44.296  27.237  34.028  1.00  0.00     0.057 A 
ATOM     75  C   UNL A   1      44.085  25.978  34.602  1.00  0.00     0.134 A 
ATOM     76  C   UNL A   1      45.600  27.751  34.059  1.00  0.00     0.134 A 
ATOM     77  F   UNL A   1      42.860  25.430  34.609  1.00  0.00    -0.206 F 
ATOM     78  C   UNL A   1      45.130  25.253  35.176  1.00  0.00     0.040 A 
ATOM     79  C   UNL A   1      46.659  27.023  34.605  1.00  0.00     0.040 A 
ATOM     80  F   UNL A   1      45.875  28.943  33.508  1.00  0.00    -0.206 F 
ATOM     81  C   UNL A   1      46.423  25.771  35.169  1.00  0.00     0.006 A 
ENDBRANCH  57  74
ENDBRANCH  31  32
ENDBRANCH  24  26
ENDBRANCH  23  24
ENDBRANCH  22  23
ENDBRANCH  21  22
ENDBRANCH   1  21
TORSDOF 16
ENDMDL
MODEL 2
REMARK VINA RESULT:     -10.8      4.090      9.489
REMARK SMILES O=C(CC1(C[S@@](=O)C[C@H]2Cc3ccccc3S2)CC1)OCCOC(=O)c1ccc(-c2c3nc(c(-c4c(F)cccc4F)c4ccc([nH]4)c(-c4c(F)cccc4F)c4nc(c(-c5c(F)cccc5F)c5ccc2[nH]5)C=C4)C=C3)cc1
REMARK SMILES IDX 20 1 2 2 1 3 3 4 4 5 18 6 19 7 5 8 6 9 7 10 8 11 9 12 10 13
REMARK SMILES IDX 17 14 11 15 16 16 12 17 15 18 13 19 14 20 21 21 22 22 23 23
REMARK SMILES IDX 24 24 25 25 26 26 27 27 79 28 28 29 78 30 29 31 30 32 31 33
REMARK SMILES IDX 72 34 32 35 77 36 71 37 73 38 33 39 76 40 70 41 69 42 34 44
REMARK SMILES IDX 60 45 43 46 59 47 44 48 47 49 58 50 74 51 45 52 46 53 57 55
REMARK SMILES IDX 75 56 48 57 35 58 36 59 41 60 37 61 38 62 40 63 42 64 39 65
REMARK SMILES IDX 61 66 62 67 67 68 63 69 64 70 66 71 68 72 65 73 49 74 50 75
REMARK SMILES IDX 55 76 51 77 52 78 54 79 56 80 53 81
REMARK H PARENT 73 43 47 54
REMARK Flexibility Score: inf
ROOT
ATOM      1  O   UNL A   1      35.528  21.380  25.889  1.00  0.00    -0.462 OA
ENDROOT
BRANCH   1   2
ATOM      2  C   UNL A   1      34.306  21.834  26.198  1.00  0.00     0.306 C 
ATOM      3  O   UNL A   1      33.611  21.377  27.096  1.00  0.00    -0.252 OA
BRANCH   2   4
ATOM      4  C   UNL A   1      33.770  22.752  25.129  1.00  0.00     0.130 C 
BRANCH   4   5
ATOM      5  C   UNL A   1      32.501  22.548  24.284  1.00  0.00    -0.008 C 
ATOM      6  C   UNL A   1      32.815  22.988  22.838  1.00  0.00     0.009 C 
ATOM      7  C   UNL A   1      32.527  21.561  23.114  1.00  0.00     0.009 C 
BRANCH   5   8
ATOM      8  C   UNL A   1      31.140  23.045  24.779  1.00  0.00     0.112 C 
BRANCH   8   9
ATOM      9  S   UNL A   1      30.983  24.459  25.859  1.00  0.00     0.023 S 
ATOM     10  O   UNL A   1      31.403  24.105  27.252  1.00  0.00    -0.260 OA
BRANCH   9  11
ATOM     11  C   UNL A   1      31.899  25.858  25.248  1.00  0.00     0.120 C 
BRANCH  11  12
ATOM     12  C   UNL A   1      31.365  26.589  24.005  1.00  0.00     0.068 C 
ATOM     13  C   UNL A   1      29.872  26.369  23.723  1.00  0.00     0.052 C 
ATOM     14  S   UNL A   1      31.712  28.388  23.887  1.00  0.00    -0.121 SA
ATOM     15  C   UNL A   1      29.198  27.689  23.500  1.00  0.00    -0.033 A 
ATOM     16  C   UNL A   1      30.036  28.800  23.502  1.00  0.00     0.011 A 
ATOM     17  C   UNL A   1      27.828  27.850  23.294  1.00  0.00     0.005 A 
ATOM     18  C   UNL A   1      29.529  30.077  23.290  1.00  0.00     0.015 A 
ATOM     19  C   UNL A   1      27.303  29.132  23.128  1.00  0.00     0.000 A 
ATOM     20  C   UNL A   1      28.151  30.242  23.117  1.00  0.00     0.001 A 
ENDBRANCH  11  12
ENDBRANCH   9  11
ENDBRANCH   8   9
ENDBRANCH   5   8
ENDBRANCH   4   5
ENDBRANCH   2   4
ENDBRANCH   1   2
BRANCH   1  21
ATOM     21  C   UNL A   1      35.707  20.265  25.001  1.00  0.00     0.274 C 
BRANCH  21  22
ATOM     22  C   UNL A   1      37.215  20.154  24.779  1.00  0.00     0.275 C 
BRANCH  22  23
ATOM     23  O   UNL A   1      37.900  21.288  25.351  1.00  0.00    -0.458 OA
BRANCH  23  24
ATOM     24  C   UNL A   1      39.079  21.005  25.969  1.00  0.00     0.338 C 
ATOM     25  O   UNL A   1      39.656  19.948  25.957  1.00  0.00    -0.246 OA
BRANCH  24  26
ATOM     26  C   UNL A   1      39.630  22.279  26.520  1.00  0.00     0.060 A 
ATOM     27  C   UNL A   1      40.671  22.292  27.456  1.00  0.00     0.016 A 
ATOM     28  C   UNL A   1      39.034  23.486  26.131  1.00  0.00     0.016 A 
ATOM     29  C   UNL A   1      41.134  23.507  27.967  1.00  0.00     0.010 A 
ATOM     30  C   UNL A   1      39.510  24.704  26.627  1.00  0.00     0.010 A 
ATOM     31  C   UNL A   1      40.585  24.724  27.526  1.00  0.00    -0.014 A 
BRANCH  31  32
ATOM     32  C   UNL A   1      41.302  25.991  27.820  1.00  0.00     0.031 A 
ATOM     33  C   UNL A   1      42.707  26.260  27.377  1.00  0.00     0.074 A 
ATOM     34  C   UNL A   1      40.632  26.919  28.529  1.00  0.00     0.049 A 
ATOM     35  N   UNL A   1      43.399  27.368  27.479  1.00  0.00    -0.248 NA
ATOM     36  C   UNL A   1      43.435  25.149  26.748  1.00  0.00     0.031 C 
ATOM     37  C   UNL A   1      39.278  26.747  29.063  1.00  0.00     0.029 A 
ATOM     38  N   UNL A   1      40.986  28.183  28.919  1.00  0.00    -0.354 N 
ATOM     39  C   UNL A   1      44.632  27.106  26.899  1.00  0.00     0.074 A 
ATOM     40  C   UNL A   1      44.612  25.713  26.494  1.00  0.00     0.031 C 
ATOM     41  C   UNL A   1      38.908  27.871  29.692  1.00  0.00     0.029 A 
ATOM     42  C   UNL A   1      40.003  28.832  29.624  1.00  0.00     0.049 A 
ATOM     43  H   UNL A   1      41.860  28.587  28.714  1.00  0.00     0.167 HD
ATOM     44  C   UNL A   1      45.675  27.954  26.712  1.00  0.00     0.037 A 
ATOM     45  C   UNL A   1      39.980  30.066  30.157  1.00  0.00     0.037 A 
ATOM     46  C   UNL A   1      45.707  29.326  27.162  1.00  0.00     0.049 A 
ATOM     47  C   UNL A   1      41.163  30.967  29.969  1.00  0.00     0.074 A 
ATOM     48  C   UNL A   1      46.705  30.271  26.989  1.00  0.00     0.029 A 
ATOM     49  N   UNL A   1      44.705  29.945  27.897  1.00  0.00    -0.354 N 
ATOM     50  N   UNL A   1      42.284  30.738  29.329  1.00  0.00    -0.248 NA
ATOM     51  C   UNL A   1      41.072  32.304  30.569  1.00  0.00     0.031 C 
ATOM     52  C   UNL A   1      46.329  31.443  27.658  1.00  0.00     0.029 A 
ATOM     53  C   UNL A   1      45.074  31.246  28.209  1.00  0.00     0.049 A 
ATOM     54  H   UNL A   1      43.855  29.521  28.159  1.00  0.00     0.167 HD
ATOM     55  C   UNL A   1      43.025  31.906  29.435  1.00  0.00     0.074 A 
ATOM     56  C   UNL A   1      42.212  32.850  30.176  1.00  0.00     0.031 C 
ATOM     57  C   UNL A   1      44.268  32.171  28.965  1.00  0.00     0.037 A 
BRANCH  44  58
ATOM     58  C   UNL A   1      46.873  27.425  25.976  1.00  0.00     0.057 A 
ATOM     59  C   UNL A   1      46.988  27.551  24.586  1.00  0.00     0.134 A 
ATOM     60  C   UNL A   1      47.889  26.728  26.644  1.00  0.00     0.134 A 
ATOM     61  F   UNL A   1      46.044  28.193  23.880  1.00  0.00    -0.206 F 
ATOM     62  C   UNL A   1      48.068  27.005  23.889  1.00  0.00     0.040 A 
ATOM     63  C   UNL A   1      48.986  26.197  25.962  1.00  0.00     0.040 A 
ATOM     64  F   UNL A   1      47.845  26.573  27.977  1.00  0.00    -0.206 F 
ATOM     65  C   UNL A   1      49.074  26.330  24.578  1.00  0.00     0.006 A 
ENDBRANCH  44  58
BRANCH  45  66
ATOM     66  C   UNL A   1      38.783  30.526  30.899  1.00  0.00     0.057 A 
ATOM     67  C   UNL A   1      38.632  30.265  32.266  1.00  0.00     0.134 A 
ATOM     68  C   UNL A   1      37.766  31.242  30.259  1.00  0.00     0.134 A 
ATOM     69  F   UNL A   1      39.568  29.573  32.931  1.00  0.00    -0.206 F 
ATOM     70  C   UNL A   1      37.509  30.700  32.970  1.00  0.00     0.040 A 
ATOM     71  C   UNL A   1      36.651  31.705  30.956  1.00  0.00     0.040 A 
ATOM     72  F   UNL A   1      37.865  31.532  28.953  1.00  0.00    -0.206 F 
ATOM     73  C   UNL A   1      36.519  31.431  32.317  1.00  0.00     0.006 A 
ENDBRANCH  45  66
BRANCH  57  74
ATOM     74  C   UNL A   1      44.811  33.544  29.242  1.00  0.00     0.057 A 
ATOM     75  C   UNL A   1      44.555  34.607  28.368  1.00  0.00     0.134 A 
ATOM     76  C   UNL A   1      45.569  33.818  30.390  1.00  0.00     0.134 A 
ATOM     77  F   UNL A   1      43.840  34.413  27.250  1.00  0.00    -0.206 F 
ATOM     78  C   UNL A   1      45.026  35.895  28.629  1.00  0.00     0.040 A 
ATOM     79  C   UNL A   1      46.021  35.108  30.675  1.00  0.00     0.040 A 
ATOM     80  F   UNL A   1      45.832  32.848  31.279  1.00  0.00    -0.206 F 
ATOM     81  C   UNL A   1      45.751  36.150  29.790  1.00  0.00     0.006 A 
ENDBRANCH  57  74
ENDBRANCH  31  32
ENDBRANCH  24  26
ENDBRANCH  23  24
ENDBRANCH  22  23
ENDBRANCH  21  22
ENDBRANCH   1  21
TORSDOF 16
ENDMDL
MODEL 3
REMARK VINA RESULT:     -10.8      4.084      8.290
REMARK SMILES O=C(CC1(C[S@@](=O)C[C@H]2Cc3ccccc3S2)CC1)OCCOC(=O)c1ccc(-c2c3nc(c(-c4c(F)cccc4F)c4ccc([nH]4)c(-c4c(F)cccc4F)c4nc(c(-c5c(F)cccc5F)c5ccc2[nH]5)C=C4)C=C3)cc1
REMARK SMILES IDX 20 1 2 2 1 3 3 4 4 5 18 6 19 7 5 8 6 9 7 10 8 11 9 12 10 13
REMARK SMILES IDX 17 14 11 15 16 16 12 17 15 18 13 19 14 20 21 21 22 22 23 23
REMARK SMILES IDX 24 24 25 25 26 26 27 27 79 28 28 29 78 30 29 31 30 32 31 33
REMARK SMILES IDX 72 34 32 35 77 36 71 37 73 38 33 39 76 40 70 41 69 42 34 44
REMARK SMILES IDX 60 45 43 46 59 47 44 48 47 49 58 50 74 51 45 52 46 53 57 55
REMARK SMILES IDX 75 56 48 57 35 58 36 59 41 60 37 61 38 62 40 63 42 64 39 65
REMARK SMILES IDX 61 66 62 67 67 68 63 69 64 70 66 71 68 72 65 73 49 74 50 75
REMARK SMILES IDX 55 76 51 77 52 78 54 79 56 80 53 81
REMARK H PARENT 73 43 47 54
REMARK Flexibility Score: inf
ROOT
ATOM      1  O   UNL A   1      34.355  32.721  30.008  1.00  0.00    -0.462 OA
ENDROOT
BRANCH   1   2
ATOM      2  C   UNL A   1      34.392  32.921  28.683  1.00  0.00     0.306 C 
ATOM      3  O   UNL A   1      33.553  33.560  28.062  1.00  0.00    -0.252 OA
BRANCH   2   4
ATOM      4  C   UNL A   1      35.401  32.022  28.016  1.00  0.00     0.130 C 
BRANCH   4   5
ATOM      5  C   UNL A   1      35.277  30.507  27.778  1.00  0.00    -0.008 C 
ATOM      6  C   UNL A   1      36.699  29.936  27.593  1.00  0.00     0.009 C 
ATOM      7  C   UNL A   1      35.907  29.534  28.779  1.00  0.00     0.009 C 
BRANCH   5   8
ATOM      8  C   UNL A   1      34.272  29.951  26.765  1.00  0.00     0.112 C 
BRANCH   8   9
ATOM      9  S   UNL A   1      33.197  28.578  27.153  1.00  0.00     0.023 S 
ATOM     10  O   UNL A   1      31.762  28.989  27.047  1.00  0.00    -0.260 OA
BRANCH   9  11
ATOM     11  C   UNL A   1      33.539  27.165  26.125  1.00  0.00     0.120 C 
BRANCH  11  12
ATOM     12  C   UNL A   1      32.885  27.103  24.734  1.00  0.00     0.068 C 
ATOM     13  C   UNL A   1      31.485  26.474  24.712  1.00  0.00     0.052 C 
ATOM     14  S   UNL A   1      32.827  28.667  23.775  1.00  0.00    -0.121 SA
ATOM     15  C   UNL A   1      30.540  27.366  23.964  1.00  0.00    -0.033 A 
ATOM     16  C   UNL A   1      31.111  28.496  23.385  1.00  0.00     0.011 A 
ATOM     17  C   UNL A   1      29.173  27.126  23.823  1.00  0.00     0.005 A 
ATOM     18  C   UNL A   1      30.338  29.391  22.654  1.00  0.00     0.015 A 
ATOM     19  C   UNL A   1      28.381  28.043  23.131  1.00  0.00     0.000 A 
ATOM     20  C   UNL A   1      28.962  29.168  22.540  1.00  0.00     0.001 A 
ENDBRANCH  11  12
ENDBRANCH   9  11
ENDBRANCH   8   9
ENDBRANCH   5   8
ENDBRANCH   4   5
ENDBRANCH   2   4
ENDBRANCH   1   2
BRANCH   1  21
ATOM     21  C   UNL A   1      34.488  33.812  30.932  1.00  0.00     0.274 C 
BRANCH  21  22
ATOM     22  C   UNL A   1      34.398  33.187  32.324  1.00  0.00     0.275 C 
BRANCH  22  23
ATOM     23  O   UNL A   1      35.470  32.243  32.529  1.00  0.00    -0.458 OA
BRANCH  23  24
ATOM     24  C   UNL A   1      36.696  32.792  32.744  1.00  0.00     0.338 C 
ATOM     25  O   UNL A   1      36.967  33.640  33.554  1.00  0.00    -0.246 OA
BRANCH  24  26
ATOM     26  C   UNL A   1      37.691  32.036  31.924  1.00  0.00     0.060 A 
ATOM     27  C   UNL A   1      37.873  32.292  30.560  1.00  0.00     0.016 A 
ATOM     28  C   UNL A   1      38.408  31.000  32.536  1.00  0.00     0.016 A 
ATOM     29  C   UNL A   1      38.794  31.540  29.826  1.00  0.00     0.010 A 
ATOM     30  C   UNL A   1      39.344  30.259  31.807  1.00  0.00     0.010 A 
ATOM     31  C   UNL A   1      39.566  30.546  30.453  1.00  0.00    -0.014 A 
BRANCH  31  32
ATOM     32  C   UNL A   1      40.753  29.998  29.749  1.00  0.00     0.031 A 
ATOM     33  C   UNL A   1      40.837  28.585  29.261  1.00  0.00     0.074 A 
ATOM     34  C   UNL A   1      41.791  30.836  29.564  1.00  0.00     0.049 A 
ATOM     35  N   UNL A   1      41.775  28.024  28.538  1.00  0.00    -0.248 NA
ATOM     36  C   UNL A   1      39.740  27.682  29.634  1.00  0.00     0.031 C 
ATOM     37  C   UNL A   1      41.845  32.220  30.045  1.00  0.00     0.029 A 
ATOM     38  N   UNL A   1      42.989  30.658  28.924  1.00  0.00    -0.354 N 
ATOM     39  C   UNL A   1      41.372  26.711  28.337  1.00  0.00     0.074 A 
ATOM     40  C   UNL A   1      40.127  26.545  29.062  1.00  0.00     0.031 C 
ATOM     41  C   UNL A   1      43.007  32.771  29.666  1.00  0.00     0.029 A 
ATOM     42  C   UNL A   1      43.784  31.777  28.935  1.00  0.00     0.049 A 
ATOM     43  H   UNL A   1      43.253  29.811  28.499  1.00  0.00     0.167 HD
ATOM     44  C   UNL A   1      41.979  25.744  27.604  1.00  0.00     0.037 A 
ATOM     45  C   UNL A   1      45.005  31.985  28.412  1.00  0.00     0.037 A 
ATOM     46  C   UNL A   1      43.244  25.902  26.925  1.00  0.00     0.049 A 
ATOM     47  C   UNL A   1      45.670  30.884  27.642  1.00  0.00     0.074 A 
ATOM     48  C   UNL A   1      43.922  24.990  26.132  1.00  0.00     0.029 A 
ATOM     49  N   UNL A   1      44.038  27.040  26.979  1.00  0.00    -0.354 N 
ATOM     50  N   UNL A   1      45.229  29.679  27.375  1.00  0.00    -0.248 NA
ATOM     51  C   UNL A   1      46.999  31.179  27.092  1.00  0.00     0.031 C 
ATOM     52  C   UNL A   1      45.143  25.557  25.746  1.00  0.00     0.029 A 
ATOM     53  C   UNL A   1      45.208  26.842  26.258  1.00  0.00     0.049 A 
ATOM     54  H   UNL A   1      43.804  27.868  27.458  1.00  0.00     0.167 HD
ATOM     55  C   UNL A   1      46.219  29.076  26.612  1.00  0.00     0.074 A 
ATOM     56  C   UNL A   1      47.269  30.060  26.436  1.00  0.00     0.031 C 
ATOM     57  C   UNL A   1      46.256  27.819  26.106  1.00  0.00     0.037 A 
BRANCH  44  58
ATOM     58  C   UNL A   1      41.277  24.421  27.488  1.00  0.00     0.057 A 
ATOM     59  C   UNL A   1      41.744  23.288  28.166  1.00  0.00     0.134 A 
ATOM     60  C   UNL A   1      40.168  24.256  26.647  1.00  0.00     0.134 A 
ATOM     61  F   UNL A   1      42.811  23.370  28.976  1.00  0.00    -0.206 F 
ATOM     62  C   UNL A   1      41.134  22.041  28.012  1.00  0.00     0.040 A 
ATOM     63  C   UNL A   1      39.536  23.019  26.502  1.00  0.00     0.040 A 
ATOM     64  F   UNL A   1      39.666  25.300  25.970  1.00  0.00    -0.206 F 
ATOM     65  C   UNL A   1      40.023  21.905  27.182  1.00  0.00     0.006 A 
ENDBRANCH  44  58
BRANCH  45  66
ATOM     66  C   UNL A   1      45.665  33.301  28.583  1.00  0.00     0.057 A 
ATOM     67  C   UNL A   1      46.541  33.541  29.648  1.00  0.00     0.134 A 
ATOM     68  C   UNL A   1      45.438  34.345  27.682  1.00  0.00     0.134 A 
ATOM     69  F   UNL A   1      46.789  32.581  30.551  1.00  0.00    -0.206 F 
ATOM     70  C   UNL A   1      47.168  34.775  29.811  1.00  0.00     0.040 A 
ATOM     71  C   UNL A   1      46.079  35.577  27.817  1.00  0.00     0.040 A 
ATOM     72  F   UNL A   1      44.619  34.168  26.635  1.00  0.00    -0.206 F 
ATOM     73  C   UNL A   1      46.945  35.795  28.888  1.00  0.00     0.006 A 
ENDBRANCH  45  66
BRANCH  57  74
ATOM     74  C   UNL A   1      47.477  27.453  25.312  1.00  0.00     0.057 A 
ATOM     75  C   UNL A   1      48.586  26.864  25.930  1.00  0.00     0.134 A 
ATOM     76  C   UNL A   1      47.545  27.662  23.927  1.00  0.00     0.134 A 
ATOM     77  F   UNL A   1      48.589  26.638  27.253  1.00  0.00    -0.206 F 
ATOM     78  C   UNL A   1      49.715  26.488  25.200  1.00  0.00     0.040 A 
ATOM     79  C   UNL A   1      48.657  27.265  23.182  1.00  0.00     0.040 A 
ATOM     80  F   UNL A   1      46.508  28.203  23.269  1.00  0.00    -0.206 F 
ATOM     81  C   UNL A   1      49.748  26.679  23.821  1.00  0.00     0.006 A 
ENDBRANCH  57  74
ENDBRANCH  31  32
ENDBRANCH  24  26
ENDBRANCH  23  24
ENDBRANCH  22  23
ENDBRANCH  21  22
ENDBRANCH   1  21
TORSDOF 16
ENDMDL
