MODEL 1
REMARK VINA RESULT:     -10.7      0.000      0.000
REMARK SMILES O=C(C[C@@H]1CN(C(=O)N2CCC[C@H]2CO)CCO1)OCCOC(=O)c1ccc(-c2c3nc(c(-c4c(F)cccc4F)c4ccc([nH]4)c(-c4c(F)cccc4F)c4nc(c(-c5c(F)cccc5F)c5ccc2[nH]5)C=C4)C=C3)cc1
REMARK SMILES IDX 19 1 2 2 1 3 3 4 4 5 5 6 18 7 6 8 17 9 16 10 7 11 8 12 9 13
REMARK SMILES IDX 10 14 13 15 11 16 12 17 14 18 15 19 20 21 21 22 22 23 23 24
REMARK SMILES IDX 24 25 25 26 26 27 78 28 27 29 77 30 28 31 29 32 30 33 71 34
REMARK SMILES IDX 31 35 76 36 70 37 72 38 32 39 75 40 69 41 68 42 33 44 59 45
REMARK SMILES IDX 42 46 58 47 43 48 46 49 57 50 73 51 44 52 45 53 56 55 74 56
REMARK SMILES IDX 47 57 34 58 35 59 40 60 36 61 37 62 39 63 41 64 38 65 60 66
REMARK SMILES IDX 61 67 66 68 62 69 63 70 65 71 67 72 64 73 48 74 49 75 54 76
REMARK SMILES IDX 50 77 51 78 53 79 55 80 52 81
REMARK H PARENT 15 20 72 43 46 54
REMARK Flexibility Score: inf
ROOT
ATOM      1  O   UNL A   1      42.421  21.270  25.337  1.00  0.00    -0.462 OA
ENDROOT
BRANCH   1   2
ATOM      2  C   UNL A   1      41.514  20.652  26.124  1.00  0.00     0.308 C 
ATOM      3  O   UNL A   1      41.206  19.482  25.903  1.00  0.00    -0.252 OA
BRANCH   2   4
ATOM      4  C   UNL A   1      40.943  21.369  27.318  1.00  0.00     0.156 C 
BRANCH   4   5
ATOM      5  C   UNL A   1      39.618  22.036  27.021  1.00  0.00     0.149 C 
ATOM      6  C   UNL A   1      38.939  21.499  25.761  1.00  0.00     0.154 C 
ATOM      7  O   UNL A   1      39.833  23.458  26.863  1.00  0.00    -0.374 OA
ATOM      8  N   UNL A   1      37.628  22.132  25.672  1.00  0.00    -0.320 N 
ATOM      9  C   UNL A   1      38.576  24.153  26.713  1.00  0.00     0.182 C 
ATOM     10  C   UNL A   1      37.707  23.588  25.573  1.00  0.00     0.150 C 
BRANCH   8  11
ATOM     11  C   UNL A   1      36.465  21.452  25.394  1.00  0.00     0.320 C 
ATOM     12  O   UNL A   1      36.454  20.232  25.244  1.00  0.00    -0.248 OA
BRANCH  11  13
ATOM     13  N   UNL A   1      35.314  22.197  25.325  1.00  0.00    -0.319 N 
ATOM     14  C   UNL A   1      34.549  22.543  24.140  1.00  0.00     0.122 C 
ATOM     15  C   UNL A   1      34.595  22.634  26.519  1.00  0.00     0.112 C 
ATOM     16  C   UNL A   1      33.922  23.866  24.520  1.00  0.00     0.024 C 
ATOM     17  C   UNL A   1      33.558  23.650  25.987  1.00  0.00     0.029 C 
BRANCH  15  18
ATOM     18  C   UNL A   1      33.951  21.481  27.310  1.00  0.00     0.181 C 
BRANCH  18  19
ATOM     19  O   UNL A   1      33.079  20.696  26.499  1.00  0.00    -0.394 OA
ATOM     20  H   UNL A   1      32.229  21.154  26.400  1.00  0.00     0.210 HD
ENDBRANCH  18  19
ENDBRANCH  15  18
ENDBRANCH  11  13
ENDBRANCH   8  11
ENDBRANCH   4   5
ENDBRANCH   2   4
ENDBRANCH   1   2
BRANCH   1  21
ATOM     21  C   UNL A   1      43.843  21.367  25.574  1.00  0.00     0.274 C 
BRANCH  21  22
ATOM     22  C   UNL A   1      44.516  22.305  24.574  1.00  0.00     0.275 C 
BRANCH  22  23
ATOM     23  O   UNL A   1      43.867  23.587  24.617  1.00  0.00    -0.458 OA
BRANCH  23  24
ATOM     24  C   UNL A   1      44.627  24.613  25.074  1.00  0.00     0.338 C 
ATOM     25  O   UNL A   1      45.708  24.967  24.639  1.00  0.00    -0.246 OA
BRANCH  24  26
ATOM     26  C   UNL A   1      43.840  25.390  26.061  1.00  0.00     0.060 A 
ATOM     27  C   UNL A   1      44.236  26.709  26.315  1.00  0.00     0.016 A 
ATOM     28  C   UNL A   1      42.701  24.865  26.684  1.00  0.00     0.016 A 
ATOM     29  C   UNL A   1      43.523  27.489  27.225  1.00  0.00     0.010 A 
ATOM     30  C   UNL A   1      41.985  25.649  27.594  1.00  0.00     0.010 A 
ATOM     31  C   UNL A   1      42.415  26.952  27.895  1.00  0.00    -0.014 A 
BRANCH  31  32
ATOM     32  C   UNL A   1      41.832  27.692  29.039  1.00  0.00     0.031 A 
ATOM     33  C   UNL A   1      42.497  27.568  30.382  1.00  0.00     0.074 A 
ATOM     34  C   UNL A   1      40.761  28.491  28.888  1.00  0.00     0.049 A 
ATOM     35  N   UNL A   1      42.216  28.173  31.507  1.00  0.00    -0.248 NA
ATOM     36  C   UNL A   1      43.634  26.637  30.464  1.00  0.00     0.031 C 
ATOM     37  C   UNL A   1      40.023  28.698  27.644  1.00  0.00     0.029 A 
ATOM     38  N   UNL A   1      40.111  29.281  29.803  1.00  0.00    -0.354 N 
ATOM     39  C   UNL A   1      43.159  27.718  32.421  1.00  0.00     0.074 A 
ATOM     40  C   UNL A   1      43.979  26.742  31.737  1.00  0.00     0.031 C 
ATOM     41  C   UNL A   1      39.014  29.558  27.876  1.00  0.00     0.029 A 
ATOM     42  C   UNL A   1      39.034  29.955  29.283  1.00  0.00     0.049 A 
ATOM     43  H   UNL A   1      40.391  29.357  30.743  1.00  0.00     0.167 HD
ATOM     44  C   UNL A   1      43.344  28.096  33.707  1.00  0.00     0.037 A 
ATOM     45  C   UNL A   1      38.166  30.796  29.879  1.00  0.00     0.037 A 
ATOM     46  C   UNL A   1      42.517  29.043  34.402  1.00  0.00     0.049 A 
ATOM     47  C   UNL A   1      38.352  31.151  31.332  1.00  0.00     0.074 A 
ATOM     48  C   UNL A   1      42.619  29.482  35.711  1.00  0.00     0.029 A 
ATOM     49  N   UNL A   1      41.425  29.692  33.846  1.00  0.00    -0.354 N 
ATOM     50  N   UNL A   1      39.280  30.759  32.171  1.00  0.00    -0.248 NA
ATOM     51  C   UNL A   1      37.376  32.085  31.916  1.00  0.00     0.031 C 
ATOM     52  C   UNL A   1      41.566  30.370  35.957  1.00  0.00     0.029 A 
ATOM     53  C   UNL A   1      40.836  30.517  34.789  1.00  0.00     0.049 A 
ATOM     54  H   UNL A   1      41.116  29.582  32.918  1.00  0.00     0.167 HD
ATOM     55  C   UNL A   1      39.019  31.418  33.367  1.00  0.00     0.074 A 
ATOM     56  C   UNL A   1      37.854  32.247  33.142  1.00  0.00     0.031 C 
ATOM     57  C   UNL A   1      39.682  31.344  34.547  1.00  0.00     0.037 A 
BRANCH  44  58
ATOM     58  C   UNL A   1      44.494  27.475  34.439  1.00  0.00     0.057 A 
ATOM     59  C   UNL A   1      44.347  26.270  35.139  1.00  0.00     0.134 A 
ATOM     60  C   UNL A   1      45.760  28.072  34.432  1.00  0.00     0.134 A 
ATOM     61  F   UNL A   1      43.154  25.660  35.198  1.00  0.00    -0.206 F 
ATOM     62  C   UNL A   1      45.415  25.691  35.825  1.00  0.00     0.040 A 
ATOM     63  C   UNL A   1      46.841  27.489  35.096  1.00  0.00     0.040 A 
ATOM     64  F   UNL A   1      45.966  29.226  33.781  1.00  0.00    -0.206 F 
ATOM     65  C   UNL A   1      46.669  26.298  35.798  1.00  0.00     0.006 A 
ENDBRANCH  44  58
BRANCH  45  66
ATOM     66  C   UNL A   1      37.034  31.373  29.111  1.00  0.00     0.057 A 
ATOM     67  C   UNL A   1      37.052  32.704  28.678  1.00  0.00     0.134 A 
ATOM     68  C   UNL A   1      35.884  30.622  28.840  1.00  0.00     0.134 A 
ATOM     69  F   UNL A   1      38.115  33.482  28.931  1.00  0.00    -0.206 F 
ATOM     70  C   UNL A   1      35.957  33.276  28.029  1.00  0.00     0.040 A 
ATOM     71  C   UNL A   1      34.791  31.174  28.171  1.00  0.00     0.040 A 
ATOM     72  F   UNL A   1      35.805  29.341  29.231  1.00  0.00    -0.206 F 
ATOM     73  C   UNL A   1      34.822  32.509  27.772  1.00  0.00     0.006 A 
ENDBRANCH  45  66
BRANCH  57  74
ATOM     74  C   UNL A   1      39.189  32.207  35.671  1.00  0.00     0.057 A 
ATOM     75  C   UNL A   1      38.308  31.720  36.645  1.00  0.00     0.134 A 
ATOM     76  C   UNL A   1      39.630  33.530  35.801  1.00  0.00     0.134 A 
ATOM     77  F   UNL A   1      37.840  30.465  36.573  1.00  0.00    -0.206 F 
ATOM     78  C   UNL A   1      37.863  32.527  37.693  1.00  0.00     0.040 A 
ATOM     79  C   UNL A   1      39.212  34.339  36.859  1.00  0.00     0.040 A 
ATOM     80  F   UNL A   1      40.483  34.055  34.908  1.00  0.00    -0.206 F 
ATOM     81  C   UNL A   1      38.320  33.840  37.805  1.00  0.00     0.006 A 
ENDBRANCH  57  74
ENDBRANCH  31  32
ENDBRANCH  24  26
ENDBRANCH  23  24
ENDBRANCH  22  23
ENDBRANCH  21  22
ENDBRANCH   1  21
TORSDOF 16
ENDMDL
MODEL 2
REMARK VINA RESULT:     -10.6      4.200      7.003
REMARK SMILES O=C(C[C@@H]1CN(C(=O)N2CCC[C@H]2CO)CCO1)OCCOC(=O)c1ccc(-c2c3nc(c(-c4c(F)cccc4F)c4ccc([nH]4)c(-c4c(F)cccc4F)c4nc(c(-c5c(F)cccc5F)c5ccc2[nH]5)C=C4)C=C3)cc1
REMARK SMILES IDX 19 1 2 2 1 3 3 4 4 5 5 6 18 7 6 8 17 9 16 10 7 11 8 12 9 13
REMARK SMILES IDX 10 14 13 15 11 16 12 17 14 18 15 19 20 21 21 22 22 23 23 24
REMARK SMILES IDX 24 25 25 26 26 27 78 28 27 29 77 30 28 31 29 32 30 33 71 34
REMARK SMILES IDX 31 35 76 36 70 37 72 38 32 39 75 40 69 41 68 42 33 44 59 45
REMARK SMILES IDX 42 46 58 47 43 48 46 49 57 50 73 51 44 52 45 53 56 55 74 56
REMARK SMILES IDX 47 57 34 58 35 59 40 60 36 61 37 62 39 63 41 64 38 65 60 66
REMARK SMILES IDX 61 67 66 68 62 69 63 70 65 71 67 72 64 73 48 74 49 75 54 76
REMARK SMILES IDX 50 77 51 78 53 79 55 80 52 81
REMARK H PARENT 15 20 72 43 46 54
REMARK Flexibility Score: inf
ROOT
ATOM      1  O   UNL A   1      35.938  21.622  25.198  1.00  0.00    -0.462 OA
ENDROOT
BRANCH   1   2
ATOM      2  C   UNL A   1      34.985  22.162  25.987  1.00  0.00     0.308 C 
ATOM      3  O   UNL A   1      34.402  21.459  26.811  1.00  0.00    -0.252 OA
BRANCH   2   4
ATOM      4  C   UNL A   1      34.697  23.637  25.915  1.00  0.00     0.156 C 
BRANCH   4   5
ATOM      5  C   UNL A   1      34.115  24.054  24.582  1.00  0.00     0.149 C 
ATOM      6  C   UNL A   1      33.353  25.378  24.642  1.00  0.00     0.154 C 
ATOM      7  O   UNL A   1      33.214  23.021  24.120  1.00  0.00    -0.374 OA
ATOM      8  N   UNL A   1      32.964  25.716  23.277  1.00  0.00    -0.320 N 
ATOM      9  C   UNL A   1      32.739  23.313  22.787  1.00  0.00     0.182 C 
ATOM     10  C   UNL A   1      32.098  24.709  22.669  1.00  0.00     0.150 C 
BRANCH   8  11
ATOM     11  C   UNL A   1      33.117  26.965  22.724  1.00  0.00     0.320 C 
ATOM     12  O   UNL A   1      33.651  27.122  21.627  1.00  0.00    -0.248 OA
BRANCH  11  13
ATOM     13  N   UNL A   1      32.614  28.025  23.438  1.00  0.00    -0.319 N 
ATOM     14  C   UNL A   1      33.357  29.098  24.075  1.00  0.00     0.122 C 
ATOM     15  C   UNL A   1      31.183  28.299  23.524  1.00  0.00     0.112 C 
ATOM     16  C   UNL A   1      32.465  29.480  25.236  1.00  0.00     0.024 C 
ATOM     17  C   UNL A   1      31.069  29.377  24.627  1.00  0.00     0.029 C 
BRANCH  15  18
ATOM     18  C   UNL A   1      30.556  28.740  22.190  1.00  0.00     0.181 C 
BRANCH  18  19
ATOM     19  O   UNL A   1      31.028  30.019  21.772  1.00  0.00    -0.394 OA
ATOM     20  H   UNL A   1      31.201  30.571  22.551  1.00  0.00     0.210 HD
ENDBRANCH  18  19
ENDBRANCH  15  18
ENDBRANCH  11  13
ENDBRANCH   8  11
ENDBRANCH   4   5
ENDBRANCH   2   4
ENDBRANCH   1   2
BRANCH   1  21
ATOM     21  C   UNL A   1      36.197  20.215  24.999  1.00  0.00     0.274 C 
BRANCH  21  22
ATOM     22  C   UNL A   1      37.696  19.916  24.984  1.00  0.00     0.275 C 
BRANCH  22  23
ATOM     23  O   UNL A   1      38.417  21.096  25.376  1.00  0.00    -0.458 OA
BRANCH  23  24
ATOM     24  C   UNL A   1      39.527  20.882  26.126  1.00  0.00     0.338 C 
ATOM     25  O   UNL A   1      40.157  19.843  26.212  1.00  0.00    -0.246 OA
BRANCH  24  26
ATOM     26  C   UNL A   1      39.995  22.178  26.672  1.00  0.00     0.060 A 
ATOM     27  C   UNL A   1      39.358  23.341  26.221  1.00  0.00     0.016 A 
ATOM     28  C   UNL A   1      40.995  22.257  27.649  1.00  0.00     0.016 A 
ATOM     29  C   UNL A   1      39.750  24.586  26.711  1.00  0.00     0.010 A 
ATOM     30  C   UNL A   1      41.385  23.506  28.141  1.00  0.00     0.010 A 
ATOM     31  C   UNL A   1      40.789  24.678  27.648  1.00  0.00    -0.014 A 
BRANCH  31  32
ATOM     32  C   UNL A   1      41.369  26.006  27.960  1.00  0.00     0.031 A 
ATOM     33  C   UNL A   1      42.772  26.297  27.504  1.00  0.00     0.074 A 
ATOM     34  C   UNL A   1      40.656  26.953  28.595  1.00  0.00     0.049 A 
ATOM     35  N   UNL A   1      43.462  27.404  27.594  1.00  0.00    -0.248 NA
ATOM     36  C   UNL A   1      43.491  25.187  26.856  1.00  0.00     0.031 C 
ATOM     37  C   UNL A   1      39.290  26.800  29.090  1.00  0.00     0.029 A 
ATOM     38  N   UNL A   1      40.996  28.239  28.930  1.00  0.00    -0.354 N 
ATOM     39  C   UNL A   1      44.683  27.133  26.991  1.00  0.00     0.074 A 
ATOM     40  C   UNL A   1      44.664  25.742  26.593  1.00  0.00     0.031 C 
ATOM     41  C   UNL A   1      38.908  27.951  29.674  1.00  0.00     0.029 A 
ATOM     42  C   UNL A   1      40.005  28.916  29.597  1.00  0.00     0.049 A 
ATOM     43  H   UNL A   1      41.869  28.639  28.714  1.00  0.00     0.167 HD
ATOM     44  C   UNL A   1      45.721  27.972  26.762  1.00  0.00     0.037 A 
ATOM     45  C   UNL A   1      39.988  30.171  30.086  1.00  0.00     0.037 A 
ATOM     46  C   UNL A   1      45.761  29.346  27.178  1.00  0.00     0.049 A 
ATOM     47  C   UNL A   1      41.182  31.068  29.878  1.00  0.00     0.074 A 
ATOM     48  C   UNL A   1      46.773  30.273  27.001  1.00  0.00     0.029 A 
ATOM     49  N   UNL A   1      44.743  29.991  27.864  1.00  0.00    -0.354 N 
ATOM     50  N   UNL A   1      42.309  30.819  29.256  1.00  0.00    -0.248 NA
ATOM     51  C   UNL A   1      41.092  32.430  30.427  1.00  0.00     0.031 C 
ATOM     52  C   UNL A   1      46.382  31.469  27.613  1.00  0.00     0.029 A 
ATOM     53  C   UNL A   1      45.109  31.299  28.132  1.00  0.00     0.049 A 
ATOM     54  H   UNL A   1      43.887  29.578  28.123  1.00  0.00     0.167 HD
ATOM     55  C   UNL A   1      43.046  31.997  29.311  1.00  0.00     0.074 A 
ATOM     56  C   UNL A   1      42.233  32.965  30.015  1.00  0.00     0.031 C 
ATOM     57  C   UNL A   1      44.284  32.255  28.825  1.00  0.00     0.037 A 
BRANCH  44  58
ATOM     58  C   UNL A   1      46.898  27.411  26.024  1.00  0.00     0.057 A 
ATOM     59  C   UNL A   1      47.939  26.761  26.699  1.00  0.00     0.134 A 
ATOM     60  C   UNL A   1      46.986  27.504  24.630  1.00  0.00     0.134 A 
ATOM     61  F   UNL A   1      47.921  26.656  28.037  1.00  0.00    -0.206 F 
ATOM     62  C   UNL A   1      49.039  26.241  26.015  1.00  0.00     0.040 A 
ATOM     63  C   UNL A   1      48.070  26.968  23.933  1.00  0.00     0.040 A 
ATOM     64  F   UNL A   1      46.023  28.116  23.926  1.00  0.00    -0.206 F 
ATOM     65  C   UNL A   1      49.102  26.338  24.626  1.00  0.00     0.006 A 
ENDBRANCH  44  58
BRANCH  45  66
ATOM     66  C   UNL A   1      38.800  30.673  30.822  1.00  0.00     0.057 A 
ATOM     67  C   UNL A   1      38.647  30.449  32.195  1.00  0.00     0.134 A 
ATOM     68  C   UNL A   1      37.764  31.339  30.158  1.00  0.00     0.134 A 
ATOM     69  F   UNL A   1      39.594  29.792  32.882  1.00  0.00    -0.206 F 
ATOM     70  C   UNL A   1      37.495  30.844  32.876  1.00  0.00     0.040 A 
ATOM     71  C   UNL A   1      36.617  31.762  30.830  1.00  0.00     0.040 A 
ATOM     72  F   UNL A   1      37.850  31.582  28.841  1.00  0.00    -0.206 F 
ATOM     73  C   UNL A   1      36.475  31.504  32.193  1.00  0.00     0.006 A 
ENDBRANCH  45  66
BRANCH  57  74
ATOM     74  C   UNL A   1      44.820  33.645  29.003  1.00  0.00     0.057 A 
ATOM     75  C   UNL A   1      44.567  34.660  28.071  1.00  0.00     0.134 A 
ATOM     76  C   UNL A   1      45.567  33.982  30.138  1.00  0.00     0.134 A 
ATOM     77  F   UNL A   1      43.865  34.401  26.957  1.00  0.00    -0.206 F 
ATOM     78  C   UNL A   1      45.061  35.953  28.249  1.00  0.00     0.040 A 
ATOM     79  C   UNL A   1      46.046  35.278  30.340  1.00  0.00     0.040 A 
ATOM     80  F   UNL A   1      45.837  33.059  31.075  1.00  0.00    -0.206 F 
ATOM     81  C   UNL A   1      45.799  36.266  29.391  1.00  0.00     0.006 A 
ENDBRANCH  57  74
ENDBRANCH  31  32
ENDBRANCH  24  26
ENDBRANCH  23  24
ENDBRANCH  22  23
ENDBRANCH  21  22
ENDBRANCH   1  21
TORSDOF 16
ENDMDL
MODEL 3
REMARK VINA RESULT:     -10.5      3.304      8.438
REMARK SMILES O=C(C[C@@H]1CN(C(=O)N2CCC[C@H]2CO)CCO1)OCCOC(=O)c1ccc(-c2c3nc(c(-c4c(F)cccc4F)c4ccc([nH]4)c(-c4c(F)cccc4F)c4nc(c(-c5c(F)cccc5F)c5ccc2[nH]5)C=C4)C=C3)cc1
REMARK SMILES IDX 19 1 2 2 1 3 3 4 4 5 5 6 18 7 6 8 17 9 16 10 7 11 8 12 9 13
REMARK SMILES IDX 10 14 13 15 11 16 12 17 14 18 15 19 20 21 21 22 22 23 23 24
REMARK SMILES IDX 24 25 25 26 26 27 78 28 27 29 77 30 28 31 29 32 30 33 71 34
REMARK SMILES IDX 31 35 76 36 70 37 72 38 32 39 75 40 69 41 68 42 33 44 59 45
REMARK SMILES IDX 42 46 58 47 43 48 46 49 57 50 73 51 44 52 45 53 56 55 74 56
REMARK SMILES IDX 47 57 34 58 35 59 40 60 36 61 37 62 39 63 41 64 38 65 60 66
REMARK SMILES IDX 61 67 66 68 62 69 63 70 65 71 67 72 64 73 48 74 49 75 54 76
REMARK SMILES IDX 50 77 51 78 53 79 55 80 52 81
REMARK H PARENT 15 20 72 43 46 54
REMARK Flexibility Score: inf
ROOT
ATOM      1  O   UNL A   1      31.179  30.512  25.317  1.00  0.00    -0.462 OA
ENDROOT
BRANCH   1   2
ATOM      2  C   UNL A   1      31.352  29.341  24.668  1.00  0.00     0.308 C 
ATOM      3  O   UNL A   1      30.533  28.980  23.825  1.00  0.00    -0.252 OA
BRANCH   2   4
ATOM      4  C   UNL A   1      32.588  28.519  24.919  1.00  0.00     0.156 C 
BRANCH   4   5
ATOM      5  C   UNL A   1      32.587  27.214  24.153  1.00  0.00     0.149 C 
ATOM      6  C   UNL A   1      33.134  26.038  24.960  1.00  0.00     0.154 C 
ATOM      7  O   UNL A   1      33.390  27.371  22.959  1.00  0.00    -0.374 OA
ATOM      8  N   UNL A   1      32.955  24.836  24.152  1.00  0.00    -0.320 N 
ATOM      9  C   UNL A   1      33.307  26.193  22.126  1.00  0.00     0.182 C 
ATOM     10  C   UNL A   1      33.669  24.898  22.879  1.00  0.00     0.150 C 
BRANCH   8  11
ATOM     11  C   UNL A   1      32.446  23.655  24.638  1.00  0.00     0.320 C 
ATOM     12  O   UNL A   1      31.238  23.426  24.637  1.00  0.00    -0.248 OA
BRANCH  11  13
ATOM     13  N   UNL A   1      33.354  22.730  25.090  1.00  0.00    -0.319 N 
ATOM     14  C   UNL A   1      34.057  22.723  26.361  1.00  0.00     0.122 C 
ATOM     15  C   UNL A   1      33.630  21.489  24.370  1.00  0.00     0.112 C 
ATOM     16  C   UNL A   1      35.348  22.009  26.027  1.00  0.00     0.024 C 
ATOM     17  C   UNL A   1      34.882  20.913  25.072  1.00  0.00     0.029 C 
BRANCH  15  18
ATOM     18  C   UNL A   1      32.447  20.506  24.356  1.00  0.00     0.181 C 
BRANCH  18  19
ATOM     19  O   UNL A   1      31.636  20.625  25.524  1.00  0.00    -0.394 OA
ATOM     20  H   UNL A   1      30.701  20.552  25.278  1.00  0.00     0.210 HD
ENDBRANCH  18  19
ENDBRANCH  15  18
ENDBRANCH  11  13
ENDBRANCH   8  11
ENDBRANCH   4   5
ENDBRANCH   2   4
ENDBRANCH   1   2
BRANCH   1  21
ATOM     21  C   UNL A   1      31.808  30.912  26.555  1.00  0.00     0.274 C 
BRANCH  21  22
ATOM     22  C   UNL A   1      31.597  32.399  26.837  1.00  0.00     0.275 C 
BRANCH  22  23
ATOM     23  O   UNL A   1      32.861  33.081  26.752  1.00  0.00    -0.458 OA
BRANCH  23  24
ATOM     24  C   UNL A   1      33.292  33.660  27.900  1.00  0.00     0.338 C 
ATOM     25  O   UNL A   1      32.679  34.457  28.587  1.00  0.00    -0.246 OA
BRANCH  24  26
ATOM     26  C   UNL A   1      34.555  33.009  28.320  1.00  0.00     0.060 A 
ATOM     27  C   UNL A   1      34.489  31.678  28.749  1.00  0.00     0.016 A 
ATOM     28  C   UNL A   1      35.792  33.662  28.240  1.00  0.00     0.016 A 
ATOM     29  C   UNL A   1      35.650  31.013  29.144  1.00  0.00     0.010 A 
ATOM     30  C   UNL A   1      36.955  32.993  28.633  1.00  0.00     0.010 A 
ATOM     31  C   UNL A   1      36.883  31.678  29.121  1.00  0.00    -0.014 A 
BRANCH  31  32
ATOM     32  C   UNL A   1      38.055  31.056  29.783  1.00  0.00     0.031 A 
ATOM     33  C   UNL A   1      38.328  31.401  31.221  1.00  0.00     0.074 A 
ATOM     34  C   UNL A   1      38.837  30.170  29.141  1.00  0.00     0.049 A 
ATOM     35  N   UNL A   1      39.243  30.931  32.029  1.00  0.00    -0.248 NA
ATOM     36  C   UNL A   1      37.447  32.412  31.828  1.00  0.00     0.031 C 
ATOM     37  C   UNL A   1      38.683  29.750  27.751  1.00  0.00     0.029 A 
ATOM     38  N   UNL A   1      39.925  29.464  29.590  1.00  0.00    -0.354 N 
ATOM     39  C   UNL A   1      39.029  31.567  33.245  1.00  0.00     0.074 A 
ATOM     40  C   UNL A   1      37.940  32.499  33.054  1.00  0.00     0.031 C 
ATOM     41  C   UNL A   1      39.649  28.860  27.456  1.00  0.00     0.029 A 
ATOM     42  C   UNL A   1      40.489  28.654  28.636  1.00  0.00     0.049 A 
ATOM     43  H   UNL A   1      40.269  29.532  30.510  1.00  0.00     0.167 HD
ATOM     44  C   UNL A   1      39.663  31.375  34.425  1.00  0.00     0.037 A 
ATOM     45  C   UNL A   1      41.559  27.840  28.710  1.00  0.00     0.037 A 
ATOM     46  C   UNL A   1      40.764  30.471  34.618  1.00  0.00     0.049 A 
ATOM     47  C   UNL A   1      42.293  27.692  30.019  1.00  0.00     0.074 A 
ATOM     48  C   UNL A   1      41.479  30.216  35.775  1.00  0.00     0.029 A 
ATOM     49  N   UNL A   1      41.316  29.680  33.622  1.00  0.00    -0.354 N 
ATOM     50  N   UNL A   1      42.047  28.255  31.177  1.00  0.00    -0.248 NA
ATOM     51  C   UNL A   1      43.445  26.777  30.033  1.00  0.00     0.031 C 
ATOM     52  C   UNL A   1      42.488  29.296  35.470  1.00  0.00     0.029 A 
ATOM     53  C   UNL A   1      42.373  28.947  34.135  1.00  0.00     0.049 A 
ATOM     54  H   UNL A   1      41.003  29.645  32.690  1.00  0.00     0.167 HD
ATOM     55  C   UNL A   1      42.990  27.742  32.060  1.00  0.00     0.074 A 
ATOM     56  C   UNL A   1      43.804  26.811  31.309  1.00  0.00     0.031 C 
ATOM     57  C   UNL A   1      43.168  28.016  33.376  1.00  0.00     0.037 A 
BRANCH  44  58
ATOM     58  C   UNL A   1      39.170  32.165  35.598  1.00  0.00     0.057 A 
ATOM     59  C   UNL A   1      39.588  33.486  35.815  1.00  0.00     0.134 A 
ATOM     60  C   UNL A   1      38.261  31.615  36.509  1.00  0.00     0.134 A 
ATOM     61  F   UNL A   1      40.473  34.062  34.987  1.00  0.00    -0.206 F 
ATOM     62  C   UNL A   1      39.134  34.224  36.908  1.00  0.00     0.040 A 
ATOM     63  C   UNL A   1      37.782  32.352  37.593  1.00  0.00     0.040 A 
ATOM     64  F   UNL A   1      37.824  30.356  36.358  1.00  0.00    -0.206 F 
ATOM     65  C   UNL A   1      38.223  33.658  37.798  1.00  0.00     0.006 A 
ENDBRANCH  44  58
BRANCH  45  66
ATOM     66  C   UNL A   1      42.014  27.089  27.513  1.00  0.00     0.057 A 
ATOM     67  C   UNL A   1      42.847  27.679  26.556  1.00  0.00     0.134 A 
ATOM     68  C   UNL A   1      41.580  25.780  27.270  1.00  0.00     0.134 A 
ATOM     69  F   UNL A   1      43.274  28.941  26.719  1.00  0.00    -0.206 F 
ATOM     70  C   UNL A   1      43.210  27.007  25.387  1.00  0.00     0.040 A 
ATOM     71  C   UNL A   1      41.954  25.087  26.119  1.00  0.00     0.040 A 
ATOM     72  F   UNL A   1      40.778  25.159  28.149  1.00  0.00    -0.206 F 
ATOM     73  C   UNL A   1      42.764  25.706  25.167  1.00  0.00     0.006 A 
ENDBRANCH  45  66
BRANCH  57  74
ATOM     74  C   UNL A   1      44.258  27.276  34.094  1.00  0.00     0.057 A 
ATOM     75  C   UNL A   1      45.550  27.802  34.222  1.00  0.00     0.134 A 
ATOM     76  C   UNL A   1      44.002  26.038  34.697  1.00  0.00     0.134 A 
ATOM     77  F   UNL A   1      45.863  28.980  33.659  1.00  0.00    -0.206 F 
ATOM     78  C   UNL A   1      46.555  27.111  34.900  1.00  0.00     0.040 A 
ATOM     79  C   UNL A   1      44.992  25.349  35.400  1.00  0.00     0.040 A 
ATOM     80  F   UNL A   1      42.783  25.482  34.622  1.00  0.00    -0.206 F 
ATOM     81  C   UNL A   1      46.275  25.882  35.497  1.00  0.00     0.006 A 
ENDBRANCH  57  74
ENDBRANCH  31  32
ENDBRANCH  24  26
ENDBRANCH  23  24
ENDBRANCH  22  23
ENDBRANCH  21  22
ENDBRANCH   1  21
TORSDOF 16
ENDMDL
