MODEL 1
REMARK VINA RESULT:     -12.2      0.000      0.000
REMARK SMILES COc1cc(S(=O)(=O)Nc2cccc(C(=O)OCCOC(=O)c3ccc(-c4c5nc(c(-c6c(F)cccc6F)c6ccc([nH]6)c(-c6c(F)cccc6F)c6nc(c(-c7c(F)cccc7F)c7ccc4[nH]7)C=C6)C=C5)cc3)c2)c(OC)cc1C
REMARK SMILES IDX 18 1 17 2 15 3 16 4 14 5 10 6 11 7 77 8 12 9 13 10 9 11 6 13
REMARK SMILES IDX 7 14 8 15 5 16 3 17 4 18 82 19 81 20 83 21 78 22 2 23 1 24
REMARK SMILES IDX 79 25 80 26 19 27 20 28 21 29 22 30 23 31 24 32 76 33 25 34
REMARK SMILES IDX 75 35 26 36 27 37 28 38 69 39 29 40 74 41 68 42 70 43 30 44
REMARK SMILES IDX 73 45 67 46 66 47 31 49 57 50 40 51 56 52 41 53 44 54 55 55
REMARK SMILES IDX 71 56 42 57 43 58 54 60 72 61 45 62 32 63 33 64 38 65 34 66
REMARK SMILES IDX 35 67 37 68 39 69 36 70 58 71 59 72 64 73 60 74 61 75 63 76
REMARK SMILES IDX 65 77 62 78 46 79 47 80 52 81 48 82 49 83 51 84 53 85 50 86
REMARK H PARENT 9 12 70 48 44 59
REMARK Flexibility Score: inf
ROOT
ATOM      1  C   UNL A   1      33.012  29.704  26.883  1.00  0.00     0.275 C 
ENDROOT
BRANCH   1   2
ATOM      2  O   UNL A   1      32.318  30.175  25.723  1.00  0.00    -0.458 OA
BRANCH   2   3
ATOM      3  C   UNL A   1      32.415  29.331  24.668  1.00  0.00     0.338 C 
ATOM      4  O   UNL A   1      33.390  29.144  23.956  1.00  0.00    -0.246 OA
BRANCH   3   5
ATOM      5  C   UNL A   1      31.130  28.669  24.414  1.00  0.00     0.062 A 
ATOM      6  C   UNL A   1      29.872  26.615  24.212  1.00  0.00     0.050 A 
ATOM      7  C   UNL A   1      28.898  27.295  23.481  1.00  0.00     0.027 A 
ATOM      8  C   UNL A   1      30.942  27.330  24.759  1.00  0.00     0.042 A 
ATOM      9  C   UNL A   1      29.066  28.651  23.181  1.00  0.00     0.003 A 
ATOM     10  C   UNL A   1      30.203  29.330  23.612  1.00  0.00     0.016 A 
BRANCH   6  11
ATOM     11  N   UNL A   1      29.882  25.203  24.400  1.00  0.00    -0.279 N 
ATOM     12  H   UNL A   1      29.221  24.672  23.900  1.00  0.00     0.180 HD
BRANCH  11  13
ATOM     13  S   UNL A   1      30.937  24.376  25.411  1.00  0.00     0.265 S 
ATOM     14  O   UNL A   1      30.423  23.029  25.555  1.00  0.00    -0.201 OA
ATOM     15  O   UNL A   1      31.098  25.226  26.577  1.00  0.00    -0.201 OA
BRANCH  13  16
ATOM     16  C   UNL A   1      32.550  24.225  24.672  1.00  0.00     0.133 A 
ATOM     17  C   UNL A   1      34.874  23.633  25.106  1.00  0.00     0.123 A 
ATOM     18  C   UNL A   1      33.592  23.928  25.571  1.00  0.00     0.073 A 
ATOM     19  C   UNL A   1      35.099  23.501  23.737  1.00  0.00    -0.005 A 
ATOM     20  C   UNL A   1      34.084  23.901  22.853  1.00  0.00     0.055 A 
ATOM     21  C   UNL A   1      36.378  22.961  23.166  1.00  0.00     0.048 C 
ATOM     22  C   UNL A   1      32.816  24.305  23.305  1.00  0.00     0.139 A 
BRANCH  17  23
ATOM     23  O   UNL A   1      35.837  23.414  26.054  1.00  0.00    -0.496 OA
ATOM     24  C   UNL A   1      35.715  22.126  26.664  1.00  0.00     0.278 C 
ENDBRANCH  17  23
BRANCH  22  25
ATOM     25  O   UNL A   1      31.862  24.805  22.464  1.00  0.00    -0.495 OA
ATOM     26  C   UNL A   1      32.291  25.758  21.494  1.00  0.00     0.278 C 
ENDBRANCH  22  25
ENDBRANCH  13  16
ENDBRANCH  11  13
ENDBRANCH   6  11
ENDBRANCH   3   5
ENDBRANCH   2   3
ENDBRANCH   1   2
BRANCH   1  27
ATOM     27  C   UNL A   1      34.000  30.743  27.427  1.00  0.00     0.275 C 
BRANCH  27  28
ATOM     28  O   UNL A   1      35.405  30.361  27.531  1.00  0.00    -0.458 OA
BRANCH  28  29
ATOM     29  C   UNL A   1      36.228  30.356  28.610  1.00  0.00     0.338 C 
ATOM     30  O   UNL A   1      35.967  30.964  29.640  1.00  0.00    -0.246 OA
BRANCH  29  31
ATOM     31  C   UNL A   1      37.448  29.544  28.534  1.00  0.00     0.060 A 
ATOM     32  C   UNL A   1      38.325  29.701  27.451  1.00  0.00     0.016 A 
ATOM     33  C   UNL A   1      37.744  28.667  29.568  1.00  0.00     0.016 A 
ATOM     34  C   UNL A   1      39.567  29.075  27.474  1.00  0.00     0.010 A 
ATOM     35  C   UNL A   1      39.022  28.182  29.673  1.00  0.00     0.010 A 
ATOM     36  C   UNL A   1      39.924  28.353  28.612  1.00  0.00    -0.014 A 
BRANCH  36  37
ATOM     37  C   UNL A   1      41.049  27.433  28.654  1.00  0.00     0.031 A 
ATOM     38  C   UNL A   1      40.956  25.997  28.371  1.00  0.00     0.074 A 
ATOM     39  C   UNL A   1      42.218  28.057  28.909  1.00  0.00     0.049 A 
ATOM     40  N   UNL A   1      41.706  25.111  28.934  1.00  0.00    -0.248 NA
ATOM     41  C   UNL A   1      40.009  25.430  27.417  1.00  0.00     0.031 C 
ATOM     42  C   UNL A   1      43.582  27.576  28.846  1.00  0.00     0.029 A 
ATOM     43  N   UNL A   1      42.326  29.339  29.464  1.00  0.00    -0.354 N 
ATOM     44  C   UNL A   1      41.587  23.951  28.199  1.00  0.00     0.074 A 
ATOM     45  C   UNL A   1      40.435  24.160  27.349  1.00  0.00     0.031 C 
ATOM     46  C   UNL A   1      44.346  28.394  29.598  1.00  0.00     0.029 A 
ATOM     47  C   UNL A   1      43.452  29.327  30.280  1.00  0.00     0.049 A 
ATOM     48  H   UNL A   1      41.722  30.101  29.307  1.00  0.00     0.167 HD
ATOM     49  C   UNL A   1      42.595  23.027  28.233  1.00  0.00     0.037 A 
ATOM     50  C   UNL A   1      43.271  29.437  31.629  1.00  0.00     0.037 A 
ATOM     51  C   UNL A   1      43.696  23.509  29.066  1.00  0.00     0.049 A 
ATOM     52  C   UNL A   1      43.763  28.203  32.337  1.00  0.00     0.074 A 
ATOM     53  C   UNL A   1      44.859  24.180  28.722  1.00  0.00     0.029 A 
ATOM     54  N   UNL A   1      43.536  23.673  30.439  1.00  0.00    -0.354 N 
ATOM     55  N   UNL A   1      43.743  27.007  31.816  1.00  0.00    -0.248 NA
ATOM     56  C   UNL A   1      44.355  28.240  33.666  1.00  0.00     0.031 C 
ATOM     57  C   UNL A   1      45.362  24.814  29.881  1.00  0.00     0.029 A 
ATOM     58  C   UNL A   1      44.520  24.509  30.936  1.00  0.00     0.049 A 
ATOM     59  H   UNL A   1      42.826  23.256  30.977  1.00  0.00     0.167 HD
ATOM     60  C   UNL A   1      44.373  26.141  32.670  1.00  0.00     0.074 A 
ATOM     61  C   UNL A   1      44.719  26.957  33.822  1.00  0.00     0.031 C 
ATOM     62  C   UNL A   1      44.602  24.834  32.351  1.00  0.00     0.037 A 
BRANCH  49  63
ATOM     63  C   UNL A   1      42.748  21.910  27.220  1.00  0.00     0.057 A 
ATOM     64  C   UNL A   1      41.953  20.745  27.284  1.00  0.00     0.134 A 
ATOM     65  C   UNL A   1      43.687  21.911  26.174  1.00  0.00     0.134 A 
ATOM     66  F   UNL A   1      40.930  20.632  28.140  1.00  0.00    -0.206 F 
ATOM     67  C   UNL A   1      42.164  19.624  26.470  1.00  0.00     0.040 A 
ATOM     68  C   UNL A   1      43.930  20.783  25.371  1.00  0.00     0.040 A 
ATOM     69  F   UNL A   1      44.382  23.015  25.868  1.00  0.00    -0.206 F 
ATOM     70  C   UNL A   1      43.182  19.626  25.531  1.00  0.00     0.006 A 
ENDBRANCH  49  63
BRANCH  50  71
ATOM     71  C   UNL A   1      42.079  30.246  32.050  1.00  0.00     0.057 A 
ATOM     72  C   UNL A   1      40.910  29.588  32.493  1.00  0.00     0.134 A 
ATOM     73  C   UNL A   1      42.123  31.627  32.260  1.00  0.00     0.134 A 
ATOM     74  F   UNL A   1      40.781  28.259  32.333  1.00  0.00    -0.206 F 
ATOM     75  C   UNL A   1      39.888  30.248  33.182  1.00  0.00     0.040 A 
ATOM     76  C   UNL A   1      41.093  32.306  32.934  1.00  0.00     0.040 A 
ATOM     77  F   UNL A   1      43.188  32.345  31.877  1.00  0.00    -0.206 F 
ATOM     78  C   UNL A   1      39.985  31.613  33.421  1.00  0.00     0.006 A 
ENDBRANCH  50  71
BRANCH  62  79
ATOM     79  C   UNL A   1      45.082  23.771  33.303  1.00  0.00     0.057 A 
ATOM     80  C   UNL A   1      46.368  23.742  33.857  1.00  0.00     0.134 A 
ATOM     81  C   UNL A   1      44.187  22.804  33.815  1.00  0.00     0.134 A 
ATOM     82  F   UNL A   1      47.281  24.677  33.562  1.00  0.00    -0.206 F 
ATOM     83  C   UNL A   1      46.761  22.777  34.791  1.00  0.00     0.040 A 
ATOM     84  C   UNL A   1      44.550  21.875  34.791  1.00  0.00     0.040 A 
ATOM     85  F   UNL A   1      42.910  22.732  33.411  1.00  0.00    -0.206 F 
ATOM     86  C   UNL A   1      45.849  21.846  35.269  1.00  0.00     0.006 A 
ENDBRANCH  62  79
ENDBRANCH  36  37
ENDBRANCH  29  31
ENDBRANCH  28  29
ENDBRANCH  27  28
ENDBRANCH   1  27
TORSDOF 16
ENDMDL
MODEL 2
REMARK VINA RESULT:     -12.1      3.556      9.309
REMARK SMILES COc1cc(S(=O)(=O)Nc2cccc(C(=O)OCCOC(=O)c3ccc(-c4c5nc(c(-c6c(F)cccc6F)c6ccc([nH]6)c(-c6c(F)cccc6F)c6nc(c(-c7c(F)cccc7F)c7ccc4[nH]7)C=C6)C=C5)cc3)c2)c(OC)cc1C
REMARK SMILES IDX 18 1 17 2 15 3 16 4 14 5 10 6 11 7 77 8 12 9 13 10 9 11 6 13
REMARK SMILES IDX 7 14 8 15 5 16 3 17 4 18 82 19 81 20 83 21 78 22 2 23 1 24
REMARK SMILES IDX 79 25 80 26 19 27 20 28 21 29 22 30 23 31 24 32 76 33 25 34
REMARK SMILES IDX 75 35 26 36 27 37 28 38 69 39 29 40 74 41 68 42 70 43 30 44
REMARK SMILES IDX 73 45 67 46 66 47 31 49 57 50 40 51 56 52 41 53 44 54 55 55
REMARK SMILES IDX 71 56 42 57 43 58 54 60 72 61 45 62 32 63 33 64 38 65 34 66
REMARK SMILES IDX 35 67 37 68 39 69 36 70 58 71 59 72 64 73 60 74 61 75 63 76
REMARK SMILES IDX 65 77 62 78 46 79 47 80 52 81 48 82 49 83 51 84 53 85 50 86
REMARK H PARENT 9 12 70 48 44 59
REMARK Flexibility Score: inf
ROOT
ATOM      1  C   UNL A   1      37.497  22.304  24.994  1.00  0.00     0.275 C 
ENDROOT
BRANCH   1   2
ATOM      2  O   UNL A   1      36.108  22.110  24.707  1.00  0.00    -0.458 OA
BRANCH   2   3
ATOM      3  C   UNL A   1      35.693  22.789  23.611  1.00  0.00     0.338 C 
ATOM      4  O   UNL A   1      36.361  23.104  22.639  1.00  0.00    -0.246 OA
BRANCH   3   5
ATOM      5  C   UNL A   1      34.288  23.188  23.749  1.00  0.00     0.062 A 
ATOM      6  C   UNL A   1      32.579  24.308  25.042  1.00  0.00     0.050 A 
ATOM      7  C   UNL A   1      31.602  23.579  24.364  1.00  0.00     0.027 A 
ATOM      8  C   UNL A   1      33.919  24.177  24.662  1.00  0.00     0.042 A 
ATOM      9  C   UNL A   1      31.974  22.624  23.412  1.00  0.00     0.003 A 
ATOM     10  C   UNL A   1      33.320  22.398  23.132  1.00  0.00     0.016 A 
BRANCH   6  11
ATOM     11  N   UNL A   1      32.308  25.156  26.153  1.00  0.00    -0.279 N 
ATOM     12  H   UNL A   1      32.926  25.117  26.918  1.00  0.00     0.180 HD
BRANCH  11  13
ATOM     13  S   UNL A   1      31.013  26.220  26.257  1.00  0.00     0.265 S 
ATOM     14  O   UNL A   1      31.306  27.147  27.331  1.00  0.00    -0.201 OA
ATOM     15  O   UNL A   1      29.829  25.381  26.318  1.00  0.00    -0.201 OA
BRANCH  13  16
ATOM     16  C   UNL A   1      30.861  27.196  24.775  1.00  0.00     0.133 A 
ATOM     17  C   UNL A   1      29.279  28.091  23.152  1.00  0.00     0.123 A 
ATOM     18  C   UNL A   1      29.568  27.242  24.221  1.00  0.00     0.073 A 
ATOM     19  C   UNL A   1      30.241  28.997  22.710  1.00  0.00    -0.005 A 
ATOM     20  C   UNL A   1      31.552  28.869  23.196  1.00  0.00     0.055 A 
ATOM     21  C   UNL A   1      29.941  30.095  21.732  1.00  0.00     0.048 C 
ATOM     22  C   UNL A   1      31.889  27.946  24.201  1.00  0.00     0.139 A 
BRANCH  17  23
ATOM     23  O   UNL A   1      28.011  28.026  22.641  1.00  0.00    -0.496 OA
ATOM     24  C   UNL A   1      27.115  28.931  23.295  1.00  0.00     0.278 C 
ENDBRANCH  17  23
BRANCH  22  25
ATOM     25  O   UNL A   1      33.178  27.732  24.599  1.00  0.00    -0.495 OA
ATOM     26  C   UNL A   1      33.789  28.753  25.385  1.00  0.00     0.278 C 
ENDBRANCH  22  25
ENDBRANCH  13  16
ENDBRANCH  11  13
ENDBRANCH   6  11
ENDBRANCH   3   5
ENDBRANCH   2   3
ENDBRANCH   1   2
BRANCH   1  27
ATOM     27  C   UNL A   1      37.756  23.627  25.726  1.00  0.00     0.275 C 
BRANCH  27  28
ATOM     28  O   UNL A   1      38.788  23.646  26.759  1.00  0.00    -0.458 OA
BRANCH  28  29
ATOM     29  C   UNL A   1      39.873  24.449  26.891  1.00  0.00     0.338 C 
ATOM     30  O   UNL A   1      40.966  24.161  26.420  1.00  0.00    -0.246 OA
BRANCH  29  31
ATOM     31  C   UNL A   1      39.694  25.729  27.585  1.00  0.00     0.060 A 
ATOM     32  C   UNL A   1      39.183  25.750  28.891  1.00  0.00     0.016 A 
ATOM     33  C   UNL A   1      40.088  26.902  26.956  1.00  0.00     0.016 A 
ATOM     34  C   UNL A   1      39.192  26.938  29.615  1.00  0.00     0.010 A 
ATOM     35  C   UNL A   1      40.251  28.032  27.714  1.00  0.00     0.010 A 
ATOM     36  C   UNL A   1      39.771  28.065  29.032  1.00  0.00    -0.014 A 
BRANCH  36  37
ATOM     37  C   UNL A   1      39.597  29.411  29.552  1.00  0.00     0.031 A 
ATOM     38  C   UNL A   1      38.526  30.326  29.143  1.00  0.00     0.074 A 
ATOM     39  C   UNL A   1      40.489  29.710  30.520  1.00  0.00     0.049 A 
ATOM     40  N   UNL A   1      38.662  31.608  29.104  1.00  0.00    -0.248 NA
ATOM     41  C   UNL A   1      37.197  29.873  28.748  1.00  0.00     0.031 C 
ATOM     42  C   UNL A   1      40.557  30.834  31.432  1.00  0.00     0.029 A 
ATOM     43  N   UNL A   1      41.683  29.012  30.740  1.00  0.00    -0.354 N 
ATOM     44  C   UNL A   1      37.397  32.149  29.017  1.00  0.00     0.074 A 
ATOM     45  C   UNL A   1      36.535  31.038  28.675  1.00  0.00     0.031 C 
ATOM     46  C   UNL A   1      41.823  30.925  31.885  1.00  0.00     0.029 A 
ATOM     47  C   UNL A   1      42.625  29.949  31.150  1.00  0.00     0.049 A 
ATOM     48  H   UNL A   1      41.828  28.044  30.625  1.00  0.00     0.167 HD
ATOM     49  C   UNL A   1      37.181  33.428  29.452  1.00  0.00     0.037 A 
ATOM     50  C   UNL A   1      43.667  30.223  30.311  1.00  0.00     0.037 A 
ATOM     51  C   UNL A   1      38.413  33.990  30.002  1.00  0.00     0.049 A 
ATOM     52  C   UNL A   1      43.639  31.664  29.877  1.00  0.00     0.074 A 
ATOM     53  C   UNL A   1      38.872  34.047  31.309  1.00  0.00     0.029 A 
ATOM     54  N   UNL A   1      39.512  34.245  29.186  1.00  0.00    -0.354 N 
ATOM     55  N   UNL A   1      42.546  32.362  29.735  1.00  0.00    -0.248 NA
ATOM     56  C   UNL A   1      44.848  32.433  29.614  1.00  0.00     0.031 C 
ATOM     57  C   UNL A   1      40.268  34.263  31.277  1.00  0.00     0.029 A 
ATOM     58  C   UNL A   1      40.657  34.363  29.953  1.00  0.00     0.049 A 
ATOM     59  H   UNL A   1      39.478  34.328  28.206  1.00  0.00     0.167 HD
ATOM     60  C   UNL A   1      42.881  33.659  29.452  1.00  0.00     0.074 A 
ATOM     61  C   UNL A   1      44.332  33.647  29.367  1.00  0.00     0.031 C 
ATOM     62  C   UNL A   1      41.950  34.652  29.353  1.00  0.00     0.037 A 
BRANCH  49  63
ATOM     63  C   UNL A   1      35.807  33.999  29.738  1.00  0.00     0.057 A 
ATOM     64  C   UNL A   1      34.967  34.452  28.699  1.00  0.00     0.134 A 
ATOM     65  C   UNL A   1      35.267  34.158  31.026  1.00  0.00     0.134 A 
ATOM     66  F   UNL A   1      35.272  34.264  27.408  1.00  0.00    -0.206 F 
ATOM     67  C   UNL A   1      33.760  35.128  28.924  1.00  0.00     0.040 A 
ATOM     68  C   UNL A   1      34.074  34.861  31.269  1.00  0.00     0.040 A 
ATOM     69  F   UNL A   1      35.858  33.610  32.097  1.00  0.00    -0.206 F 
ATOM     70  C   UNL A   1      33.326  35.369  30.217  1.00  0.00     0.006 A 
ENDBRANCH  49  63
BRANCH  50  71
ATOM     71  C   UNL A   1      44.112  29.079  29.448  1.00  0.00     0.057 A 
ATOM     72  C   UNL A   1      44.824  28.005  30.026  1.00  0.00     0.134 A 
ATOM     73  C   UNL A   1      43.664  28.884  28.139  1.00  0.00     0.134 A 
ATOM     74  F   UNL A   1      45.292  28.103  31.283  1.00  0.00    -0.206 F 
ATOM     75  C   UNL A   1      45.001  26.780  29.374  1.00  0.00     0.040 A 
ATOM     76  C   UNL A   1      43.853  27.665  27.465  1.00  0.00     0.040 A 
ATOM     77  F   UNL A   1      42.977  29.842  27.500  1.00  0.00    -0.206 F 
ATOM     78  C   UNL A   1      44.498  26.600  28.092  1.00  0.00     0.006 A 
ENDBRANCH  50  71
BRANCH  62  79
ATOM     79  C   UNL A   1      42.204  36.042  28.834  1.00  0.00     0.057 A 
ATOM     80  C   UNL A   1      42.921  37.019  29.537  1.00  0.00     0.134 A 
ATOM     81  C   UNL A   1      41.848  36.395  27.512  1.00  0.00     0.134 A 
ATOM     82  F   UNL A   1      43.434  36.777  30.751  1.00  0.00    -0.206 F 
ATOM     83  C   UNL A   1      43.196  38.281  28.998  1.00  0.00     0.040 A 
ATOM     84  C   UNL A   1      42.170  37.628  26.943  1.00  0.00     0.040 A 
ATOM     85  F   UNL A   1      41.194  35.550  26.702  1.00  0.00    -0.206 F 
ATOM     86  C   UNL A   1      42.830  38.585  27.694  1.00  0.00     0.006 A 
ENDBRANCH  62  79
ENDBRANCH  36  37
ENDBRANCH  29  31
ENDBRANCH  28  29
ENDBRANCH  27  28
ENDBRANCH   1  27
TORSDOF 16
ENDMDL
MODEL 3
REMARK VINA RESULT:     -12.0      3.650      9.502
REMARK SMILES COc1cc(S(=O)(=O)Nc2cccc(C(=O)OCCOC(=O)c3ccc(-c4c5nc(c(-c6c(F)cccc6F)c6ccc([nH]6)c(-c6c(F)cccc6F)c6nc(c(-c7c(F)cccc7F)c7ccc4[nH]7)C=C6)C=C5)cc3)c2)c(OC)cc1C
REMARK SMILES IDX 18 1 17 2 15 3 16 4 14 5 10 6 11 7 77 8 12 9 13 10 9 11 6 13
REMARK SMILES IDX 7 14 8 15 5 16 3 17 4 18 82 19 81 20 83 21 78 22 2 23 1 24
REMARK SMILES IDX 79 25 80 26 19 27 20 28 21 29 22 30 23 31 24 32 76 33 25 34
REMARK SMILES IDX 75 35 26 36 27 37 28 38 69 39 29 40 74 41 68 42 70 43 30 44
REMARK SMILES IDX 73 45 67 46 66 47 31 49 57 50 40 51 56 52 41 53 44 54 55 55
REMARK SMILES IDX 71 56 42 57 43 58 54 60 72 61 45 62 32 63 33 64 38 65 34 66
REMARK SMILES IDX 35 67 37 68 39 69 36 70 58 71 59 72 64 73 60 74 61 75 63 76
REMARK SMILES IDX 65 77 62 78 46 79 47 80 52 81 48 82 49 83 51 84 53 85 50 86
REMARK H PARENT 9 12 70 48 44 59
REMARK Flexibility Score: inf
ROOT
ATOM      1  C   UNL A   1      38.053  21.644  25.416  1.00  0.00     0.275 C 
ENDROOT
BRANCH   1   2
ATOM      2  O   UNL A   1      36.835  22.391  25.317  1.00  0.00    -0.458 OA
BRANCH   2   3
ATOM      3  C   UNL A   1      35.806  21.663  24.823  1.00  0.00     0.338 C 
ATOM      4  O   UNL A   1      35.685  20.448  24.837  1.00  0.00    -0.246 OA
BRANCH   3   5
ATOM      5  C   UNL A   1      34.821  22.533  24.170  1.00  0.00     0.062 A 
ATOM      6  C   UNL A   1      33.862  24.739  23.920  1.00  0.00     0.050 A 
ATOM      7  C   UNL A   1      32.712  24.166  23.379  1.00  0.00     0.027 A 
ATOM      8  C   UNL A   1      34.955  23.921  24.226  1.00  0.00     0.042 A 
ATOM      9  C   UNL A   1      32.601  22.775  23.277  1.00  0.00     0.003 A 
ATOM     10  C   UNL A   1      33.641  21.955  23.710  1.00  0.00     0.016 A 
BRANCH   6  11
ATOM     11  N   UNL A   1      33.987  26.121  24.239  1.00  0.00    -0.279 N 
ATOM     12  H   UNL A   1      34.357  26.354  25.121  1.00  0.00     0.180 HD
BRANCH  11  13
ATOM     13  S   UNL A   1      33.551  27.385  23.222  1.00  0.00     0.265 S 
ATOM     14  O   UNL A   1      33.710  26.913  21.862  1.00  0.00    -0.201 OA
ATOM     15  O   UNL A   1      34.306  28.533  23.690  1.00  0.00    -0.201 OA
BRANCH  13  16
ATOM     16  C   UNL A   1      31.831  27.801  23.414  1.00  0.00     0.133 A 
ATOM     17  C   UNL A   1      29.936  28.910  22.356  1.00  0.00     0.123 A 
ATOM     18  C   UNL A   1      31.303  28.634  22.409  1.00  0.00     0.073 A 
ATOM     19  C   UNL A   1      29.064  28.255  23.224  1.00  0.00    -0.005 A 
ATOM     20  C   UNL A   1      29.610  27.513  24.284  1.00  0.00     0.055 A 
ATOM     21  C   UNL A   1      27.571  28.314  23.082  1.00  0.00     0.048 C 
ATOM     22  C   UNL A   1      30.994  27.310  24.418  1.00  0.00     0.139 A 
BRANCH  17  23
ATOM     23  O   UNL A   1      29.522  29.775  21.380  1.00  0.00    -0.496 OA
ATOM     24  C   UNL A   1      29.180  31.062  21.905  1.00  0.00     0.278 C 
ENDBRANCH  17  23
BRANCH  22  25
ATOM     25  O   UNL A   1      31.544  26.690  25.504  1.00  0.00    -0.495 OA
ATOM     26  C   UNL A   1      31.862  27.514  26.625  1.00  0.00     0.278 C 
ENDBRANCH  22  25
ENDBRANCH  13  16
ENDBRANCH  11  13
ENDBRANCH   6  11
ENDBRANCH   3   5
ENDBRANCH   2   3
ENDBRANCH   1   2
BRANCH   1  27
ATOM     27  C   UNL A   1      39.029  22.262  26.425  1.00  0.00     0.275 C 
BRANCH  27  28
ATOM     28  O   UNL A   1      39.099  23.718  26.504  1.00  0.00    -0.458 OA
BRANCH  28  29
ATOM     29  C   UNL A   1      40.170  24.528  26.695  1.00  0.00     0.338 C 
ATOM     30  O   UNL A   1      41.284  24.261  26.261  1.00  0.00    -0.246 OA
BRANCH  29  31
ATOM     31  C   UNL A   1      39.952  25.792  27.407  1.00  0.00     0.060 A 
ATOM     32  C   UNL A   1      39.336  25.786  28.667  1.00  0.00     0.016 A 
ATOM     33  C   UNL A   1      40.411  26.975  26.845  1.00  0.00     0.016 A 
ATOM     34  C   UNL A   1      39.301  26.954  29.423  1.00  0.00     0.010 A 
ATOM     35  C   UNL A   1      40.526  28.083  27.645  1.00  0.00     0.010 A 
ATOM     36  C   UNL A   1      39.940  28.087  28.920  1.00  0.00    -0.014 A 
BRANCH  36  37
ATOM     37  C   UNL A   1      39.742  29.422  29.462  1.00  0.00     0.031 A 
ATOM     38  C   UNL A   1      38.652  30.322  29.070  1.00  0.00     0.074 A 
ATOM     39  C   UNL A   1      40.631  29.724  30.431  1.00  0.00     0.049 A 
ATOM     40  N   UNL A   1      38.763  31.607  29.050  1.00  0.00    -0.248 NA
ATOM     41  C   UNL A   1      37.330  29.849  28.672  1.00  0.00     0.031 C 
ATOM     42  C   UNL A   1      40.680  30.834  31.360  1.00  0.00     0.029 A 
ATOM     43  N   UNL A   1      41.840  29.045  30.636  1.00  0.00    -0.354 N 
ATOM     44  C   UNL A   1      37.487  32.124  28.976  1.00  0.00     0.074 A 
ATOM     45  C   UNL A   1      36.646  31.002  28.619  1.00  0.00     0.031 C 
ATOM     46  C   UNL A   1      41.946  30.943  31.810  1.00  0.00     0.029 A 
ATOM     47  C   UNL A   1      42.764  29.994  31.057  1.00  0.00     0.049 A 
ATOM     48  H   UNL A   1      42.003  28.083  30.506  1.00  0.00     0.167 HD
ATOM     49  C   UNL A   1      37.248  33.391  29.430  1.00  0.00     0.037 A 
ATOM     50  C   UNL A   1      43.798  30.302  30.220  1.00  0.00     0.037 A 
ATOM     51  C   UNL A   1      38.470  33.970  29.986  1.00  0.00     0.049 A 
ATOM     52  C   UNL A   1      43.740  31.748  29.808  1.00  0.00     0.074 A 
ATOM     53  C   UNL A   1      38.933  34.015  31.292  1.00  0.00     0.029 A 
ATOM     54  N   UNL A   1      39.561  34.258  29.171  1.00  0.00    -0.354 N 
ATOM     55  N   UNL A   1      42.633  32.427  29.681  1.00  0.00    -0.248 NA
ATOM     56  C   UNL A   1      44.933  32.545  29.554  1.00  0.00     0.031 C 
ATOM     57  C   UNL A   1      40.324  34.259  31.259  1.00  0.00     0.029 A 
ATOM     58  C   UNL A   1      40.706  34.387  29.935  1.00  0.00     0.049 A 
ATOM     59  H   UNL A   1      39.522  34.356  28.192  1.00  0.00     0.167 HD
ATOM     60  C   UNL A   1      42.942  33.735  29.417  1.00  0.00     0.074 A 
ATOM     61  C   UNL A   1      44.392  33.753  29.327  1.00  0.00     0.031 C 
ATOM     62  C   UNL A   1      41.991  34.711  29.336  1.00  0.00     0.037 A 
BRANCH  49  63
ATOM     63  C   UNL A   1      35.863  33.931  29.730  1.00  0.00     0.057 A 
ATOM     64  C   UNL A   1      35.009  34.378  28.700  1.00  0.00     0.134 A 
ATOM     65  C   UNL A   1      35.327  34.065  31.023  1.00  0.00     0.134 A 
ATOM     66  F   UNL A   1      35.311  34.210  27.406  1.00  0.00    -0.206 F 
ATOM     67  C   UNL A   1      33.790  35.026  28.939  1.00  0.00     0.040 A 
ATOM     68  C   UNL A   1      34.122  34.741  31.279  1.00  0.00     0.040 A 
ATOM     69  F   UNL A   1      35.935  33.519  32.085  1.00  0.00    -0.206 F 
ATOM     70  C   UNL A   1      33.358  35.244  30.236  1.00  0.00     0.006 A 
ENDBRANCH  49  63
BRANCH  50  71
ATOM     71  C   UNL A   1      44.262  29.180  29.338  1.00  0.00     0.057 A 
ATOM     72  C   UNL A   1      43.944  29.197  27.963  1.00  0.00     0.134 A 
ATOM     73  C   UNL A   1      45.198  28.223  29.741  1.00  0.00     0.134 A 
ATOM     74  F   UNL A   1      43.054  30.084  27.485  1.00  0.00    -0.206 F 
ATOM     75  C   UNL A   1      44.584  28.373  27.030  1.00  0.00     0.040 A 
ATOM     76  C   UNL A   1      45.834  27.375  28.817  1.00  0.00     0.040 A 
ATOM     77  F   UNL A   1      45.569  28.124  31.025  1.00  0.00    -0.206 F 
ATOM     78  C   UNL A   1      45.548  27.467  27.455  1.00  0.00     0.006 A 
ENDBRANCH  50  71
BRANCH  62  79
ATOM     79  C   UNL A   1      42.216  36.113  28.838  1.00  0.00     0.057 A 
ATOM     80  C   UNL A   1      42.917  37.092  29.553  1.00  0.00     0.134 A 
ATOM     81  C   UNL A   1      41.848  36.480  27.523  1.00  0.00     0.134 A 
ATOM     82  F   UNL A   1      43.440  36.841  30.761  1.00  0.00    -0.206 F 
ATOM     83  C   UNL A   1      43.165  38.368  29.032  1.00  0.00     0.040 A 
ATOM     84  C   UNL A   1      42.143  37.727  26.971  1.00  0.00     0.040 A 
ATOM     85  F   UNL A   1      41.206  35.635  26.703  1.00  0.00    -0.206 F 
ATOM     86  C   UNL A   1      42.788  38.685  27.734  1.00  0.00     0.006 A 
ENDBRANCH  62  79
ENDBRANCH  36  37
ENDBRANCH  29  31
ENDBRANCH  28  29
ENDBRANCH  27  28
ENDBRANCH   1  27
TORSDOF 16
ENDMDL
