MODEL 1
REMARK VINA RESULT:     -12.0      0.000      0.000
REMARK SMILES Cc1cc2c(c(C)c1Cl)C=C(C(=O)OCCOC(=O)c1ccc(-c3c4nc(c(-c5c(F)cccc5F)c5ccc([nH]5)c(-c5c(F)cccc5F)c5nc(c(-c6c(F)cccc6F)c6ccc3[nH]6)C=C5)C=C4)cc1)[C@@H](C(F)(F)F)O2
REMARK SMILES IDX 16 1 15 2 14 3 12 4 13 5 11 6 1 7 2 8 3 9 8 10 4 11 6 12
REMARK SMILES IDX 9 13 5 14 79 15 7 16 10 17 74 18 75 19 76 20 77 21 78 22
REMARK SMILES IDX 17 23 18 24 19 25 20 26 21 27 73 28 22 29 72 30 23 31 24 32
REMARK SMILES IDX 25 33 66 34 26 35 71 36 65 37 67 38 27 39 70 40 64 41 63 42
REMARK SMILES IDX 28 44 54 45 37 46 53 47 38 48 41 49 52 50 68 51 39 52 40 53
REMARK SMILES IDX 51 55 69 56 42 57 29 58 30 59 35 60 31 61 32 62 34 63 36 64
REMARK SMILES IDX 33 65 55 66 56 67 61 68 57 69 58 70 60 71 62 72 59 73 43 74
REMARK SMILES IDX 44 75 49 76 45 77 46 78 48 79 50 80 47 81
REMARK H PARENT 67 43 41 54
REMARK Flexibility Score: inf
ROOT
ATOM      1  C   UNL A   1      36.447  20.422  25.001  1.00  0.00     0.275 C 
ENDROOT
BRANCH   1   2
ATOM      2  C   UNL A   1      35.133  21.089  25.406  1.00  0.00     0.275 C 
BRANCH   2   3
ATOM      3  O   UNL A   1      35.152  22.500  25.098  1.00  0.00    -0.459 OA
BRANCH   3   4
ATOM      4  C   UNL A   1      34.491  23.294  25.969  1.00  0.00     0.338 C 
ATOM      5  O   UNL A   1      34.468  23.191  27.185  1.00  0.00    -0.246 OA
BRANCH   4   6
ATOM      6  C   UNL A   1      33.771  24.359  25.249  1.00  0.00     0.087 C 
ATOM      7  C   UNL A   1      30.131  29.428  23.500  1.00  0.00     0.046 C 
ATOM      8  C   UNL A   1      31.162  28.495  24.076  1.00  0.00    -0.028 A 
ATOM      9  C   UNL A   1      31.294  27.213  23.529  1.00  0.00     0.052 A 
ATOM     10  C   UNL A   1      31.973  28.859  25.168  1.00  0.00     0.047 A 
ATOM     11  C   UNL A   1      32.185  26.291  24.073  1.00  0.00     0.128 A 
ATOM     12  C   UNL A   1      32.906  27.950  25.716  1.00  0.00    -0.021 A 
ATOM     13  Cl  UNL A   1      31.784  30.450  25.845  1.00  0.00    -0.084 Cl
ATOM     14  C   UNL A   1      32.979  26.641  25.170  1.00  0.00     0.022 A 
ATOM     15  O   UNL A   1      32.218  25.073  23.451  1.00  0.00    -0.475 OA
ATOM     16  C   UNL A   1      33.794  28.334  26.878  1.00  0.00     0.047 C 
ATOM     17  C   UNL A   1      33.829  25.601  25.745  1.00  0.00     0.027 C 
ATOM     18  C   UNL A   1      32.897  23.967  24.100  1.00  0.00     0.316 C 
BRANCH  18  19
ATOM     19  C   UNL A   1      31.856  22.912  24.511  1.00  0.00     0.430 C 
ATOM     20  F   UNL A   1      30.653  23.158  23.940  1.00  0.00    -0.167 F 
ATOM     21  F   UNL A   1      32.226  21.671  24.109  1.00  0.00    -0.167 F 
ATOM     22  F   UNL A   1      31.673  22.868  25.849  1.00  0.00    -0.167 F 
ENDBRANCH  18  19
ENDBRANCH   4   6
ENDBRANCH   3   4
ENDBRANCH   2   3
ENDBRANCH   1   2
BRANCH   1  23
ATOM     23  O   UNL A   1      37.503  21.399  24.996  1.00  0.00    -0.458 OA
BRANCH  23  24
ATOM     24  C   UNL A   1      38.613  21.071  25.694  1.00  0.00     0.338 C 
ATOM     25  O   UNL A   1      39.162  19.984  25.751  1.00  0.00    -0.246 OA
BRANCH  24  26
ATOM     26  C   UNL A   1      39.149  22.266  26.369  1.00  0.00     0.060 A 
ATOM     27  C   UNL A   1      38.565  23.504  26.128  1.00  0.00     0.016 A 
ATOM     28  C   UNL A   1      40.332  22.189  27.102  1.00  0.00     0.016 A 
ATOM     29  C   UNL A   1      39.238  24.671  26.476  1.00  0.00     0.010 A 
ATOM     30  C   UNL A   1      40.934  23.364  27.574  1.00  0.00     0.010 A 
ATOM     31  C   UNL A   1      40.431  24.626  27.214  1.00  0.00    -0.014 A 
BRANCH  31  32
ATOM     32  C   UNL A   1      41.161  25.890  27.539  1.00  0.00     0.031 A 
ATOM     33  C   UNL A   1      40.531  26.932  28.435  1.00  0.00     0.074 A 
ATOM     34  C   UNL A   1      42.416  26.096  27.088  1.00  0.00     0.049 A 
ATOM     35  N   UNL A   1      40.943  28.145  28.711  1.00  0.00    -0.248 NA
ATOM     36  C   UNL A   1      39.265  26.573  29.095  1.00  0.00     0.031 C 
ATOM     37  C   UNL A   1      43.182  25.167  26.254  1.00  0.00     0.029 A 
ATOM     38  N   UNL A   1      43.288  27.140  27.292  1.00  0.00    -0.354 N 
ATOM     39  C   UNL A   1      39.959  28.710  29.516  1.00  0.00     0.074 A 
ATOM     40  C   UNL A   1      38.924  27.714  29.679  1.00  0.00     0.031 C 
ATOM     41  C   UNL A   1      44.429  25.634  26.098  1.00  0.00     0.029 A 
ATOM     42  C   UNL A   1      44.522  26.952  26.715  1.00  0.00     0.049 A 
ATOM     43  H   UNL A   1      43.051  27.947  27.805  1.00  0.00     0.167 HD
ATOM     44  C   UNL A   1      39.924  29.944  30.076  1.00  0.00     0.037 A 
ATOM     45  C   UNL A   1      45.600  27.757  26.649  1.00  0.00     0.037 A 
ATOM     46  C   UNL A   1      40.991  30.906  29.987  1.00  0.00     0.049 A 
ATOM     47  C   UNL A   1      45.524  29.134  27.242  1.00  0.00     0.074 A 
ATOM     48  C   UNL A   1      41.055  32.173  30.542  1.00  0.00     0.029 A 
ATOM     49  N   UNL A   1      42.191  30.697  29.326  1.00  0.00    -0.354 N 
ATOM     50  N   UNL A   1      44.554  29.681  27.932  1.00  0.00    -0.248 NA
ATOM     51  C   UNL A   1      46.674  30.021  27.010  1.00  0.00     0.031 C 
ATOM     52  C   UNL A   1      42.280  32.744  30.186  1.00  0.00     0.029 A 
ATOM     53  C   UNL A   1      42.994  31.819  29.442  1.00  0.00     0.049 A 
ATOM     54  H   UNL A   1      42.437  29.874  28.845  1.00  0.00     0.167 HD
ATOM     55  C   UNL A   1      44.972  30.974  28.213  1.00  0.00     0.074 A 
ATOM     56  C   UNL A   1      46.295  31.122  27.644  1.00  0.00     0.031 C 
ATOM     57  C   UNL A   1      44.308  31.956  28.869  1.00  0.00     0.037 A 
BRANCH  44  58
ATOM     58  C   UNL A   1      38.687  30.341  30.827  1.00  0.00     0.057 A 
ATOM     59  C   UNL A   1      38.540  30.109  32.200  1.00  0.00     0.134 A 
ATOM     60  C   UNL A   1      37.653  31.029  30.174  1.00  0.00     0.134 A 
ATOM     61  F   UNL A   1      39.486  29.447  32.881  1.00  0.00    -0.206 F 
ATOM     62  C   UNL A   1      37.403  30.531  32.893  1.00  0.00     0.040 A 
ATOM     63  C   UNL A   1      36.525  31.478  30.863  1.00  0.00     0.040 A 
ATOM     64  F   UNL A   1      37.734  31.294  28.863  1.00  0.00    -0.206 F 
ATOM     65  C   UNL A   1      36.396  31.226  32.227  1.00  0.00     0.006 A 
ENDBRANCH  44  58
BRANCH  45  66
ATOM     66  C   UNL A   1      46.829  27.292  25.954  1.00  0.00     0.057 A 
ATOM     67  C   UNL A   1      47.818  26.579  26.641  1.00  0.00     0.134 A 
ATOM     68  C   UNL A   1      47.033  27.523  24.588  1.00  0.00     0.134 A 
ATOM     69  F   UNL A   1      47.692  26.348  27.956  1.00  0.00    -0.206 F 
ATOM     70  C   UNL A   1      48.961  26.107  25.994  1.00  0.00     0.040 A 
ATOM     71  C   UNL A   1      48.158  27.033  23.922  1.00  0.00     0.040 A 
ATOM     72  F   UNL A   1      46.125  28.203  23.873  1.00  0.00    -0.206 F 
ATOM     73  C   UNL A   1      49.128  26.325  24.627  1.00  0.00     0.006 A 
ENDBRANCH  45  66
BRANCH  57  74
ATOM     74  C   UNL A   1      44.991  33.281  29.009  1.00  0.00     0.057 A 
ATOM     75  C   UNL A   1      44.768  34.313  28.091  1.00  0.00     0.134 A 
ATOM     76  C   UNL A   1      45.807  33.557  30.112  1.00  0.00     0.134 A 
ATOM     77  F   UNL A   1      44.005  34.106  27.006  1.00  0.00    -0.206 F 
ATOM     78  C   UNL A   1      45.335  35.576  28.263  1.00  0.00     0.040 A 
ATOM     79  C   UNL A   1      46.363  34.822  30.308  1.00  0.00     0.040 A 
ATOM     80  F   UNL A   1      46.051  32.612  31.032  1.00  0.00    -0.206 F 
ATOM     81  C   UNL A   1      46.127  35.836  29.381  1.00  0.00     0.006 A 
ENDBRANCH  57  74
ENDBRANCH  31  32
ENDBRANCH  24  26
ENDBRANCH  23  24
ENDBRANCH   1  23
TORSDOF 12
ENDMDL
MODEL 2
REMARK VINA RESULT:     -11.9      3.984      8.812
REMARK SMILES Cc1cc2c(c(C)c1Cl)C=C(C(=O)OCCOC(=O)c1ccc(-c3c4nc(c(-c5c(F)cccc5F)c5ccc([nH]5)c(-c5c(F)cccc5F)c5nc(c(-c6c(F)cccc6F)c6ccc3[nH]6)C=C5)C=C4)cc1)[C@@H](C(F)(F)F)O2
REMARK SMILES IDX 16 1 15 2 14 3 12 4 13 5 11 6 1 7 2 8 3 9 8 10 4 11 6 12
REMARK SMILES IDX 9 13 5 14 79 15 7 16 10 17 74 18 75 19 76 20 77 21 78 22
REMARK SMILES IDX 17 23 18 24 19 25 20 26 21 27 73 28 22 29 72 30 23 31 24 32
REMARK SMILES IDX 25 33 66 34 26 35 71 36 65 37 67 38 27 39 70 40 64 41 63 42
REMARK SMILES IDX 28 44 54 45 37 46 53 47 38 48 41 49 52 50 68 51 39 52 40 53
REMARK SMILES IDX 51 55 69 56 42 57 29 58 30 59 35 60 31 61 32 62 34 63 36 64
REMARK SMILES IDX 33 65 55 66 56 67 61 68 57 69 58 70 60 71 62 72 59 73 43 74
REMARK SMILES IDX 44 75 49 76 45 77 46 78 48 79 50 80 47 81
REMARK H PARENT 67 43 41 54
REMARK Flexibility Score: inf
ROOT
ATOM      1  C   UNL A   1      31.787  30.099  25.374  1.00  0.00     0.275 C 
ENDROOT
BRANCH   1   2
ATOM      2  C   UNL A   1      31.403  28.659  25.037  1.00  0.00     0.275 C 
BRANCH   2   3
ATOM      3  O   UNL A   1      32.400  27.732  25.519  1.00  0.00    -0.459 OA
BRANCH   3   4
ATOM      4  C   UNL A   1      33.150  27.137  24.565  1.00  0.00     0.338 C 
ATOM      5  O   UNL A   1      33.753  27.687  23.657  1.00  0.00    -0.246 OA
BRANCH   4   6
ATOM      6  C   UNL A   1      33.166  25.677  24.759  1.00  0.00     0.087 C 
ATOM      7  C   UNL A   1      34.418  19.319  24.624  1.00  0.00     0.046 C 
ATOM      8  C   UNL A   1      34.449  20.815  24.792  1.00  0.00    -0.028 A 
ATOM      9  C   UNL A   1      33.243  21.526  24.744  1.00  0.00     0.052 A 
ATOM     10  C   UNL A   1      35.655  21.523  24.962  1.00  0.00     0.047 A 
ATOM     11  C   UNL A   1      33.229  22.916  24.826  1.00  0.00     0.128 A 
ATOM     12  C   UNL A   1      35.660  22.931  25.078  1.00  0.00    -0.021 A 
ATOM     13  Cl  UNL A   1      37.143  20.625  25.003  1.00  0.00    -0.084 Cl
ATOM     14  C   UNL A   1      34.425  23.626  24.975  1.00  0.00     0.022 A 
ATOM     15  O   UNL A   1      31.990  23.492  24.764  1.00  0.00    -0.475 OA
ATOM     16  C   UNL A   1      36.945  23.702  25.277  1.00  0.00     0.047 C 
ATOM     17  C   UNL A   1      34.348  25.085  24.967  1.00  0.00     0.027 C 
ATOM     18  C   UNL A   1      31.887  24.925  24.561  1.00  0.00     0.316 C 
BRANCH  18  19
ATOM     19  C   UNL A   1      31.278  25.193  23.175  1.00  0.00     0.430 C 
ATOM     20  F   UNL A   1      30.536  24.142  22.751  1.00  0.00    -0.167 F 
ATOM     21  F   UNL A   1      30.449  26.265  23.199  1.00  0.00    -0.167 F 
ATOM     22  F   UNL A   1      32.223  25.431  22.238  1.00  0.00    -0.167 F 
ENDBRANCH  18  19
ENDBRANCH   4   6
ENDBRANCH   3   4
ENDBRANCH   2   3
ENDBRANCH   1   2
BRANCH   1  23
ATOM     23  O   UNL A   1      32.172  30.185  26.758  1.00  0.00    -0.458 OA
BRANCH  23  24
ATOM     24  C   UNL A   1      32.795  31.327  27.127  1.00  0.00     0.338 C 
ATOM     25  O   UNL A   1      32.328  32.452  27.160  1.00  0.00    -0.246 OA
BRANCH  24  26
ATOM     26  C   UNL A   1      34.168  31.025  27.569  1.00  0.00     0.060 A 
ATOM     27  C   UNL A   1      34.559  29.700  27.719  1.00  0.00     0.016 A 
ATOM     28  C   UNL A   1      35.010  32.050  27.998  1.00  0.00     0.016 A 
ATOM     29  C   UNL A   1      35.710  29.393  28.438  1.00  0.00     0.010 A 
ATOM     30  C   UNL A   1      36.238  31.735  28.597  1.00  0.00     0.010 A 
ATOM     31  C   UNL A   1      36.578  30.401  28.884  1.00  0.00    -0.014 A 
BRANCH  31  32
ATOM     32  C   UNL A   1      37.785  30.050  29.694  1.00  0.00     0.031 A 
ATOM     33  C   UNL A   1      38.906  29.236  29.087  1.00  0.00     0.074 A 
ATOM     34  C   UNL A   1      37.923  30.502  30.958  1.00  0.00     0.049 A 
ATOM     35  N   UNL A   1      39.957  28.712  29.668  1.00  0.00    -0.248 NA
ATOM     36  C   UNL A   1      38.829  28.960  27.643  1.00  0.00     0.031 C 
ATOM     37  C   UNL A   1      36.954  31.339  31.670  1.00  0.00     0.029 A 
ATOM     38  N   UNL A   1      38.947  30.352  31.863  1.00  0.00    -0.354 N 
ATOM     39  C   UNL A   1      40.623  27.995  28.681  1.00  0.00     0.074 A 
ATOM     40  C   UNL A   1      39.857  28.141  27.464  1.00  0.00     0.031 C 
ATOM     41  C   UNL A   1      37.467  31.703  32.854  1.00  0.00     0.029 A 
ATOM     42  C   UNL A   1      38.748  31.030  33.042  1.00  0.00     0.049 A 
ATOM     43  H   UNL A   1      39.749  29.811  31.682  1.00  0.00     0.167 HD
ATOM     44  C   UNL A   1      41.775  27.286  28.777  1.00  0.00     0.037 A 
ATOM     45  C   UNL A   1      39.483  31.081  34.169  1.00  0.00     0.037 A 
ATOM     46  C   UNL A   1      42.585  27.210  29.964  1.00  0.00     0.049 A 
ATOM     47  C   UNL A   1      40.734  30.256  34.266  1.00  0.00     0.074 A 
ATOM     48  C   UNL A   1      43.780  26.534  30.148  1.00  0.00     0.029 A 
ATOM     49  N   UNL A   1      42.300  27.853  31.158  1.00  0.00    -0.354 N 
ATOM     50  N   UNL A   1      41.307  29.520  33.347  1.00  0.00    -0.248 NA
ATOM     51  C   UNL A   1      41.415  30.235  35.569  1.00  0.00     0.031 C 
ATOM     52  C   UNL A   1      44.200  26.740  31.465  1.00  0.00     0.029 A 
ATOM     53  C   UNL A   1      43.287  27.574  32.089  1.00  0.00     0.049 A 
ATOM     54  H   UNL A   1      41.515  28.423  31.320  1.00  0.00     0.167 HD
ATOM     55  C   UNL A   1      42.412  28.944  33.959  1.00  0.00     0.074 A 
ATOM     56  C   UNL A   1      42.446  29.438  35.319  1.00  0.00     0.031 C 
ATOM     57  C   UNL A   1      43.308  28.070  33.441  1.00  0.00     0.037 A 
BRANCH  44  58
ATOM     58  C   UNL A   1      42.229  26.516  27.570  1.00  0.00     0.057 A 
ATOM     59  C   UNL A   1      43.056  27.082  26.592  1.00  0.00     0.134 A 
ATOM     60  C   UNL A   1      41.886  25.164  27.423  1.00  0.00     0.134 A 
ATOM     61  F   UNL A   1      43.412  28.372  26.668  1.00  0.00    -0.206 F 
ATOM     62  C   UNL A   1      43.511  26.336  25.502  1.00  0.00     0.040 A 
ATOM     63  C   UNL A   1      42.357  24.403  26.352  1.00  0.00     0.040 A 
ATOM     64  F   UNL A   1      41.107  24.557  28.329  1.00  0.00    -0.206 F 
ATOM     65  C   UNL A   1      43.170  24.991  25.385  1.00  0.00     0.006 A 
ENDBRANCH  44  58
BRANCH  45  66
ATOM     66  C   UNL A   1      39.028  31.914  35.313  1.00  0.00     0.057 A 
ATOM     67  C   UNL A   1      39.339  33.276  35.381  1.00  0.00     0.134 A 
ATOM     68  C   UNL A   1      38.251  31.378  36.349  1.00  0.00     0.134 A 
ATOM     69  F   UNL A   1      40.101  33.842  34.433  1.00  0.00    -0.206 F 
ATOM     70  C   UNL A   1      38.891  34.077  36.432  1.00  0.00     0.040 A 
ATOM     71  C   UNL A   1      37.771  32.174  37.391  1.00  0.00     0.040 A 
ATOM     72  F   UNL A   1      37.920  30.079  36.345  1.00  0.00    -0.206 F 
ATOM     73  C   UNL A   1      38.094  33.527  37.436  1.00  0.00     0.006 A 
ENDBRANCH  45  66
BRANCH  57  74
ATOM     74  C   UNL A   1      44.400  27.581  34.342  1.00  0.00     0.057 A 
ATOM     75  C   UNL A   1      44.278  26.378  35.045  1.00  0.00     0.134 A 
ATOM     76  C   UNL A   1      45.614  28.271  34.438  1.00  0.00     0.134 A 
ATOM     77  F   UNL A   1      43.133  25.678  35.001  1.00  0.00    -0.206 F 
ATOM     78  C   UNL A   1      45.325  25.877  35.818  1.00  0.00     0.040 A 
ATOM     79  C   UNL A   1      46.677  27.770  35.191  1.00  0.00     0.040 A 
ATOM     80  F   UNL A   1      45.796  29.425  33.780  1.00  0.00    -0.206 F 
ATOM     81  C   UNL A   1      46.533  26.569  35.884  1.00  0.00     0.006 A 
ENDBRANCH  57  74
ENDBRANCH  31  32
ENDBRANCH  24  26
ENDBRANCH  23  24
ENDBRANCH   1  23
TORSDOF 12
ENDMDL
MODEL 3
REMARK VINA RESULT:     -11.9      1.226      2.070
REMARK SMILES Cc1cc2c(c(C)c1Cl)C=C(C(=O)OCCOC(=O)c1ccc(-c3c4nc(c(-c5c(F)cccc5F)c5ccc([nH]5)c(-c5c(F)cccc5F)c5nc(c(-c6c(F)cccc6F)c6ccc3[nH]6)C=C5)C=C4)cc1)[C@@H](C(F)(F)F)O2
REMARK SMILES IDX 16 1 15 2 14 3 12 4 13 5 11 6 1 7 2 8 3 9 8 10 4 11 6 12
REMARK SMILES IDX 9 13 5 14 79 15 7 16 10 17 74 18 75 19 76 20 77 21 78 22
REMARK SMILES IDX 17 23 18 24 19 25 20 26 21 27 73 28 22 29 72 30 23 31 24 32
REMARK SMILES IDX 25 33 66 34 26 35 71 36 65 37 67 38 27 39 70 40 64 41 63 42
REMARK SMILES IDX 28 44 54 45 37 46 53 47 38 48 41 49 52 50 68 51 39 52 40 53
REMARK SMILES IDX 51 55 69 56 42 57 29 58 30 59 35 60 31 61 32 62 34 63 36 64
REMARK SMILES IDX 33 65 55 66 56 67 61 68 57 69 58 70 60 71 62 72 59 73 43 74
REMARK SMILES IDX 44 75 49 76 45 77 46 78 48 79 50 80 47 81
REMARK H PARENT 67 43 41 54
REMARK Flexibility Score: inf
ROOT
ATOM      1  C   UNL A   1      36.948  20.193  24.701  1.00  0.00     0.275 C 
ENDROOT
BRANCH   1   2
ATOM      2  C   UNL A   1      35.451  20.202  25.007  1.00  0.00     0.275 C 
BRANCH   2   3
ATOM      3  O   UNL A   1      34.821  21.386  24.470  1.00  0.00    -0.459 OA
BRANCH   3   4
ATOM      4  C   UNL A   1      33.469  21.377  24.474  1.00  0.00     0.338 C 
ATOM      5  O   UNL A   1      32.740  20.458  24.135  1.00  0.00    -0.246 OA
BRANCH   4   6
ATOM      6  C   UNL A   1      32.947  22.663  24.968  1.00  0.00     0.087 C 
ATOM      7  C   UNL A   1      32.037  28.841  26.701  1.00  0.00     0.046 C 
ATOM      8  C   UNL A   1      32.273  27.543  25.977  1.00  0.00    -0.028 A 
ATOM      9  C   UNL A   1      31.971  26.341  26.629  1.00  0.00     0.052 A 
ATOM     10  C   UNL A   1      32.818  27.499  24.679  1.00  0.00     0.047 A 
ATOM     11  C   UNL A   1      32.237  25.114  26.026  1.00  0.00     0.128 A 
ATOM     12  C   UNL A   1      33.066  26.265  24.037  1.00  0.00    -0.021 A 
ATOM     13  Cl  UNL A   1      33.202  29.001  23.891  1.00  0.00    -0.084 Cl
ATOM     14  C   UNL A   1      32.796  25.064  24.745  1.00  0.00     0.022 A 
ATOM     15  O   UNL A   1      31.900  24.014  26.766  1.00  0.00    -0.475 OA
ATOM     16  C   UNL A   1      33.636  26.204  22.637  1.00  0.00     0.047 C 
ATOM     17  C   UNL A   1      33.129  23.747  24.206  1.00  0.00     0.027 C 
ATOM     18  C   UNL A   1      32.384  22.710  26.354  1.00  0.00     0.316 C 
BRANCH  18  19
ATOM     19  C   UNL A   1      33.392  22.197  27.396  1.00  0.00     0.430 C 
ATOM     20  F   UNL A   1      32.998  22.502  28.655  1.00  0.00    -0.167 F 
ATOM     21  F   UNL A   1      33.511  20.848  27.346  1.00  0.00    -0.167 F 
ATOM     22  F   UNL A   1      34.625  22.721  27.215  1.00  0.00    -0.167 F 
ENDBRANCH  18  19
ENDBRANCH   4   6
ENDBRANCH   3   4
ENDBRANCH   2   3
ENDBRANCH   1   2
BRANCH   1  23
ATOM     23  O   UNL A   1      37.580  21.314  25.344  1.00  0.00    -0.458 OA
BRANCH  23  24
ATOM     24  C   UNL A   1      38.789  21.072  25.899  1.00  0.00     0.338 C 
ATOM     25  O   UNL A   1      39.431  20.037  25.860  1.00  0.00    -0.246 OA
BRANCH  24  26
ATOM     26  C   UNL A   1      39.296  22.296  26.543  1.00  0.00     0.060 A 
ATOM     27  C   UNL A   1      38.764  23.527  26.179  1.00  0.00     0.016 A 
ATOM     28  C   UNL A   1      40.413  22.242  27.376  1.00  0.00     0.016 A 
ATOM     29  C   UNL A   1      39.435  24.700  26.511  1.00  0.00     0.010 A 
ATOM     30  C   UNL A   1      41.003  23.432  27.825  1.00  0.00     0.010 A 
ATOM     31  C   UNL A   1      40.561  24.679  27.347  1.00  0.00    -0.014 A 
BRANCH  31  32
ATOM     32  C   UNL A   1      41.293  25.947  27.655  1.00  0.00     0.031 A 
ATOM     33  C   UNL A   1      40.665  27.000  28.539  1.00  0.00     0.074 A 
ATOM     34  C   UNL A   1      42.548  26.146  27.200  1.00  0.00     0.049 A 
ATOM     35  N   UNL A   1      41.078  28.217  28.798  1.00  0.00    -0.248 NA
ATOM     36  C   UNL A   1      39.399  26.651  29.204  1.00  0.00     0.031 C 
ATOM     37  C   UNL A   1      43.312  25.205  26.377  1.00  0.00     0.029 A 
ATOM     38  N   UNL A   1      43.421  27.192  27.390  1.00  0.00    -0.354 N 
ATOM     39  C   UNL A   1      40.095  28.792  29.597  1.00  0.00     0.074 A 
ATOM     40  C   UNL A   1      39.060  27.799  29.774  1.00  0.00     0.031 C 
ATOM     41  C   UNL A   1      44.559  25.669  26.214  1.00  0.00     0.029 A 
ATOM     42  C   UNL A   1      44.654  26.995  26.814  1.00  0.00     0.049 A 
ATOM     43  H   UNL A   1      43.185  28.005  27.892  1.00  0.00     0.167 HD
ATOM     44  C   UNL A   1      40.063  30.034  30.141  1.00  0.00     0.037 A 
ATOM     45  C   UNL A   1      45.732  27.798  26.736  1.00  0.00     0.037 A 
ATOM     46  C   UNL A   1      41.130  30.994  30.038  1.00  0.00     0.049 A 
ATOM     47  C   UNL A   1      45.658  29.182  27.311  1.00  0.00     0.074 A 
ATOM     48  C   UNL A   1      41.196  32.268  30.576  1.00  0.00     0.029 A 
ATOM     49  N   UNL A   1      42.329  30.775  29.378  1.00  0.00    -0.354 N 
ATOM     50  N   UNL A   1      44.690  29.739  27.995  1.00  0.00    -0.248 NA
ATOM     51  C   UNL A   1      46.809  30.065  27.067  1.00  0.00     0.031 C 
ATOM     52  C   UNL A   1      42.421  32.833  30.212  1.00  0.00     0.029 A 
ATOM     53  C   UNL A   1      43.133  31.898  29.479  1.00  0.00     0.049 A 
ATOM     54  H   UNL A   1      42.573  29.946  28.908  1.00  0.00     0.167 HD
ATOM     55  C   UNL A   1      45.109  31.036  28.259  1.00  0.00     0.074 A 
ATOM     56  C   UNL A   1      46.431  31.175  27.687  1.00  0.00     0.031 C 
ATOM     57  C   UNL A   1      44.447  32.026  28.903  1.00  0.00     0.037 A 
BRANCH  44  58
ATOM     58  C   UNL A   1      38.826  30.442  30.888  1.00  0.00     0.057 A 
ATOM     59  C   UNL A   1      37.744  31.065  30.256  1.00  0.00     0.134 A 
ATOM     60  C   UNL A   1      38.693  30.144  32.252  1.00  0.00     0.134 A 
ATOM     61  F   UNL A   1      37.810  31.387  28.956  1.00  0.00    -0.206 F 
ATOM     62  C   UNL A   1      36.580  31.392  30.957  1.00  0.00     0.040 A 
ATOM     63  C   UNL A   1      37.525  30.442  32.956  1.00  0.00     0.040 A 
ATOM     64  F   UNL A   1      39.688  29.538  32.917  1.00  0.00    -0.206 F 
ATOM     65  C   UNL A   1      36.465  31.072  32.308  1.00  0.00     0.006 A 
ENDBRANCH  44  58
BRANCH  45  66
ATOM     66  C   UNL A   1      46.960  27.323  26.046  1.00  0.00     0.057 A 
ATOM     67  C   UNL A   1      47.981  26.680  26.755  1.00  0.00     0.134 A 
ATOM     68  C   UNL A   1      47.132  27.473  24.664  1.00  0.00     0.134 A 
ATOM     69  F   UNL A   1      47.887  26.529  28.084  1.00  0.00    -0.206 F 
ATOM     70  C   UNL A   1      49.125  26.200  26.115  1.00  0.00     0.040 A 
ATOM     71  C   UNL A   1      48.257  26.972  24.006  1.00  0.00     0.040 A 
ATOM     72  F   UNL A   1      46.192  28.083  23.927  1.00  0.00    -0.206 F 
ATOM     73  C   UNL A   1      49.259  26.335  24.733  1.00  0.00     0.006 A 
ENDBRANCH  45  66
BRANCH  57  74
ATOM     74  C   UNL A   1      45.131  33.353  29.025  1.00  0.00     0.057 A 
ATOM     75  C   UNL A   1      46.020  33.618  30.072  1.00  0.00     0.134 A 
ATOM     76  C   UNL A   1      44.969  34.338  28.043  1.00  0.00     0.134 A 
ATOM     77  F   UNL A   1      46.208  32.716  31.049  1.00  0.00    -0.206 F 
ATOM     78  C   UNL A   1      46.724  34.820  30.142  1.00  0.00     0.040 A 
ATOM     79  C   UNL A   1      45.683  35.536  28.091  1.00  0.00     0.040 A 
ATOM     80  F   UNL A   1      44.138  34.139  27.010  1.00  0.00    -0.206 F 
ATOM     81  C   UNL A   1      46.564  35.779  29.144  1.00  0.00     0.006 A 
ENDBRANCH  57  74
ENDBRANCH  31  32
ENDBRANCH  24  26
ENDBRANCH  23  24
ENDBRANCH   1  23
TORSDOF 12
ENDMDL
