MODEL 1
REMARK VINA RESULT:     -12.5      0.000      0.000
REMARK SMILES Cc1ccc(S(=O)(=O)n2cc(C(=O)C(=O)NCC(=O)OCCOC(=O)c3ccc(-c4c5nc(c(-c6c(F)cccc6F)c6ccc([nH]6)c(-c6c(F)cccc6F)c6nc(c(-c7c(F)cccc7F)c7ccc4[nH]7)C=C6)C=C5)cc3)c3ccccc32)cc1
REMARK SMILES IDX 20 1 18 2 19 3 17 4 16 5 14 6 15 7 12 9 13 10 11 11 9 12
REMARK SMILES IDX 10 13 85 14 80 15 84 16 81 17 83 18 82 19 6 20 7 21 8 22
REMARK SMILES IDX 5 23 1 24 2 25 3 26 87 27 4 28 86 29 21 30 22 31 23 32 24 33
REMARK SMILES IDX 25 34 26 35 27 36 79 37 28 38 78 39 29 40 30 41 31 42 72 43
REMARK SMILES IDX 32 44 77 45 71 46 73 47 33 48 76 49 70 50 69 51 34 53 60 54
REMARK SMILES IDX 43 55 59 56 44 57 47 58 58 59 74 60 45 61 46 62 57 64 75 65
REMARK SMILES IDX 48 66 35 67 36 68 41 69 37 70 38 71 40 72 42 73 39 74 61 75
REMARK SMILES IDX 62 76 67 77 63 78 64 79 66 80 68 81 65 82 49 83 50 84 55 85
REMARK SMILES IDX 51 86 52 87 54 88 56 89 53 90
REMARK H PARENT 16 8 73 52 47 63
REMARK Flexibility Score: inf
ROOT
ATOM      1  O   UNL A   1      35.287  21.350  26.340  1.00  0.00    -0.461 OA
ENDROOT
BRANCH   1   2
ATOM      2  C   UNL A   1      33.939  21.525  26.251  1.00  0.00     0.325 C 
ATOM      3  O   UNL A   1      33.139  20.643  25.958  1.00  0.00    -0.250 OA
BRANCH   2   4
ATOM      4  C   UNL A   1      33.511  22.859  26.824  1.00  0.00     0.239 C 
BRANCH   4   5
ATOM      5  N   UNL A   1      32.204  22.967  27.429  1.00  0.00    -0.338 N 
ATOM      6  C   UNL A   1      31.121  23.497  26.756  1.00  0.00     0.292 C 
ATOM      7  O   UNL A   1      29.999  23.545  27.234  1.00  0.00    -0.265 OA
ATOM      8  H   UNL A   1      32.081  22.652  28.353  1.00  0.00     0.164 HD
BRANCH   6   9
ATOM      9  C   UNL A   1      31.409  24.093  25.364  1.00  0.00     0.252 C 
ATOM     10  O   UNL A   1      31.322  23.345  24.393  1.00  0.00    -0.283 OA
BRANCH   9  11
ATOM     11  C   UNL A   1      31.900  25.464  25.276  1.00  0.00     0.054 A 
ATOM     12  N   UNL A   1      32.283  27.587  25.819  1.00  0.00    -0.240 N 
ATOM     13  C   UNL A   1      31.795  26.398  26.287  1.00  0.00     0.117 A 
ATOM     14  C   UNL A   1      32.773  27.457  24.536  1.00  0.00     0.065 A 
ATOM     15  C   UNL A   1      32.559  26.116  24.177  1.00  0.00     0.012 A 
ATOM     16  C   UNL A   1      33.330  28.387  23.639  1.00  0.00     0.028 A 
ATOM     17  C   UNL A   1      32.973  25.692  22.894  1.00  0.00     0.011 A 
ATOM     18  C   UNL A   1      33.696  27.943  22.367  1.00  0.00     0.002 A 
ATOM     19  C   UNL A   1      33.536  26.612  22.002  1.00  0.00     0.001 A 
BRANCH  12  20
ATOM     20  S   UNL A   1      32.019  29.060  26.631  1.00  0.00     0.268 S 
ATOM     21  O   UNL A   1      31.289  28.713  27.840  1.00  0.00    -0.201 OA
ATOM     22  O   UNL A   1      31.471  29.959  25.639  1.00  0.00    -0.201 OA
BRANCH  20  23
ATOM     23  C   UNL A   1      33.610  29.679  27.107  1.00  0.00     0.088 A 
ATOM     24  C   UNL A   1      37.264  31.310  28.671  1.00  0.00     0.044 C 
ATOM     25  C   UNL A   1      36.005  30.747  28.083  1.00  0.00    -0.051 A 
ATOM     26  C   UNL A   1      34.876  31.561  27.939  1.00  0.00     0.005 A 
ATOM     27  C   UNL A   1      35.939  29.407  27.686  1.00  0.00     0.005 A 
ATOM     28  C   UNL A   1      33.679  31.030  27.457  1.00  0.00     0.022 A 
ATOM     29  C   UNL A   1      34.750  28.874  27.187  1.00  0.00     0.022 A 
ENDBRANCH  20  23
ENDBRANCH  12  20
ENDBRANCH   9  11
ENDBRANCH   6   9
ENDBRANCH   4   5
ENDBRANCH   2   4
ENDBRANCH   1   2
BRANCH   1  30
ATOM     30  C   UNL A   1      36.011  22.182  25.431  1.00  0.00     0.274 C 
BRANCH  30  31
ATOM     31  C   UNL A   1      37.269  21.477  24.906  1.00  0.00     0.275 C 
BRANCH  31  32
ATOM     32  O   UNL A   1      38.590  22.047  25.210  1.00  0.00    -0.458 OA
BRANCH  32  33
ATOM     33  C   UNL A   1      39.564  21.786  26.121  1.00  0.00     0.338 C 
ATOM     34  O   UNL A   1      40.037  20.662  26.244  1.00  0.00    -0.246 OA
BRANCH  33  35
ATOM     35  C   UNL A   1      40.113  22.879  26.937  1.00  0.00     0.060 A 
ATOM     36  C   UNL A   1      41.085  22.645  27.934  1.00  0.00     0.016 A 
ATOM     37  C   UNL A   1      39.726  24.165  26.639  1.00  0.00     0.016 A 
ATOM     38  C   UNL A   1      41.752  23.725  28.522  1.00  0.00     0.010 A 
ATOM     39  C   UNL A   1      40.562  25.182  26.987  1.00  0.00     0.010 A 
ATOM     40  C   UNL A   1      41.510  24.990  27.999  1.00  0.00    -0.014 A 
BRANCH  40  41
ATOM     41  C   UNL A   1      41.935  26.262  28.562  1.00  0.00     0.031 A 
ATOM     42  C   UNL A   1      40.982  27.274  29.034  1.00  0.00     0.074 A 
ATOM     43  C   UNL A   1      43.255  26.239  28.860  1.00  0.00     0.049 A 
ATOM     44  N   UNL A   1      41.266  28.519  29.181  1.00  0.00    -0.248 NA
ATOM     45  C   UNL A   1      39.599  26.971  29.395  1.00  0.00     0.031 C 
ATOM     46  C   UNL A   1      44.073  27.037  29.749  1.00  0.00     0.029 A 
ATOM     47  N   UNL A   1      44.184  25.362  28.274  1.00  0.00    -0.354 N 
ATOM     48  C   UNL A   1      40.274  29.071  29.968  1.00  0.00     0.074 A 
ATOM     49  C   UNL A   1      39.193  28.119  29.951  1.00  0.00     0.031 C 
ATOM     50  C   UNL A   1      45.368  26.864  29.403  1.00  0.00     0.029 A 
ATOM     51  C   UNL A   1      45.400  26.030  28.204  1.00  0.00     0.049 A 
ATOM     52  H   UNL A   1      44.005  24.442  27.968  1.00  0.00     0.167 HD
ATOM     53  C   UNL A   1      40.566  30.168  30.726  1.00  0.00     0.037 A 
ATOM     54  C   UNL A   1      45.806  26.396  26.952  1.00  0.00     0.037 A 
ATOM     55  C   UNL A   1      41.977  30.510  30.556  1.00  0.00     0.049 A 
ATOM     56  C   UNL A   1      45.688  27.894  26.819  1.00  0.00     0.074 A 
ATOM     57  C   UNL A   1      43.094  30.146  31.290  1.00  0.00     0.029 A 
ATOM     58  N   UNL A   1      42.438  30.912  29.306  1.00  0.00    -0.354 N 
ATOM     59  N   UNL A   1      44.810  28.625  27.456  1.00  0.00    -0.248 NA
ATOM     60  C   UNL A   1      46.647  28.687  26.062  1.00  0.00     0.031 C 
ATOM     61  C   UNL A   1      44.223  30.233  30.433  1.00  0.00     0.029 A 
ATOM     62  C   UNL A   1      43.792  30.647  29.184  1.00  0.00     0.049 A 
ATOM     63  H   UNL A   1      41.882  31.325  28.608  1.00  0.00     0.167 HD
ATOM     64  C   UNL A   1      45.133  29.945  27.303  1.00  0.00     0.074 A 
ATOM     65  C   UNL A   1      46.273  29.932  26.400  1.00  0.00     0.031 C 
ATOM     66  C   UNL A   1      44.501  30.966  27.955  1.00  0.00     0.037 A 
BRANCH  53  67
ATOM     67  C   UNL A   1      39.697  30.697  31.843  1.00  0.00     0.057 A 
ATOM     68  C   UNL A   1      39.479  29.946  33.017  1.00  0.00     0.134 A 
ATOM     69  C   UNL A   1      39.061  31.951  31.827  1.00  0.00     0.134 A 
ATOM     70  F   UNL A   1      40.050  28.750  33.205  1.00  0.00    -0.206 F 
ATOM     71  C   UNL A   1      38.656  30.379  34.065  1.00  0.00     0.040 A 
ATOM     72  C   UNL A   1      38.208  32.385  32.858  1.00  0.00     0.040 A 
ATOM     73  F   UNL A   1      39.270  32.823  30.830  1.00  0.00    -0.206 F 
ATOM     74  C   UNL A   1      38.001  31.597  33.983  1.00  0.00     0.006 A 
ENDBRANCH  53  67
BRANCH  54  75
ATOM     75  C   UNL A   1      45.454  25.354  25.919  1.00  0.00     0.057 A 
ATOM     76  C   UNL A   1      46.272  24.200  25.846  1.00  0.00     0.134 A 
ATOM     77  C   UNL A   1      44.195  25.250  25.318  1.00  0.00     0.134 A 
ATOM     78  F   UNL A   1      47.498  24.211  26.396  1.00  0.00    -0.206 F 
ATOM     79  C   UNL A   1      45.811  22.976  25.344  1.00  0.00     0.040 A 
ATOM     80  C   UNL A   1      43.736  24.033  24.778  1.00  0.00     0.040 A 
ATOM     81  F   UNL A   1      43.345  26.285  25.327  1.00  0.00    -0.206 F 
ATOM     82  C   UNL A   1      44.524  22.883  24.833  1.00  0.00     0.006 A 
ENDBRANCH  54  75
BRANCH  66  83
ATOM     83  C   UNL A   1      44.598  32.408  27.544  1.00  0.00     0.057 A 
ATOM     84  C   UNL A   1      45.334  33.360  28.263  1.00  0.00     0.134 A 
ATOM     85  C   UNL A   1      44.087  32.847  26.303  1.00  0.00     0.134 A 
ATOM     86  F   UNL A   1      45.997  33.040  29.382  1.00  0.00    -0.206 F 
ATOM     87  C   UNL A   1      45.469  34.680  27.829  1.00  0.00     0.040 A 
ATOM     88  C   UNL A   1      44.282  34.142  25.824  1.00  0.00     0.040 A 
ATOM     89  F   UNL A   1      43.406  32.033  25.484  1.00  0.00    -0.206 F 
ATOM     90  C   UNL A   1      44.953  35.073  26.602  1.00  0.00     0.006 A 
ENDBRANCH  66  83
ENDBRANCH  40  41
ENDBRANCH  33  35
ENDBRANCH  32  33
ENDBRANCH  31  32
ENDBRANCH  30  31
ENDBRANCH   1  30
TORSDOF 16
ENDMDL
MODEL 2
REMARK VINA RESULT:     -12.3      3.037      8.345
REMARK SMILES Cc1ccc(S(=O)(=O)n2cc(C(=O)C(=O)NCC(=O)OCCOC(=O)c3ccc(-c4c5nc(c(-c6c(F)cccc6F)c6ccc([nH]6)c(-c6c(F)cccc6F)c6nc(c(-c7c(F)cccc7F)c7ccc4[nH]7)C=C6)C=C5)cc3)c3ccccc32)cc1
REMARK SMILES IDX 20 1 18 2 19 3 17 4 16 5 14 6 15 7 12 9 13 10 11 11 9 12
REMARK SMILES IDX 10 13 85 14 80 15 84 16 81 17 83 18 82 19 6 20 7 21 8 22
REMARK SMILES IDX 5 23 1 24 2 25 3 26 87 27 4 28 86 29 21 30 22 31 23 32 24 33
REMARK SMILES IDX 25 34 26 35 27 36 79 37 28 38 78 39 29 40 30 41 31 42 72 43
REMARK SMILES IDX 32 44 77 45 71 46 73 47 33 48 76 49 70 50 69 51 34 53 60 54
REMARK SMILES IDX 43 55 59 56 44 57 47 58 58 59 74 60 45 61 46 62 57 64 75 65
REMARK SMILES IDX 48 66 35 67 36 68 41 69 37 70 38 71 40 72 42 73 39 74 61 75
REMARK SMILES IDX 62 76 67 77 63 78 64 79 66 80 68 81 65 82 49 83 50 84 55 85
REMARK SMILES IDX 51 86 52 87 54 88 56 89 53 90
REMARK H PARENT 16 8 73 52 47 63
REMARK Flexibility Score: inf
ROOT
ATOM      1  O   UNL A   1      32.769  30.848  26.892  1.00  0.00    -0.461 OA
ENDROOT
BRANCH   1   2
ATOM      2  C   UNL A   1      31.654  30.868  26.112  1.00  0.00     0.325 C 
ATOM      3  O   UNL A   1      30.924  31.842  25.964  1.00  0.00    -0.250 OA
BRANCH   2   4
ATOM      4  C   UNL A   1      31.568  29.641  25.229  1.00  0.00     0.239 C 
BRANCH   4   5
ATOM      5  N   UNL A   1      30.651  29.652  24.113  1.00  0.00    -0.338 N 
ATOM      6  C   UNL A   1      30.883  28.930  22.960  1.00  0.00     0.292 C 
ATOM      7  O   UNL A   1      30.092  28.886  22.031  1.00  0.00    -0.265 OA
ATOM      8  H   UNL A   1      29.831  30.193  24.178  1.00  0.00     0.164 HD
BRANCH   6   9
ATOM      9  C   UNL A   1      32.244  28.211  22.868  1.00  0.00     0.252 C 
ATOM     10  O   UNL A   1      33.203  28.854  22.449  1.00  0.00    -0.283 OA
BRANCH   9  11
ATOM     11  C   UNL A   1      32.300  26.780  23.149  1.00  0.00     0.054 A 
ATOM     12  N   UNL A   1      32.342  24.873  24.293  1.00  0.00    -0.240 N 
ATOM     13  C   UNL A   1      32.141  26.222  24.401  1.00  0.00     0.117 A 
ATOM     14  C   UNL A   1      32.570  24.504  22.984  1.00  0.00     0.065 A 
ATOM     15  C   UNL A   1      32.530  25.693  22.236  1.00  0.00     0.012 A 
ATOM     16  C   UNL A   1      32.860  23.261  22.390  1.00  0.00     0.028 A 
ATOM     17  C   UNL A   1      32.732  25.613  20.841  1.00  0.00     0.011 A 
ATOM     18  C   UNL A   1      33.089  23.223  21.014  1.00  0.00     0.002 A 
ATOM     19  C   UNL A   1      33.012  24.378  20.244  1.00  0.00     0.001 A 
BRANCH  12  20
ATOM     20  S   UNL A   1      32.571  23.878  25.656  1.00  0.00     0.268 S 
ATOM     21  O   UNL A   1      31.626  22.784  25.502  1.00  0.00    -0.201 OA
ATOM     22  O   UNL A   1      32.534  24.766  26.797  1.00  0.00    -0.201 OA
BRANCH  20  23
ATOM     23  C   UNL A   1      34.209  23.212  25.538  1.00  0.00     0.088 A 
ATOM     24  C   UNL A   1      38.284  21.852  25.643  1.00  0.00     0.044 C 
ATOM     25  C   UNL A   1      36.861  22.318  25.562  1.00  0.00    -0.051 A 
ATOM     26  C   UNL A   1      36.577  23.684  25.456  1.00  0.00     0.005 A 
ATOM     27  C   UNL A   1      35.805  21.400  25.603  1.00  0.00     0.005 A 
ATOM     28  C   UNL A   1      35.256  24.133  25.449  1.00  0.00     0.022 A 
ATOM     29  C   UNL A   1      34.481  21.842  25.579  1.00  0.00     0.022 A 
ENDBRANCH  20  23
ENDBRANCH  12  20
ENDBRANCH   9  11
ENDBRANCH   6   9
ENDBRANCH   4   5
ENDBRANCH   2   4
ENDBRANCH   1   2
BRANCH   1  30
ATOM     30  C   UNL A   1      33.733  29.889  26.451  1.00  0.00     0.274 C 
BRANCH  30  31
ATOM     31  C   UNL A   1      34.396  29.174  27.636  1.00  0.00     0.275 C 
BRANCH  31  32
ATOM     32  O   UNL A   1      35.351  29.913  28.475  1.00  0.00    -0.458 OA
BRANCH  32  33
ATOM     33  C   UNL A   1      36.595  30.428  28.290  1.00  0.00     0.338 C 
ATOM     34  O   UNL A   1      36.781  31.638  28.227  1.00  0.00    -0.246 OA
BRANCH  33  35
ATOM     35  C   UNL A   1      37.756  29.528  28.227  1.00  0.00     0.060 A 
ATOM     36  C   UNL A   1      38.703  29.610  27.184  1.00  0.00     0.016 A 
ATOM     37  C   UNL A   1      37.956  28.656  29.272  1.00  0.00     0.016 A 
ATOM     38  C   UNL A   1      39.908  28.906  27.281  1.00  0.00     0.010 A 
ATOM     39  C   UNL A   1      39.222  28.213  29.504  1.00  0.00     0.010 A 
ATOM     40  C   UNL A   1      40.171  28.247  28.476  1.00  0.00    -0.014 A 
BRANCH  40  41
ATOM     41  C   UNL A   1      41.252  27.309  28.734  1.00  0.00     0.031 A 
ATOM     42  C   UNL A   1      41.127  25.870  28.476  1.00  0.00     0.074 A 
ATOM     43  C   UNL A   1      42.421  27.964  28.932  1.00  0.00     0.049 A 
ATOM     44  N   UNL A   1      41.872  24.973  29.017  1.00  0.00    -0.248 NA
ATOM     45  C   UNL A   1      40.136  25.298  27.567  1.00  0.00     0.031 C 
ATOM     46  C   UNL A   1      43.804  27.548  28.843  1.00  0.00     0.029 A 
ATOM     47  N   UNL A   1      42.516  29.307  29.337  1.00  0.00    -0.354 N 
ATOM     48  C   UNL A   1      41.714  23.816  28.278  1.00  0.00     0.074 A 
ATOM     49  C   UNL A   1      40.526  24.020  27.489  1.00  0.00     0.031 C 
ATOM     50  C   UNL A   1      44.563  28.457  29.494  1.00  0.00     0.029 A 
ATOM     51  C   UNL A   1      43.662  29.425  30.114  1.00  0.00     0.049 A 
ATOM     52  H   UNL A   1      41.887  30.030  29.110  1.00  0.00     0.167 HD
ATOM     53  C   UNL A   1      42.731  22.905  28.250  1.00  0.00     0.037 A 
ATOM     54  C   UNL A   1      43.455  29.626  31.450  1.00  0.00     0.037 A 
ATOM     55  C   UNL A   1      43.856  23.416  29.031  1.00  0.00     0.049 A 
ATOM     56  C   UNL A   1      43.834  28.372  32.197  1.00  0.00     0.074 A 
ATOM     57  C   UNL A   1      44.972  24.142  28.646  1.00  0.00     0.029 A 
ATOM     58  N   UNL A   1      43.707  23.617  30.399  1.00  0.00    -0.354 N 
ATOM     59  N   UNL A   1      43.752  27.164  31.702  1.00  0.00    -0.248 NA
ATOM     60  C   UNL A   1      44.468  28.407  33.508  1.00  0.00     0.031 C 
ATOM     61  C   UNL A   1      45.430  24.867  29.778  1.00  0.00     0.029 A 
ATOM     62  C   UNL A   1      44.594  24.581  30.845  1.00  0.00     0.049 A 
ATOM     63  H   UNL A   1      43.061  23.142  30.969  1.00  0.00     0.167 HD
ATOM     64  C   UNL A   1      44.398  26.294  32.536  1.00  0.00     0.074 A 
ATOM     65  C   UNL A   1      44.803  27.116  33.665  1.00  0.00     0.031 C 
ATOM     66  C   UNL A   1      44.617  24.977  32.244  1.00  0.00     0.037 A 
BRANCH  53  67
ATOM     67  C   UNL A   1      42.832  21.758  27.272  1.00  0.00     0.057 A 
ATOM     68  C   UNL A   1      41.959  20.653  27.351  1.00  0.00     0.134 A 
ATOM     69  C   UNL A   1      43.760  21.694  26.217  1.00  0.00     0.134 A 
ATOM     70  F   UNL A   1      40.990  20.583  28.273  1.00  0.00    -0.206 F 
ATOM     71  C   UNL A   1      42.035  19.551  26.489  1.00  0.00     0.040 A 
ATOM     72  C   UNL A   1      43.866  20.581  25.365  1.00  0.00     0.040 A 
ATOM     73  F   UNL A   1      44.575  22.723  25.947  1.00  0.00    -0.206 F 
ATOM     74  C   UNL A   1      43.003  19.502  25.499  1.00  0.00     0.006 A 
ENDBRANCH  53  67
BRANCH  54  75
ATOM     75  C   UNL A   1      42.268  30.522  31.707  1.00  0.00     0.057 A 
ATOM     76  C   UNL A   1      42.355  31.867  31.271  1.00  0.00     0.134 A 
ATOM     77  C   UNL A   1      40.980  30.047  31.973  1.00  0.00     0.134 A 
ATOM     78  F   UNL A   1      43.554  32.406  30.993  1.00  0.00    -0.206 F 
ATOM     79  C   UNL A   1      41.225  32.640  30.973  1.00  0.00     0.040 A 
ATOM     80  C   UNL A   1      39.839  30.830  31.711  1.00  0.00     0.040 A 
ATOM     81  F   UNL A   1      40.787  28.790  32.395  1.00  0.00    -0.206 F 
ATOM     82  C   UNL A   1      39.958  32.109  31.166  1.00  0.00     0.006 A 
ENDBRANCH  54  75
BRANCH  66  83
ATOM     83  C   UNL A   1      44.998  23.946  33.268  1.00  0.00     0.057 A 
ATOM     84  C   UNL A   1      44.121  22.947  33.712  1.00  0.00     0.134 A 
ATOM     85  C   UNL A   1      46.332  23.825  33.717  1.00  0.00     0.134 A 
ATOM     86  F   UNL A   1      42.867  22.855  33.249  1.00  0.00    -0.206 F 
ATOM     87  C   UNL A   1      44.513  21.957  34.614  1.00  0.00     0.040 A 
ATOM     88  C   UNL A   1      46.752  22.794  34.557  1.00  0.00     0.040 A 
ATOM     89  F   UNL A   1      47.293  24.678  33.336  1.00  0.00    -0.206 F 
ATOM     90  C   UNL A   1      45.834  21.870  35.031  1.00  0.00     0.006 A 
ENDBRANCH  66  83
ENDBRANCH  40  41
ENDBRANCH  33  35
ENDBRANCH  32  33
ENDBRANCH  31  32
ENDBRANCH  30  31
ENDBRANCH   1  30
TORSDOF 16
ENDMDL
MODEL 3
REMARK VINA RESULT:     -12.2      2.689      8.313
REMARK SMILES Cc1ccc(S(=O)(=O)n2cc(C(=O)C(=O)NCC(=O)OCCOC(=O)c3ccc(-c4c5nc(c(-c6c(F)cccc6F)c6ccc([nH]6)c(-c6c(F)cccc6F)c6nc(c(-c7c(F)cccc7F)c7ccc4[nH]7)C=C6)C=C5)cc3)c3ccccc32)cc1
REMARK SMILES IDX 20 1 18 2 19 3 17 4 16 5 14 6 15 7 12 9 13 10 11 11 9 12
REMARK SMILES IDX 10 13 85 14 80 15 84 16 81 17 83 18 82 19 6 20 7 21 8 22
REMARK SMILES IDX 5 23 1 24 2 25 3 26 87 27 4 28 86 29 21 30 22 31 23 32 24 33
REMARK SMILES IDX 25 34 26 35 27 36 79 37 28 38 78 39 29 40 30 41 31 42 72 43
REMARK SMILES IDX 32 44 77 45 71 46 73 47 33 48 76 49 70 50 69 51 34 53 60 54
REMARK SMILES IDX 43 55 59 56 44 57 47 58 58 59 74 60 45 61 46 62 57 64 75 65
REMARK SMILES IDX 48 66 35 67 36 68 41 69 37 70 38 71 40 72 42 73 39 74 61 75
REMARK SMILES IDX 62 76 67 77 63 78 64 79 66 80 68 81 65 82 49 83 50 84 55 85
REMARK SMILES IDX 51 86 52 87 54 88 56 89 53 90
REMARK H PARENT 16 8 73 52 47 63
REMARK Flexibility Score: inf
ROOT
ATOM      1  O   UNL A   1      32.638  29.674  25.173  1.00  0.00    -0.461 OA
ENDROOT
BRANCH   1   2
ATOM      2  C   UNL A   1      31.736  29.283  24.231  1.00  0.00     0.325 C 
ATOM      3  O   UNL A   1      30.543  29.565  24.248  1.00  0.00    -0.250 OA
BRANCH   2   4
ATOM      4  C   UNL A   1      32.418  28.694  23.015  1.00  0.00     0.239 C 
BRANCH   4   5
ATOM      5  N   UNL A   1      31.621  27.970  22.053  1.00  0.00    -0.338 N 
ATOM      6  C   UNL A   1      31.858  26.646  21.745  1.00  0.00     0.292 C 
ATOM      7  O   UNL A   1      31.159  26.006  20.976  1.00  0.00    -0.265 OA
ATOM      8  H   UNL A   1      30.881  28.439  21.602  1.00  0.00     0.164 HD
BRANCH   6   9
ATOM      9  C   UNL A   1      33.108  26.010  22.386  1.00  0.00     0.252 C 
ATOM     10  O   UNL A   1      34.194  26.223  21.853  1.00  0.00    -0.283 OA
BRANCH   9  11
ATOM     11  C   UNL A   1      32.930  25.084  23.499  1.00  0.00     0.054 A 
ATOM     12  N   UNL A   1      33.230  23.319  24.820  1.00  0.00    -0.240 N 
ATOM     13  C   UNL A   1      33.750  24.003  23.755  1.00  0.00     0.117 A 
ATOM     14  C   UNL A   1      32.115  23.954  25.326  1.00  0.00     0.065 A 
ATOM     15  C   UNL A   1      31.916  25.086  24.518  1.00  0.00     0.012 A 
ATOM     16  C   UNL A   1      31.233  23.623  26.372  1.00  0.00     0.028 A 
ATOM     17  C   UNL A   1      30.827  25.936  24.813  1.00  0.00     0.011 A 
ATOM     18  C   UNL A   1      30.148  24.466  26.615  1.00  0.00     0.002 A 
ATOM     19  C   UNL A   1      29.953  25.616  25.858  1.00  0.00     0.001 A 
BRANCH  12  20
ATOM     20  S   UNL A   1      33.746  21.750  25.230  1.00  0.00     0.268 S 
ATOM     21  O   UNL A   1      33.371  20.910  24.104  1.00  0.00    -0.201 OA
ATOM     22  O   UNL A   1      33.240  21.510  26.564  1.00  0.00    -0.201 OA
BRANCH  20  23
ATOM     23  C   UNL A   1      35.515  21.795  25.319  1.00  0.00     0.088 A 
ATOM     24  C   UNL A   1      39.753  21.963  26.006  1.00  0.00     0.044 C 
ATOM     25  C   UNL A   1      38.281  21.917  25.723  1.00  0.00    -0.051 A 
ATOM     26  C   UNL A   1      37.465  22.994  26.089  1.00  0.00     0.005 A 
ATOM     27  C   UNL A   1      37.706  20.801  25.106  1.00  0.00     0.005 A 
ATOM     28  C   UNL A   1      36.086  22.934  25.893  1.00  0.00     0.022 A 
ATOM     29  C   UNL A   1      36.328  20.742  24.891  1.00  0.00     0.022 A 
ENDBRANCH  20  23
ENDBRANCH  12  20
ENDBRANCH   9  11
ENDBRANCH   6   9
ENDBRANCH   4   5
ENDBRANCH   2   4
ENDBRANCH   1   2
BRANCH   1  30
ATOM     30  C   UNL A   1      33.522  28.620  25.560  1.00  0.00     0.274 C 
BRANCH  30  31
ATOM     31  C   UNL A   1      34.042  28.820  26.990  1.00  0.00     0.275 C 
BRANCH  31  32
ATOM     32  O   UNL A   1      33.988  30.161  27.590  1.00  0.00    -0.458 OA
BRANCH  32  33
ATOM     33  C   UNL A   1      34.850  30.929  28.308  1.00  0.00     0.338 C 
ATOM     34  O   UNL A   1      34.537  32.049  28.694  1.00  0.00    -0.246 OA
BRANCH  33  35
ATOM     35  C   UNL A   1      36.164  30.388  28.690  1.00  0.00     0.060 A 
ATOM     36  C   UNL A   1      36.351  29.678  29.895  1.00  0.00     0.016 A 
ATOM     37  C   UNL A   1      37.198  30.509  27.792  1.00  0.00     0.016 A 
ATOM     38  C   UNL A   1      37.545  28.981  30.113  1.00  0.00     0.010 A 
ATOM     39  C   UNL A   1      38.219  29.611  27.868  1.00  0.00     0.010 A 
ATOM     40  C   UNL A   1      38.453  28.920  29.062  1.00  0.00    -0.014 A 
BRANCH  40  41
ATOM     41  C   UNL A   1      39.818  28.424  29.118  1.00  0.00     0.031 A 
ATOM     42  C   UNL A   1      40.183  27.066  28.697  1.00  0.00     0.074 A 
ATOM     43  C   UNL A   1      40.693  29.441  29.304  1.00  0.00     0.049 A 
ATOM     44  N   UNL A   1      41.256  26.461  29.063  1.00  0.00    -0.248 NA
ATOM     45  C   UNL A   1      39.361  26.253  27.804  1.00  0.00     0.031 C 
ATOM     46  C   UNL A   1      42.113  29.569  29.057  1.00  0.00     0.029 A 
ATOM     47  N   UNL A   1      40.352  30.685  29.862  1.00  0.00    -0.354 N 
ATOM     48  C   UNL A   1      41.434  25.394  28.202  1.00  0.00     0.074 A 
ATOM     49  C   UNL A   1      40.167  25.217  27.540  1.00  0.00     0.031 C 
ATOM     50  C   UNL A   1      42.571  30.633  29.754  1.00  0.00     0.029 A 
ATOM     51  C   UNL A   1      41.464  31.147  30.557  1.00  0.00     0.049 A 
ATOM     52  H   UNL A   1      39.485  31.145  29.775  1.00  0.00     0.167 HD
ATOM     53  C   UNL A   1      42.697  24.925  27.984  1.00  0.00     0.037 A 
ATOM     54  C   UNL A   1      41.357  31.143  31.919  1.00  0.00     0.037 A 
ATOM     55  C   UNL A   1      43.651  25.743  28.731  1.00  0.00     0.049 A 
ATOM     56  C   UNL A   1      42.241  30.054  32.474  1.00  0.00     0.074 A 
ATOM     57  C   UNL A   1      44.383  26.857  28.353  1.00  0.00     0.029 A 
ATOM     58  N   UNL A   1      43.601  25.757  30.121  1.00  0.00    -0.354 N 
ATOM     59  N   UNL A   1      42.535  28.947  31.842  1.00  0.00    -0.248 NA
ATOM     60  C   UNL A   1      42.970  30.206  33.726  1.00  0.00     0.031 C 
ATOM     61  C   UNL A   1      44.683  27.598  29.527  1.00  0.00     0.029 A 
ATOM     62  C   UNL A   1      44.134  26.936  30.612  1.00  0.00     0.049 A 
ATOM     63  H   UNL A   1      43.238  25.031  30.677  1.00  0.00     0.167 HD
ATOM     64  C   UNL A   1      43.541  28.305  32.511  1.00  0.00     0.074 A 
ATOM     65  C   UNL A   1      43.757  29.118  33.697  1.00  0.00     0.031 C 
ATOM     66  C   UNL A   1      44.178  27.190  32.043  1.00  0.00     0.037 A 
BRANCH  53  67
ATOM     67  C   UNL A   1      43.084  23.983  26.868  1.00  0.00     0.057 A 
ATOM     68  C   UNL A   1      43.205  22.596  27.093  1.00  0.00     0.134 A 
ATOM     69  C   UNL A   1      43.332  24.383  25.543  1.00  0.00     0.134 A 
ATOM     70  F   UNL A   1      42.959  22.051  28.291  1.00  0.00    -0.206 F 
ATOM     71  C   UNL A   1      43.593  21.688  26.099  1.00  0.00     0.040 A 
ATOM     72  C   UNL A   1      43.752  23.487  24.543  1.00  0.00     0.040 A 
ATOM     73  F   UNL A   1      43.142  25.651  25.153  1.00  0.00    -0.206 F 
ATOM     74  C   UNL A   1      43.886  22.133  24.820  1.00  0.00     0.006 A 
ENDBRANCH  53  67
BRANCH  54  75
ATOM     75  C   UNL A   1      39.968  31.517  32.375  1.00  0.00     0.057 A 
ATOM     76  C   UNL A   1      39.181  30.505  32.978  1.00  0.00     0.134 A 
ATOM     77  C   UNL A   1      39.553  32.833  32.606  1.00  0.00     0.134 A 
ATOM     78  F   UNL A   1      39.506  29.212  32.809  1.00  0.00    -0.206 F 
ATOM     79  C   UNL A   1      38.143  30.788  33.876  1.00  0.00     0.040 A 
ATOM     80  C   UNL A   1      38.488  33.126  33.478  1.00  0.00     0.040 A 
ATOM     81  F   UNL A   1      40.225  33.864  32.077  1.00  0.00    -0.206 F 
ATOM     82  C   UNL A   1      37.812  32.107  34.151  1.00  0.00     0.006 A 
ENDBRANCH  54  75
BRANCH  66  83
ATOM     83  C   UNL A   1      45.017  26.286  32.901  1.00  0.00     0.057 A 
ATOM     84  C   UNL A   1      44.474  25.410  33.849  1.00  0.00     0.134 A 
ATOM     85  C   UNL A   1      46.405  26.148  32.672  1.00  0.00     0.134 A 
ATOM     86  F   UNL A   1      43.152  25.330  34.059  1.00  0.00    -0.206 F 
ATOM     87  C   UNL A   1      45.264  24.528  34.589  1.00  0.00     0.040 A 
ATOM     88  C   UNL A   1      47.190  25.216  33.351  1.00  0.00     0.040 A 
ATOM     89  F   UNL A   1      47.054  26.884  31.759  1.00  0.00    -0.206 F 
ATOM     90  C   UNL A   1      46.624  24.421  34.334  1.00  0.00     0.006 A 
ENDBRANCH  66  83
ENDBRANCH  40  41
ENDBRANCH  33  35
ENDBRANCH  32  33
ENDBRANCH  31  32
ENDBRANCH  30  31
ENDBRANCH   1  30
TORSDOF 16
ENDMDL
