MODEL 1
REMARK VINA RESULT:     -12.5      0.000      0.000
REMARK SMILES COc1ccccc1[C@@H]1C[N@@H+](Cc2cc3c(cc2C)OCO3)C[C@H]1C(=O)OCCOC(=O)c1ccc(-c2c3nc(c(-c4c(F)cccc4F)c4ccc([nH]4)c(-c4c(F)cccc4F)c4nc(c(-c5c(F)cccc5F)c5ccc2[nH]5)C=C4)C=C3)cc1
REMARK SMILES IDX 28 1 27 2 25 3 26 4 24 5 9 6 10 7 11 8 23 9 8 11 3 12 4 13
REMARK SMILES IDX 5 14 7 15 6 16 2 17 1 18 12 19 13 20 14 21 18 22 15 23 17 24
REMARK SMILES IDX 19 25 16 26 22 27 20 28 21 29 29 30 30 31 31 32 32 33 33 34
REMARK SMILES IDX 34 35 86 36 35 37 85 38 36 39 37 40 38 41 79 42 39 43 84 44
REMARK SMILES IDX 78 45 80 46 40 47 83 48 77 49 76 50 41 52 67 53 50 54 66 55
REMARK SMILES IDX 51 56 54 57 65 58 81 59 52 60 53 61 64 63 82 64 55 65 42 66
REMARK SMILES IDX 43 67 48 68 44 69 45 70 47 71 49 72 46 73 68 74 69 75 74 76
REMARK SMILES IDX 70 77 71 78 73 79 75 80 72 81 56 82 57 83 62 84 58 85 59 86
REMARK SMILES IDX 61 87 63 88 60 89
REMARK H PARENT 11 10 80 51 54 62
REMARK Flexibility Score: inf
ROOT
ATOM      1  C   UNL A   1      31.760  28.479  27.286  1.00  0.00     0.274 C 
ENDROOT
BRANCH   1   2
ATOM      2  O   UNL A   1      31.148  27.647  26.269  1.00  0.00    -0.462 OA
BRANCH   2   3
ATOM      3  C   UNL A   1      31.775  26.470  26.036  1.00  0.00     0.315 C 
ATOM      4  O   UNL A   1      31.458  25.413  26.578  1.00  0.00    -0.252 OA
BRANCH   3   5
ATOM      5  C   UNL A   1      32.851  26.501  24.964  1.00  0.00     0.167 C 
ATOM      6  C   UNL A   1      33.097  25.303  24.038  1.00  0.00     0.098 C 
ATOM      7  C   UNL A   1      33.326  25.926  22.658  1.00  0.00     0.272 C 
ATOM      8  N   UNL A   1      32.544  27.163  22.644  1.00  0.00    -0.330 N 
ATOM      9  C   UNL A   1      32.566  27.674  24.015  1.00  0.00     0.278 C 
ATOM     10  H   UNL A   1      32.973  27.843  22.016  1.00  0.00     0.348 HD
BRANCH   6  11
ATOM     11  C   UNL A   1      34.171  24.273  24.374  1.00  0.00     0.004 A 
ATOM     12  C   UNL A   1      34.265  22.927  23.968  1.00  0.00     0.122 A 
ATOM     13  C   UNL A   1      35.358  22.136  24.385  1.00  0.00     0.047 A 
ATOM     14  C   UNL A   1      36.314  22.623  25.274  1.00  0.00     0.004 A 
ATOM     15  C   UNL A   1      35.130  24.713  25.320  1.00  0.00     0.008 A 
ATOM     16  C   UNL A   1      36.175  23.906  25.774  1.00  0.00     0.001 A 
BRANCH  12  17
ATOM     17  O   UNL A   1      33.247  22.167  23.456  1.00  0.00    -0.496 OA
ATOM     18  C   UNL A   1      32.561  21.277  24.314  1.00  0.00     0.278 C 
ENDBRANCH  12  17
ENDBRANCH   6  11
BRANCH   8  19
ATOM     19  C   UNL A   1      31.220  27.075  22.010  1.00  0.00     0.299 C 
BRANCH  19  20
ATOM     20  C   UNL A   1      30.146  28.056  22.456  1.00  0.00     0.013 A 
ATOM     21  C   UNL A   1      30.279  29.402  22.041  1.00  0.00     0.060 A 
ATOM     22  C   UNL A   1      29.024  27.691  23.253  1.00  0.00    -0.038 A 
ATOM     23  C   UNL A   1      29.275  30.298  22.339  1.00  0.00     0.166 A 
ATOM     24  C   UNL A   1      28.003  28.632  23.493  1.00  0.00     0.054 A 
ATOM     25  C   UNL A   1      28.834  26.335  23.880  1.00  0.00     0.045 C 
ATOM     26  C   UNL A   1      28.151  29.913  23.018  1.00  0.00     0.166 A 
ATOM     27  O   UNL A   1      29.256  31.619  22.016  1.00  0.00    -0.454 OA
ATOM     28  O   UNL A   1      27.261  30.928  23.177  1.00  0.00    -0.454 OA
ATOM     29  C   UNL A   1      28.035  32.032  22.666  1.00  0.00     0.468 C 
ENDBRANCH  19  20
ENDBRANCH   8  19
ENDBRANCH   3   5
ENDBRANCH   2   3
ENDBRANCH   1   2
BRANCH   1  30
ATOM     30  C   UNL A   1      31.730  29.943  26.855  1.00  0.00     0.275 C 
BRANCH  30  31
ATOM     31  O   UNL A   1      33.080  30.319  26.537  1.00  0.00    -0.458 OA
BRANCH  31  32
ATOM     32  C   UNL A   1      33.493  31.454  27.137  1.00  0.00     0.338 C 
ATOM     33  O   UNL A   1      32.875  32.503  27.255  1.00  0.00    -0.246 OA
BRANCH  32  34
ATOM     34  C   UNL A   1      34.779  31.168  27.773  1.00  0.00     0.060 A 
ATOM     35  C   UNL A   1      35.067  29.856  28.150  1.00  0.00     0.016 A 
ATOM     36  C   UNL A   1      35.690  32.191  28.006  1.00  0.00     0.016 A 
ATOM     37  C   UNL A   1      36.254  29.562  28.810  1.00  0.00     0.010 A 
ATOM     38  C   UNL A   1      36.901  31.888  28.628  1.00  0.00     0.010 A 
ATOM     39  C   UNL A   1      37.183  30.575  29.056  1.00  0.00    -0.014 A 
BRANCH  39  40
ATOM     40  C   UNL A   1      38.420  30.290  29.819  1.00  0.00     0.031 A 
ATOM     41  C   UNL A   1      39.460  29.394  29.209  1.00  0.00     0.074 A 
ATOM     42  C   UNL A   1      38.601  30.809  31.049  1.00  0.00     0.049 A 
ATOM     43  N   UNL A   1      40.487  28.815  29.772  1.00  0.00    -0.248 NA
ATOM     44  C   UNL A   1      39.308  29.093  27.775  1.00  0.00     0.031 C 
ATOM     45  C   UNL A   1      37.699  31.749  31.718  1.00  0.00     0.029 A 
ATOM     46  N   UNL A   1      39.603  30.603  31.965  1.00  0.00    -0.354 N 
ATOM     47  C   UNL A   1      41.065  28.030  28.781  1.00  0.00     0.074 A 
ATOM     48  C   UNL A   1      40.278  28.211  27.581  1.00  0.00     0.031 C 
ATOM     49  C   UNL A   1      38.187  32.037  32.935  1.00  0.00     0.029 A 
ATOM     50  C   UNL A   1      39.386  31.240  33.163  1.00  0.00     0.049 A 
ATOM     51  H   UNL A   1      40.397  30.051  31.781  1.00  0.00     0.167 HD
ATOM     52  C   UNL A   1      42.148  27.225  28.878  1.00  0.00     0.037 A 
ATOM     53  C   UNL A   1      40.050  31.147  34.331  1.00  0.00     0.037 A 
ATOM     54  C   UNL A   1      42.950  27.103  30.067  1.00  0.00     0.049 A 
ATOM     55  C   UNL A   1      41.224  30.209  34.422  1.00  0.00     0.074 A 
ATOM     56  C   UNL A   1      44.093  26.348  30.262  1.00  0.00     0.029 A 
ATOM     57  N   UNL A   1      42.693  27.760  31.262  1.00  0.00    -0.354 N 
ATOM     58  N   UNL A   1      41.753  29.452  33.490  1.00  0.00    -0.248 NA
ATOM     59  C   UNL A   1      41.884  30.100  35.730  1.00  0.00     0.031 C 
ATOM     60  C   UNL A   1      44.499  26.509  31.589  1.00  0.00     0.029 A 
ATOM     61  C   UNL A   1      43.642  27.407  32.206  1.00  0.00     0.049 A 
ATOM     62  H   UNL A   1      41.948  28.383  31.415  1.00  0.00     0.167 HD
ATOM     63  C   UNL A   1      42.825  28.803  34.090  1.00  0.00     0.074 A 
ATOM     64  C   UNL A   1      42.878  29.267  35.461  1.00  0.00     0.031 C 
ATOM     65  C   UNL A   1      43.685  27.901  33.559  1.00  0.00     0.037 A 
BRANCH  52  66
ATOM     66  C   UNL A   1      42.507  26.382  27.689  1.00  0.00     0.057 A 
ATOM     67  C   UNL A   1      41.994  25.095  27.498  1.00  0.00     0.134 A 
ATOM     68  C   UNL A   1      43.345  26.898  26.692  1.00  0.00     0.134 A 
ATOM     69  F   UNL A   1      41.199  24.533  28.422  1.00  0.00    -0.206 F 
ATOM     70  C   UNL A   1      42.314  24.344  26.363  1.00  0.00     0.040 A 
ATOM     71  C   UNL A   1      43.650  26.170  25.541  1.00  0.00     0.040 A 
ATOM     72  F   UNL A   1      43.869  28.128  26.811  1.00  0.00    -0.206 F 
ATOM     73  C   UNL A   1      43.137  24.886  25.377  1.00  0.00     0.006 A 
ENDBRANCH  52  66
BRANCH  53  74
ATOM     74  C   UNL A   1      39.600  31.914  35.522  1.00  0.00     0.057 A 
ATOM     75  C   UNL A   1      38.587  31.427  36.357  1.00  0.00     0.134 A 
ATOM     76  C   UNL A   1      40.139  33.169  35.835  1.00  0.00     0.134 A 
ATOM     77  F   UNL A   1      38.014  30.242  36.099  1.00  0.00    -0.206 F 
ATOM     78  C   UNL A   1      38.108  32.168  37.438  1.00  0.00     0.040 A 
ATOM     79  C   UNL A   1      39.692  33.907  36.932  1.00  0.00     0.040 A 
ATOM     80  F   UNL A   1      41.113  33.696  35.078  1.00  0.00    -0.206 F 
ATOM     81  C   UNL A   1      38.665  33.411  37.732  1.00  0.00     0.006 A 
ENDBRANCH  53  74
BRANCH  65  82
ATOM     82  C   UNL A   1      44.790  27.407  34.445  1.00  0.00     0.057 A 
ATOM     83  C   UNL A   1      46.019  28.072  34.539  1.00  0.00     0.134 A 
ATOM     84  C   UNL A   1      44.607  26.268  35.238  1.00  0.00     0.134 A 
ATOM     85  F   UNL A   1      46.264  29.160  33.793  1.00  0.00    -0.206 F 
ATOM     86  C   UNL A   1      47.036  27.606  35.373  1.00  0.00     0.040 A 
ATOM     87  C   UNL A   1      45.603  25.811  36.099  1.00  0.00     0.040 A 
ATOM     88  F   UNL A   1      43.449  25.592  35.202  1.00  0.00    -0.206 F 
ATOM     89  C   UNL A   1      46.826  26.476  36.163  1.00  0.00     0.006 A 
ENDBRANCH  65  82
ENDBRANCH  39  40
ENDBRANCH  32  34
ENDBRANCH  31  32
ENDBRANCH  30  31
ENDBRANCH   1  30
TORSDOF 15
ENDMDL
MODEL 2
REMARK VINA RESULT:     -12.3      3.059      6.486
REMARK SMILES COc1ccccc1[C@@H]1C[N@@H+](Cc2cc3c(cc2C)OCO3)C[C@H]1C(=O)OCCOC(=O)c1ccc(-c2c3nc(c(-c4c(F)cccc4F)c4ccc([nH]4)c(-c4c(F)cccc4F)c4nc(c(-c5c(F)cccc5F)c5ccc2[nH]5)C=C4)C=C3)cc1
REMARK SMILES IDX 28 1 27 2 25 3 26 4 24 5 9 6 10 7 11 8 23 9 8 11 3 12 4 13
REMARK SMILES IDX 5 14 7 15 6 16 2 17 1 18 12 19 13 20 14 21 18 22 15 23 17 24
REMARK SMILES IDX 19 25 16 26 22 27 20 28 21 29 29 30 30 31 31 32 32 33 33 34
REMARK SMILES IDX 34 35 86 36 35 37 85 38 36 39 37 40 38 41 79 42 39 43 84 44
REMARK SMILES IDX 78 45 80 46 40 47 83 48 77 49 76 50 41 52 67 53 50 54 66 55
REMARK SMILES IDX 51 56 54 57 65 58 81 59 52 60 53 61 64 63 82 64 55 65 42 66
REMARK SMILES IDX 43 67 48 68 44 69 45 70 47 71 49 72 46 73 68 74 69 75 74 76
REMARK SMILES IDX 70 77 71 78 73 79 75 80 72 81 56 82 57 83 62 84 58 85 59 86
REMARK SMILES IDX 61 87 63 88 60 89
REMARK H PARENT 11 10 80 51 54 62
REMARK Flexibility Score: inf
ROOT
ATOM      1  C   UNL A   1      31.937  28.727  27.412  1.00  0.00     0.274 C 
ENDROOT
BRANCH   1   2
ATOM      2  O   UNL A   1      31.399  28.071  26.236  1.00  0.00    -0.462 OA
BRANCH   2   3
ATOM      3  C   UNL A   1      31.962  26.878  25.936  1.00  0.00     0.315 C 
ATOM      4  O   UNL A   1      31.655  25.824  26.489  1.00  0.00    -0.252 OA
BRANCH   3   5
ATOM      5  C   UNL A   1      32.944  26.890  24.776  1.00  0.00     0.167 C 
ATOM      6  C   UNL A   1      33.135  25.665  23.874  1.00  0.00     0.098 C 
ATOM      7  C   UNL A   1      33.235  26.244  22.459  1.00  0.00     0.272 C 
ATOM      8  N   UNL A   1      32.431  27.466  22.470  1.00  0.00    -0.330 N 
ATOM      9  C   UNL A   1      32.558  28.025  23.817  1.00  0.00     0.278 C 
ATOM     10  H   UNL A   1      32.792  28.131  21.786  1.00  0.00     0.348 HD
BRANCH   6  11
ATOM     11  C   UNL A   1      34.253  24.665  24.151  1.00  0.00     0.004 A 
ATOM     12  C   UNL A   1      34.630  23.528  23.409  1.00  0.00     0.122 A 
ATOM     13  C   UNL A   1      35.714  22.731  23.836  1.00  0.00     0.047 A 
ATOM     14  C   UNL A   1      36.376  22.981  25.036  1.00  0.00     0.004 A 
ATOM     15  C   UNL A   1      34.913  24.854  25.391  1.00  0.00     0.008 A 
ATOM     16  C   UNL A   1      35.946  24.025  25.836  1.00  0.00     0.001 A 
BRANCH  12  17
ATOM     17  O   UNL A   1      33.867  22.895  22.463  1.00  0.00    -0.496 OA
ATOM     18  C   UNL A   1      32.774  22.105  22.884  1.00  0.00     0.278 C 
ENDBRANCH  12  17
ENDBRANCH   6  11
BRANCH   8  19
ATOM     19  C   UNL A   1      31.061  27.334  21.953  1.00  0.00     0.299 C 
BRANCH  19  20
ATOM     20  C   UNL A   1      30.010  28.317  22.448  1.00  0.00     0.013 A 
ATOM     21  C   UNL A   1      30.153  29.672  22.067  1.00  0.00     0.060 A 
ATOM     22  C   UNL A   1      28.901  27.946  23.260  1.00  0.00    -0.038 A 
ATOM     23  C   UNL A   1      29.169  30.573  22.411  1.00  0.00     0.166 A 
ATOM     24  C   UNL A   1      27.899  28.893  23.548  1.00  0.00     0.054 A 
ATOM     25  C   UNL A   1      28.706  26.576  23.856  1.00  0.00     0.045 C 
ATOM     26  C   UNL A   1      28.054  30.184  23.104  1.00  0.00     0.166 A 
ATOM     27  O   UNL A   1      29.161  31.902  22.124  1.00  0.00    -0.454 OA
ATOM     28  O   UNL A   1      27.182  31.207  23.310  1.00  0.00    -0.454 OA
ATOM     29  C   UNL A   1      27.961  32.314  22.812  1.00  0.00     0.468 C 
ENDBRANCH  19  20
ENDBRANCH   8  19
ENDBRANCH   3   5
ENDBRANCH   2   3
ENDBRANCH   1   2
BRANCH   1  30
ATOM     30  C   UNL A   1      32.573  30.059  27.026  1.00  0.00     0.275 C 
BRANCH  30  31
ATOM     31  O   UNL A   1      33.998  29.888  27.107  1.00  0.00    -0.458 OA
BRANCH  31  32
ATOM     32  C   UNL A   1      34.602  30.703  27.995  1.00  0.00     0.338 C 
ATOM     33  O   UNL A   1      34.108  31.643  28.601  1.00  0.00    -0.246 OA
BRANCH  32  34
ATOM     34  C   UNL A   1      35.944  30.169  28.234  1.00  0.00     0.060 A 
ATOM     35  C   UNL A   1      36.255  29.671  29.500  1.00  0.00     0.016 A 
ATOM     36  C   UNL A   1      36.891  30.170  27.218  1.00  0.00     0.016 A 
ATOM     37  C   UNL A   1      37.538  29.213  29.776  1.00  0.00     0.010 A 
ATOM     38  C   UNL A   1      38.166  29.668  27.483  1.00  0.00     0.010 A 
ATOM     39  C   UNL A   1      38.505  29.207  28.770  1.00  0.00    -0.014 A 
BRANCH  39  40
ATOM     40  C   UNL A   1      39.895  28.787  29.068  1.00  0.00     0.031 A 
ATOM     41  C   UNL A   1      40.830  29.773  29.708  1.00  0.00     0.074 A 
ATOM     42  C   UNL A   1      40.318  27.549  28.751  1.00  0.00     0.049 A 
ATOM     43  N   UNL A   1      42.129  29.718  29.837  1.00  0.00    -0.248 NA
ATOM     44  C   UNL A   1      40.219  30.995  30.260  1.00  0.00     0.031 C 
ATOM     45  C   UNL A   1      39.486  26.480  28.194  1.00  0.00     0.029 A 
ATOM     46  N   UNL A   1      41.567  26.984  28.838  1.00  0.00    -0.354 N 
ATOM     47  C   UNL A   1      42.498  30.924  30.421  1.00  0.00     0.074 A 
ATOM     48  C   UNL A   1      41.287  31.687  30.628  1.00  0.00     0.031 C 
ATOM     49  C   UNL A   1      40.246  25.392  27.989  1.00  0.00     0.029 A 
ATOM     50  C   UNL A   1      41.629  25.713  28.320  1.00  0.00     0.049 A 
ATOM     51  H   UNL A   1      42.341  27.446  29.233  1.00  0.00     0.167 HD
ATOM     52  C   UNL A   1      43.742  31.350  30.741  1.00  0.00     0.037 A 
ATOM     53  C   UNL A   1      42.692  24.919  28.087  1.00  0.00     0.037 A 
ATOM     54  C   UNL A   1      44.928  30.552  30.578  1.00  0.00     0.049 A 
ATOM     55  C   UNL A   1      44.066  25.438  28.412  1.00  0.00     0.074 A 
ATOM     56  C   UNL A   1      46.234  30.870  30.909  1.00  0.00     0.029 A 
ATOM     57  N   UNL A   1      44.950  29.272  30.043  1.00  0.00    -0.354 N 
ATOM     58  N   UNL A   1      44.414  26.587  28.943  1.00  0.00    -0.248 NA
ATOM     59  C   UNL A   1      45.198  24.558  28.090  1.00  0.00     0.031 C 
ATOM     60  C   UNL A   1      47.051  29.803  30.527  1.00  0.00     0.029 A 
ATOM     61  C   UNL A   1      46.249  28.797  30.011  1.00  0.00     0.049 A 
ATOM     62  H   UNL A   1      44.159  28.776  29.733  1.00  0.00     0.167 HD
ATOM     63  C   UNL A   1      45.798  26.553  29.048  1.00  0.00     0.074 A 
ATOM     64  C   UNL A   1      46.224  25.265  28.540  1.00  0.00     0.031 C 
ATOM     65  C   UNL A   1      46.644  27.502  29.519  1.00  0.00     0.037 A 
BRANCH  52  66
ATOM     66  C   UNL A   1      43.894  32.752  31.258  1.00  0.00     0.057 A 
ATOM     67  C   UNL A   1      44.046  33.854  30.409  1.00  0.00     0.134 A 
ATOM     68  C   UNL A   1      43.835  33.001  32.636  1.00  0.00     0.134 A 
ATOM     69  F   UNL A   1      44.128  33.685  29.081  1.00  0.00    -0.206 F 
ATOM     70  C   UNL A   1      44.148  35.154  30.913  1.00  0.00     0.040 A 
ATOM     71  C   UNL A   1      43.908  34.296  33.149  1.00  0.00     0.040 A 
ATOM     72  F   UNL A   1      43.688  31.989  33.505  1.00  0.00    -0.206 F 
ATOM     73  C   UNL A   1      44.069  35.377  32.287  1.00  0.00     0.006 A 
ENDBRANCH  52  66
BRANCH  53  74
ATOM     74  C   UNL A   1      42.514  23.578  27.471  1.00  0.00     0.057 A 
ATOM     75  C   UNL A   1      42.303  22.441  28.260  1.00  0.00     0.134 A 
ATOM     76  C   UNL A   1      42.591  23.390  26.084  1.00  0.00     0.134 A 
ATOM     77  F   UNL A   1      42.243  22.549  29.595  1.00  0.00    -0.206 F 
ATOM     78  C   UNL A   1      42.204  21.167  27.699  1.00  0.00     0.040 A 
ATOM     79  C   UNL A   1      42.460  22.126  25.507  1.00  0.00     0.040 A 
ATOM     80  F   UNL A   1      42.791  24.436  25.269  1.00  0.00    -0.206 F 
ATOM     81  C   UNL A   1      42.277  21.007  26.317  1.00  0.00     0.006 A 
ENDBRANCH  53  74
BRANCH  65  82
ATOM     82  C   UNL A   1      48.103  27.156  29.561  1.00  0.00     0.057 A 
ATOM     83  C   UNL A   1      48.981  27.515  28.531  1.00  0.00     0.134 A 
ATOM     84  C   UNL A   1      48.640  26.483  30.665  1.00  0.00     0.134 A 
ATOM     85  F   UNL A   1      48.526  28.147  27.438  1.00  0.00    -0.206 F 
ATOM     86  C   UNL A   1      50.338  27.194  28.586  1.00  0.00     0.040 A 
ATOM     87  C   UNL A   1      49.999  26.184  30.746  1.00  0.00     0.040 A 
ATOM     88  F   UNL A   1      47.854  26.120  31.690  1.00  0.00    -0.206 F 
ATOM     89  C   UNL A   1      50.852  26.532  29.701  1.00  0.00     0.006 A 
ENDBRANCH  65  82
ENDBRANCH  39  40
ENDBRANCH  32  34
ENDBRANCH  31  32
ENDBRANCH  30  31
ENDBRANCH   1  30
TORSDOF 15
ENDMDL
MODEL 3
REMARK VINA RESULT:     -12.2      4.286      9.208
REMARK SMILES COc1ccccc1[C@@H]1C[N@@H+](Cc2cc3c(cc2C)OCO3)C[C@H]1C(=O)OCCOC(=O)c1ccc(-c2c3nc(c(-c4c(F)cccc4F)c4ccc([nH]4)c(-c4c(F)cccc4F)c4nc(c(-c5c(F)cccc5F)c5ccc2[nH]5)C=C4)C=C3)cc1
REMARK SMILES IDX 28 1 27 2 25 3 26 4 24 5 9 6 10 7 11 8 23 9 8 11 3 12 4 13
REMARK SMILES IDX 5 14 7 15 6 16 2 17 1 18 12 19 13 20 14 21 18 22 15 23 17 24
REMARK SMILES IDX 19 25 16 26 22 27 20 28 21 29 29 30 30 31 31 32 32 33 33 34
REMARK SMILES IDX 34 35 86 36 35 37 85 38 36 39 37 40 38 41 79 42 39 43 84 44
REMARK SMILES IDX 78 45 80 46 40 47 83 48 77 49 76 50 41 52 67 53 50 54 66 55
REMARK SMILES IDX 51 56 54 57 65 58 81 59 52 60 53 61 64 63 82 64 55 65 42 66
REMARK SMILES IDX 43 67 48 68 44 69 45 70 47 71 49 72 46 73 68 74 69 75 74 76
REMARK SMILES IDX 70 77 71 78 73 79 75 80 72 81 56 82 57 83 62 84 58 85 59 86
REMARK SMILES IDX 61 87 63 88 60 89
REMARK H PARENT 11 10 80 51 54 62
REMARK Flexibility Score: inf
ROOT
ATOM      1  C   UNL A   1      37.014  21.793  23.883  1.00  0.00     0.274 C 
ENDROOT
BRANCH   1   2
ATOM      2  O   UNL A   1      35.629  21.992  24.259  1.00  0.00    -0.462 OA
BRANCH   2   3
ATOM      3  C   UNL A   1      35.056  23.116  23.768  1.00  0.00     0.315 C 
ATOM      4  O   UNL A   1      34.901  23.331  22.568  1.00  0.00    -0.252 OA
BRANCH   3   5
ATOM      5  C   UNL A   1      34.505  24.079  24.807  1.00  0.00     0.167 C 
ATOM      6  C   UNL A   1      33.257  24.926  24.534  1.00  0.00     0.098 C 
ATOM      7  C   UNL A   1      32.463  24.872  25.843  1.00  0.00     0.272 C 
ATOM      8  N   UNL A   1      32.783  23.580  26.451  1.00  0.00    -0.330 N 
ATOM      9  C   UNL A   1      34.168  23.287  26.079  1.00  0.00     0.278 C 
ATOM     10  H   UNL A   1      32.703  23.640  27.465  1.00  0.00     0.348 HD
BRANCH   6  11
ATOM     11  C   UNL A   1      33.389  26.355  24.017  1.00  0.00     0.004 A 
ATOM     12  C   UNL A   1      33.414  26.817  22.686  1.00  0.00     0.122 A 
ATOM     13  C   UNL A   1      33.534  28.198  22.417  1.00  0.00     0.047 A 
ATOM     14  C   UNL A   1      33.726  29.126  23.438  1.00  0.00     0.004 A 
ATOM     15  C   UNL A   1      33.642  27.321  25.023  1.00  0.00     0.008 A 
ATOM     16  C   UNL A   1      33.821  28.678  24.744  1.00  0.00     0.001 A 
BRANCH  12  17
ATOM     17  O   UNL A   1      33.652  26.055  21.573  1.00  0.00    -0.496 OA
ATOM     18  C   UNL A   1      32.553  25.582  20.821  1.00  0.00     0.278 C 
ENDBRANCH  12  17
ENDBRANCH   6  11
BRANCH   8  19
ATOM     19  C   UNL A   1      31.810  22.503  26.212  1.00  0.00     0.299 C 
BRANCH  19  20
ATOM     20  C   UNL A   1      32.173  21.419  25.209  1.00  0.00     0.013 A 
ATOM     21  C   UNL A   1      32.793  20.249  25.710  1.00  0.00     0.060 A 
ATOM     22  C   UNL A   1      31.919  21.516  23.812  1.00  0.00    -0.038 A 
ATOM     23  C   UNL A   1      33.045  19.202  24.850  1.00  0.00     0.166 A 
ATOM     24  C   UNL A   1      32.154  20.402  22.981  1.00  0.00     0.054 A 
ATOM     25  C   UNL A   1      31.402  22.754  23.128  1.00  0.00     0.045 C 
ATOM     26  C   UNL A   1      32.702  19.267  23.526  1.00  0.00     0.166 A 
ATOM     27  O   UNL A   1      33.634  18.020  25.174  1.00  0.00    -0.454 OA
ATOM     28  O   UNL A   1      32.994  18.122  22.853  1.00  0.00    -0.454 OA
ATOM     29  C   UNL A   1      33.712  17.399  23.874  1.00  0.00     0.468 C 
ENDBRANCH  19  20
ENDBRANCH   8  19
ENDBRANCH   3   5
ENDBRANCH   2   3
ENDBRANCH   1   2
BRANCH   1  30
ATOM     30  C   UNL A   1      37.645  20.712  24.754  1.00  0.00     0.275 C 
BRANCH  30  31
ATOM     31  O   UNL A   1      38.086  21.346  25.966  1.00  0.00    -0.458 OA
BRANCH  31  32
ATOM     32  C   UNL A   1      39.369  21.087  26.290  1.00  0.00     0.338 C 
ATOM     33  O   UNL A   1      39.983  20.042  26.126  1.00  0.00    -0.246 OA
BRANCH  32  34
ATOM     34  C   UNL A   1      39.966  22.343  26.747  1.00  0.00     0.060 A 
ATOM     35  C   UNL A   1      39.504  23.543  26.207  1.00  0.00     0.016 A 
ATOM     36  C   UNL A   1      40.982  22.333  27.693  1.00  0.00     0.016 A 
ATOM     37  C   UNL A   1      40.091  24.748  26.575  1.00  0.00     0.010 A 
ATOM     38  C   UNL A   1      41.541  23.547  28.096  1.00  0.00     0.010 A 
ATOM     39  C   UNL A   1      41.115  24.761  27.523  1.00  0.00    -0.014 A 
BRANCH  39  40
ATOM     40  C   UNL A   1      41.797  26.029  27.873  1.00  0.00     0.031 A 
ATOM     41  C   UNL A   1      41.049  27.060  28.669  1.00  0.00     0.074 A 
ATOM     42  C   UNL A   1      43.060  26.262  27.466  1.00  0.00     0.049 A 
ATOM     43  N   UNL A   1      41.343  28.316  28.881  1.00  0.00    -0.248 NA
ATOM     44  C   UNL A   1      39.790  26.621  29.294  1.00  0.00     0.031 C 
ATOM     45  C   UNL A   1      43.914  25.312  26.751  1.00  0.00     0.029 A 
ATOM     46  N   UNL A   1      43.841  27.386  27.583  1.00  0.00    -0.354 N 
ATOM     47  C   UNL A   1      40.275  28.833  29.604  1.00  0.00     0.074 A 
ATOM     48  C   UNL A   1      39.330  27.756  29.801  1.00  0.00     0.031 C 
ATOM     49  C   UNL A   1      45.097  25.891  26.494  1.00  0.00     0.029 A 
ATOM     50  C   UNL A   1      45.055  27.275  26.949  1.00  0.00     0.049 A 
ATOM     51  H   UNL A   1      43.558  28.191  28.073  1.00  0.00     0.167 HD
ATOM     52  C   UNL A   1      40.103  30.100  30.049  1.00  0.00     0.037 A 
ATOM     53  C   UNL A   1      46.001  28.204  26.712  1.00  0.00     0.037 A 
ATOM     54  C   UNL A   1      41.082  31.143  29.890  1.00  0.00     0.049 A 
ATOM     55  C   UNL A   1      45.762  29.614  27.180  1.00  0.00     0.074 A 
ATOM     56  C   UNL A   1      41.028  32.451  30.339  1.00  0.00     0.029 A 
ATOM     57  N   UNL A   1      42.295  30.993  29.235  1.00  0.00    -0.354 N 
ATOM     58  N   UNL A   1      44.742  30.105  27.843  1.00  0.00    -0.248 NA
ATOM     59  C   UNL A   1      46.797  30.604  26.852  1.00  0.00     0.031 C 
ATOM     60  C   UNL A   1      42.186  33.105  29.911  1.00  0.00     0.029 A 
ATOM     61  C   UNL A   1      42.987  32.191  29.245  1.00  0.00     0.049 A 
ATOM     62  H   UNL A   1      42.616  30.158  28.824  1.00  0.00     0.167 HD
ATOM     63  C   UNL A   1      45.027  31.450  28.039  1.00  0.00     0.074 A 
ATOM     64  C   UNL A   1      46.323  31.693  27.438  1.00  0.00     0.031 C 
ATOM     65  C   UNL A   1      44.286  32.401  28.657  1.00  0.00     0.037 A 
BRANCH  52  66
ATOM     66  C   UNL A   1      38.800  30.443  30.709  1.00  0.00     0.057 A 
ATOM     67  C   UNL A   1      37.697  30.922  29.993  1.00  0.00     0.134 A 
ATOM     68  C   UNL A   1      38.635  30.236  32.086  1.00  0.00     0.134 A 
ATOM     69  F   UNL A   1      37.790  31.159  28.676  1.00  0.00    -0.206 F 
ATOM     70  C   UNL A   1      36.481  31.199  30.626  1.00  0.00     0.040 A 
ATOM     71  C   UNL A   1      37.419  30.482  32.723  1.00  0.00     0.040 A 
ATOM     72  F   UNL A   1      39.652  29.775  32.831  1.00  0.00    -0.206 F 
ATOM     73  C   UNL A   1      36.339  30.969  31.993  1.00  0.00     0.006 A 
ENDBRANCH  52  66
BRANCH  53  74
ATOM     74  C   UNL A   1      47.233  27.855  25.957  1.00  0.00     0.057 A 
ATOM     75  C   UNL A   1      47.235  27.802  24.558  1.00  0.00     0.134 A 
ATOM     76  C   UNL A   1      48.428  27.526  26.612  1.00  0.00     0.134 A 
ATOM     77  F   UNL A   1      46.117  28.083  23.872  1.00  0.00    -0.206 F 
ATOM     78  C   UNL A   1      48.366  27.409  23.840  1.00  0.00     0.040 A 
ATOM     79  C   UNL A   1      49.576  27.163  25.905  1.00  0.00     0.040 A 
ATOM     80  F   UNL A   1      48.497  27.556  27.951  1.00  0.00    -0.206 F 
ATOM     81  C   UNL A   1      49.543  27.093  24.515  1.00  0.00     0.006 A 
ENDBRANCH  53  74
BRANCH  65  82
ATOM     82  C   UNL A   1      44.886  33.772  28.765  1.00  0.00     0.057 A 
ATOM     83  C   UNL A   1      45.722  34.135  29.828  1.00  0.00     0.134 A 
ATOM     84  C   UNL A   1      44.646  34.730  27.772  1.00  0.00     0.134 A 
ATOM     85  F   UNL A   1      45.977  33.268  30.819  1.00  0.00    -0.206 F 
ATOM     86  C   UNL A   1      46.279  35.411  29.912  1.00  0.00     0.040 A 
ATOM     87  C   UNL A   1      45.223  35.998  27.829  1.00  0.00     0.040 A 
ATOM     88  F   UNL A   1      43.863  34.442  26.722  1.00  0.00    -0.206 F 
ATOM     89  C   UNL A   1      46.036  36.345  28.905  1.00  0.00     0.006 A 
ENDBRANCH  65  82
ENDBRANCH  39  40
ENDBRANCH  32  34
ENDBRANCH  31  32
ENDBRANCH  30  31
ENDBRANCH   1  30
TORSDOF 15
ENDMDL
