MODEL 1
REMARK VINA RESULT:     -11.7      0.000      0.000
REMARK SMILES CN(C(=O)C[C@@H]1SC(=O)N(c2ccccc2)C1=O)c1ccccc1C(=O)OCCOC(=O)c1ccc(-c2c3nc(c(-c4c(F)cccc4F)c4ccc([nH]4)c(-c4c(F)cccc4F)c4nc(c(-c5c(F)cccc5F)c5ccc2[nH]5)C=C4)C=C3)cc1
REMARK SMILES IDX 27 1 25 2 26 3 24 4 19 5 20 6 21 7 23 8 22 9 2 10 1 11 3 12
REMARK SMILES IDX 4 13 5 14 6 15 7 16 17 17 8 18 10 19 18 20 9 21 11 22 12 23
REMARK SMILES IDX 16 24 13 25 15 26 14 27 28 28 29 29 30 30 31 31 32 32 33 33
REMARK SMILES IDX 34 34 86 35 35 36 85 37 36 38 37 39 38 40 79 41 39 42 84 43
REMARK SMILES IDX 78 44 80 45 40 46 83 47 77 48 76 49 41 51 67 52 50 53 66 54
REMARK SMILES IDX 51 55 54 56 65 57 81 58 52 59 53 60 64 62 82 63 55 64 42 65
REMARK SMILES IDX 43 66 48 67 44 68 45 69 47 70 49 71 46 72 68 73 69 74 74 75
REMARK SMILES IDX 70 76 71 77 73 78 75 79 72 80 56 81 57 82 62 83 58 84 59 85
REMARK SMILES IDX 61 86 63 87 60 88
REMARK H PARENT 80 50 54 61
REMARK Flexibility Score: inf
ROOT
ATOM      1  O   UNL A   1      34.356  21.234  26.710  1.00  0.00    -0.458 OA
ENDROOT
BRANCH   1   2
ATOM      2  C   UNL A   1      33.139  21.522  26.185  1.00  0.00     0.340 C 
ATOM      3  O   UNL A   1      32.357  22.347  26.640  1.00  0.00    -0.246 OA
BRANCH   2   4
ATOM      4  C   UNL A   1      32.834  20.794  24.915  1.00  0.00     0.083 A 
ATOM      5  C   UNL A   1      32.416  21.349  23.687  1.00  0.00     0.058 A 
ATOM      6  C   UNL A   1      32.129  20.449  22.632  1.00  0.00     0.027 A 
ATOM      7  C   UNL A   1      32.217  19.062  22.777  1.00  0.00     0.002 A 
ATOM      8  C   UNL A   1      32.963  19.388  25.026  1.00  0.00     0.018 A 
ATOM      9  C   UNL A   1      32.636  18.528  23.980  1.00  0.00     0.001 A 
BRANCH   5  10
ATOM     10  N   UNL A   1      32.327  22.763  23.395  1.00  0.00    -0.315 N 
ATOM     11  C   UNL A   1      31.008  23.383  23.464  1.00  0.00     0.153 C 
BRANCH  10  12
ATOM     12  C   UNL A   1      33.498  23.498  23.183  1.00  0.00     0.228 C 
ATOM     13  O   UNL A   1      34.244  23.336  22.214  1.00  0.00    -0.274 OA
BRANCH  12  14
ATOM     14  C   UNL A   1      33.871  24.600  24.160  1.00  0.00     0.125 C 
BRANCH  14  15
ATOM     15  C   UNL A   1      32.954  25.821  24.100  1.00  0.00     0.156 C 
ATOM     16  S   UNL A   1      33.344  26.860  22.679  1.00  0.00    -0.050 SA
ATOM     17  C   UNL A   1      32.963  26.751  25.301  1.00  0.00     0.248 C 
ATOM     18  C   UNL A   1      33.636  28.284  23.660  1.00  0.00     0.293 C 
ATOM     19  N   UNL A   1      33.483  28.002  25.006  1.00  0.00    -0.240 N 
ATOM     20  O   UNL A   1      32.427  26.412  26.355  1.00  0.00    -0.273 OA
ATOM     21  O   UNL A   1      33.940  29.318  23.106  1.00  0.00    -0.261 OA
BRANCH  19  22
ATOM     22  C   UNL A   1      33.753  28.971  26.030  1.00  0.00     0.053 A 
ATOM     23  C   UNL A   1      34.949  28.915  26.771  1.00  0.00     0.027 A 
ATOM     24  C   UNL A   1      32.886  30.045  26.294  1.00  0.00     0.027 A 
ATOM     25  C   UNL A   1      35.273  29.904  27.709  1.00  0.00     0.002 A 
ATOM     26  C   UNL A   1      33.203  31.028  27.240  1.00  0.00     0.002 A 
ATOM     27  C   UNL A   1      34.401  30.962  27.942  1.00  0.00     0.000 A 
ENDBRANCH  19  22
ENDBRANCH  14  15
ENDBRANCH  12  14
ENDBRANCH  10  12
ENDBRANCH   5  10
ENDBRANCH   2   4
ENDBRANCH   1   2
BRANCH   1  28
ATOM     28  C   UNL A   1      35.484  21.937  26.133  1.00  0.00     0.275 C 
BRANCH  28  29
ATOM     29  C   UNL A   1      36.461  21.007  25.403  1.00  0.00     0.275 C 
BRANCH  29  30
ATOM     30  O   UNL A   1      37.701  21.648  25.056  1.00  0.00    -0.458 OA
BRANCH  30  31
ATOM     31  C   UNL A   1      38.727  21.283  25.857  1.00  0.00     0.338 C 
ATOM     32  O   UNL A   1      39.229  20.176  25.954  1.00  0.00    -0.246 OA
BRANCH  31  33
ATOM     33  C   UNL A   1      39.337  22.447  26.496  1.00  0.00     0.060 A 
ATOM     34  C   UNL A   1      38.885  23.684  26.046  1.00  0.00     0.016 A 
ATOM     35  C   UNL A   1      40.414  22.355  27.377  1.00  0.00     0.016 A 
ATOM     36  C   UNL A   1      39.521  24.847  26.444  1.00  0.00     0.010 A 
ATOM     37  C   UNL A   1      41.038  23.534  27.808  1.00  0.00     0.010 A 
ATOM     38  C   UNL A   1      40.604  24.786  27.331  1.00  0.00    -0.014 A 
BRANCH  38  39
ATOM     39  C   UNL A   1      41.279  26.051  27.705  1.00  0.00     0.031 A 
ATOM     40  C   UNL A   1      42.665  26.348  27.210  1.00  0.00     0.074 A 
ATOM     41  C   UNL A   1      40.602  26.967  28.423  1.00  0.00     0.049 A 
ATOM     42  N   UNL A   1      43.431  27.375  27.473  1.00  0.00    -0.248 NA
ATOM     43  C   UNL A   1      43.273  25.360  26.307  1.00  0.00     0.031 C 
ATOM     44  C   UNL A   1      39.231  26.808  28.916  1.00  0.00     0.029 A 
ATOM     45  N   UNL A   1      40.960  28.223  28.839  1.00  0.00    -0.354 N 
ATOM     46  C   UNL A   1      44.630  27.132  26.814  1.00  0.00     0.074 A 
ATOM     47  C   UNL A   1      44.486  25.865  26.129  1.00  0.00     0.031 C 
ATOM     48  C   UNL A   1      38.848  27.942  29.523  1.00  0.00     0.029 A 
ATOM     49  C   UNL A   1      39.965  28.879  29.522  1.00  0.00     0.049 A 
ATOM     50  H   UNL A   1      41.846  28.618  28.665  1.00  0.00     0.167 HD
ATOM     51  C   UNL A   1      45.747  27.896  26.794  1.00  0.00     0.037 A 
ATOM     52  C   UNL A   1      39.961  30.095  30.098  1.00  0.00     0.037 A 
ATOM     53  C   UNL A   1      45.860  29.183  27.432  1.00  0.00     0.049 A 
ATOM     54  C   UNL A   1      41.207  30.931  30.039  1.00  0.00     0.074 A 
ATOM     55  C   UNL A   1      46.948  30.037  27.472  1.00  0.00     0.029 A 
ATOM     56  N   UNL A   1      44.835  29.811  28.123  1.00  0.00    -0.354 N 
ATOM     57  N   UNL A   1      42.352  30.664  29.459  1.00  0.00    -0.248 NA
ATOM     58  C   UNL A   1      41.166  32.229  30.724  1.00  0.00     0.031 C 
ATOM     59  C   UNL A   1      46.588  31.173  28.205  1.00  0.00     0.029 A 
ATOM     60  C   UNL A   1      45.265  31.041  28.594  1.00  0.00     0.049 A 
ATOM     61  H   UNL A   1      43.934  29.437  28.262  1.00  0.00     0.167 HD
ATOM     62  C   UNL A   1      43.163  31.765  29.698  1.00  0.00     0.074 A 
ATOM     63  C   UNL A   1      42.371  32.712  30.456  1.00  0.00     0.031 C 
ATOM     64  C   UNL A   1      44.451  31.971  29.332  1.00  0.00     0.037 A 
BRANCH  51  65
ATOM     65  C   UNL A   1      46.953  27.343  26.094  1.00  0.00     0.057 A 
ATOM     66  C   UNL A   1      47.929  26.596  26.763  1.00  0.00     0.134 A 
ATOM     67  C   UNL A   1      47.119  27.537  24.716  1.00  0.00     0.134 A 
ATOM     68  F   UNL A   1      47.837  26.387  28.085  1.00  0.00    -0.206 F 
ATOM     69  C   UNL A   1      49.036  26.074  26.090  1.00  0.00     0.040 A 
ATOM     70  C   UNL A   1      48.209  27.003  24.028  1.00  0.00     0.040 A 
ATOM     71  F   UNL A   1      46.218  28.243  24.014  1.00  0.00    -0.206 F 
ATOM     72  C   UNL A   1      49.174  26.272  24.716  1.00  0.00     0.006 A 
ENDBRANCH  51  65
BRANCH  52  73
ATOM     73  C   UNL A   1      38.746  30.587  30.794  1.00  0.00     0.057 A 
ATOM     74  C   UNL A   1      38.512  30.289  32.141  1.00  0.00     0.134 A 
ATOM     75  C   UNL A   1      37.789  31.363  30.129  1.00  0.00     0.134 A 
ATOM     76  F   UNL A   1      39.383  29.532  32.826  1.00  0.00    -0.206 F 
ATOM     77  C   UNL A   1      37.364  30.732  32.799  1.00  0.00     0.040 A 
ATOM     78  C   UNL A   1      36.650  31.835  30.781  1.00  0.00     0.040 A 
ATOM     79  F   UNL A   1      37.957  31.686  28.838  1.00  0.00    -0.206 F 
ATOM     80  C   UNL A   1      36.432  31.514  32.119  1.00  0.00     0.006 A 
ENDBRANCH  52  73
BRANCH  64  81
ATOM     81  C   UNL A   1      45.057  33.286  29.717  1.00  0.00     0.057 A 
ATOM     82  C   UNL A   1      44.971  34.408  28.885  1.00  0.00     0.134 A 
ATOM     83  C   UNL A   1      45.729  33.428  30.936  1.00  0.00     0.134 A 
ATOM     84  F   UNL A   1      44.352  34.328  27.697  1.00  0.00    -0.206 F 
ATOM     85  C   UNL A   1      45.560  35.623  29.239  1.00  0.00     0.040 A 
ATOM     86  C   UNL A   1      46.304  34.643  31.312  1.00  0.00     0.040 A 
ATOM     87  F   UNL A   1      45.840  32.391  31.779  1.00  0.00    -0.206 F 
ATOM     88  C   UNL A   1      46.227  35.742  30.458  1.00  0.00     0.006 A 
ENDBRANCH  64  81
ENDBRANCH  38  39
ENDBRANCH  31  33
ENDBRANCH  30  31
ENDBRANCH  29  30
ENDBRANCH  28  29
ENDBRANCH   1  28
TORSDOF 16
ENDMDL
MODEL 2
REMARK VINA RESULT:     -11.6      3.565      9.082
REMARK SMILES CN(C(=O)C[C@@H]1SC(=O)N(c2ccccc2)C1=O)c1ccccc1C(=O)OCCOC(=O)c1ccc(-c2c3nc(c(-c4c(F)cccc4F)c4ccc([nH]4)c(-c4c(F)cccc4F)c4nc(c(-c5c(F)cccc5F)c5ccc2[nH]5)C=C4)C=C3)cc1
REMARK SMILES IDX 27 1 25 2 26 3 24 4 19 5 20 6 21 7 23 8 22 9 2 10 1 11 3 12
REMARK SMILES IDX 4 13 5 14 6 15 7 16 17 17 8 18 10 19 18 20 9 21 11 22 12 23
REMARK SMILES IDX 16 24 13 25 15 26 14 27 28 28 29 29 30 30 31 31 32 32 33 33
REMARK SMILES IDX 34 34 86 35 35 36 85 37 36 38 37 39 38 40 79 41 39 42 84 43
REMARK SMILES IDX 78 44 80 45 40 46 83 47 77 48 76 49 41 51 67 52 50 53 66 54
REMARK SMILES IDX 51 55 54 56 65 57 81 58 52 59 53 60 64 62 82 63 55 64 42 65
REMARK SMILES IDX 43 66 48 67 44 68 45 69 47 70 49 71 46 72 68 73 69 74 74 75
REMARK SMILES IDX 70 76 71 77 73 78 75 79 72 80 56 81 57 82 62 83 58 84 59 85
REMARK SMILES IDX 61 86 63 87 60 88
REMARK H PARENT 80 50 54 61
REMARK Flexibility Score: inf
ROOT
ATOM      1  O   UNL A   1      32.453  29.070  23.678  1.00  0.00    -0.458 OA
ENDROOT
BRANCH   1   2
ATOM      2  C   UNL A   1      31.912  28.004  23.038  1.00  0.00     0.340 C 
ATOM      3  O   UNL A   1      32.541  27.201  22.360  1.00  0.00    -0.246 OA
BRANCH   2   4
ATOM      4  C   UNL A   1      30.450  27.819  23.289  1.00  0.00     0.083 A 
ATOM      5  C   UNL A   1      29.799  26.654  23.749  1.00  0.00     0.058 A 
ATOM      6  C   UNL A   1      28.387  26.699  23.856  1.00  0.00     0.027 A 
ATOM      7  C   UNL A   1      27.638  27.824  23.501  1.00  0.00     0.002 A 
ATOM      8  C   UNL A   1      29.675  28.964  22.980  1.00  0.00     0.018 A 
ATOM      9  C   UNL A   1      28.284  28.962  23.060  1.00  0.00     0.001 A 
BRANCH   5  10
ATOM     10  N   UNL A   1      30.460  25.446  24.188  1.00  0.00    -0.315 N 
ATOM     11  C   UNL A   1      30.626  24.375  23.210  1.00  0.00     0.153 C 
BRANCH  10  12
ATOM     12  C   UNL A   1      31.016  25.391  25.471  1.00  0.00     0.228 C 
ATOM     13  O   UNL A   1      30.389  25.650  26.501  1.00  0.00    -0.274 OA
BRANCH  12  14
ATOM     14  C   UNL A   1      32.456  24.941  25.638  1.00  0.00     0.125 C 
BRANCH  14  15
ATOM     15  C   UNL A   1      32.619  23.670  26.471  1.00  0.00     0.156 C 
ATOM     16  S   UNL A   1      34.356  23.340  26.822  1.00  0.00    -0.050 SA
ATOM     17  C   UNL A   1      32.069  22.383  25.884  1.00  0.00     0.248 C 
ATOM     18  C   UNL A   1      34.315  21.745  26.094  1.00  0.00     0.293 C 
ATOM     19  N   UNL A   1      33.063  21.467  25.575  1.00  0.00    -0.240 N 
ATOM     20  O   UNL A   1      30.856  22.187  25.840  1.00  0.00    -0.273 OA
ATOM     21  O   UNL A   1      35.327  21.079  26.101  1.00  0.00    -0.261 OA
BRANCH  19  22
ATOM     22  C   UNL A   1      32.785  20.263  24.844  1.00  0.00     0.053 A 
ATOM     23  C   UNL A   1      32.528  20.309  23.461  1.00  0.00     0.027 A 
ATOM     24  C   UNL A   1      32.821  18.994  25.448  1.00  0.00     0.027 A 
ATOM     25  C   UNL A   1      32.346  19.137  22.714  1.00  0.00     0.002 A 
ATOM     26  C   UNL A   1      32.627  17.823  24.705  1.00  0.00     0.002 A 
ATOM     27  C   UNL A   1      32.398  17.894  23.335  1.00  0.00     0.000 A 
ENDBRANCH  19  22
ENDBRANCH  14  15
ENDBRANCH  12  14
ENDBRANCH  10  12
ENDBRANCH   5  10
ENDBRANCH   2   4
ENDBRANCH   1   2
BRANCH   1  28
ATOM     28  C   UNL A   1      32.421  29.031  25.125  1.00  0.00     0.275 C 
BRANCH  28  29
ATOM     29  C   UNL A   1      31.863  30.317  25.749  1.00  0.00     0.275 C 
BRANCH  29  30
ATOM     30  O   UNL A   1      32.309  30.531  27.100  1.00  0.00    -0.458 OA
BRANCH  30  31
ATOM     31  C   UNL A   1      33.035  31.662  27.244  1.00  0.00     0.338 C 
ATOM     32  O   UNL A   1      32.641  32.811  27.137  1.00  0.00    -0.246 OA
BRANCH  31  33
ATOM     33  C   UNL A   1      34.373  31.367  27.753  1.00  0.00     0.060 A 
ATOM     34  C   UNL A   1      34.600  30.043  28.113  1.00  0.00     0.016 A 
ATOM     35  C   UNL A   1      35.320  32.355  28.023  1.00  0.00     0.016 A 
ATOM     36  C   UNL A   1      35.761  29.689  28.777  1.00  0.00     0.010 A 
ATOM     37  C   UNL A   1      36.512  31.993  28.664  1.00  0.00     0.010 A 
ATOM     38  C   UNL A   1      36.731  30.659  29.059  1.00  0.00    -0.014 A 
BRANCH  38  39
ATOM     39  C   UNL A   1      37.945  30.245  29.802  1.00  0.00     0.031 A 
ATOM     40  C   UNL A   1      38.122  30.629  31.242  1.00  0.00     0.074 A 
ATOM     41  C   UNL A   1      38.846  29.449  29.194  1.00  0.00     0.049 A 
ATOM     42  N   UNL A   1      39.137  30.402  32.037  1.00  0.00    -0.248 NA
ATOM     43  C   UNL A   1      37.020  31.372  31.872  1.00  0.00     0.031 C 
ATOM     44  C   UNL A   1      38.752  28.971  27.812  1.00  0.00     0.029 A 
ATOM     45  N   UNL A   1      39.999  28.878  29.665  1.00  0.00    -0.354 N 
ATOM     46  C   UNL A   1      38.821  31.019  33.241  1.00  0.00     0.074 A 
ATOM     47  C   UNL A   1      37.514  31.621  33.077  1.00  0.00     0.031 C 
ATOM     48  C   UNL A   1      39.776  28.140  27.564  1.00  0.00     0.029 A 
ATOM     49  C   UNL A   1      40.633  28.081  28.743  1.00  0.00     0.049 A 
ATOM     50  H   UNL A   1      40.341  29.024  30.577  1.00  0.00     0.167 HD
ATOM     51  C   UNL A   1      39.560  31.080  34.373  1.00  0.00     0.037 A 
ATOM     52  C   UNL A   1      41.785  27.393  28.834  1.00  0.00     0.037 A 
ATOM     53  C   UNL A   1      40.834  30.429  34.545  1.00  0.00     0.049 A 
ATOM     54  C   UNL A   1      42.573  27.460  30.110  1.00  0.00     0.074 A 
ATOM     55  C   UNL A   1      41.664  30.429  35.652  1.00  0.00     0.029 A 
ATOM     56  N   UNL A   1      41.448  29.638  33.585  1.00  0.00    -0.354 N 
ATOM     57  N   UNL A   1      42.288  28.093  31.223  1.00  0.00    -0.248 NA
ATOM     58  C   UNL A   1      43.847  26.730  30.141  1.00  0.00     0.031 C 
ATOM     59  C   UNL A   1      42.792  29.656  35.354  1.00  0.00     0.029 A 
ATOM     60  C   UNL A   1      42.648  29.146  34.074  1.00  0.00     0.049 A 
ATOM     61  H   UNL A   1      41.087  29.455  32.688  1.00  0.00     0.167 HD
ATOM     62  C   UNL A   1      43.339  27.827  32.089  1.00  0.00     0.074 A 
ATOM     63  C   UNL A   1      44.256  26.957  31.381  1.00  0.00     0.031 C 
ATOM     64  C   UNL A   1      43.534  28.271  33.354  1.00  0.00     0.037 A 
BRANCH  51  65
ATOM     65  C   UNL A   1      39.032  31.914  35.503  1.00  0.00     0.057 A 
ATOM     66  C   UNL A   1      38.246  31.374  36.527  1.00  0.00     0.134 A 
ATOM     67  C   UNL A   1      39.349  33.277  35.580  1.00  0.00     0.134 A 
ATOM     68  F   UNL A   1      37.895  30.079  36.504  1.00  0.00    -0.206 F 
ATOM     69  C   UNL A   1      37.779  32.164  37.581  1.00  0.00     0.040 A 
ATOM     70  C   UNL A   1      38.906  34.072  36.637  1.00  0.00     0.040 A 
ATOM     71  F   UNL A   1      40.100  33.856  34.631  1.00  0.00    -0.206 F 
ATOM     72  C   UNL A   1      38.115  33.516  37.641  1.00  0.00     0.006 A 
ENDBRANCH  51  65
BRANCH  52  73
ATOM     73  C   UNL A   1      42.271  26.596  27.679  1.00  0.00     0.057 A 
ATOM     74  C   UNL A   1      43.070  27.175  26.687  1.00  0.00     0.134 A 
ATOM     75  C   UNL A   1      41.947  25.242  27.540  1.00  0.00     0.134 A 
ATOM     76  F   UNL A   1      43.398  28.474  26.755  1.00  0.00    -0.206 F 
ATOM     77  C   UNL A   1      43.518  26.439  25.588  1.00  0.00     0.040 A 
ATOM     78  C   UNL A   1      42.409  24.488  26.461  1.00  0.00     0.040 A 
ATOM     79  F   UNL A   1      41.187  24.628  28.459  1.00  0.00    -0.206 F 
ATOM     80  C   UNL A   1      43.192  25.088  25.477  1.00  0.00     0.006 A 
ENDBRANCH  52  73
BRANCH  64  81
ATOM     81  C   UNL A   1      44.767  27.784  34.054  1.00  0.00     0.057 A 
ATOM     82  C   UNL A   1      44.770  26.602  34.802  1.00  0.00     0.134 A 
ATOM     83  C   UNL A   1      45.962  28.508  33.972  1.00  0.00     0.134 A 
ATOM     84  F   UNL A   1      43.650  25.874  34.930  1.00  0.00    -0.206 F 
ATOM     85  C   UNL A   1      45.915  26.169  35.473  1.00  0.00     0.040 A 
ATOM     86  C   UNL A   1      47.120  28.075  34.619  1.00  0.00     0.040 A 
ATOM     87  F   UNL A   1      46.023  29.646  33.264  1.00  0.00    -0.206 F 
ATOM     88  C   UNL A   1      47.095  26.906  35.379  1.00  0.00     0.006 A 
ENDBRANCH  64  81
ENDBRANCH  38  39
ENDBRANCH  31  33
ENDBRANCH  30  31
ENDBRANCH  29  30
ENDBRANCH  28  29
ENDBRANCH   1  28
TORSDOF 16
ENDMDL
MODEL 3
REMARK VINA RESULT:     -11.6      3.559      8.720
REMARK SMILES CN(C(=O)C[C@@H]1SC(=O)N(c2ccccc2)C1=O)c1ccccc1C(=O)OCCOC(=O)c1ccc(-c2c3nc(c(-c4c(F)cccc4F)c4ccc([nH]4)c(-c4c(F)cccc4F)c4nc(c(-c5c(F)cccc5F)c5ccc2[nH]5)C=C4)C=C3)cc1
REMARK SMILES IDX 27 1 25 2 26 3 24 4 19 5 20 6 21 7 23 8 22 9 2 10 1 11 3 12
REMARK SMILES IDX 4 13 5 14 6 15 7 16 17 17 8 18 10 19 18 20 9 21 11 22 12 23
REMARK SMILES IDX 16 24 13 25 15 26 14 27 28 28 29 29 30 30 31 31 32 32 33 33
REMARK SMILES IDX 34 34 86 35 35 36 85 37 36 38 37 39 38 40 79 41 39 42 84 43
REMARK SMILES IDX 78 44 80 45 40 46 83 47 77 48 76 49 41 51 67 52 50 53 66 54
REMARK SMILES IDX 51 55 54 56 65 57 81 58 52 59 53 60 64 62 82 63 55 64 42 65
REMARK SMILES IDX 43 66 48 67 44 68 45 69 47 70 49 71 46 72 68 73 69 74 74 75
REMARK SMILES IDX 70 76 71 77 73 78 75 79 72 80 56 81 57 82 62 83 58 84 59 85
REMARK SMILES IDX 61 86 63 87 60 88
REMARK H PARENT 80 50 54 61
REMARK Flexibility Score: inf
ROOT
ATOM      1  O   UNL A   1      32.687  29.259  23.415  1.00  0.00    -0.458 OA
ENDROOT
BRANCH   1   2
ATOM      2  C   UNL A   1      32.107  28.149  22.895  1.00  0.00     0.340 C 
ATOM      3  O   UNL A   1      32.712  27.228  22.361  1.00  0.00    -0.246 OA
BRANCH   2   4
ATOM      4  C   UNL A   1      30.627  28.082  23.095  1.00  0.00     0.083 A 
ATOM      5  C   UNL A   1      29.883  27.020  23.651  1.00  0.00     0.058 A 
ATOM      6  C   UNL A   1      28.474  27.162  23.684  1.00  0.00     0.027 A 
ATOM      7  C   UNL A   1      27.815  28.281  23.169  1.00  0.00     0.002 A 
ATOM      8  C   UNL A   1      29.942  29.229  22.622  1.00  0.00     0.018 A 
ATOM      9  C   UNL A   1      28.552  29.320  22.635  1.00  0.00     0.001 A 
BRANCH   5  10
ATOM     10  N   UNL A   1      30.445  25.832  24.255  1.00  0.00    -0.315 N 
ATOM     11  C   UNL A   1      30.444  24.608  23.461  1.00  0.00     0.153 C 
BRANCH  10  12
ATOM     12  C   UNL A   1      31.069  25.923  25.504  1.00  0.00     0.228 C 
ATOM     13  O   UNL A   1      30.469  26.171  26.553  1.00  0.00    -0.274 OA
BRANCH  12  14
ATOM     14  C   UNL A   1      32.559  25.656  25.611  1.00  0.00     0.125 C 
BRANCH  14  15
ATOM     15  C   UNL A   1      32.959  24.215  25.294  1.00  0.00     0.156 C 
ATOM     16  S   UNL A   1      32.552  23.111  26.660  1.00  0.00    -0.050 SA
ATOM     17  C   UNL A   1      34.423  23.957  24.982  1.00  0.00     0.248 C 
ATOM     18  C   UNL A   1      34.202  22.548  26.843  1.00  0.00     0.293 C 
ATOM     19  N   UNL A   1      35.046  23.176  25.945  1.00  0.00    -0.240 N 
ATOM     20  O   UNL A   1      34.903  24.316  23.909  1.00  0.00    -0.273 OA
ATOM     21  O   UNL A   1      34.441  21.720  27.696  1.00  0.00    -0.261 OA
BRANCH  19  22
ATOM     22  C   UNL A   1      36.465  22.962  25.945  1.00  0.00     0.053 A 
ATOM     23  C   UNL A   1      37.339  23.964  26.408  1.00  0.00     0.027 A 
ATOM     24  C   UNL A   1      37.040  21.741  25.553  1.00  0.00     0.027 A 
ATOM     25  C   UNL A   1      38.720  23.740  26.503  1.00  0.00     0.002 A 
ATOM     26  C   UNL A   1      38.420  21.521  25.636  1.00  0.00     0.002 A 
ATOM     27  C   UNL A   1      39.260  22.517  26.120  1.00  0.00     0.000 A 
ENDBRANCH  19  22
ENDBRANCH  14  15
ENDBRANCH  12  14
ENDBRANCH  10  12
ENDBRANCH   5  10
ENDBRANCH   2   4
ENDBRANCH   1   2
BRANCH   1  28
ATOM     28  C   UNL A   1      33.002  29.213  24.829  1.00  0.00     0.275 C 
BRANCH  28  29
ATOM     29  C   UNL A   1      31.967  29.938  25.699  1.00  0.00     0.275 C 
BRANCH  29  30
ATOM     30  O   UNL A   1      32.419  30.164  27.046  1.00  0.00    -0.458 OA
BRANCH  30  31
ATOM     31  C   UNL A   1      33.107  31.318  27.187  1.00  0.00     0.338 C 
ATOM     32  O   UNL A   1      32.676  32.453  27.074  1.00  0.00    -0.246 OA
BRANCH  31  33
ATOM     33  C   UNL A   1      34.453  31.069  27.701  1.00  0.00     0.060 A 
ATOM     34  C   UNL A   1      34.701  29.768  28.129  1.00  0.00     0.016 A 
ATOM     35  C   UNL A   1      35.387  32.082  27.912  1.00  0.00     0.016 A 
ATOM     36  C   UNL A   1      35.871  29.466  28.802  1.00  0.00     0.010 A 
ATOM     37  C   UNL A   1      36.588  31.771  28.563  1.00  0.00     0.010 A 
ATOM     38  C   UNL A   1      36.829  30.463  29.026  1.00  0.00    -0.014 A 
BRANCH  38  39
ATOM     39  C   UNL A   1      38.054  30.105  29.780  1.00  0.00     0.031 A 
ATOM     40  C   UNL A   1      38.227  30.553  31.203  1.00  0.00     0.074 A 
ATOM     41  C   UNL A   1      38.968  29.303  29.203  1.00  0.00     0.049 A 
ATOM     42  N   UNL A   1      39.248  30.380  32.002  1.00  0.00    -0.248 NA
ATOM     43  C   UNL A   1      37.111  31.299  31.805  1.00  0.00     0.031 C 
ATOM     44  C   UNL A   1      38.880  28.765  27.843  1.00  0.00     0.029 A 
ATOM     45  N   UNL A   1      40.135  28.776  29.693  1.00  0.00    -0.354 N 
ATOM     46  C   UNL A   1      38.923  31.041  33.181  1.00  0.00     0.074 A 
ATOM     47  C   UNL A   1      37.604  31.608  32.997  1.00  0.00     0.031 C 
ATOM     48  C   UNL A   1      39.921  27.946  27.626  1.00  0.00     0.029 A 
ATOM     49  C   UNL A   1      40.782  27.954  28.804  1.00  0.00     0.049 A 
ATOM     50  H   UNL A   1      40.476  28.967  30.597  1.00  0.00     0.167 HD
ATOM     51  C   UNL A   1      39.664  31.164  34.306  1.00  0.00     0.037 A 
ATOM     52  C   UNL A   1      41.949  27.294  28.918  1.00  0.00     0.037 A 
ATOM     53  C   UNL A   1      40.952  30.547  34.501  1.00  0.00     0.049 A 
ATOM     54  C   UNL A   1      42.738  27.431  30.188  1.00  0.00     0.074 A 
ATOM     55  C   UNL A   1      41.785  30.611  35.603  1.00  0.00     0.029 A 
ATOM     56  N   UNL A   1      41.580  29.730  33.573  1.00  0.00    -0.354 N 
ATOM     57  N   UNL A   1      42.444  28.104  31.274  1.00  0.00    -0.248 NA
ATOM     58  C   UNL A   1      44.027  26.729  30.244  1.00  0.00     0.031 C 
ATOM     59  C   UNL A   1      42.928  29.849  35.334  1.00  0.00     0.029 A 
ATOM     60  C   UNL A   1      42.790  29.284  34.077  1.00  0.00     0.049 A 
ATOM     61  H   UNL A   1      41.220  29.502  32.685  1.00  0.00     0.167 HD
ATOM     62  C   UNL A   1      43.503  27.897  32.147  1.00  0.00     0.074 A 
ATOM     63  C   UNL A   1      44.435  27.017  31.472  1.00  0.00     0.031 C 
ATOM     64  C   UNL A   1      43.692  28.397  33.391  1.00  0.00     0.037 A 
BRANCH  51  65
ATOM     65  C   UNL A   1      39.123  32.035  35.402  1.00  0.00     0.057 A 
ATOM     66  C   UNL A   1      38.320  31.528  36.431  1.00  0.00     0.134 A 
ATOM     67  C   UNL A   1      39.443  33.398  35.442  1.00  0.00     0.134 A 
ATOM     68  F   UNL A   1      37.966  30.235  36.443  1.00  0.00    -0.206 F 
ATOM     69  C   UNL A   1      37.841  32.352  37.453  1.00  0.00     0.040 A 
ATOM     70  C   UNL A   1      38.987  34.227  36.468  1.00  0.00     0.040 A 
ATOM     71  F   UNL A   1      40.209  33.946  34.487  1.00  0.00    -0.206 F 
ATOM     72  C   UNL A   1      38.180  33.704  37.476  1.00  0.00     0.006 A 
ENDBRANCH  51  65
BRANCH  52  73
ATOM     73  C   UNL A   1      42.447  26.460  27.796  1.00  0.00     0.057 A 
ATOM     74  C   UNL A   1      42.071  25.118  27.669  1.00  0.00     0.134 A 
ATOM     75  C   UNL A   1      43.313  26.983  26.829  1.00  0.00     0.134 A 
ATOM     76  F   UNL A   1      41.259  24.555  28.577  1.00  0.00    -0.206 F 
ATOM     77  C   UNL A   1      42.548  24.321  26.628  1.00  0.00     0.040 A 
ATOM     78  C   UNL A   1      43.777  26.205  25.768  1.00  0.00     0.040 A 
ATOM     79  F   UNL A   1      43.709  28.263  26.893  1.00  0.00    -0.206 F 
ATOM     80  C   UNL A   1      43.400  24.867  25.669  1.00  0.00     0.006 A 
ENDBRANCH  52  73
BRANCH  64  81
ATOM     81  C   UNL A   1      44.937  27.966  34.106  1.00  0.00     0.057 A 
ATOM     82  C   UNL A   1      46.129  28.692  34.010  1.00  0.00     0.134 A 
ATOM     83  C   UNL A   1      44.937  26.813  34.899  1.00  0.00     0.134 A 
ATOM     84  F   UNL A   1      46.195  29.797  33.252  1.00  0.00    -0.206 F 
ATOM     85  C   UNL A   1      47.292  28.269  34.658  1.00  0.00     0.040 A 
ATOM     86  C   UNL A   1      46.086  26.391  35.569  1.00  0.00     0.040 A 
ATOM     87  F   UNL A   1      43.823  26.077  35.034  1.00  0.00    -0.206 F 
ATOM     88  C   UNL A   1      47.270  27.117  35.442  1.00  0.00     0.006 A 
ENDBRANCH  64  81
ENDBRANCH  38  39
ENDBRANCH  31  33
ENDBRANCH  30  31
ENDBRANCH  29  30
ENDBRANCH  28  29
ENDBRANCH   1  28
TORSDOF 16
ENDMDL
