MODEL 1
REMARK VINA RESULT:     -10.5      0.000      0.000
REMARK SMILES [NH3+][C@H](CC(F)(F)C(F)(F)C(F)(F)C(F)(F)Cl)C(=O)OCCOC(=O)c1ccc(-c2c3nc(c(-c4c(F)cccc4F)c4ccc([nH]4)c(-c4c(F)cccc4F)c4nc(c(-c5c(F)cccc5F)c5ccc2[nH]5)C=C4)C=C3)cc1
REMARK SMILES IDX 19 1 17 2 18 3 2 4 1 5 3 9 4 10 5 11 6 12 7 13 8 14 9 15
REMARK SMILES IDX 10 16 11 17 12 18 13 19 14 20 15 21 16 22 20 23 21 24 22 25
REMARK SMILES IDX 23 26 24 27 25 28 26 29 78 30 27 31 77 32 28 33 29 34 30 35
REMARK SMILES IDX 71 36 31 37 76 38 70 39 72 40 32 41 75 42 69 43 68 44 33 46
REMARK SMILES IDX 59 47 42 48 58 49 43 50 46 51 57 52 73 53 44 54 45 55 56 57
REMARK SMILES IDX 74 58 47 59 34 60 35 61 40 62 36 63 37 64 39 65 41 66 38 67
REMARK SMILES IDX 60 68 61 69 66 70 62 71 63 72 65 73 67 74 64 75 48 76 49 77
REMARK SMILES IDX 54 78 50 79 51 80 53 81 55 82 52 83
REMARK H PARENT 1 6 1 7 1 8 72 45 46 56
REMARK Flexibility Score: inf
ROOT
ATOM      1  O   UNL A   1      43.141  19.997  24.994  1.00  0.00    -0.458 OA
ENDROOT
BRANCH   1   2
ATOM      2  C   UNL A   1      42.433  19.190  25.834  1.00  0.00     0.365 C 
ATOM      3  O   UNL A   1      42.487  17.965  25.838  1.00  0.00    -0.245 OA
BRANCH   2   4
ATOM      4  C   UNL A   1      41.458  19.971  26.720  1.00  0.00     0.298 C 
BRANCH   4   5
ATOM      5  N   UNL A   1      41.350  19.345  28.054  1.00  0.00    -0.346 N 
ATOM      6  H   UNL A   1      41.350  20.071  28.770  1.00  0.00     0.345 HD
ATOM      7  H   UNL A   1      42.142  18.721  28.201  1.00  0.00     0.345 HD
ATOM      8  H   UNL A   1      40.482  18.813  28.109  1.00  0.00     0.345 HD
ENDBRANCH   4   5
BRANCH   4   9
ATOM      9  C   UNL A   1      40.059  20.170  26.141  1.00  0.00     0.161 C 
BRANCH   9  10
ATOM     10  C   UNL A   1      39.594  21.630  26.189  1.00  0.00     0.323 C 
ATOM     11  F   UNL A   1      39.710  22.044  27.485  1.00  0.00    -0.199 F 
ATOM     12  F   UNL A   1      40.503  22.368  25.490  1.00  0.00    -0.199 F 
BRANCH  10  13
ATOM     13  C   UNL A   1      38.180  21.919  25.678  1.00  0.00     0.379 C 
ATOM     14  F   UNL A   1      38.096  21.613  24.353  1.00  0.00    -0.192 F 
ATOM     15  F   UNL A   1      37.282  21.117  26.316  1.00  0.00    -0.192 F 
BRANCH  13  16
ATOM     16  C   UNL A   1      37.779  23.362  25.902  1.00  0.00     0.392 C 
ATOM     17  F   UNL A   1      38.123  23.769  27.158  1.00  0.00    -0.191 F 
ATOM     18  F   UNL A   1      38.447  24.184  25.045  1.00  0.00    -0.191 F 
BRANCH  16  19
ATOM     19  C   UNL A   1      36.271  23.494  25.711  1.00  0.00     0.390 C 
ATOM     20  F   UNL A   1      35.588  22.812  26.667  1.00  0.00    -0.181 F 
ATOM     21  F   UNL A   1      35.874  24.791  25.815  1.00  0.00    -0.181 F 
ATOM     22  Cl  UNL A   1      35.740  22.894  24.116  1.00  0.00    -0.041 Cl
ENDBRANCH  16  19
ENDBRANCH  13  16
ENDBRANCH  10  13
ENDBRANCH   9  10
ENDBRANCH   4   9
ENDBRANCH   2   4
ENDBRANCH   1   2
BRANCH   1  23
ATOM     23  C   UNL A   1      43.695  21.180  25.604  1.00  0.00     0.274 C 
BRANCH  23  24
ATOM     24  C   UNL A   1      44.245  22.199  24.597  1.00  0.00     0.275 C 
BRANCH  24  25
ATOM     25  O   UNL A   1      43.508  23.435  24.598  1.00  0.00    -0.458 OA
BRANCH  25  26
ATOM     26  C   UNL A   1      44.205  24.501  25.058  1.00  0.00     0.338 C 
ATOM     27  O   UNL A   1      45.326  24.838  24.708  1.00  0.00    -0.246 OA
BRANCH  26  28
ATOM     28  C   UNL A   1      43.389  25.322  25.975  1.00  0.00     0.060 A 
ATOM     29  C   UNL A   1      43.810  26.636  26.206  1.00  0.00     0.016 A 
ATOM     30  C   UNL A   1      42.298  24.800  26.674  1.00  0.00     0.016 A 
ATOM     31  C   UNL A   1      43.186  27.416  27.171  1.00  0.00     0.010 A 
ATOM     32  C   UNL A   1      41.669  25.585  27.648  1.00  0.00     0.010 A 
ATOM     33  C   UNL A   1      42.135  26.883  27.925  1.00  0.00    -0.014 A 
BRANCH  33  34
ATOM     34  C   UNL A   1      41.633  27.647  29.092  1.00  0.00     0.031 A 
ATOM     35  C   UNL A   1      42.370  27.557  30.398  1.00  0.00     0.074 A 
ATOM     36  C   UNL A   1      40.575  28.466  28.966  1.00  0.00     0.049 A 
ATOM     37  N   UNL A   1      42.113  28.146  31.538  1.00  0.00    -0.248 NA
ATOM     38  C   UNL A   1      43.558  26.689  30.424  1.00  0.00     0.031 C 
ATOM     39  C   UNL A   1      39.809  28.676  27.739  1.00  0.00     0.029 A 
ATOM     40  N   UNL A   1      39.970  29.282  29.887  1.00  0.00    -0.354 N 
ATOM     41  C   UNL A   1      43.094  27.709  32.418  1.00  0.00     0.074 A 
ATOM     42  C   UNL A   1      43.940  26.790  31.688  1.00  0.00     0.031 C 
ATOM     43  C   UNL A   1      38.837  29.572  27.981  1.00  0.00     0.029 A 
ATOM     44  C   UNL A   1      38.898  29.976  29.385  1.00  0.00     0.049 A 
ATOM     45  H   UNL A   1      40.276  29.364  30.819  1.00  0.00     0.167 HD
ATOM     46  C   UNL A   1      43.278  28.048  33.717  1.00  0.00     0.037 A 
ATOM     47  C   UNL A   1      38.057  30.834  29.993  1.00  0.00     0.037 A 
ATOM     48  C   UNL A   1      42.452  28.978  34.438  1.00  0.00     0.049 A 
ATOM     49  C   UNL A   1      38.259  31.162  31.447  1.00  0.00     0.074 A 
ATOM     50  C   UNL A   1      42.568  29.398  35.752  1.00  0.00     0.029 A 
ATOM     51  N   UNL A   1      41.355  29.635  33.903  1.00  0.00    -0.354 N 
ATOM     52  N   UNL A   1      39.192  30.746  32.268  1.00  0.00    -0.248 NA
ATOM     53  C   UNL A   1      37.288  32.082  32.058  1.00  0.00     0.031 C 
ATOM     54  C   UNL A   1      41.520  30.285  36.021  1.00  0.00     0.029 A 
ATOM     55  C   UNL A   1      40.774  30.446  34.865  1.00  0.00     0.049 A 
ATOM     56  H   UNL A   1      41.036  29.541  32.977  1.00  0.00     0.167 HD
ATOM     57  C   UNL A   1      38.940  31.375  33.481  1.00  0.00     0.074 A 
ATOM     58  C   UNL A   1      37.769  32.205  33.287  1.00  0.00     0.031 C 
ATOM     59  C   UNL A   1      39.617  31.275  34.650  1.00  0.00     0.037 A 
BRANCH  46  60
ATOM     60  C   UNL A   1      44.406  27.383  34.446  1.00  0.00     0.057 A 
ATOM     61  C   UNL A   1      45.680  27.959  34.523  1.00  0.00     0.134 A 
ATOM     62  C   UNL A   1      44.209  26.157  35.092  1.00  0.00     0.134 A 
ATOM     63  F   UNL A   1      45.937  29.125  33.910  1.00  0.00    -0.206 F 
ATOM     64  C   UNL A   1      46.724  27.329  35.203  1.00  0.00     0.040 A 
ATOM     65  C   UNL A   1      45.238  25.527  35.792  1.00  0.00     0.040 A 
ATOM     66  F   UNL A   1      43.011  25.552  35.056  1.00  0.00    -0.206 F 
ATOM     67  C   UNL A   1      46.503  26.112  35.845  1.00  0.00     0.006 A 
ENDBRANCH  46  60
BRANCH  47  68
ATOM     68  C   UNL A   1      36.944  31.449  29.229  1.00  0.00     0.057 A 
ATOM     69  C   UNL A   1      35.786  30.725  28.930  1.00  0.00     0.134 A 
ATOM     70  C   UNL A   1      37.023  32.767  28.765  1.00  0.00     0.134 A 
ATOM     71  F   UNL A   1      35.665  29.450  29.327  1.00  0.00    -0.206 F 
ATOM     72  C   UNL A   1      34.749  31.284  28.182  1.00  0.00     0.040 A 
ATOM     73  C   UNL A   1      35.984  33.346  28.035  1.00  0.00     0.040 A 
ATOM     74  F   UNL A   1      38.109  33.512  29.019  1.00  0.00    -0.206 F 
ATOM     75  C   UNL A   1      34.845  32.601  27.736  1.00  0.00     0.006 A 
ENDBRANCH  47  68
BRANCH  59  76
ATOM     76  C   UNL A   1      39.133  32.113  35.795  1.00  0.00     0.057 A 
ATOM     77  C   UNL A   1      39.525  33.448  35.950  1.00  0.00     0.134 A 
ATOM     78  C   UNL A   1      38.239  31.585  36.736  1.00  0.00     0.134 A 
ATOM     79  F   UNL A   1      40.389  34.007  35.090  1.00  0.00    -0.206 F 
ATOM     80  C   UNL A   1      39.064  34.223  37.017  1.00  0.00     0.040 A 
ATOM     81  C   UNL A   1      37.754  32.355  37.792  1.00  0.00     0.040 A 
ATOM     82  F   UNL A   1      37.819  30.315  36.637  1.00  0.00    -0.206 F 
ATOM     83  C   UNL A   1      38.172  33.676  37.938  1.00  0.00     0.006 A 
ENDBRANCH  59  76
ENDBRANCH  33  34
ENDBRANCH  26  28
ENDBRANCH  25  26
ENDBRANCH  24  25
ENDBRANCH  23  24
ENDBRANCH   1  23
TORSDOF 17
ENDMDL
MODEL 2
REMARK VINA RESULT:     -10.5      4.703     10.828
REMARK SMILES [NH3+][C@H](CC(F)(F)C(F)(F)C(F)(F)C(F)(F)Cl)C(=O)OCCOC(=O)c1ccc(-c2c3nc(c(-c4c(F)cccc4F)c4ccc([nH]4)c(-c4c(F)cccc4F)c4nc(c(-c5c(F)cccc5F)c5ccc2[nH]5)C=C4)C=C3)cc1
REMARK SMILES IDX 19 1 17 2 18 3 2 4 1 5 3 9 4 10 5 11 6 12 7 13 8 14 9 15
REMARK SMILES IDX 10 16 11 17 12 18 13 19 14 20 15 21 16 22 20 23 21 24 22 25
REMARK SMILES IDX 23 26 24 27 25 28 26 29 78 30 27 31 77 32 28 33 29 34 30 35
REMARK SMILES IDX 71 36 31 37 76 38 70 39 72 40 32 41 75 42 69 43 68 44 33 46
REMARK SMILES IDX 59 47 42 48 58 49 43 50 46 51 57 52 73 53 44 54 45 55 56 57
REMARK SMILES IDX 74 58 47 59 34 60 35 61 40 62 36 63 37 64 39 65 41 66 38 67
REMARK SMILES IDX 60 68 61 69 66 70 62 71 63 72 65 73 67 74 64 75 48 76 49 77
REMARK SMILES IDX 54 78 50 79 51 80 53 81 55 82 52 83
REMARK H PARENT 1 6 1 7 1 8 72 45 46 56
REMARK Flexibility Score: inf
ROOT
ATOM      1  O   UNL A   1      32.515  35.015  29.944  1.00  0.00    -0.458 OA
ENDROOT
BRANCH   1   2
ATOM      2  C   UNL A   1      32.884  36.027  30.778  1.00  0.00     0.365 C 
ATOM      3  O   UNL A   1      32.579  37.206  30.625  1.00  0.00    -0.245 OA
BRANCH   2   4
ATOM      4  C   UNL A   1      33.830  35.563  31.889  1.00  0.00     0.298 C 
BRANCH   4   5
ATOM      5  N   UNL A   1      34.421  36.722  32.589  1.00  0.00    -0.346 N 
ATOM      6  H   UNL A   1      35.335  36.463  32.961  1.00  0.00     0.345 HD
ATOM      7  H   UNL A   1      33.809  37.005  33.354  1.00  0.00     0.345 HD
ATOM      8  H   UNL A   1      34.526  37.495  31.933  1.00  0.00     0.345 HD
ENDBRANCH   4   5
BRANCH   4   9
ATOM      9  C   UNL A   1      34.945  34.616  31.450  1.00  0.00     0.161 C 
BRANCH   9  10
ATOM     10  C   UNL A   1      34.888  33.257  32.157  1.00  0.00     0.323 C 
ATOM     11  F   UNL A   1      33.827  33.297  33.015  1.00  0.00    -0.199 F 
ATOM     12  F   UNL A   1      34.559  32.325  31.217  1.00  0.00    -0.199 F 
BRANCH  10  13
ATOM     13  C   UNL A   1      36.147  32.820  32.910  1.00  0.00     0.379 C 
ATOM     14  F   UNL A   1      36.052  31.503  33.243  1.00  0.00    -0.192 F 
ATOM     15  F   UNL A   1      37.237  32.934  32.100  1.00  0.00    -0.192 F 
BRANCH  13  16
ATOM     16  C   UNL A   1      36.383  33.651  34.153  1.00  0.00     0.392 C 
ATOM     17  F   UNL A   1      36.753  34.921  33.821  1.00  0.00    -0.191 F 
ATOM     18  F   UNL A   1      35.234  33.772  34.875  1.00  0.00    -0.191 F 
BRANCH  16  19
ATOM     19  C   UNL A   1      37.479  32.996  34.989  1.00  0.00     0.390 C 
ATOM     20  F   UNL A   1      37.430  31.641  34.897  1.00  0.00    -0.181 F 
ATOM     21  F   UNL A   1      38.715  33.360  34.551  1.00  0.00    -0.181 F 
ATOM     22  Cl  UNL A   1      37.365  33.440  36.714  1.00  0.00    -0.041 Cl
ENDBRANCH  16  19
ENDBRANCH  13  16
ENDBRANCH  10  13
ENDBRANCH   9  10
ENDBRANCH   4   9
ENDBRANCH   2   4
ENDBRANCH   1   2
BRANCH   1  23
ATOM     23  C   UNL A   1      33.202  34.983  28.677  1.00  0.00     0.274 C 
BRANCH  23  24
ATOM     24  C   UNL A   1      33.185  33.609  27.994  1.00  0.00     0.275 C 
BRANCH  24  25
ATOM     25  O   UNL A   1      34.490  33.008  27.922  1.00  0.00    -0.458 OA
BRANCH  25  26
ATOM     26  C   UNL A   1      34.482  31.654  27.916  1.00  0.00     0.338 C 
ATOM     27  O   UNL A   1      33.527  30.938  27.659  1.00  0.00    -0.246 OA
BRANCH  26  28
ATOM     28  C   UNL A   1      35.836  31.108  28.139  1.00  0.00     0.060 A 
ATOM     29  C   UNL A   1      35.962  29.717  28.211  1.00  0.00     0.016 A 
ATOM     30  C   UNL A   1      36.942  31.928  28.375  1.00  0.00     0.016 A 
ATOM     31  C   UNL A   1      37.172  29.137  28.571  1.00  0.00     0.010 A 
ATOM     32  C   UNL A   1      38.162  31.344  28.739  1.00  0.00     0.010 A 
ATOM     33  C   UNL A   1      38.270  29.948  28.875  1.00  0.00    -0.014 A 
BRANCH  33  34
ATOM     34  C   UNL A   1      39.477  29.325  29.467  1.00  0.00     0.031 A 
ATOM     35  C   UNL A   1      39.967  29.804  30.805  1.00  0.00     0.074 A 
ATOM     36  C   UNL A   1      40.085  28.296  28.852  1.00  0.00     0.049 A 
ATOM     37  N   UNL A   1      40.992  29.395  31.509  1.00  0.00    -0.248 NA
ATOM     38  C   UNL A   1      39.198  30.889  31.436  1.00  0.00     0.031 C 
ATOM     39  C   UNL A   1      39.675  27.711  27.578  1.00  0.00     0.029 A 
ATOM     40  N   UNL A   1      41.177  27.557  29.229  1.00  0.00    -0.354 N 
ATOM     41  C   UNL A   1      41.000  30.180  32.654  1.00  0.00     0.074 A 
ATOM     42  C   UNL A   1      39.892  31.103  32.544  1.00  0.00     0.031 C 
ATOM     43  C   UNL A   1      40.500  26.693  27.280  1.00  0.00     0.029 A 
ATOM     44  C   UNL A   1      41.512  26.576  28.329  1.00  0.00     0.049 A 
ATOM     45  H   UNL A   1      41.672  27.713  30.065  1.00  0.00     0.167 HD
ATOM     46  C   UNL A   1      41.851  30.131  33.707  1.00  0.00     0.037 A 
ATOM     47  C   UNL A   1      42.526  25.690  28.348  1.00  0.00     0.037 A 
ATOM     48  C   UNL A   1      42.940  29.199  33.828  1.00  0.00     0.049 A 
ATOM     49  C   UNL A   1      43.481  25.684  29.510  1.00  0.00     0.074 A 
ATOM     50  C   UNL A   1      43.848  29.062  34.864  1.00  0.00     0.029 A 
ATOM     51  N   UNL A   1      43.267  28.242  32.880  1.00  0.00    -0.354 N 
ATOM     52  N   UNL A   1      43.477  26.427  30.589  1.00  0.00    -0.248 NA
ATOM     53  C   UNL A   1      44.583  24.712  29.454  1.00  0.00     0.031 C 
ATOM     54  C   UNL A   1      44.745  28.042  34.527  1.00  0.00     0.029 A 
ATOM     55  C   UNL A   1      44.373  27.520  33.299  1.00  0.00     0.049 A 
ATOM     56  H   UNL A   1      42.785  28.097  32.034  1.00  0.00     0.167 HD
ATOM     57  C   UNL A   1      44.553  25.995  31.354  1.00  0.00     0.074 A 
ATOM     58  C   UNL A   1      45.184  24.919  30.617  1.00  0.00     0.031 C 
ATOM     59  C   UNL A   1      44.980  26.446  32.558  1.00  0.00     0.037 A 
BRANCH  46  60
ATOM     60  C   UNL A   1      41.649  31.137  34.799  1.00  0.00     0.057 A 
ATOM     61  C   UNL A   1      42.338  32.356  34.820  1.00  0.00     0.134 A 
ATOM     62  C   UNL A   1      40.740  30.888  35.834  1.00  0.00     0.134 A 
ATOM     63  F   UNL A   1      43.235  32.647  33.865  1.00  0.00    -0.206 F 
ATOM     64  C   UNL A   1      42.143  33.284  35.844  1.00  0.00     0.040 A 
ATOM     65  C   UNL A   1      40.521  31.816  36.852  1.00  0.00     0.040 A 
ATOM     66  F   UNL A   1      40.048  29.738  35.871  1.00  0.00    -0.206 F 
ATOM     67  C   UNL A   1      41.228  33.018  36.861  1.00  0.00     0.006 A 
ENDBRANCH  46  60
BRANCH  47  68
ATOM     68  C   UNL A   1      42.691  24.729  27.231  1.00  0.00     0.057 A 
ATOM     69  C   UNL A   1      43.454  25.054  26.105  1.00  0.00     0.134 A 
ATOM     70  C   UNL A   1      42.075  23.472  27.256  1.00  0.00     0.134 A 
ATOM     71  F   UNL A   1      44.048  26.253  26.015  1.00  0.00    -0.206 F 
ATOM     72  C   UNL A   1      43.588  24.169  25.034  1.00  0.00     0.040 A 
ATOM     73  C   UNL A   1      42.217  22.569  26.202  1.00  0.00     0.040 A 
ATOM     74  F   UNL A   1      41.329  23.104  28.308  1.00  0.00    -0.206 F 
ATOM     75  C   UNL A   1      42.971  22.920  25.083  1.00  0.00     0.006 A 
ENDBRANCH  47  68
BRANCH  59  76
ATOM     76  C   UNL A   1      46.159  25.751  33.170  1.00  0.00     0.057 A 
ATOM     77  C   UNL A   1      47.471  26.183  32.941  1.00  0.00     0.134 A 
ATOM     78  C   UNL A   1      45.976  24.653  34.021  1.00  0.00     0.134 A 
ATOM     79  F   UNL A   1      47.713  27.220  32.125  1.00  0.00    -0.206 F 
ATOM     80  C   UNL A   1      48.563  25.533  33.519  1.00  0.00     0.040 A 
ATOM     81  C   UNL A   1      47.057  24.009  34.622  1.00  0.00     0.040 A 
ATOM     82  F   UNL A   1      44.744  24.196  34.286  1.00  0.00    -0.206 F 
ATOM     83  C   UNL A   1      48.355  24.445  34.367  1.00  0.00     0.006 A 
ENDBRANCH  59  76
ENDBRANCH  33  34
ENDBRANCH  26  28
ENDBRANCH  25  26
ENDBRANCH  24  25
ENDBRANCH  23  24
ENDBRANCH   1  23
TORSDOF 17
ENDMDL
MODEL 3
REMARK VINA RESULT:     -10.3      1.865      6.689
REMARK SMILES [NH3+][C@H](CC(F)(F)C(F)(F)C(F)(F)C(F)(F)Cl)C(=O)OCCOC(=O)c1ccc(-c2c3nc(c(-c4c(F)cccc4F)c4ccc([nH]4)c(-c4c(F)cccc4F)c4nc(c(-c5c(F)cccc5F)c5ccc2[nH]5)C=C4)C=C3)cc1
REMARK SMILES IDX 19 1 17 2 18 3 2 4 1 5 3 9 4 10 5 11 6 12 7 13 8 14 9 15
REMARK SMILES IDX 10 16 11 17 12 18 13 19 14 20 15 21 16 22 20 23 21 24 22 25
REMARK SMILES IDX 23 26 24 27 25 28 26 29 78 30 27 31 77 32 28 33 29 34 30 35
REMARK SMILES IDX 71 36 31 37 76 38 70 39 72 40 32 41 75 42 69 43 68 44 33 46
REMARK SMILES IDX 59 47 42 48 58 49 43 50 46 51 57 52 73 53 44 54 45 55 56 57
REMARK SMILES IDX 74 58 47 59 34 60 35 61 40 62 36 63 37 64 39 65 41 66 38 67
REMARK SMILES IDX 60 68 61 69 66 70 62 71 63 72 65 73 67 74 64 75 48 76 49 77
REMARK SMILES IDX 54 78 50 79 51 80 53 81 55 82 52 83
REMARK H PARENT 1 6 1 7 1 8 72 45 46 56
REMARK Flexibility Score: inf
ROOT
ATOM      1  O   UNL A   1      45.881  21.264  25.517  1.00  0.00    -0.458 OA
ENDROOT
BRANCH   1   2
ATOM      2  C   UNL A   1      46.287  20.037  25.088  1.00  0.00     0.365 C 
ATOM      3  O   UNL A   1      47.139  19.844  24.227  1.00  0.00    -0.245 OA
BRANCH   2   4
ATOM      4  C   UNL A   1      45.483  18.894  25.716  1.00  0.00     0.298 C 
BRANCH   4   5
ATOM      5  N   UNL A   1      46.252  17.634  25.681  1.00  0.00    -0.346 N 
ATOM      6  H   UNL A   1      45.610  16.846  25.596  1.00  0.00     0.345 HD
ATOM      7  H   UNL A   1      46.793  17.542  26.541  1.00  0.00     0.345 HD
ATOM      8  H   UNL A   1      46.885  17.645  24.881  1.00  0.00     0.345 HD
ENDBRANCH   4   5
BRANCH   4   9
ATOM      9  C   UNL A   1      44.099  18.657  25.115  1.00  0.00     0.161 C 
BRANCH   9  10
ATOM     10  C   UNL A   1      42.964  18.884  26.119  1.00  0.00     0.323 C 
ATOM     11  F   UNL A   1      41.930  18.075  25.744  1.00  0.00    -0.199 F 
ATOM     12  F   UNL A   1      43.384  18.399  27.323  1.00  0.00    -0.199 F 
BRANCH  10  13
ATOM     13  C   UNL A   1      42.464  20.323  26.280  1.00  0.00     0.379 C 
ATOM     14  F   UNL A   1      43.216  20.972  27.211  1.00  0.00    -0.192 F 
ATOM     15  F   UNL A   1      42.625  21.004  25.111  1.00  0.00    -0.192 F 
BRANCH  13  16
ATOM     16  C   UNL A   1      41.001  20.375  26.668  1.00  0.00     0.392 C 
ATOM     17  F   UNL A   1      40.230  19.756  25.729  1.00  0.00    -0.191 F 
ATOM     18  F   UNL A   1      40.789  19.700  27.833  1.00  0.00    -0.191 F 
BRANCH  16  19
ATOM     19  C   UNL A   1      40.576  21.834  26.806  1.00  0.00     0.390 C 
ATOM     20  F   UNL A   1      40.663  22.257  28.094  1.00  0.00    -0.181 F 
ATOM     21  F   UNL A   1      41.387  22.653  26.083  1.00  0.00    -0.181 F 
ATOM     22  Cl  UNL A   1      38.902  22.102  26.245  1.00  0.00    -0.041 Cl
ENDBRANCH  16  19
ENDBRANCH  13  16
ENDBRANCH  10  13
ENDBRANCH   9  10
ENDBRANCH   4   9
ENDBRANCH   2   4
ENDBRANCH   1   2
BRANCH   1  23
ATOM     23  C   UNL A   1      46.092  22.341  24.582  1.00  0.00     0.274 C 
BRANCH  23  24
ATOM     24  C   UNL A   1      44.823  23.142  24.260  1.00  0.00     0.275 C 
BRANCH  24  25
ATOM     25  O   UNL A   1      44.316  23.861  25.398  1.00  0.00    -0.458 OA
BRANCH  25  26
ATOM     26  C   UNL A   1      44.646  25.173  25.423  1.00  0.00     0.338 C 
ATOM     27  O   UNL A   1      45.438  25.735  24.682  1.00  0.00    -0.246 OA
BRANCH  26  28
ATOM     28  C   UNL A   1      43.825  25.916  26.401  1.00  0.00     0.060 A 
ATOM     29  C   UNL A   1      44.040  27.294  26.504  1.00  0.00     0.016 A 
ATOM     30  C   UNL A   1      42.939  25.276  27.271  1.00  0.00     0.016 A 
ATOM     31  C   UNL A   1      43.419  28.032  27.505  1.00  0.00     0.010 A 
ATOM     32  C   UNL A   1      42.314  26.018  28.281  1.00  0.00     0.010 A 
ATOM     33  C   UNL A   1      42.581  27.391  28.423  1.00  0.00    -0.014 A 
BRANCH  33  34
ATOM     34  C   UNL A   1      42.109  28.148  29.607  1.00  0.00     0.031 A 
ATOM     35  C   UNL A   1      40.832  28.935  29.511  1.00  0.00     0.074 A 
ATOM     36  C   UNL A   1      42.773  28.075  30.772  1.00  0.00     0.049 A 
ATOM     37  N   UNL A   1      40.232  29.658  30.422  1.00  0.00    -0.248 NA
ATOM     38  C   UNL A   1      40.136  28.901  28.214  1.00  0.00     0.031 C 
ATOM     39  C   UNL A   1      43.994  27.306  31.003  1.00  0.00     0.029 A 
ATOM     40  N   UNL A   1      42.503  28.653  31.986  1.00  0.00    -0.354 N 
ATOM     41  C   UNL A   1      39.101  30.176  29.807  1.00  0.00     0.074 A 
ATOM     42  C   UNL A   1      39.105  29.704  28.440  1.00  0.00     0.031 C 
ATOM     43  C   UNL A   1      44.365  27.453  32.287  1.00  0.00     0.029 A 
ATOM     44  C   UNL A   1      43.423  28.347  32.956  1.00  0.00     0.049 A 
ATOM     45  H   UNL A   1      41.722  29.232  32.146  1.00  0.00     0.167 HD
ATOM     46  C   UNL A   1      38.139  30.971  30.336  1.00  0.00     0.037 A 
ATOM     47  C   UNL A   1      43.499  28.751  34.239  1.00  0.00     0.037 A 
ATOM     48  C   UNL A   1      38.120  31.424  31.701  1.00  0.00     0.049 A 
ATOM     49  C   UNL A   1      42.440  29.666  34.791  1.00  0.00     0.074 A 
ATOM     50  C   UNL A   1      37.180  32.218  32.334  1.00  0.00     0.029 A 
ATOM     51  N   UNL A   1      39.088  31.119  32.645  1.00  0.00    -0.354 N 
ATOM     52  N   UNL A   1      41.372  30.147  34.202  1.00  0.00    -0.248 NA
ATOM     53  C   UNL A   1      42.599  30.093  36.189  1.00  0.00     0.031 C 
ATOM     54  C   UNL A   1      37.598  32.421  33.654  1.00  0.00     0.029 A 
ATOM     55  C   UNL A   1      38.777  31.722  33.853  1.00  0.00     0.049 A 
ATOM     56  H   UNL A   1      39.880  30.556  32.482  1.00  0.00     0.167 HD
ATOM     57  C   UNL A   1      40.717  30.907  35.163  1.00  0.00     0.074 A 
ATOM     58  C   UNL A   1      41.505  30.818  36.375  1.00  0.00     0.031 C 
ATOM     59  C   UNL A   1      39.566  31.613  35.052  1.00  0.00     0.037 A 
BRANCH  46  60
ATOM     60  C   UNL A   1      37.041  31.420  29.421  1.00  0.00     0.057 A 
ATOM     61  C   UNL A   1      37.039  32.691  28.835  1.00  0.00     0.134 A 
ATOM     62  C   UNL A   1      35.980  30.561  29.110  1.00  0.00     0.134 A 
ATOM     63  F   UNL A   1      38.019  33.567  29.106  1.00  0.00    -0.206 F 
ATOM     64  C   UNL A   1      36.009  33.100  27.985  1.00  0.00     0.040 A 
ATOM     65  C   UNL A   1      34.955  30.950  28.247  1.00  0.00     0.040 A 
ATOM     66  F   UNL A   1      35.923  29.329  29.639  1.00  0.00    -0.206 F 
ATOM     67  C   UNL A   1      34.966  32.226  27.685  1.00  0.00     0.006 A 
ENDBRANCH  46  60
BRANCH  47  68
ATOM     68  C   UNL A   1      44.619  28.292  35.096  1.00  0.00     0.057 A 
ATOM     69  C   UNL A   1      44.500  27.144  35.886  1.00  0.00     0.134 A 
ATOM     70  C   UNL A   1      45.825  29.001  35.160  1.00  0.00     0.134 A 
ATOM     71  F   UNL A   1      43.359  26.439  35.885  1.00  0.00    -0.206 F 
ATOM     72  C   UNL A   1      45.535  26.723  36.722  1.00  0.00     0.040 A 
ATOM     73  C   UNL A   1      46.876  28.579  35.975  1.00  0.00     0.040 A 
ATOM     74  F   UNL A   1      45.998  30.110  34.427  1.00  0.00    -0.206 F 
ATOM     75  C   UNL A   1      46.730  27.440  36.764  1.00  0.00     0.006 A 
ENDBRANCH  47  68
BRANCH  59  76
ATOM     76  C   UNL A   1      39.071  32.311  36.283  1.00  0.00     0.057 A 
ATOM     77  C   UNL A   1      39.489  33.605  36.617  1.00  0.00     0.134 A 
ATOM     78  C   UNL A   1      38.143  31.689  37.129  1.00  0.00     0.134 A 
ATOM     79  F   UNL A   1      40.386  34.248  35.854  1.00  0.00    -0.206 F 
ATOM     80  C   UNL A   1      39.019  34.248  37.763  1.00  0.00     0.040 A 
ATOM     81  C   UNL A   1      37.649  32.331  38.264  1.00  0.00     0.040 A 
ATOM     82  F   UNL A   1      37.698  30.453  36.860  1.00  0.00    -0.206 F 
ATOM     83  C   UNL A   1      38.091  33.612  38.587  1.00  0.00     0.006 A 
ENDBRANCH  59  76
ENDBRANCH  33  34
ENDBRANCH  26  28
ENDBRANCH  25  26
ENDBRANCH  24  25
ENDBRANCH  23  24
ENDBRANCH   1  23
TORSDOF 17
ENDMDL
