MODEL 1
REMARK VINA RESULT:     -11.2      0.000      0.000
REMARK SMILES CCN(C(=O)Cc1c(C(=O)OCCOC(=O)c2ccc(-c3c4nc(c(-c5c(F)cccc5F)c5ccc([nH]5)c(-c5c(F)cccc5F)c5nc(c(-c6c(F)cccc6F)c6ccc3[nH]6)C=C5)C=C4)cc2)[nH]c2ccc(Cl)cc12)c1ccc(C)c(C)c1
REMARK SMILES IDX 12 1 11 2 9 3 10 4 8 5 7 6 78 7 71 8 72 9 77 10 73 12 75 13
REMARK SMILES IDX 74 14 76 15 6 16 4 17 5 18 3 19 2 20 1 21 79 22 80 23 86 24
REMARK SMILES IDX 81 25 84 26 82 27 85 28 83 29 13 30 14 31 15 32 16 33 17 34
REMARK SMILES IDX 18 35 70 36 19 37 69 38 20 39 21 40 22 41 63 42 23 43 68 44
REMARK SMILES IDX 62 45 64 46 24 47 67 48 61 49 60 50 25 52 51 53 34 54 50 55
REMARK SMILES IDX 35 56 38 57 49 58 65 59 36 60 37 61 48 63 66 64 39 65 26 66
REMARK SMILES IDX 27 67 32 68 28 69 29 70 31 71 33 72 30 73 52 74 53 75 58 76
REMARK SMILES IDX 54 77 55 78 57 79 59 80 56 81 40 82 41 83 46 84 42 85 43 86
REMARK SMILES IDX 45 87 47 88 44 89
REMARK H PARENT 71 11 64 51 38 62
REMARK Flexibility Score: inf
ROOT
ATOM      1  C   UNL A   1      32.769  28.326  25.729  1.00  0.00     0.275 C 
ENDROOT
BRANCH   1   2
ATOM      2  O   UNL A   1      33.441  27.050  25.786  1.00  0.00    -0.457 OA
BRANCH   2   3
ATOM      3  C   UNL A   1      33.356  26.283  24.667  1.00  0.00     0.355 C 
ATOM      4  O   UNL A   1      32.641  26.507  23.697  1.00  0.00    -0.244 OA
BRANCH   3   5
ATOM      5  C   UNL A   1      34.248  25.157  24.748  1.00  0.00     0.129 A 
ATOM      6  C   UNL A   1      34.247  23.927  24.094  1.00  0.00     0.002 A 
ATOM      7  C   UNL A   1      35.391  23.198  24.571  1.00  0.00     0.005 A 
ATOM      8  N   UNL A   1      35.407  25.220  25.486  1.00  0.00    -0.349 N 
ATOM      9  C   UNL A   1      36.088  24.032  25.443  1.00  0.00     0.046 A 
ATOM     10  C   UNL A   1      35.910  21.909  24.324  1.00  0.00     0.031 A 
ATOM     11  H   UNL A   1      35.709  26.016  25.980  1.00  0.00     0.167 HD
ATOM     12  C   UNL A   1      37.268  23.651  26.093  1.00  0.00     0.028 A 
ATOM     13  C   UNL A   1      37.085  21.512  24.972  1.00  0.00     0.041 A 
ATOM     14  C   UNL A   1      37.754  22.366  25.843  1.00  0.00     0.022 A 
ATOM     15  Cl  UNL A   1      37.719  19.935  24.685  1.00  0.00    -0.084 Cl
BRANCH   6  16
ATOM     16  C   UNL A   1      33.260  23.443  23.072  1.00  0.00     0.139 C 
BRANCH  16  17
ATOM     17  C   UNL A   1      31.928  23.002  23.680  1.00  0.00     0.231 C 
ATOM     18  O   UNL A   1      30.887  23.420  23.157  1.00  0.00    -0.274 OA
BRANCH  17  19
ATOM     19  N   UNL A   1      31.928  22.140  24.787  1.00  0.00    -0.312 N 
BRANCH  19  20
ATOM     20  C   UNL A   1      31.696  22.548  26.186  1.00  0.00     0.122 C 
ATOM     21  C   UNL A   1      31.044  23.911  26.371  1.00  0.00     0.028 C 
ENDBRANCH  19  20
BRANCH  19  22
ATOM     22  C   UNL A   1      32.390  20.792  24.622  1.00  0.00     0.044 A 
ATOM     23  C   UNL A   1      32.917  20.091  25.706  1.00  0.00     0.026 A 
ATOM     24  C   UNL A   1      32.222  20.120  23.408  1.00  0.00     0.030 A 
ATOM     25  C   UNL A   1      33.187  18.724  25.594  1.00  0.00     0.006 A 
ATOM     26  C   UNL A   1      32.511  18.752  23.271  1.00  0.00    -0.046 A 
ATOM     27  C   UNL A   1      32.954  18.033  24.394  1.00  0.00    -0.048 A 
ATOM     28  C   UNL A   1      32.301  18.101  21.931  1.00  0.00     0.044 C 
ATOM     29  C   UNL A   1      33.239  16.559  24.351  1.00  0.00     0.044 C 
ENDBRANCH  19  22
ENDBRANCH  17  19
ENDBRANCH  16  17
ENDBRANCH   6  16
ENDBRANCH   3   5
ENDBRANCH   2   3
ENDBRANCH   1   2
BRANCH   1  30
ATOM     30  C   UNL A   1      32.773  29.035  27.087  1.00  0.00     0.275 C 
BRANCH  30  31
ATOM     31  O   UNL A   1      34.093  28.958  27.634  1.00  0.00    -0.458 OA
BRANCH  31  32
ATOM     32  C   UNL A   1      34.672  30.101  28.057  1.00  0.00     0.338 C 
ATOM     33  O   UNL A   1      34.126  31.175  28.231  1.00  0.00    -0.246 OA
BRANCH  32  34
ATOM     34  C   UNL A   1      36.118  29.828  28.267  1.00  0.00     0.060 A 
ATOM     35  C   UNL A   1      37.041  30.037  27.233  1.00  0.00     0.016 A 
ATOM     36  C   UNL A   1      36.559  29.331  29.496  1.00  0.00     0.016 A 
ATOM     37  C   UNL A   1      38.394  29.761  27.415  1.00  0.00     0.010 A 
ATOM     38  C   UNL A   1      37.918  29.057  29.685  1.00  0.00     0.010 A 
ATOM     39  C   UNL A   1      38.838  29.254  28.640  1.00  0.00    -0.014 A 
BRANCH  39  40
ATOM     40  C   UNL A   1      40.231  28.771  28.766  1.00  0.00     0.031 A 
ATOM     41  C   UNL A   1      41.245  29.666  29.418  1.00  0.00     0.074 A 
ATOM     42  C   UNL A   1      40.586  27.534  28.374  1.00  0.00     0.049 A 
ATOM     43  N   UNL A   1      42.537  29.511  29.529  1.00  0.00    -0.248 NA
ATOM     44  C   UNL A   1      40.727  30.901  30.030  1.00  0.00     0.031 C 
ATOM     45  C   UNL A   1      39.689  26.529  27.806  1.00  0.00     0.029 A 
ATOM     46  N   UNL A   1      41.808  26.910  28.415  1.00  0.00    -0.354 N 
ATOM     47  C   UNL A   1      42.995  30.649  30.178  1.00  0.00     0.074 A 
ATOM     48  C   UNL A   1      41.840  31.472  30.465  1.00  0.00     0.031 C 
ATOM     49  C   UNL A   1      40.386  25.402  27.577  1.00  0.00     0.029 A 
ATOM     50  C   UNL A   1      41.783  25.620  27.947  1.00  0.00     0.049 A 
ATOM     51  H   UNL A   1      42.624  27.347  28.749  1.00  0.00     0.167 HD
ATOM     52  C   UNL A   1      44.266  30.988  30.492  1.00  0.00     0.037 A 
ATOM     53  C   UNL A   1      42.781  24.725  27.825  1.00  0.00     0.037 A 
ATOM     54  C   UNL A   1      45.414  30.169  30.228  1.00  0.00     0.049 A 
ATOM     55  C   UNL A   1      44.185  25.114  28.197  1.00  0.00     0.074 A 
ATOM     56  C   UNL A   1      46.754  30.467  30.406  1.00  0.00     0.029 A 
ATOM     57  N   UNL A   1      45.350  28.871  29.752  1.00  0.00    -0.354 N 
ATOM     58  N   UNL A   1      44.626  26.249  28.681  1.00  0.00    -0.248 NA
ATOM     59  C   UNL A   1      45.232  24.103  27.981  1.00  0.00     0.031 C 
ATOM     60  C   UNL A   1      47.503  29.339  30.047  1.00  0.00     0.029 A 
ATOM     61  C   UNL A   1      46.625  28.341  29.655  1.00  0.00     0.049 A 
ATOM     62  H   UNL A   1      44.521  28.394  29.518  1.00  0.00     0.167 HD
ATOM     63  C   UNL A   1      46.000  26.096  28.813  1.00  0.00     0.074 A 
ATOM     64  C   UNL A   1      46.318  24.750  28.385  1.00  0.00     0.031 C 
ATOM     65  C   UNL A   1      46.918  27.000  29.231  1.00  0.00     0.037 A 
BRANCH  52  66
ATOM     66  C   UNL A   1      44.465  32.329  31.117  1.00  0.00     0.057 A 
ATOM     67  C   UNL A   1      44.632  33.480  30.341  1.00  0.00     0.134 A 
ATOM     68  C   UNL A   1      44.515  32.462  32.510  1.00  0.00     0.134 A 
ATOM     69  F   UNL A   1      44.622  33.405  29.002  1.00  0.00    -0.206 F 
ATOM     70  C   UNL A   1      44.853  34.725  30.932  1.00  0.00     0.040 A 
ATOM     71  C   UNL A   1      44.727  33.702  33.112  1.00  0.00     0.040 A 
ATOM     72  F   UNL A   1      44.376  31.388  33.301  1.00  0.00    -0.206 F 
ATOM     73  C   UNL A   1      44.899  34.837  32.322  1.00  0.00     0.006 A 
ENDBRANCH  52  66
BRANCH  53  74
ATOM     74  C   UNL A   1      42.498  23.364  27.315  1.00  0.00     0.057 A 
ATOM     75  C   UNL A   1      42.085  22.349  28.184  1.00  0.00     0.134 A 
ATOM     76  C   UNL A   1      42.654  23.042  25.964  1.00  0.00     0.134 A 
ATOM     77  F   UNL A   1      41.942  22.598  29.494  1.00  0.00    -0.206 F 
ATOM     78  C   UNL A   1      41.840  21.054  27.726  1.00  0.00     0.040 A 
ATOM     79  C   UNL A   1      42.403  21.754  25.489  1.00  0.00     0.040 A 
ATOM     80  F   UNL A   1      43.056  23.976  25.089  1.00  0.00    -0.206 F 
ATOM     81  C   UNL A   1      41.998  20.755  26.374  1.00  0.00     0.006 A 
ENDBRANCH  53  74
BRANCH  65  82
ATOM     82  C   UNL A   1      48.347  26.564  29.237  1.00  0.00     0.057 A 
ATOM     83  C   UNL A   1      49.170  26.774  28.124  1.00  0.00     0.134 A 
ATOM     84  C   UNL A   1      48.915  25.971  30.369  1.00  0.00     0.134 A 
ATOM     85  F   UNL A   1      48.675  27.332  27.009  1.00  0.00    -0.206 F 
ATOM     86  C   UNL A   1      50.514  26.405  28.137  1.00  0.00     0.040 A 
ATOM     87  C   UNL A   1      50.260  25.602  30.396  1.00  0.00     0.040 A 
ATOM     88  F   UNL A   1      48.173  25.743  31.463  1.00  0.00    -0.206 F 
ATOM     89  C   UNL A   1      51.064  25.819  29.277  1.00  0.00     0.006 A 
ENDBRANCH  65  82
ENDBRANCH  39  40
ENDBRANCH  32  34
ENDBRANCH  31  32
ENDBRANCH  30  31
ENDBRANCH   1  30
TORSDOF 16
ENDMDL
MODEL 2
REMARK VINA RESULT:     -11.2      3.735      7.565
REMARK SMILES CCN(C(=O)Cc1c(C(=O)OCCOC(=O)c2ccc(-c3c4nc(c(-c5c(F)cccc5F)c5ccc([nH]5)c(-c5c(F)cccc5F)c5nc(c(-c6c(F)cccc6F)c6ccc3[nH]6)C=C5)C=C4)cc2)[nH]c2ccc(Cl)cc12)c1ccc(C)c(C)c1
REMARK SMILES IDX 12 1 11 2 9 3 10 4 8 5 7 6 78 7 71 8 72 9 77 10 73 12 75 13
REMARK SMILES IDX 74 14 76 15 6 16 4 17 5 18 3 19 2 20 1 21 79 22 80 23 86 24
REMARK SMILES IDX 81 25 84 26 82 27 85 28 83 29 13 30 14 31 15 32 16 33 17 34
REMARK SMILES IDX 18 35 70 36 19 37 69 38 20 39 21 40 22 41 63 42 23 43 68 44
REMARK SMILES IDX 62 45 64 46 24 47 67 48 61 49 60 50 25 52 51 53 34 54 50 55
REMARK SMILES IDX 35 56 38 57 49 58 65 59 36 60 37 61 48 63 66 64 39 65 26 66
REMARK SMILES IDX 27 67 32 68 28 69 29 70 31 71 33 72 30 73 52 74 53 75 58 76
REMARK SMILES IDX 54 77 55 78 57 79 59 80 56 81 40 82 41 83 46 84 42 85 43 86
REMARK SMILES IDX 45 87 47 88 44 89
REMARK H PARENT 71 11 64 51 38 62
REMARK Flexibility Score: inf
ROOT
ATOM      1  C   UNL A   1      31.736  28.843  25.949  1.00  0.00     0.275 C 
ENDROOT
BRANCH   1   2
ATOM      2  O   UNL A   1      32.084  27.744  26.818  1.00  0.00    -0.457 OA
BRANCH   2   3
ATOM      3  C   UNL A   1      31.552  26.537  26.492  1.00  0.00     0.355 C 
ATOM      4  O   UNL A   1      30.358  26.263  26.467  1.00  0.00    -0.244 OA
BRANCH   3   5
ATOM      5  C   UNL A   1      32.586  25.597  26.146  1.00  0.00     0.129 A 
ATOM      6  C   UNL A   1      33.551  25.612  25.142  1.00  0.00     0.002 A 
ATOM      7  C   UNL A   1      34.319  24.404  25.280  1.00  0.00     0.005 A 
ATOM      8  N   UNL A   1      32.840  24.498  26.933  1.00  0.00    -0.349 N 
ATOM      9  C   UNL A   1      33.843  23.730  26.403  1.00  0.00     0.046 A 
ATOM     10  C   UNL A   1      35.391  23.831  24.564  1.00  0.00     0.031 A 
ATOM     11  H   UNL A   1      32.364  24.290  27.769  1.00  0.00     0.167 HD
ATOM     12  C   UNL A   1      34.368  22.510  26.848  1.00  0.00     0.028 A 
ATOM     13  C   UNL A   1      35.921  22.609  24.992  1.00  0.00     0.041 A 
ATOM     14  C   UNL A   1      35.419  21.957  26.114  1.00  0.00     0.022 A 
ATOM     15  Cl  UNL A   1      37.223  21.896  24.115  1.00  0.00    -0.084 Cl
BRANCH   6  16
ATOM     16  C   UNL A   1      33.775  26.682  24.113  1.00  0.00     0.139 C 
BRANCH  16  17
ATOM     17  C   UNL A   1      33.086  26.390  22.779  1.00  0.00     0.231 C 
ATOM     18  O   UNL A   1      33.797  26.290  21.770  1.00  0.00    -0.274 OA
BRANCH  17  19
ATOM     19  N   UNL A   1      31.693  26.236  22.743  1.00  0.00    -0.312 N 
BRANCH  19  20
ATOM     20  C   UNL A   1      30.980  24.976  22.454  1.00  0.00     0.122 C 
ATOM     21  C   UNL A   1      30.824  24.026  23.634  1.00  0.00     0.028 C 
ENDBRANCH  19  20
BRANCH  19  22
ATOM     22  C   UNL A   1      30.859  27.403  22.776  1.00  0.00     0.044 A 
ATOM     23  C   UNL A   1      31.345  28.629  22.323  1.00  0.00     0.026 A 
ATOM     24  C   UNL A   1      29.517  27.315  23.159  1.00  0.00     0.030 A 
ATOM     25  C   UNL A   1      30.480  29.716  22.177  1.00  0.00     0.006 A 
ATOM     26  C   UNL A   1      28.639  28.405  23.041  1.00  0.00    -0.046 A 
ATOM     27  C   UNL A   1      29.117  29.608  22.496  1.00  0.00    -0.048 A 
ATOM     28  C   UNL A   1      27.209  28.228  23.472  1.00  0.00     0.044 C 
ATOM     29  C   UNL A   1      28.236  30.808  22.287  1.00  0.00     0.044 C 
ENDBRANCH  19  22
ENDBRANCH  17  19
ENDBRANCH  16  17
ENDBRANCH   6  16
ENDBRANCH   3   5
ENDBRANCH   2   3
ENDBRANCH   1   2
BRANCH   1  30
ATOM     30  C   UNL A   1      31.698  30.176  26.702  1.00  0.00     0.275 C 
BRANCH  30  31
ATOM     31  O   UNL A   1      32.856  30.935  26.338  1.00  0.00    -0.458 OA
BRANCH  31  32
ATOM     32  C   UNL A   1      33.253  31.924  27.166  1.00  0.00     0.338 C 
ATOM     33  O   UNL A   1      32.678  32.977  27.373  1.00  0.00    -0.246 OA
BRANCH  32  34
ATOM     34  C   UNL A   1      34.538  31.509  27.787  1.00  0.00     0.060 A 
ATOM     35  C   UNL A   1      34.761  30.170  28.139  1.00  0.00     0.016 A 
ATOM     36  C   UNL A   1      35.522  32.464  28.048  1.00  0.00     0.016 A 
ATOM     37  C   UNL A   1      35.953  29.778  28.743  1.00  0.00     0.010 A 
ATOM     38  C   UNL A   1      36.724  32.074  28.650  1.00  0.00     0.010 A 
ATOM     39  C   UNL A   1      36.937  30.733  29.016  1.00  0.00    -0.014 A 
BRANCH  39  40
ATOM     40  C   UNL A   1      38.110  30.356  29.836  1.00  0.00     0.031 A 
ATOM     41  C   UNL A   1      39.186  29.519  29.207  1.00  0.00     0.074 A 
ATOM     42  C   UNL A   1      38.259  30.800  31.096  1.00  0.00     0.049 A 
ATOM     43  N   UNL A   1      40.235  28.968  29.758  1.00  0.00    -0.248 NA
ATOM     44  C   UNL A   1      39.060  29.273  27.761  1.00  0.00     0.031 C 
ATOM     45  C   UNL A   1      37.338  31.690  31.802  1.00  0.00     0.029 A 
ATOM     46  N   UNL A   1      39.266  30.571  32.001  1.00  0.00    -0.354 N 
ATOM     47  C   UNL A   1      40.869  28.271  28.739  1.00  0.00     0.074 A 
ATOM     48  C   UNL A   1      40.105  28.493  27.530  1.00  0.00     0.031 C 
ATOM     49  C   UNL A   1      37.837  31.953  33.024  1.00  0.00     0.029 A 
ATOM     50  C   UNL A   1      39.091  31.222  33.197  1.00  0.00     0.049 A 
ATOM     51  H   UNL A   1      40.039  29.993  31.810  1.00  0.00     0.167 HD
ATOM     52  C   UNL A   1      41.978  27.500  28.807  1.00  0.00     0.037 A 
ATOM     53  C   UNL A   1      39.855  31.217  34.305  1.00  0.00     0.037 A 
ATOM     54  C   UNL A   1      42.750  27.291  29.997  1.00  0.00     0.049 A 
ATOM     55  C   UNL A   1      41.095  30.368  34.354  1.00  0.00     0.074 A 
ATOM     56  C   UNL A   1      43.825  26.443  30.198  1.00  0.00     0.029 A 
ATOM     57  N   UNL A   1      42.542  27.966  31.188  1.00  0.00    -0.354 N 
ATOM     58  N   UNL A   1      41.607  29.601  33.424  1.00  0.00    -0.248 NA
ATOM     59  C   UNL A   1      41.848  30.368  35.618  1.00  0.00     0.031 C 
ATOM     60  C   UNL A   1      44.277  26.615  31.513  1.00  0.00     0.029 A 
ATOM     61  C   UNL A   1      43.485  27.575  32.122  1.00  0.00     0.049 A 
ATOM     62  H   UNL A   1      41.830  28.626  31.347  1.00  0.00     0.167 HD
ATOM     63  C   UNL A   1      42.730  29.015  33.993  1.00  0.00     0.074 A 
ATOM     64  C   UNL A   1      42.843  29.535  35.339  1.00  0.00     0.031 C 
ATOM     65  C   UNL A   1      43.581  28.109  33.453  1.00  0.00     0.037 A 
BRANCH  52  66
ATOM     66  C   UNL A   1      42.379  26.796  27.553  1.00  0.00     0.057 A 
ATOM     67  C   UNL A   1      41.926  25.508  27.260  1.00  0.00     0.134 A 
ATOM     68  C   UNL A   1      43.251  27.409  26.644  1.00  0.00     0.134 A 
ATOM     69  F   UNL A   1      41.113  24.863  28.111  1.00  0.00    -0.206 F 
ATOM     70  C   UNL A   1      42.334  24.842  26.104  1.00  0.00     0.040 A 
ATOM     71  C   UNL A   1      43.660  26.758  25.481  1.00  0.00     0.040 A 
ATOM     72  F   UNL A   1      43.729  28.639  26.884  1.00  0.00    -0.206 F 
ATOM     73  C   UNL A   1      43.202  25.469  25.210  1.00  0.00     0.006 A 
ENDBRANCH  52  66
BRANCH  53  74
ATOM     74  C   UNL A   1      39.469  32.037  35.475  1.00  0.00     0.057 A 
ATOM     75  C   UNL A   1      39.994  33.322  35.649  1.00  0.00     0.134 A 
ATOM     76  C   UNL A   1      38.594  31.552  36.451  1.00  0.00     0.134 A 
ATOM     77  F   UNL A   1      40.856  33.826  34.754  1.00  0.00    -0.206 F 
ATOM     78  C   UNL A   1      39.662  34.099  36.760  1.00  0.00     0.040 A 
ATOM     79  C   UNL A   1      38.246  32.321  37.562  1.00  0.00     0.040 A 
ATOM     80  F   UNL A   1      38.069  30.324  36.338  1.00  0.00    -0.206 F 
ATOM     81  C   UNL A   1      38.784  33.598  37.720  1.00  0.00     0.006 A 
ENDBRANCH  53  74
BRANCH  65  82
ATOM     82  C   UNL A   1      44.695  27.621  34.321  1.00  0.00     0.057 A 
ATOM     83  C   UNL A   1      45.925  28.289  34.359  1.00  0.00     0.134 A 
ATOM     84  C   UNL A   1      44.528  26.508  35.152  1.00  0.00     0.134 A 
ATOM     85  F   UNL A   1      46.143  29.357  33.577  1.00  0.00    -0.206 F 
ATOM     86  C   UNL A   1      46.955  27.862  35.195  1.00  0.00     0.040 A 
ATOM     87  C   UNL A   1      45.550  26.075  35.997  1.00  0.00     0.040 A 
ATOM     88  F   UNL A   1      43.371  25.829  35.154  1.00  0.00    -0.206 F 
ATOM     89  C   UNL A   1      46.768  26.753  36.020  1.00  0.00     0.006 A 
ENDBRANCH  65  82
ENDBRANCH  39  40
ENDBRANCH  32  34
ENDBRANCH  31  32
ENDBRANCH  30  31
ENDBRANCH   1  30
TORSDOF 16
ENDMDL
MODEL 3
REMARK VINA RESULT:     -11.0      3.116      6.891
REMARK SMILES CCN(C(=O)Cc1c(C(=O)OCCOC(=O)c2ccc(-c3c4nc(c(-c5c(F)cccc5F)c5ccc([nH]5)c(-c5c(F)cccc5F)c5nc(c(-c6c(F)cccc6F)c6ccc3[nH]6)C=C5)C=C4)cc2)[nH]c2ccc(Cl)cc12)c1ccc(C)c(C)c1
REMARK SMILES IDX 12 1 11 2 9 3 10 4 8 5 7 6 78 7 71 8 72 9 77 10 73 12 75 13
REMARK SMILES IDX 74 14 76 15 6 16 4 17 5 18 3 19 2 20 1 21 79 22 80 23 86 24
REMARK SMILES IDX 81 25 84 26 82 27 85 28 83 29 13 30 14 31 15 32 16 33 17 34
REMARK SMILES IDX 18 35 70 36 19 37 69 38 20 39 21 40 22 41 63 42 23 43 68 44
REMARK SMILES IDX 62 45 64 46 24 47 67 48 61 49 60 50 25 52 51 53 34 54 50 55
REMARK SMILES IDX 35 56 38 57 49 58 65 59 36 60 37 61 48 63 66 64 39 65 26 66
REMARK SMILES IDX 27 67 32 68 28 69 29 70 31 71 33 72 30 73 52 74 53 75 58 76
REMARK SMILES IDX 54 77 55 78 57 79 59 80 56 81 40 82 41 83 46 84 42 85 43 86
REMARK SMILES IDX 45 87 47 88 44 89
REMARK H PARENT 71 11 64 51 38 62
REMARK Flexibility Score: inf
ROOT
ATOM      1  C   UNL A   1      34.629  21.473  26.653  1.00  0.00     0.275 C 
ENDROOT
BRANCH   1   2
ATOM      2  O   UNL A   1      34.267  20.786  25.436  1.00  0.00    -0.457 OA
BRANCH   2   3
ATOM      3  C   UNL A   1      32.940  20.557  25.255  1.00  0.00     0.355 C 
ATOM      4  O   UNL A   1      32.393  19.460  25.270  1.00  0.00    -0.244 OA
BRANCH   3   5
ATOM      5  C   UNL A   1      32.227  21.792  25.065  1.00  0.00     0.129 A 
ATOM      6  C   UNL A   1      32.005  22.566  23.928  1.00  0.00     0.002 A 
ATOM      7  C   UNL A   1      31.218  23.698  24.339  1.00  0.00     0.005 A 
ATOM      8  N   UNL A   1      31.501  22.359  26.087  1.00  0.00    -0.349 N 
ATOM      9  C   UNL A   1      30.929  23.540  25.693  1.00  0.00     0.046 A 
ATOM     10  C   UNL A   1      30.707  24.834  23.677  1.00  0.00     0.031 A 
ATOM     11  H   UNL A   1      31.405  21.968  26.985  1.00  0.00     0.167 HD
ATOM     12  C   UNL A   1      30.168  24.456  26.429  1.00  0.00     0.028 A 
ATOM     13  C   UNL A   1      29.950  25.763  24.401  1.00  0.00     0.041 A 
ATOM     14  C   UNL A   1      29.685  25.579  25.754  1.00  0.00     0.022 A 
ATOM     15  Cl  UNL A   1      29.333  27.159  23.602  1.00  0.00    -0.084 Cl
BRANCH   6  16
ATOM     16  C   UNL A   1      32.473  22.283  22.531  1.00  0.00     0.139 C 
BRANCH  16  17
ATOM     17  C   UNL A   1      33.380  23.376  21.965  1.00  0.00     0.231 C 
ATOM     18  O   UNL A   1      33.272  23.653  20.762  1.00  0.00    -0.274 OA
BRANCH  17  19
ATOM     19  N   UNL A   1      34.284  24.029  22.815  1.00  0.00    -0.312 N 
BRANCH  19  20
ATOM     20  C   UNL A   1      35.395  23.380  23.540  1.00  0.00     0.122 C 
ATOM     21  C   UNL A   1      36.577  22.953  22.681  1.00  0.00     0.028 C 
ENDBRANCH  19  20
BRANCH  19  22
ATOM     22  C   UNL A   1      34.024  25.384  23.204  1.00  0.00     0.044 A 
ATOM     23  C   UNL A   1      33.656  26.332  22.250  1.00  0.00     0.026 A 
ATOM     24  C   UNL A   1      34.026  25.756  24.552  1.00  0.00     0.030 A 
ATOM     25  C   UNL A   1      33.218  27.597  22.650  1.00  0.00     0.006 A 
ATOM     26  C   UNL A   1      33.612  27.032  24.970  1.00  0.00    -0.046 A 
ATOM     27  C   UNL A   1      33.155  27.949  24.008  1.00  0.00    -0.048 A 
ATOM     28  C   UNL A   1      33.641  27.354  26.439  1.00  0.00     0.044 C 
ATOM     29  C   UNL A   1      32.647  29.316  24.370  1.00  0.00     0.044 C 
ENDBRANCH  19  22
ENDBRANCH  17  19
ENDBRANCH  16  17
ENDBRANCH   6  16
ENDBRANCH   3   5
ENDBRANCH   2   3
ENDBRANCH   1   2
BRANCH   1  30
ATOM     30  C   UNL A   1      36.064  22.008  26.601  1.00  0.00     0.275 C 
BRANCH  30  31
ATOM     31  O   UNL A   1      36.728  21.414  25.481  1.00  0.00    -0.458 OA
BRANCH  31  32
ATOM     32  C   UNL A   1      38.035  21.101  25.611  1.00  0.00     0.338 C 
ATOM     33  O   UNL A   1      38.559  20.033  25.353  1.00  0.00    -0.246 OA
BRANCH  32  34
ATOM     34  C   UNL A   1      38.738  22.299  26.141  1.00  0.00     0.060 A 
ATOM     35  C   UNL A   1      38.291  23.589  25.820  1.00  0.00     0.016 A 
ATOM     36  C   UNL A   1      39.870  22.140  26.942  1.00  0.00     0.016 A 
ATOM     37  C   UNL A   1      38.959  24.715  26.294  1.00  0.00     0.010 A 
ATOM     38  C   UNL A   1      40.542  23.270  27.425  1.00  0.00     0.010 A 
ATOM     39  C   UNL A   1      40.099  24.561  27.088  1.00  0.00    -0.014 A 
BRANCH  39  40
ATOM     40  C   UNL A   1      40.922  25.746  27.420  1.00  0.00     0.031 A 
ATOM     41  C   UNL A   1      40.341  26.790  28.328  1.00  0.00     0.074 A 
ATOM     42  C   UNL A   1      42.187  25.869  26.981  1.00  0.00     0.049 A 
ATOM     43  N   UNL A   1      40.821  27.961  28.657  1.00  0.00    -0.248 NA
ATOM     44  C   UNL A   1      39.047  26.468  28.951  1.00  0.00     0.031 C 
ATOM     45  C   UNL A   1      42.907  24.892  26.166  1.00  0.00     0.029 A 
ATOM     46  N   UNL A   1      43.099  26.874  27.185  1.00  0.00    -0.354 N 
ATOM     47  C   UNL A   1      39.866  28.535  29.486  1.00  0.00     0.074 A 
ATOM     48  C   UNL A   1      38.795  27.574  29.634  1.00  0.00     0.031 C 
ATOM     49  C   UNL A   1      44.161  25.334  25.961  1.00  0.00     0.029 A 
ATOM     50  C   UNL A   1      44.318  26.639  26.599  1.00  0.00     0.049 A 
ATOM     51  H   UNL A   1      42.898  27.687  27.702  1.00  0.00     0.167 HD
ATOM     52  C   UNL A   1      39.873  29.761  30.057  1.00  0.00     0.037 A 
ATOM     53  C   UNL A   1      45.428  27.401  26.575  1.00  0.00     0.037 A 
ATOM     54  C   UNL A   1      40.939  30.711  29.929  1.00  0.00     0.049 A 
ATOM     55  C   UNL A   1      45.421  28.753  27.233  1.00  0.00     0.074 A 
ATOM     56  C   UNL A   1      40.996  32.019  30.377  1.00  0.00     0.029 A 
ATOM     57  N   UNL A   1      42.156  30.439  29.328  1.00  0.00    -0.354 N 
ATOM     58  N   UNL A   1      44.458  29.344  27.896  1.00  0.00    -0.248 NA
ATOM     59  C   UNL A   1      46.651  29.553  27.116  1.00  0.00     0.031 C 
ATOM     60  C   UNL A   1      42.257  32.536  30.054  1.00  0.00     0.029 A 
ATOM     61  C   UNL A   1      42.983  31.545  29.414  1.00  0.00     0.049 A 
ATOM     62  H   UNL A   1      42.398  29.585  28.901  1.00  0.00     0.167 HD
ATOM     63  C   UNL A   1      44.957  30.587  28.261  1.00  0.00     0.074 A 
ATOM     64  C   UNL A   1      46.317  30.657  27.772  1.00  0.00     0.031 C 
ATOM     65  C   UNL A   1      44.333  31.590  28.924  1.00  0.00     0.037 A 
BRANCH  52  66
ATOM     66  C   UNL A   1      38.655  30.142  30.833  1.00  0.00     0.057 A 
ATOM     67  C   UNL A   1      38.535  29.850  32.194  1.00  0.00     0.134 A 
ATOM     68  C   UNL A   1      37.583  30.783  30.200  1.00  0.00     0.134 A 
ATOM     69  F   UNL A   1      39.519  29.210  32.843  1.00  0.00    -0.206 F 
ATOM     70  C   UNL A   1      37.379  30.177  32.904  1.00  0.00     0.040 A 
ATOM     71  C   UNL A   1      36.426  31.122  30.900  1.00  0.00     0.040 A 
ATOM     72  F   UNL A   1      37.640  31.072  28.891  1.00  0.00    -0.206 F 
ATOM     73  C   UNL A   1      36.321  30.816  32.256  1.00  0.00     0.006 A 
ENDBRANCH  52  66
BRANCH  53  74
ATOM     74  C   UNL A   1      46.648  26.912  25.895  1.00  0.00     0.057 A 
ATOM     75  C   UNL A   1      46.896  27.235  24.557  1.00  0.00     0.134 A 
ATOM     76  C   UNL A   1      47.575  26.097  26.552  1.00  0.00     0.134 A 
ATOM     77  F   UNL A   1      46.027  27.994  23.873  1.00  0.00    -0.206 F 
ATOM     78  C   UNL A   1      48.027  26.760  23.892  1.00  0.00     0.040 A 
ATOM     79  C   UNL A   1      48.715  25.623  25.903  1.00  0.00     0.040 A 
ATOM     80  F   UNL A   1      47.381  25.751  27.833  1.00  0.00    -0.206 F 
ATOM     81  C   UNL A   1      48.941  25.953  24.566  1.00  0.00     0.006 A 
ENDBRANCH  53  74
BRANCH  65  82
ATOM     82  C   UNL A   1      45.114  32.845  29.149  1.00  0.00     0.057 A 
ATOM     83  C   UNL A   1      45.914  33.002  30.288  1.00  0.00     0.134 A 
ATOM     84  C   UNL A   1      45.101  33.880  28.209  1.00  0.00     0.134 A 
ATOM     85  F   UNL A   1      45.957  32.044  31.225  1.00  0.00    -0.206 F 
ATOM     86  C   UNL A   1      46.674  34.154  30.484  1.00  0.00     0.040 A 
ATOM     87  C   UNL A   1      45.862  35.034  28.392  1.00  0.00     0.040 A 
ATOM     88  F   UNL A   1      44.351  33.783  27.101  1.00  0.00    -0.206 F 
ATOM     89  C   UNL A   1      46.652  35.173  29.533  1.00  0.00     0.006 A 
ENDBRANCH  65  82
ENDBRANCH  39  40
ENDBRANCH  32  34
ENDBRANCH  31  32
ENDBRANCH  30  31
ENDBRANCH   1  30
TORSDOF 16
ENDMDL
