MODEL 1
REMARK VINA RESULT:     -11.3      0.000      0.000
REMARK SMILES C[C@@H]1[C@H](C)CCC[C@H]1NC(=O)C[N@@H+]1CCC[C@@H]1C(=O)OCCOC(=O)c1ccc(-c2c3nc(c(-c4c(F)cccc4F)c4ccc([nH]4)c(-c4c(F)cccc4F)c4nc(c(-c5c(F)cccc5F)c5ccc2[nH]5)C=C4)C=C3)cc1
REMARK SMILES IDX 21 1 20 2 18 3 19 4 17 5 13 6 14 7 15 9 16 10 12 11 10 12
REMARK SMILES IDX 9 13 11 15 8 16 1 17 2 18 3 19 4 20 5 21 7 22 6 23 22 24
REMARK SMILES IDX 23 25 24 26 25 27 26 28 27 29 79 30 28 31 78 32 29 33 30 34
REMARK SMILES IDX 31 35 72 36 32 37 77 38 71 39 73 40 33 41 76 42 70 43 69 44
REMARK SMILES IDX 34 46 60 47 43 48 59 49 44 50 47 51 58 52 74 53 45 54 46 55
REMARK SMILES IDX 57 57 75 58 48 59 35 60 36 61 41 62 37 63 38 64 40 65 42 66
REMARK SMILES IDX 39 67 61 68 62 69 67 70 63 71 64 72 66 73 68 74 65 75 49 76
REMARK SMILES IDX 50 77 55 78 51 79 52 80 54 81 56 82 53 83
REMARK H PARENT 13 8 9 14 73 45 47 56
REMARK Flexibility Score: inf
ROOT
ATOM      1  C   UNL A   1      35.440  21.141  25.332  1.00  0.00     0.274 C 
ENDROOT
BRANCH   1   2
ATOM      2  O   UNL A   1      34.893  21.626  24.096  1.00  0.00    -0.458 OA
BRANCH   2   3
ATOM      3  C   UNL A   1      34.956  22.963  23.867  1.00  0.00     0.365 C 
ATOM      4  O   UNL A   1      35.945  23.661  24.064  1.00  0.00    -0.245 OA
BRANCH   3   5
ATOM      5  C   UNL A   1      33.654  23.491  23.247  1.00  0.00     0.295 C 
ATOM      6  N   UNL A   1      32.760  24.282  24.137  1.00  0.00    -0.315 N 
ATOM      7  C   UNL A   1      31.417  24.116  23.589  1.00  0.00     0.263 C 
ATOM      8  H   UNL A   1      33.070  25.253  24.121  1.00  0.00     0.349 HD
ATOM      9  C   UNL A   1      31.375  22.695  23.061  1.00  0.00     0.068 C 
ATOM     10  C   UNL A   1      32.760  22.490  22.496  1.00  0.00     0.083 C 
BRANCH   6  11
ATOM     11  C   UNL A   1      32.864  24.074  25.595  1.00  0.00     0.364 C 
BRANCH  11  12
ATOM     12  C   UNL A   1      31.938  24.927  26.464  1.00  0.00     0.275 C 
ATOM     13  N   UNL A   1      32.099  26.275  26.573  1.00  0.00    -0.348 N 
ATOM     14  H   UNL A   1      31.438  26.713  27.156  1.00  0.00     0.163 HD
ATOM     15  O   UNL A   1      31.010  24.427  27.106  1.00  0.00    -0.268 OA
BRANCH  13  16
ATOM     16  C   UNL A   1      33.075  27.194  25.982  1.00  0.00     0.085 C 
ATOM     17  C   UNL A   1      33.669  28.416  23.837  1.00  0.00     0.010 C 
ATOM     18  C   UNL A   1      32.532  27.798  24.662  1.00  0.00     0.011 C 
ATOM     19  C   UNL A   1      31.351  28.761  24.933  1.00  0.00    -0.009 C 
ATOM     20  C   UNL A   1      30.764  29.348  23.650  1.00  0.00     0.008 C 
ATOM     21  C   UNL A   1      31.738  29.861  25.926  1.00  0.00     0.004 C 
ATOM     22  C   UNL A   1      33.433  28.291  26.994  1.00  0.00     0.025 C 
ATOM     23  C   UNL A   1      32.291  29.282  27.226  1.00  0.00     0.002 C 
ENDBRANCH  13  16
ENDBRANCH  11  12
ENDBRANCH   6  11
ENDBRANCH   3   5
ENDBRANCH   2   3
ENDBRANCH   1   2
BRANCH   1  24
ATOM     24  C   UNL A   1      36.722  20.368  25.025  1.00  0.00     0.275 C 
BRANCH  24  25
ATOM     25  O   UNL A   1      37.842  21.277  25.002  1.00  0.00    -0.458 OA
BRANCH  25  26
ATOM     26  C   UNL A   1      38.890  20.904  25.772  1.00  0.00     0.338 C 
ATOM     27  O   UNL A   1      39.411  19.805  25.855  1.00  0.00    -0.246 OA
BRANCH  26  28
ATOM     28  C   UNL A   1      39.454  22.088  26.432  1.00  0.00     0.060 A 
ATOM     29  C   UNL A   1      38.937  23.334  26.078  1.00  0.00     0.016 A 
ATOM     30  C   UNL A   1      40.562  21.996  27.268  1.00  0.00     0.016 A 
ATOM     31  C   UNL A   1      39.549  24.504  26.507  1.00  0.00     0.010 A 
ATOM     32  C   UNL A   1      41.164  23.171  27.728  1.00  0.00     0.010 A 
ATOM     33  C   UNL A   1      40.679  24.431  27.325  1.00  0.00    -0.014 A 
BRANCH  33  34
ATOM     34  C   UNL A   1      41.416  25.670  27.670  1.00  0.00     0.031 A 
ATOM     35  C   UNL A   1      40.744  26.709  28.518  1.00  0.00     0.074 A 
ATOM     36  C   UNL A   1      42.688  25.842  27.270  1.00  0.00     0.049 A 
ATOM     37  N   UNL A   1      41.124  27.930  28.792  1.00  0.00    -0.248 NA
ATOM     38  C   UNL A   1      39.469  26.321  29.144  1.00  0.00     0.031 C 
ATOM     39  C   UNL A   1      43.485  24.865  26.527  1.00  0.00     0.029 A 
ATOM     40  N   UNL A   1      43.535  26.908  27.435  1.00  0.00    -0.354 N 
ATOM     41  C   UNL A   1      40.124  28.467  29.590  1.00  0.00     0.074 A 
ATOM     42  C   UNL A   1      39.117  27.441  29.760  1.00  0.00     0.031 C 
ATOM     43  C   UNL A   1      44.705  25.379  26.300  1.00  0.00     0.029 A 
ATOM     44  C   UNL A   1      44.753  26.739  26.825  1.00  0.00     0.049 A 
ATOM     45  H   UNL A   1      43.292  27.718  27.942  1.00  0.00     0.167 HD
ATOM     46  C   UNL A   1      40.052  29.708  30.128  1.00  0.00     0.037 A 
ATOM     47  C   UNL A   1      45.774  27.604  26.672  1.00  0.00     0.037 A 
ATOM     48  C   UNL A   1      41.064  30.716  29.968  1.00  0.00     0.049 A 
ATOM     49  C   UNL A   1      45.645  28.995  27.225  1.00  0.00     0.074 A 
ATOM     50  C   UNL A   1      41.060  32.028  30.408  1.00  0.00     0.029 A 
ATOM     51  N   UNL A   1      42.279  30.512  29.330  1.00  0.00    -0.354 N 
ATOM     52  N   UNL A   1      44.651  29.530  27.893  1.00  0.00    -0.248 NA
ATOM     53  C   UNL A   1      46.773  29.908  26.992  1.00  0.00     0.031 C 
ATOM     54  C   UNL A   1      42.268  32.622  30.025  1.00  0.00     0.029 A 
ATOM     55  C   UNL A   1      43.035  31.669  29.373  1.00  0.00     0.049 A 
ATOM     56  H   UNL A   1      42.559  29.668  28.908  1.00  0.00     0.167 HD
ATOM     57  C   UNL A   1      45.042  30.832  28.177  1.00  0.00     0.074 A 
ATOM     58  C   UNL A   1      46.369  31.002  27.620  1.00  0.00     0.031 C 
ATOM     59  C   UNL A   1      44.362  31.804  28.832  1.00  0.00     0.037 A 
BRANCH  46  60
ATOM     60  C   UNL A   1      38.818  30.046  30.907  1.00  0.00     0.057 A 
ATOM     61  C   UNL A   1      38.723  29.805  32.282  1.00  0.00     0.134 A 
ATOM     62  C   UNL A   1      37.715  30.633  30.273  1.00  0.00     0.134 A 
ATOM     63  F   UNL A   1      39.738  29.226  32.942  1.00  0.00    -0.206 F 
ATOM     64  C   UNL A   1      37.567  30.122  32.999  1.00  0.00     0.040 A 
ATOM     65  C   UNL A   1      36.562  30.973  30.983  1.00  0.00     0.040 A 
ATOM     66  F   UNL A   1      37.742  30.889  28.956  1.00  0.00    -0.206 F 
ATOM     67  C   UNL A   1      36.485  30.714  32.349  1.00  0.00     0.006 A 
ENDBRANCH  46  60
BRANCH  47  68
ATOM     68  C   UNL A   1      46.990  27.197  25.925  1.00  0.00     0.057 A 
ATOM     69  C   UNL A   1      48.077  26.604  26.578  1.00  0.00     0.134 A 
ATOM     70  C   UNL A   1      47.106  27.416  24.547  1.00  0.00     0.134 A 
ATOM     71  F   UNL A   1      48.036  26.392  27.902  1.00  0.00    -0.206 F 
ATOM     72  C   UNL A   1      49.241  26.258  25.890  1.00  0.00     0.040 A 
ATOM     73  C   UNL A   1      48.254  27.052  23.843  1.00  0.00     0.040 A 
ATOM     74  F   UNL A   1      46.099  27.981  23.865  1.00  0.00    -0.206 F 
ATOM     75  C   UNL A   1      49.329  26.477  24.517  1.00  0.00     0.006 A 
ENDBRANCH  47  68
BRANCH  59  76
ATOM     76  C   UNL A   1      45.065  33.112  29.023  1.00  0.00     0.057 A 
ATOM     77  C   UNL A   1      44.936  34.161  28.105  1.00  0.00     0.134 A 
ATOM     78  C   UNL A   1      45.860  33.331  30.155  1.00  0.00     0.134 A 
ATOM     79  F   UNL A   1      44.198  34.005  26.995  1.00  0.00    -0.206 F 
ATOM     80  C   UNL A   1      45.590  35.377  28.296  1.00  0.00     0.040 A 
ATOM     81  C   UNL A   1      46.505  34.550  30.366  1.00  0.00     0.040 A 
ATOM     82  F   UNL A   1      46.019  32.366  31.074  1.00  0.00    -0.206 F 
ATOM     83  C   UNL A   1      46.375  35.576  29.431  1.00  0.00     0.006 A 
ENDBRANCH  59  76
ENDBRANCH  33  34
ENDBRANCH  26  28
ENDBRANCH  25  26
ENDBRANCH  24  25
ENDBRANCH   1  24
TORSDOF 14
ENDMDL
MODEL 2
REMARK VINA RESULT:     -11.3      4.109      8.238
REMARK SMILES C[C@@H]1[C@H](C)CCC[C@H]1NC(=O)C[N@@H+]1CCC[C@@H]1C(=O)OCCOC(=O)c1ccc(-c2c3nc(c(-c4c(F)cccc4F)c4ccc([nH]4)c(-c4c(F)cccc4F)c4nc(c(-c5c(F)cccc5F)c5ccc2[nH]5)C=C4)C=C3)cc1
REMARK SMILES IDX 21 1 20 2 18 3 19 4 17 5 13 6 14 7 15 9 16 10 12 11 10 12
REMARK SMILES IDX 9 13 11 15 8 16 1 17 2 18 3 19 4 20 5 21 7 22 6 23 22 24
REMARK SMILES IDX 23 25 24 26 25 27 26 28 27 29 79 30 28 31 78 32 29 33 30 34
REMARK SMILES IDX 31 35 72 36 32 37 77 38 71 39 73 40 33 41 76 42 70 43 69 44
REMARK SMILES IDX 34 46 60 47 43 48 59 49 44 50 47 51 58 52 74 53 45 54 46 55
REMARK SMILES IDX 57 57 75 58 48 59 35 60 36 61 41 62 37 63 38 64 40 65 42 66
REMARK SMILES IDX 39 67 61 68 62 69 67 70 63 71 64 72 66 73 68 74 65 75 49 76
REMARK SMILES IDX 50 77 55 78 51 79 52 80 54 81 56 82 53 83
REMARK H PARENT 13 8 9 14 73 45 47 56
REMARK Flexibility Score: inf
ROOT
ATOM      1  C   UNL A   1      42.884  21.156  25.747  1.00  0.00     0.274 C 
ENDROOT
BRANCH   1   2
ATOM      2  O   UNL A   1      41.643  21.879  25.697  1.00  0.00    -0.458 OA
BRANCH   2   3
ATOM      3  C   UNL A   1      40.579  21.338  26.344  1.00  0.00     0.365 C 
ATOM      4  O   UNL A   1      40.397  20.136  26.508  1.00  0.00    -0.245 OA
BRANCH   3   5
ATOM      5  C   UNL A   1      39.660  22.423  26.924  1.00  0.00     0.295 C 
ATOM      6  N   UNL A   1      38.261  22.459  26.415  1.00  0.00    -0.315 N 
ATOM      7  C   UNL A   1      37.821  23.842  26.583  1.00  0.00     0.263 C 
ATOM      8  H   UNL A   1      37.704  21.805  26.962  1.00  0.00     0.349 HD
ATOM      9  C   UNL A   1      39.052  24.686  26.318  1.00  0.00     0.068 C 
ATOM     10  C   UNL A   1      40.172  23.872  26.921  1.00  0.00     0.083 C 
BRANCH   6  11
ATOM     11  C   UNL A   1      37.986  21.879  25.086  1.00  0.00     0.364 C 
BRANCH  11  12
ATOM     12  C   UNL A   1      37.125  20.614  25.070  1.00  0.00     0.275 C 
ATOM     13  N   UNL A   1      35.814  20.635  25.439  1.00  0.00    -0.348 N 
ATOM     14  H   UNL A   1      35.366  19.760  25.380  1.00  0.00     0.163 HD
ATOM     15  O   UNL A   1      37.586  19.522  24.726  1.00  0.00    -0.268 OA
BRANCH  13  16
ATOM     16  C   UNL A   1      34.948  21.718  25.907  1.00  0.00     0.085 C 
ATOM     17  C   UNL A   1      34.119  24.047  25.326  1.00  0.00     0.010 C 
ATOM     18  C   UNL A   1      34.660  22.726  24.764  1.00  0.00     0.011 C 
ATOM     19  C   UNL A   1      33.768  22.089  23.672  1.00  0.00    -0.009 C 
ATOM     20  C   UNL A   1      33.494  23.042  22.508  1.00  0.00     0.008 C 
ATOM     21  C   UNL A   1      32.467  21.535  24.260  1.00  0.00     0.004 C 
ATOM     22  C   UNL A   1      33.649  21.134  26.478  1.00  0.00     0.025 C 
ATOM     23  C   UNL A   1      32.733  20.553  25.399  1.00  0.00     0.002 C 
ENDBRANCH  13  16
ENDBRANCH  11  12
ENDBRANCH   6  11
ENDBRANCH   3   5
ENDBRANCH   2   3
ENDBRANCH   1   2
BRANCH   1  24
ATOM     24  C   UNL A   1      43.973  22.019  25.114  1.00  0.00     0.275 C 
BRANCH  24  25
ATOM     25  O   UNL A   1      43.426  23.305  24.755  1.00  0.00    -0.458 OA
BRANCH  25  26
ATOM     26  C   UNL A   1      44.161  24.366  25.159  1.00  0.00     0.338 C 
ATOM     27  O   UNL A   1      45.210  24.778  24.695  1.00  0.00    -0.246 OA
BRANCH  26  28
ATOM     28  C   UNL A   1      43.428  25.097  26.201  1.00  0.00     0.060 A 
ATOM     29  C   UNL A   1      42.943  26.365  25.881  1.00  0.00     0.016 A 
ATOM     30  C   UNL A   1      43.344  24.618  27.504  1.00  0.00     0.016 A 
ATOM     31  C   UNL A   1      42.418  27.193  26.864  1.00  0.00     0.010 A 
ATOM     32  C   UNL A   1      42.788  25.437  28.493  1.00  0.00     0.010 A 
ATOM     33  C   UNL A   1      42.351  26.740  28.183  1.00  0.00    -0.014 A 
BRANCH  33  34
ATOM     34  C   UNL A   1      41.923  27.668  29.257  1.00  0.00     0.031 A 
ATOM     35  C   UNL A   1      42.717  27.732  30.528  1.00  0.00     0.074 A 
ATOM     36  C   UNL A   1      40.866  28.481  29.077  1.00  0.00     0.049 A 
ATOM     37  N   UNL A   1      42.431  28.330  31.656  1.00  0.00    -0.248 NA
ATOM     38  C   UNL A   1      44.009  27.026  30.531  1.00  0.00     0.031 C 
ATOM     39  C   UNL A   1      40.074  28.585  27.851  1.00  0.00     0.029 A 
ATOM     40  N   UNL A   1      40.277  29.374  29.935  1.00  0.00    -0.354 N 
ATOM     41  C   UNL A   1      43.486  28.045  32.511  1.00  0.00     0.074 A 
ATOM     42  C   UNL A   1      44.422  27.222  31.775  1.00  0.00     0.031 C 
ATOM     43  C   UNL A   1      39.100  29.493  28.037  1.00  0.00     0.029 A 
ATOM     44  C   UNL A   1      39.164  29.984  29.410  1.00  0.00     0.049 A 
ATOM     45  H   UNL A   1      40.618  29.561  30.839  1.00  0.00     0.167 HD
ATOM     46  C   UNL A   1      43.656  28.434  33.797  1.00  0.00     0.037 A 
ATOM     47  C   UNL A   1      38.274  30.811  29.989  1.00  0.00     0.037 A 
ATOM     48  C   UNL A   1      42.729  29.266  34.516  1.00  0.00     0.049 A 
ATOM     49  C   UNL A   1      38.449  31.179  31.436  1.00  0.00     0.074 A 
ATOM     50  C   UNL A   1      42.765  29.660  35.843  1.00  0.00     0.029 A 
ATOM     51  N   UNL A   1      41.604  29.852  33.955  1.00  0.00    -0.354 N 
ATOM     52  N   UNL A   1      39.397  30.824  32.270  1.00  0.00    -0.248 NA
ATOM     53  C   UNL A   1      37.425  32.051  32.026  1.00  0.00     0.031 C 
ATOM     54  C   UNL A   1      41.654  30.476  36.087  1.00  0.00     0.029 A 
ATOM     55  C   UNL A   1      40.944  30.612  34.904  1.00  0.00     0.049 A 
ATOM     56  H   UNL A   1      41.319  29.742  33.019  1.00  0.00     0.167 HD
ATOM     57  C   UNL A   1      39.094  31.444  33.475  1.00  0.00     0.074 A 
ATOM     58  C   UNL A   1      37.882  32.209  33.259  1.00  0.00     0.031 C 
ATOM     59  C   UNL A   1      39.754  31.382  34.657  1.00  0.00     0.037 A 
BRANCH  46  60
ATOM     60  C   UNL A   1      44.871  27.928  34.512  1.00  0.00     0.057 A 
ATOM     61  C   UNL A   1      46.065  28.658  34.547  1.00  0.00     0.134 A 
ATOM     62  C   UNL A   1      44.841  26.701  35.186  1.00  0.00     0.134 A 
ATOM     63  F   UNL A   1      46.162  29.832  33.904  1.00  0.00    -0.206 F 
ATOM     64  C   UNL A   1      47.193  28.177  35.214  1.00  0.00     0.040 A 
ATOM     65  C   UNL A   1      45.956  26.218  35.873  1.00  0.00     0.040 A 
ATOM     66  F   UNL A   1      43.727  25.952  35.189  1.00  0.00    -0.206 F 
ATOM     67  C   UNL A   1      47.138  26.956  35.885  1.00  0.00     0.006 A 
ENDBRANCH  46  60
BRANCH  47  68
ATOM     68  C   UNL A   1      37.111  31.313  29.217  1.00  0.00     0.057 A 
ATOM     69  C   UNL A   1      37.093  32.612  28.696  1.00  0.00     0.134 A 
ATOM     70  C   UNL A   1      35.979  30.517  29.005  1.00  0.00     0.134 A 
ATOM     71  F   UNL A   1      38.137  33.431  28.888  1.00  0.00    -0.206 F 
ATOM     72  C   UNL A   1      35.986  33.107  28.005  1.00  0.00     0.040 A 
ATOM     73  C   UNL A   1      34.874  30.990  28.295  1.00  0.00     0.040 A 
ATOM     74  F   UNL A   1      35.934  29.264  29.480  1.00  0.00    -0.206 F 
ATOM     75  C   UNL A   1      34.874  32.292  27.799  1.00  0.00     0.006 A 
ENDBRANCH  47  68
BRANCH  59  76
ATOM     76  C   UNL A   1      39.205  32.201  35.783  1.00  0.00     0.057 A 
ATOM     77  C   UNL A   1      38.293  31.673  36.704  1.00  0.00     0.134 A 
ATOM     78  C   UNL A   1      39.617  33.528  35.961  1.00  0.00     0.134 A 
ATOM     79  F   UNL A   1      37.852  30.412  36.576  1.00  0.00    -0.206 F 
ATOM     80  C   UNL A   1      37.792  32.443  37.754  1.00  0.00     0.040 A 
ATOM     81  C   UNL A   1      39.137  34.302  37.018  1.00  0.00     0.040 A 
ATOM     82  F   UNL A   1      40.493  34.089  35.115  1.00  0.00    -0.206 F 
ATOM     83  C   UNL A   1      38.218  33.761  37.915  1.00  0.00     0.006 A 
ENDBRANCH  59  76
ENDBRANCH  33  34
ENDBRANCH  26  28
ENDBRANCH  25  26
ENDBRANCH  24  25
ENDBRANCH   1  24
TORSDOF 14
ENDMDL
MODEL 3
REMARK VINA RESULT:     -11.3      3.476      7.987
REMARK SMILES C[C@@H]1[C@H](C)CCC[C@H]1NC(=O)C[N@@H+]1CCC[C@@H]1C(=O)OCCOC(=O)c1ccc(-c2c3nc(c(-c4c(F)cccc4F)c4ccc([nH]4)c(-c4c(F)cccc4F)c4nc(c(-c5c(F)cccc5F)c5ccc2[nH]5)C=C4)C=C3)cc1
REMARK SMILES IDX 21 1 20 2 18 3 19 4 17 5 13 6 14 7 15 9 16 10 12 11 10 12
REMARK SMILES IDX 9 13 11 15 8 16 1 17 2 18 3 19 4 20 5 21 7 22 6 23 22 24
REMARK SMILES IDX 23 25 24 26 25 27 26 28 27 29 79 30 28 31 78 32 29 33 30 34
REMARK SMILES IDX 31 35 72 36 32 37 77 38 71 39 73 40 33 41 76 42 70 43 69 44
REMARK SMILES IDX 34 46 60 47 43 48 59 49 44 50 47 51 58 52 74 53 45 54 46 55
REMARK SMILES IDX 57 57 75 58 48 59 35 60 36 61 41 62 37 63 38 64 40 65 42 66
REMARK SMILES IDX 39 67 61 68 62 69 67 70 63 71 64 72 66 73 68 74 65 75 49 76
REMARK SMILES IDX 50 77 55 78 51 79 52 80 54 81 56 82 53 83
REMARK H PARENT 13 8 9 14 73 45 47 56
REMARK Flexibility Score: inf
ROOT
ATOM      1  C   UNL A   1      34.379  33.950  30.389  1.00  0.00     0.274 C 
ENDROOT
BRANCH   1   2
ATOM      2  O   UNL A   1      34.276  32.687  29.712  1.00  0.00    -0.458 OA
BRANCH   2   3
ATOM      3  C   UNL A   1      34.116  32.712  28.364  1.00  0.00     0.365 C 
ATOM      4  O   UNL A   1      33.439  33.534  27.755  1.00  0.00    -0.245 OA
BRANCH   3   5
ATOM      5  C   UNL A   1      34.955  31.626  27.675  1.00  0.00     0.295 C 
ATOM      6  N   UNL A   1      34.215  30.611  26.877  1.00  0.00    -0.315 N 
ATOM      7  C   UNL A   1      35.061  29.421  26.878  1.00  0.00     0.263 C 
ATOM      8  H   UNL A   1      34.070  30.984  25.939  1.00  0.00     0.349 HD
ATOM      9  C   UNL A   1      35.716  29.401  28.245  1.00  0.00     0.068 C 
ATOM     10  C   UNL A   1      35.977  30.860  28.530  1.00  0.00     0.083 C 
BRANCH   6  11
ATOM     11  C   UNL A   1      32.797  30.364  27.204  1.00  0.00     0.364 C 
BRANCH  11  12
ATOM     12  C   UNL A   1      31.780  30.755  26.129  1.00  0.00     0.275 C 
ATOM     13  N   UNL A   1      31.687  30.078  24.951  1.00  0.00    -0.348 N 
ATOM     14  H   UNL A   1      30.992  30.422  24.344  1.00  0.00     0.163 HD
ATOM     15  O   UNL A   1      31.006  31.704  26.285  1.00  0.00    -0.268 OA
BRANCH  13  16
ATOM     16  C   UNL A   1      32.431  28.935  24.420  1.00  0.00     0.085 C 
ATOM     17  C   UNL A   1      33.155  26.561  24.956  1.00  0.00     0.010 C 
ATOM     18  C   UNL A   1      32.103  27.646  25.218  1.00  0.00     0.011 C 
ATOM     19  C   UNL A   1      30.646  27.191  24.966  1.00  0.00    -0.009 C 
ATOM     20  C   UNL A   1      30.273  25.943  25.767  1.00  0.00     0.008 C 
ATOM     21  C   UNL A   1      30.365  27.001  23.472  1.00  0.00     0.004 C 
ATOM     22  C   UNL A   1      32.120  28.762  22.926  1.00  0.00     0.025 C 
ATOM     23  C   UNL A   1      30.699  28.256  22.669  1.00  0.00     0.002 C 
ENDBRANCH  13  16
ENDBRANCH  11  12
ENDBRANCH   6  11
ENDBRANCH   3   5
ENDBRANCH   2   3
ENDBRANCH   1   2
BRANCH   1  24
ATOM     24  C   UNL A   1      34.479  33.688  31.890  1.00  0.00     0.275 C 
BRANCH  24  25
ATOM     25  O   UNL A   1      34.862  32.316  32.119  1.00  0.00    -0.458 OA
BRANCH  25  26
ATOM     26  C   UNL A   1      36.021  32.157  32.796  1.00  0.00     0.338 C 
ATOM     27  O   UNL A   1      36.235  32.346  33.981  1.00  0.00    -0.246 OA
BRANCH  26  28
ATOM     28  C   UNL A   1      37.025  31.555  31.909  1.00  0.00     0.060 A 
ATOM     29  C   UNL A   1      37.430  30.249  32.183  1.00  0.00     0.016 A 
ATOM     30  C   UNL A   1      37.662  32.299  30.921  1.00  0.00     0.016 A 
ATOM     31  C   UNL A   1      38.510  29.687  31.517  1.00  0.00     0.010 A 
ATOM     32  C   UNL A   1      38.732  31.726  30.226  1.00  0.00     0.010 A 
ATOM     33  C   UNL A   1      39.180  30.428  30.541  1.00  0.00    -0.014 A 
BRANCH  33  34
ATOM     34  C   UNL A   1      40.416  29.886  29.928  1.00  0.00     0.031 A 
ATOM     35  C   UNL A   1      41.623  30.770  29.810  1.00  0.00     0.074 A 
ATOM     36  C   UNL A   1      40.474  28.603  29.526  1.00  0.00     0.049 A 
ATOM     37  N   UNL A   1      42.738  30.568  29.157  1.00  0.00    -0.248 NA
ATOM     38  C   UNL A   1      41.566  32.056  30.524  1.00  0.00     0.031 C 
ATOM     39  C   UNL A   1      39.404  27.617  29.678  1.00  0.00     0.029 A 
ATOM     40  N   UNL A   1      41.483  27.912  28.905  1.00  0.00    -0.354 N 
ATOM     41  C   UNL A   1      43.500  31.712  29.352  1.00  0.00     0.074 A 
ATOM     42  C   UNL A   1      42.724  32.605  30.184  1.00  0.00     0.031 C 
ATOM     43  C   UNL A   1      39.814  26.446  29.161  1.00  0.00     0.029 A 
ATOM     44  C   UNL A   1      41.146  26.619  28.591  1.00  0.00     0.049 A 
ATOM     45  H   UNL A   1      42.363  28.305  28.704  1.00  0.00     0.167 HD
ATOM     46  C   UNL A   1      44.736  31.990  28.874  1.00  0.00     0.037 A 
ATOM     47  C   UNL A   1      41.822  25.694  27.883  1.00  0.00     0.037 A 
ATOM     48  C   UNL A   1      45.508  31.090  28.061  1.00  0.00     0.049 A 
ATOM     49  C   UNL A   1      43.166  26.048  27.310  1.00  0.00     0.074 A 
ATOM     50  C   UNL A   1      46.738  31.299  27.462  1.00  0.00     0.029 A 
ATOM     51  N   UNL A   1      45.127  29.793  27.750  1.00  0.00    -0.354 N 
ATOM     52  N   UNL A   1      43.838  27.169  27.413  1.00  0.00    -0.248 NA
ATOM     53  C   UNL A   1      43.839  25.015  26.512  1.00  0.00     0.031 C 
ATOM     54  C   UNL A   1      47.096  30.131  26.779  1.00  0.00     0.029 A 
ATOM     55  C   UNL A   1      46.101  29.187  26.977  1.00  0.00     0.049 A 
ATOM     56  H   UNL A   1      44.286  29.368  28.036  1.00  0.00     0.167 HD
ATOM     57  C   UNL A   1      45.020  26.969  26.710  1.00  0.00     0.074 A 
ATOM     58  C   UNL A   1      44.978  25.614  26.198  1.00  0.00     0.031 C 
ATOM     59  C   UNL A   1      46.045  27.830  26.501  1.00  0.00     0.037 A 
BRANCH  46  60
ATOM     60  C   UNL A   1      45.306  33.339  29.191  1.00  0.00     0.057 A 
ATOM     61  C   UNL A   1      46.129  33.550  30.304  1.00  0.00     0.134 A 
ATOM     62  C   UNL A   1      45.038  34.438  28.365  1.00  0.00     0.134 A 
ATOM     63  F   UNL A   1      46.406  32.541  31.144  1.00  0.00    -0.206 F 
ATOM     64  C   UNL A   1      46.654  34.811  30.593  1.00  0.00     0.040 A 
ATOM     65  C   UNL A   1      45.572  35.699  28.632  1.00  0.00     0.040 A 
ATOM     66  F   UNL A   1      44.254  34.302  27.284  1.00  0.00    -0.206 F 
ATOM     67  C   UNL A   1      46.380  35.888  29.752  1.00  0.00     0.006 A 
ENDBRANCH  46  60
BRANCH  47  68
ATOM     68  C   UNL A   1      41.223  24.359  27.636  1.00  0.00     0.057 A 
ATOM     69  C   UNL A   1      41.688  23.221  28.304  1.00  0.00     0.134 A 
ATOM     70  C   UNL A   1      40.191  24.186  26.706  1.00  0.00     0.134 A 
ATOM     71  F   UNL A   1      42.693  23.320  29.187  1.00  0.00    -0.206 F 
ATOM     72  C   UNL A   1      41.159  21.956  28.045  1.00  0.00     0.040 A 
ATOM     73  C   UNL A   1      39.635  22.930  26.456  1.00  0.00     0.040 A 
ATOM     74  F   UNL A   1      39.702  25.237  26.032  1.00  0.00    -0.206 F 
ATOM     75  C   UNL A   1      40.125  21.809  27.122  1.00  0.00     0.006 A 
ENDBRANCH  47  68
BRANCH  59  76
ATOM     76  C   UNL A   1      47.219  27.311  25.730  1.00  0.00     0.057 A 
ATOM     77  C   UNL A   1      48.245  26.585  26.347  1.00  0.00     0.134 A 
ATOM     78  C   UNL A   1      47.308  27.520  24.348  1.00  0.00     0.134 A 
ATOM     79  F   UNL A   1      48.221  26.366  27.671  1.00  0.00    -0.206 F 
ATOM     80  C   UNL A   1      49.331  26.101  25.618  1.00  0.00     0.040 A 
ATOM     81  C   UNL A   1      48.380  27.024  23.606  1.00  0.00     0.040 A 
ATOM     82  F   UNL A   1      46.353  28.203  23.699  1.00  0.00    -0.206 F 
ATOM     83  C   UNL A   1      49.399  26.317  24.242  1.00  0.00     0.006 A 
ENDBRANCH  59  76
ENDBRANCH  33  34
ENDBRANCH  26  28
ENDBRANCH  25  26
ENDBRANCH  24  25
ENDBRANCH   1  24
TORSDOF 14
ENDMDL
