MODEL 1
REMARK VINA RESULT:     -10.3      0.000      0.000
REMARK SMILES CC1C[NH+]([C@H]2COC[C@@H]2C(=O)OCCOC(=O)c2ccc(-c3c4nc(c(-c5c(F)cccc5F)c5ccc([nH]5)c(-c5c(F)cccc5F)c5nc(c(-c6c(F)cccc6F)c6ccc3[nH]6)C=C5)C=C4)cc2)C1
REMARK SMILES IDX 14 1 13 2 12 3 10 4 11 5 9 6 5 7 6 8 7 9 8 10 4 11 1 12 2 13
REMARK SMILES IDX 3 14 72 15 15 17 16 18 17 19 18 20 19 21 71 22 20 23 70 24
REMARK SMILES IDX 21 25 22 26 23 27 64 28 24 29 69 30 63 31 65 32 25 33 68 34
REMARK SMILES IDX 62 35 61 36 26 38 52 39 35 40 51 41 36 42 39 43 50 44 66 45
REMARK SMILES IDX 37 46 38 47 49 49 67 50 40 51 27 52 28 53 33 54 29 55 30 56
REMARK SMILES IDX 32 57 34 58 31 59 53 60 54 61 59 62 55 63 56 64 58 65 60 66
REMARK SMILES IDX 57 67 41 68 42 69 47 70 43 71 44 72 46 73 48 74 45 75
REMARK H PARENT 4 16 65 37 39 48
REMARK Flexibility Score: inf
ROOT
ATOM      1  C   UNL A   1      41.181  20.338  27.166  1.00  0.00     0.275 C 
ENDROOT
BRANCH   1   2
ATOM      2  C   UNL A   1      41.080  19.245  26.106  1.00  0.00     0.274 C 
BRANCH   2   3
ATOM      3  O   UNL A   1      42.261  19.208  25.272  1.00  0.00    -0.462 OA
BRANCH   3   4
ATOM      4  C   UNL A   1      43.360  18.629  25.837  1.00  0.00     0.317 C 
ATOM      5  O   UNL A   1      43.332  17.574  26.457  1.00  0.00    -0.252 OA
BRANCH   4   6
ATOM      6  C   UNL A   1      44.592  19.509  25.688  1.00  0.00     0.185 C 
ATOM      7  C   UNL A   1      44.554  20.402  24.450  1.00  0.00     0.227 C 
ATOM      8  C   UNL A   1      45.192  19.512  23.374  1.00  0.00     0.226 C 
ATOM      9  O   UNL A   1      45.903  18.449  24.017  1.00  0.00    -0.374 OA
ATOM     10  C   UNL A   1      45.805  18.632  25.436  1.00  0.00     0.182 C 
BRANCH   7  11
ATOM     11  N   UNL A   1      45.191  21.720  24.689  1.00  0.00    -0.329 N 
ATOM     12  C   UNL A   1      43.174  24.419  25.167  1.00  0.00     0.020 C 
ATOM     13  C   UNL A   1      44.503  23.689  25.077  1.00  0.00     0.096 C 
ATOM     14  C   UNL A   1      44.617  22.379  25.882  1.00  0.00     0.271 C 
ATOM     15  C   UNL A   1      44.717  22.817  23.823  1.00  0.00     0.271 C 
ATOM     16  H   UNL A   1      46.177  21.461  24.638  1.00  0.00     0.348 HD
ENDBRANCH   7  11
ENDBRANCH   4   6
ENDBRANCH   3   4
ENDBRANCH   2   3
ENDBRANCH   1   2
BRANCH   1  17
ATOM     17  O   UNL A   1      41.167  21.626  26.529  1.00  0.00    -0.458 OA
BRANCH  17  18
ATOM     18  C   UNL A   1      39.968  22.246  26.479  1.00  0.00     0.338 C 
ATOM     19  O   UNL A   1      38.918  21.778  26.058  1.00  0.00    -0.246 OA
BRANCH  18  20
ATOM     20  C   UNL A   1      40.057  23.601  27.067  1.00  0.00     0.060 A 
ATOM     21  C   UNL A   1      39.391  24.681  26.489  1.00  0.00     0.016 A 
ATOM     22  C   UNL A   1      40.936  23.826  28.128  1.00  0.00     0.016 A 
ATOM     23  C   UNL A   1      39.714  25.985  26.873  1.00  0.00     0.010 A 
ATOM     24  C   UNL A   1      41.165  25.128  28.587  1.00  0.00     0.010 A 
ATOM     25  C   UNL A   1      40.602  26.235  27.930  1.00  0.00    -0.014 A 
BRANCH  25  26
ATOM     26  C   UNL A   1      40.987  27.628  28.312  1.00  0.00     0.031 A 
ATOM     27  C   UNL A   1      42.420  28.090  28.187  1.00  0.00     0.074 A 
ATOM     28  C   UNL A   1      40.068  28.509  28.758  1.00  0.00     0.049 A 
ATOM     29  N   UNL A   1      42.999  29.150  28.698  1.00  0.00    -0.248 NA
ATOM     30  C   UNL A   1      43.327  27.239  27.402  1.00  0.00     0.031 C 
ATOM     31  C   UNL A   1      38.632  28.258  28.876  1.00  0.00     0.029 A 
ATOM     32  N   UNL A   1      40.210  29.810  29.180  1.00  0.00    -0.354 N 
ATOM     33  C   UNL A   1      44.347  29.043  28.375  1.00  0.00     0.074 A 
ATOM     34  C   UNL A   1      44.498  27.827  27.603  1.00  0.00     0.031 C 
ATOM     35  C   UNL A   1      38.017  29.385  29.263  1.00  0.00     0.029 A 
ATOM     36  C   UNL A   1      39.023  30.403  29.537  1.00  0.00     0.049 A 
ATOM     37  H   UNL A   1      41.077  30.271  29.222  1.00  0.00     0.167 HD
ATOM     38  C   UNL A   1      45.366  29.876  28.702  1.00  0.00     0.037 A 
ATOM     39  C   UNL A   1      38.767  31.610  30.076  1.00  0.00     0.037 A 
ATOM     40  C   UNL A   1      45.204  31.134  29.384  1.00  0.00     0.049 A 
ATOM     41  C   UNL A   1      39.904  32.512  30.446  1.00  0.00     0.074 A 
ATOM     42  C   UNL A   1      46.174  32.056  29.739  1.00  0.00     0.029 A 
ATOM     43  N   UNL A   1      43.988  31.661  29.787  1.00  0.00    -0.354 N 
ATOM     44  N   UNL A   1      41.189  32.340  30.255  1.00  0.00    -0.248 NA
ATOM     45  C   UNL A   1      39.558  33.754  31.150  1.00  0.00     0.031 C 
ATOM     46  C   UNL A   1      45.546  33.133  30.376  1.00  0.00     0.029 A 
ATOM     47  C   UNL A   1      44.183  32.892  30.392  1.00  0.00     0.049 A 
ATOM     48  H   UNL A   1      43.114  31.225  29.663  1.00  0.00     0.167 HD
ATOM     49  C   UNL A   1      41.807  33.443  30.825  1.00  0.00     0.074 A 
ATOM     50  C   UNL A   1      40.754  34.293  31.345  1.00  0.00     0.031 C 
ATOM     51  C   UNL A   1      43.130  33.720  30.919  1.00  0.00     0.037 A 
BRANCH  38  52
ATOM     52  C   UNL A   1      46.760  29.432  28.366  1.00  0.00     0.057 A 
ATOM     53  C   UNL A   1      47.539  28.668  29.243  1.00  0.00     0.134 A 
ATOM     54  C   UNL A   1      47.316  29.753  27.119  1.00  0.00     0.134 A 
ATOM     55  F   UNL A   1      47.071  28.341  30.457  1.00  0.00    -0.206 F 
ATOM     56  C   UNL A   1      48.828  28.255  28.900  1.00  0.00     0.040 A 
ATOM     57  C   UNL A   1      48.595  29.327  26.756  1.00  0.00     0.040 A 
ATOM     58  F   UNL A   1      46.620  30.476  26.229  1.00  0.00    -0.206 F 
ATOM     59  C   UNL A   1      49.357  28.580  27.651  1.00  0.00     0.006 A 
ENDBRANCH  38  52
BRANCH  39  60
ATOM     60  C   UNL A   1      37.362  32.003  30.345  1.00  0.00     0.057 A 
ATOM     61  C   UNL A   1      36.746  31.670  31.554  1.00  0.00     0.134 A 
ATOM     62  C   UNL A   1      36.623  32.757  29.425  1.00  0.00     0.134 A 
ATOM     63  F   UNL A   1      37.397  30.926  32.462  1.00  0.00    -0.206 F 
ATOM     64  C   UNL A   1      35.446  32.084  31.848  1.00  0.00     0.040 A 
ATOM     65  C   UNL A   1      35.333  33.199  29.715  1.00  0.00     0.040 A 
ATOM     66  F   UNL A   1      37.162  33.106  28.248  1.00  0.00    -0.206 F 
ATOM     67  C   UNL A   1      34.741  32.862  30.930  1.00  0.00     0.006 A 
ENDBRANCH  39  60
BRANCH  51  68
ATOM     68  C   UNL A   1      43.506  34.995  31.608  1.00  0.00     0.057 A 
ATOM     69  C   UNL A   1      43.673  36.188  30.895  1.00  0.00     0.134 A 
ATOM     70  C   UNL A   1      43.692  35.034  32.995  1.00  0.00     0.134 A 
ATOM     71  F   UNL A   1      43.525  36.209  29.561  1.00  0.00    -0.206 F 
ATOM     72  C   UNL A   1      44.032  37.374  31.536  1.00  0.00     0.040 A 
ATOM     73  C   UNL A   1      44.034  36.218  33.649  1.00  0.00     0.040 A 
ATOM     74  F   UNL A   1      43.542  33.924  33.733  1.00  0.00    -0.206 F 
ATOM     75  C   UNL A   1      44.210  37.391  32.919  1.00  0.00     0.006 A 
ENDBRANCH  51  68
ENDBRANCH  25  26
ENDBRANCH  18  20
ENDBRANCH  17  18
ENDBRANCH   1  17
TORSDOF 12
ENDMDL
MODEL 2
REMARK VINA RESULT:     -10.3      5.185     11.765
REMARK SMILES CC1C[NH+]([C@H]2COC[C@@H]2C(=O)OCCOC(=O)c2ccc(-c3c4nc(c(-c5c(F)cccc5F)c5ccc([nH]5)c(-c5c(F)cccc5F)c5nc(c(-c6c(F)cccc6F)c6ccc3[nH]6)C=C5)C=C4)cc2)C1
REMARK SMILES IDX 14 1 13 2 12 3 10 4 11 5 9 6 5 7 6 8 7 9 8 10 4 11 1 12 2 13
REMARK SMILES IDX 3 14 72 15 15 17 16 18 17 19 18 20 19 21 71 22 20 23 70 24
REMARK SMILES IDX 21 25 22 26 23 27 64 28 24 29 69 30 63 31 65 32 25 33 68 34
REMARK SMILES IDX 62 35 61 36 26 38 52 39 35 40 51 41 36 42 39 43 50 44 66 45
REMARK SMILES IDX 37 46 38 47 49 49 67 50 40 51 27 52 28 53 33 54 29 55 30 56
REMARK SMILES IDX 32 57 34 58 31 59 53 60 54 61 59 62 55 63 56 64 58 65 60 66
REMARK SMILES IDX 57 67 41 68 42 69 47 70 43 71 44 72 46 73 48 74 45 75
REMARK H PARENT 4 16 65 37 39 48
REMARK Flexibility Score: inf
ROOT
ATOM      1  C   UNL A   1      34.415  33.345  28.792  1.00  0.00     0.275 C 
ENDROOT
BRANCH   1   2
ATOM      2  C   UNL A   1      33.223  34.203  28.374  1.00  0.00     0.274 C 
BRANCH   2   3
ATOM      3  O   UNL A   1      32.623  34.863  29.512  1.00  0.00    -0.462 OA
BRANCH   3   4
ATOM      4  C   UNL A   1      33.072  36.127  29.761  1.00  0.00     0.317 C 
ATOM      5  O   UNL A   1      32.993  37.049  28.960  1.00  0.00    -0.252 OA
BRANCH   4   6
ATOM      6  C   UNL A   1      33.770  36.215  31.110  1.00  0.00     0.185 C 
ATOM      7  C   UNL A   1      33.303  35.156  32.105  1.00  0.00     0.227 C 
ATOM      8  C   UNL A   1      32.117  35.844  32.796  1.00  0.00     0.226 C 
ATOM      9  O   UNL A   1      32.193  37.252  32.549  1.00  0.00    -0.374 OA
ATOM     10  C   UNL A   1      33.381  37.515  31.790  1.00  0.00     0.182 C 
BRANCH   7  11
ATOM     11  N   UNL A   1      34.403  34.686  32.982  1.00  0.00    -0.329 N 
ATOM     12  C   UNL A   1      35.950  31.760  32.192  1.00  0.00     0.020 C 
ATOM     13  C   UNL A   1      35.726  33.027  32.997  1.00  0.00     0.096 C 
ATOM     14  C   UNL A   1      35.600  34.335  32.189  1.00  0.00     0.271 C 
ATOM     15  C   UNL A   1      34.279  33.294  33.460  1.00  0.00     0.271 C 
ATOM     16  H   UNL A   1      34.416  35.432  33.678  1.00  0.00     0.348 HD
ENDBRANCH   7  11
ENDBRANCH   4   6
ENDBRANCH   3   4
ENDBRANCH   2   3
ENDBRANCH   1   2
BRANCH   1  17
ATOM     17  O   UNL A   1      34.947  32.670  27.641  1.00  0.00    -0.458 OA
BRANCH  17  18
ATOM     18  C   UNL A   1      34.985  31.322  27.714  1.00  0.00     0.338 C 
ATOM     19  O   UNL A   1      34.204  30.538  27.190  1.00  0.00    -0.246 OA
BRANCH  18  20
ATOM     20  C   UNL A   1      36.162  30.875  28.490  1.00  0.00     0.060 A 
ATOM     21  C   UNL A   1      37.375  31.559  28.417  1.00  0.00     0.016 A 
ATOM     22  C   UNL A   1      36.097  29.669  29.190  1.00  0.00     0.016 A 
ATOM     23  C   UNL A   1      38.539  30.969  28.915  1.00  0.00     0.010 A 
ATOM     24  C   UNL A   1      37.247  29.140  29.789  1.00  0.00     0.010 A 
ATOM     25  C   UNL A   1      38.499  29.752  29.613  1.00  0.00    -0.014 A 
BRANCH  25  26
ATOM     26  C   UNL A   1      39.748  29.094  30.104  1.00  0.00     0.031 A 
ATOM     27  C   UNL A   1      40.377  29.521  31.410  1.00  0.00     0.074 A 
ATOM     28  C   UNL A   1      40.333  28.098  29.408  1.00  0.00     0.049 A 
ATOM     29  N   UNL A   1      41.576  29.265  31.877  1.00  0.00    -0.248 NA
ATOM     30  C   UNL A   1      39.560  30.360  32.299  1.00  0.00     0.031 C 
ATOM     31  C   UNL A   1      39.827  27.513  28.166  1.00  0.00     0.029 A 
ATOM     32  N   UNL A   1      41.480  27.385  29.662  1.00  0.00    -0.354 N 
ATOM     33  C   UNL A   1      41.686  29.985  33.062  1.00  0.00     0.074 A 
ATOM     34  C   UNL A   1      40.424  30.668  33.256  1.00  0.00     0.031 C 
ATOM     35  C   UNL A   1      40.612  26.486  27.810  1.00  0.00     0.029 A 
ATOM     36  C   UNL A   1      41.743  26.414  28.727  1.00  0.00     0.049 A 
ATOM     37  H   UNL A   1      42.059  27.555  30.440  1.00  0.00     0.167 HD
ATOM     38  C   UNL A   1      42.745  30.076  33.903  1.00  0.00     0.037 A 
ATOM     39  C   UNL A   1      42.797  25.589  28.582  1.00  0.00     0.037 A 
ATOM     40  C   UNL A   1      43.964  29.321  33.763  1.00  0.00     0.049 A 
ATOM     41  C   UNL A   1      43.966  25.713  29.510  1.00  0.00     0.074 A 
ATOM     42  C   UNL A   1      45.084  29.330  34.579  1.00  0.00     0.029 A 
ATOM     43  N   UNL A   1      44.210  28.399  32.760  1.00  0.00    -0.354 N 
ATOM     44  N   UNL A   1      44.113  26.494  30.551  1.00  0.00    -0.248 NA
ATOM     45  C   UNL A   1      45.135  24.874  29.213  1.00  0.00     0.031 C 
ATOM     46  C   UNL A   1      46.016  28.426  34.054  1.00  0.00     0.029 A 
ATOM     47  C   UNL A   1      45.465  27.836  32.930  1.00  0.00     0.049 A 
ATOM     48  H   UNL A   1      43.585  28.177  32.032  1.00  0.00     0.167 HD
ATOM     49  C   UNL A   1      45.394  26.252  31.028  1.00  0.00     0.074 A 
ATOM     50  C   UNL A   1      45.972  25.231  30.178  1.00  0.00     0.031 C 
ATOM     51  C   UNL A   1      46.035  26.834  32.069  1.00  0.00     0.037 A 
BRANCH  38  52
ATOM     52  C   UNL A   1      42.654  31.063  35.030  1.00  0.00     0.057 A 
ATOM     53  C   UNL A   1      42.270  30.695  36.324  1.00  0.00     0.134 A 
ATOM     54  C   UNL A   1      42.993  32.406  34.813  1.00  0.00     0.134 A 
ATOM     55  F   UNL A   1      41.918  29.428  36.594  1.00  0.00    -0.206 F 
ATOM     56  C   UNL A   1      42.207  31.631  37.359  1.00  0.00     0.040 A 
ATOM     57  C   UNL A   1      42.956  33.346  35.845  1.00  0.00     0.040 A 
ATOM     58  F   UNL A   1      43.376  32.824  33.598  1.00  0.00    -0.206 F 
ATOM     59  C   UNL A   1      42.556  32.960  37.121  1.00  0.00     0.006 A 
ENDBRANCH  38  52
BRANCH  39  60
ATOM     60  C   UNL A   1      42.805  24.608  27.470  1.00  0.00     0.057 A 
ATOM     61  C   UNL A   1      42.280  23.325  27.646  1.00  0.00     0.134 A 
ATOM     62  C   UNL A   1      43.293  24.942  26.201  1.00  0.00     0.134 A 
ATOM     63  F   UNL A   1      41.823  22.940  28.847  1.00  0.00    -0.206 F 
ATOM     64  C   UNL A   1      42.225  22.410  26.594  1.00  0.00     0.040 A 
ATOM     65  C   UNL A   1      43.222  24.046  25.134  1.00  0.00     0.040 A 
ATOM     66  F   UNL A   1      43.810  26.158  25.973  1.00  0.00    -0.206 F 
ATOM     67  C   UNL A   1      42.686  22.776  25.330  1.00  0.00     0.006 A 
ENDBRANCH  39  60
BRANCH  51  68
ATOM     68  C   UNL A   1      47.433  26.374  32.343  1.00  0.00     0.057 A 
ATOM     69  C   UNL A   1      48.538  27.013  31.765  1.00  0.00     0.134 A 
ATOM     70  C   UNL A   1      47.680  25.294  33.198  1.00  0.00     0.134 A 
ATOM     71  F   UNL A   1      48.364  28.044  30.924  1.00  0.00    -0.206 F 
ATOM     72  C   UNL A   1      49.840  26.579  32.015  1.00  0.00     0.040 A 
ATOM     73  C   UNL A   1      48.979  24.862  33.468  1.00  0.00     0.040 A 
ATOM     74  F   UNL A   1      46.663  24.644  33.784  1.00  0.00    -0.206 F 
ATOM     75  C   UNL A   1      50.063  25.503  32.872  1.00  0.00     0.006 A 
ENDBRANCH  51  68
ENDBRANCH  25  26
ENDBRANCH  18  20
ENDBRANCH  17  18
ENDBRANCH   1  17
TORSDOF 12
ENDMDL
MODEL 3
REMARK VINA RESULT:     -10.3      0.732      6.564
REMARK SMILES CC1C[NH+]([C@H]2COC[C@@H]2C(=O)OCCOC(=O)c2ccc(-c3c4nc(c(-c5c(F)cccc5F)c5ccc([nH]5)c(-c5c(F)cccc5F)c5nc(c(-c6c(F)cccc6F)c6ccc3[nH]6)C=C5)C=C4)cc2)C1
REMARK SMILES IDX 14 1 13 2 12 3 10 4 11 5 9 6 5 7 6 8 7 9 8 10 4 11 1 12 2 13
REMARK SMILES IDX 3 14 72 15 15 17 16 18 17 19 18 20 19 21 71 22 20 23 70 24
REMARK SMILES IDX 21 25 22 26 23 27 64 28 24 29 69 30 63 31 65 32 25 33 68 34
REMARK SMILES IDX 62 35 61 36 26 38 52 39 35 40 51 41 36 42 39 43 50 44 66 45
REMARK SMILES IDX 37 46 38 47 49 49 67 50 40 51 27 52 28 53 33 54 29 55 30 56
REMARK SMILES IDX 32 57 34 58 31 59 53 60 54 61 59 62 55 63 56 64 58 65 60 66
REMARK SMILES IDX 57 67 41 68 42 69 47 70 43 71 44 72 46 73 48 74 45 75
REMARK H PARENT 4 16 65 37 39 48
REMARK Flexibility Score: inf
ROOT
ATOM      1  C   UNL A   1      41.100  20.413  27.111  1.00  0.00     0.275 C 
ENDROOT
BRANCH   1   2
ATOM      2  C   UNL A   1      41.060  19.260  26.111  1.00  0.00     0.274 C 
BRANCH   2   3
ATOM      3  O   UNL A   1      42.247  19.237  25.285  1.00  0.00    -0.462 OA
BRANCH   3   4
ATOM      4  C   UNL A   1      43.351  18.677  25.858  1.00  0.00     0.317 C 
ATOM      5  O   UNL A   1      43.330  17.637  26.504  1.00  0.00    -0.252 OA
BRANCH   4   6
ATOM      6  C   UNL A   1      44.579  19.557  25.682  1.00  0.00     0.185 C 
ATOM      7  C   UNL A   1      44.550  20.389  24.402  1.00  0.00     0.227 C 
ATOM      8  C   UNL A   1      45.207  19.454  23.378  1.00  0.00     0.226 C 
ATOM      9  O   UNL A   1      45.916  18.427  24.079  1.00  0.00    -0.374 OA
ATOM     10  C   UNL A   1      45.801  18.677  25.486  1.00  0.00     0.182 C 
BRANCH   7  11
ATOM     11  N   UNL A   1      45.177  21.721  24.586  1.00  0.00    -0.329 N 
ATOM     12  C   UNL A   1      43.154  24.366  25.289  1.00  0.00     0.020 C 
ATOM     13  C   UNL A   1      44.483  23.671  25.058  1.00  0.00     0.096 C 
ATOM     14  C   UNL A   1      44.711  22.359  25.836  1.00  0.00     0.271 C 
ATOM     15  C   UNL A   1      44.590  22.811  23.781  1.00  0.00     0.271 C 
ATOM     16  H   UNL A   1      46.157  21.487  24.432  1.00  0.00     0.348 HD
ENDBRANCH   7  11
ENDBRANCH   4   6
ENDBRANCH   3   4
ENDBRANCH   2   3
ENDBRANCH   1   2
BRANCH   1  17
ATOM     17  O   UNL A   1      41.044  21.663  26.404  1.00  0.00    -0.458 OA
BRANCH  17  18
ATOM     18  C   UNL A   1      39.871  22.327  26.472  1.00  0.00     0.338 C 
ATOM     19  O   UNL A   1      38.775  21.918  26.111  1.00  0.00    -0.246 OA
BRANCH  18  20
ATOM     20  C   UNL A   1      40.057  23.648  27.111  1.00  0.00     0.060 A 
ATOM     21  C   UNL A   1      39.579  24.813  26.511  1.00  0.00     0.016 A 
ATOM     22  C   UNL A   1      40.849  23.744  28.257  1.00  0.00     0.016 A 
ATOM     23  C   UNL A   1      40.010  26.060  26.968  1.00  0.00     0.010 A 
ATOM     24  C   UNL A   1      41.180  25.000  28.780  1.00  0.00     0.010 A 
ATOM     25  C   UNL A   1      40.814  26.180  28.111  1.00  0.00    -0.014 A 
BRANCH  25  26
ATOM     26  C   UNL A   1      41.316  27.510  28.575  1.00  0.00     0.031 A 
ATOM     27  C   UNL A   1      40.377  28.501  29.222  1.00  0.00     0.074 A 
ATOM     28  C   UNL A   1      42.614  27.850  28.443  1.00  0.00     0.049 A 
ATOM     29  N   UNL A   1      40.550  29.780  29.452  1.00  0.00    -0.248 NA
ATOM     30  C   UNL A   1      39.065  27.993  29.650  1.00  0.00     0.031 C 
ATOM     31  C   UNL A   1      43.671  26.994  27.906  1.00  0.00     0.029 A 
ATOM     32  N   UNL A   1      43.270  29.012  28.773  1.00  0.00    -0.354 N 
ATOM     33  C   UNL A   1      39.342  30.244  29.963  1.00  0.00     0.074 A 
ATOM     34  C   UNL A   1      38.452  29.105  30.032  1.00  0.00     0.031 C 
ATOM     35  C   UNL A   1      44.849  27.625  28.014  1.00  0.00     0.029 A 
ATOM     36  C   UNL A   1      44.618  28.975  28.514  1.00  0.00     0.049 A 
ATOM     37  H   UNL A   1      42.817  29.796  29.158  1.00  0.00     0.167 HD
ATOM     38  C   UNL A   1      39.005  31.505  30.328  1.00  0.00     0.037 A 
ATOM     39  C   UNL A   1      45.564  29.928  28.612  1.00  0.00     0.037 A 
ATOM     40  C   UNL A   1      39.918  32.619  30.352  1.00  0.00     0.049 A 
ATOM     41  C   UNL A   1      45.172  31.320  29.003  1.00  0.00     0.074 A 
ATOM     42  C   UNL A   1      39.673  33.929  30.730  1.00  0.00     0.029 A 
ATOM     43  N   UNL A   1      41.260  32.546  30.016  1.00  0.00    -0.354 N 
ATOM     44  N   UNL A   1      43.996  31.778  29.356  1.00  0.00    -0.248 NA
ATOM     45  C   UNL A   1      46.230  32.339  28.961  1.00  0.00     0.031 C 
ATOM     46  C   UNL A   1      40.865  34.654  30.600  1.00  0.00     0.029 A 
ATOM     47  C   UNL A   1      41.855  33.788  30.169  1.00  0.00     0.049 A 
ATOM     48  H   UNL A   1      41.722  31.732  29.711  1.00  0.00     0.167 HD
ATOM     49  C   UNL A   1      44.168  33.139  29.566  1.00  0.00     0.074 A 
ATOM     50  C   UNL A   1      45.568  33.428  29.328  1.00  0.00     0.031 C 
ATOM     51  C   UNL A   1      43.244  34.066  29.914  1.00  0.00     0.037 A 
BRANCH  38  52
ATOM     52  C   UNL A   1      37.571  31.763  30.690  1.00  0.00     0.057 A 
ATOM     53  C   UNL A   1      37.103  31.693  32.007  1.00  0.00     0.134 A 
ATOM     54  C   UNL A   1      36.652  32.122  29.694  1.00  0.00     0.134 A 
ATOM     55  F   UNL A   1      37.928  31.340  33.004  1.00  0.00    -0.206 F 
ATOM     56  C   UNL A   1      35.766  31.952  32.319  1.00  0.00     0.040 A 
ATOM     57  C   UNL A   1      35.318  32.405  29.996  1.00  0.00     0.040 A 
ATOM     58  F   UNL A   1      37.037  32.214  28.412  1.00  0.00    -0.206 F 
ATOM     59  C   UNL A   1      34.871  32.314  31.312  1.00  0.00     0.006 A 
ENDBRANCH  38  52
BRANCH  39  60
ATOM     60  C   UNL A   1      46.970  29.596  28.279  1.00  0.00     0.057 A 
ATOM     61  C   UNL A   1      47.871  29.219  29.279  1.00  0.00     0.134 A 
ATOM     62  C   UNL A   1      47.432  29.603  26.957  1.00  0.00     0.134 A 
ATOM     63  F   UNL A   1      47.492  29.220  30.566  1.00  0.00    -0.206 F 
ATOM     64  C   UNL A   1      49.181  28.845  28.975  1.00  0.00     0.040 A 
ATOM     65  C   UNL A   1      48.730  29.208  26.637  1.00  0.00     0.040 A 
ATOM     66  F   UNL A   1      46.613  29.958  25.957  1.00  0.00    -0.206 F 
ATOM     67  C   UNL A   1      49.608  28.828  27.649  1.00  0.00     0.006 A 
ENDBRANCH  39  60
BRANCH  51  68
ATOM     68  C   UNL A   1      43.724  35.477  30.058  1.00  0.00     0.057 A 
ATOM     69  C   UNL A   1      44.183  35.969  31.286  1.00  0.00     0.134 A 
ATOM     70  C   UNL A   1      43.737  36.347  28.962  1.00  0.00     0.134 A 
ATOM     71  F   UNL A   1      44.179  35.187  32.377  1.00  0.00    -0.206 F 
ATOM     72  C   UNL A   1      44.623  37.286  31.422  1.00  0.00     0.040 A 
ATOM     73  C   UNL A   1      44.190  37.661  29.082  1.00  0.00     0.040 A 
ATOM     74  F   UNL A   1      43.312  35.932  27.759  1.00  0.00    -0.206 F 
ATOM     75  C   UNL A   1      44.630  38.135  30.316  1.00  0.00     0.006 A 
ENDBRANCH  51  68
ENDBRANCH  25  26
ENDBRANCH  18  20
ENDBRANCH  17  18
ENDBRANCH   1  17
TORSDOF 12
ENDMDL
