MODEL 1
REMARK VINA RESULT:      -8.6      0.000      0.000
REMARK SMILES CN1C(=O)Cc2cc([C@@H](O)CCCCC(=O)OCCOC(=O)c3ccc(-c4c5nc(c(-c6c(F)cccc6F)c6ccc([nH]6)c(-c6c(F)cccc6F)c6nc(c(-c7c(F)cccc7F)c7ccc4[nH]7)C=C6)C=C5)cc3)ccc21
REMARK SMILES IDX 17 1 15 2 16 3 14 4 13 5 12 6 11 7 9 8 8 9 1 10 2 11 3 12
REMARK SMILES IDX 79 13 4 14 5 15 6 16 78 17 7 18 77 19 10 20 18 22 19 23
REMARK SMILES IDX 20 24 21 25 22 26 23 27 24 28 76 29 25 30 75 31 26 32 27 33
REMARK SMILES IDX 28 34 69 35 29 36 74 37 68 38 70 39 30 40 73 41 67 42 66 43
REMARK SMILES IDX 31 45 57 46 40 47 56 48 41 49 44 50 55 51 71 52 42 53 43 54
REMARK SMILES IDX 54 56 72 57 45 58 32 59 33 60 38 61 34 62 35 63 37 64 39 65
REMARK SMILES IDX 36 66 58 67 59 68 64 69 60 70 61 71 63 72 65 73 62 74 46 75
REMARK SMILES IDX 47 76 52 77 48 78 49 79 51 80 53 81 50 82
REMARK H PARENT 10 21 70 44 44 55
REMARK Flexibility Score: inf
ROOT
ATOM      1  O   UNL A   1      45.052  19.343  24.276  1.00  0.00    -0.462 OA
ENDROOT
BRANCH   1   2
ATOM      2  C   UNL A   1      46.116  20.172  24.395  1.00  0.00     0.305 C 
ATOM      3  O   UNL A   1      47.268  19.812  24.602  1.00  0.00    -0.252 OA
BRANCH   2   4
ATOM      4  C   UNL A   1      45.727  21.630  24.280  1.00  0.00     0.123 C 
BRANCH   4   5
ATOM      5  C   UNL A   1      46.059  22.500  25.495  1.00  0.00     0.012 C 
BRANCH   5   6
ATOM      6  C   UNL A   1      46.471  23.945  25.190  1.00  0.00     0.004 C 
BRANCH   6   7
ATOM      7  C   UNL A   1      46.090  24.962  26.270  1.00  0.00     0.037 C 
BRANCH   7   8
ATOM      8  C   UNL A   1      45.111  26.043  25.787  1.00  0.00     0.144 C 
BRANCH   8   9
ATOM      9  C   UNL A   1      45.097  27.238  26.717  1.00  0.00    -0.019 A 
ATOM     10  C   UNL A   1      45.951  31.500  29.606  1.00  0.00     0.153 C 
ATOM     11  N   UNL A   1      44.951  30.800  28.846  1.00  0.00    -0.315 N 
ATOM     12  C   UNL A   1      43.659  31.275  28.613  1.00  0.00     0.231 C 
ATOM     13  C   UNL A   1      45.161  29.570  28.216  1.00  0.00     0.047 A 
ATOM     14  O   UNL A   1      43.171  32.322  29.012  1.00  0.00    -0.274 OA
ATOM     15  C   UNL A   1      42.942  30.239  27.744  1.00  0.00     0.138 C 
ATOM     16  C   UNL A   1      43.997  29.194  27.552  1.00  0.00    -0.014 A 
ATOM     17  C   UNL A   1      46.302  28.791  28.178  1.00  0.00     0.027 A 
ATOM     18  C   UNL A   1      43.940  28.030  26.814  1.00  0.00     0.012 A 
ATOM     19  C   UNL A   1      46.266  27.617  27.417  1.00  0.00     0.008 A 
ENDBRANCH   8   9
BRANCH   8  20
ATOM     20  O   UNL A   1      45.503  26.459  24.480  1.00  0.00    -0.388 OA
ATOM     21  H   UNL A   1      45.662  25.678  23.927  1.00  0.00     0.211 HD
ENDBRANCH   8  20
ENDBRANCH   7   8
ENDBRANCH   6   7
ENDBRANCH   5   6
ENDBRANCH   4   5
ENDBRANCH   2   4
ENDBRANCH   1   2
BRANCH   1  22
ATOM     22  C   UNL A   1      44.844  18.386  25.330  1.00  0.00     0.274 C 
BRANCH  22  23
ATOM     23  C   UNL A   1      43.427  18.505  25.893  1.00  0.00     0.275 C 
BRANCH  23  24
ATOM     24  O   UNL A   1      42.673  19.492  25.165  1.00  0.00    -0.458 OA
BRANCH  24  25
ATOM     25  C   UNL A   1      41.547  19.934  25.771  1.00  0.00     0.338 C 
ATOM     26  O   UNL A   1      40.466  19.379  25.840  1.00  0.00    -0.246 OA
BRANCH  25  27
ATOM     27  C   UNL A   1      41.849  21.188  26.475  1.00  0.00     0.060 A 
ATOM     28  C   UNL A   1      41.597  21.257  27.847  1.00  0.00     0.016 A 
ATOM     29  C   UNL A   1      42.314  22.305  25.779  1.00  0.00     0.016 A 
ATOM     30  C   UNL A   1      41.813  22.444  28.539  1.00  0.00     0.010 A 
ATOM     31  C   UNL A   1      42.532  23.497  26.476  1.00  0.00     0.010 A 
ATOM     32  C   UNL A   1      42.276  23.575  27.857  1.00  0.00    -0.014 A 
BRANCH  32  33
ATOM     33  C   UNL A   1      42.443  24.856  28.581  1.00  0.00     0.031 A 
ATOM     34  C   UNL A   1      43.716  25.129  29.325  1.00  0.00     0.074 A 
ATOM     35  C   UNL A   1      41.457  25.772  28.563  1.00  0.00     0.049 A 
ATOM     36  N   UNL A   1      44.021  26.137  30.102  1.00  0.00    -0.248 NA
ATOM     37  C   UNL A   1      44.789  24.133  29.177  1.00  0.00     0.031 C 
ATOM     38  C   UNL A   1      40.193  25.638  27.840  1.00  0.00     0.029 A 
ATOM     39  N   UNL A   1      41.365  26.993  29.179  1.00  0.00    -0.354 N 
ATOM     40  C   UNL A   1      45.308  25.886  30.556  1.00  0.00     0.074 A 
ATOM     41  C   UNL A   1      45.725  24.627  29.976  1.00  0.00     0.031 C 
ATOM     42  C   UNL A   1      39.446  26.732  28.061  1.00  0.00     0.029 A 
ATOM     43  C   UNL A   1      40.161  27.620  28.973  1.00  0.00     0.049 A 
ATOM     44  H   UNL A   1      42.091  27.383  29.719  1.00  0.00     0.167 HD
ATOM     45  C   UNL A   1      46.070  26.639  31.384  1.00  0.00     0.037 A 
ATOM     46  C   UNL A   1      39.678  28.766  29.488  1.00  0.00     0.037 A 
ATOM     47  C   UNL A   1      45.659  27.899  31.945  1.00  0.00     0.049 A 
ATOM     48  C   UNL A   1      40.527  29.562  30.438  1.00  0.00     0.074 A 
ATOM     49  C   UNL A   1      46.368  28.745  32.780  1.00  0.00     0.029 A 
ATOM     50  N   UNL A   1      44.426  28.493  31.726  1.00  0.00    -0.354 N 
ATOM     51  N   UNL A   1      41.740  29.314  30.868  1.00  0.00    -0.248 NA
ATOM     52  C   UNL A   1      39.938  30.794  30.983  1.00  0.00     0.031 C 
ATOM     53  C   UNL A   1      45.550  29.836  33.093  1.00  0.00     0.029 A 
ATOM     54  C   UNL A   1      44.345  29.687  32.424  1.00  0.00     0.049 A 
ATOM     55  H   UNL A   1      43.712  28.122  31.159  1.00  0.00     0.167 HD
ATOM     56  C   UNL A   1      42.066  30.362  31.719  1.00  0.00     0.074 A 
ATOM     57  C   UNL A   1      40.927  31.257  31.733  1.00  0.00     0.031 C 
ATOM     58  C   UNL A   1      43.204  30.565  32.425  1.00  0.00     0.037 A 
BRANCH  45  59
ATOM     59  C   UNL A   1      47.418  26.099  31.758  1.00  0.00     0.057 A 
ATOM     60  C   UNL A   1      48.548  26.310  30.959  1.00  0.00     0.134 A 
ATOM     61  C   UNL A   1      47.588  25.377  32.946  1.00  0.00     0.134 A 
ATOM     62  F   UNL A   1      48.448  26.980  29.802  1.00  0.00    -0.206 F 
ATOM     63  C   UNL A   1      49.799  25.805  31.320  1.00  0.00     0.040 A 
ATOM     64  C   UNL A   1      48.838  24.885  33.327  1.00  0.00     0.040 A 
ATOM     65  F   UNL A   1      46.545  25.142  33.755  1.00  0.00    -0.206 F 
ATOM     66  C   UNL A   1      49.947  25.095  32.510  1.00  0.00     0.006 A 
ENDBRANCH  45  59
BRANCH  46  67
ATOM     67  C   UNL A   1      38.310  29.216  29.132  1.00  0.00     0.057 A 
ATOM     68  C   UNL A   1      37.261  29.143  30.054  1.00  0.00     0.134 A 
ATOM     69  C   UNL A   1      38.021  29.729  27.862  1.00  0.00     0.134 A 
ATOM     70  F   UNL A   1      37.472  28.638  31.278  1.00  0.00    -0.206 F 
ATOM     71  C   UNL A   1      35.970  29.557  29.724  1.00  0.00     0.040 A 
ATOM     72  C   UNL A   1      36.741  30.168  27.525  1.00  0.00     0.040 A 
ATOM     73  F   UNL A   1      38.986  29.823  26.935  1.00  0.00    -0.206 F 
ATOM     74  C   UNL A   1      35.709  30.079  28.457  1.00  0.00     0.006 A 
ENDBRANCH  46  67
BRANCH  58  75
ATOM     75  C   UNL A   1      43.282  31.813  33.252  1.00  0.00     0.057 A 
ATOM     76  C   UNL A   1      43.754  33.018  32.720  1.00  0.00     0.134 A 
ATOM     77  C   UNL A   1      42.846  31.815  34.582  1.00  0.00     0.134 A 
ATOM     78  F   UNL A   1      44.198  33.076  31.455  1.00  0.00    -0.206 F 
ATOM     79  C   UNL A   1      43.806  34.182  33.489  1.00  0.00     0.040 A 
ATOM     80  C   UNL A   1      42.873  32.977  35.355  1.00  0.00     0.040 A 
ATOM     81  F   UNL A   1      42.376  30.693  35.148  1.00  0.00    -0.206 F 
ATOM     82  C   UNL A   1      43.357  34.164  34.810  1.00  0.00     0.006 A 
ENDBRANCH  58  75
ENDBRANCH  32  33
ENDBRANCH  25  27
ENDBRANCH  24  25
ENDBRANCH  23  24
ENDBRANCH  22  23
ENDBRANCH   1  22
TORSDOF 17
ENDMDL
MODEL 2
REMARK VINA RESULT:      -8.6      1.471      6.494
REMARK SMILES CN1C(=O)Cc2cc([C@@H](O)CCCCC(=O)OCCOC(=O)c3ccc(-c4c5nc(c(-c6c(F)cccc6F)c6ccc([nH]6)c(-c6c(F)cccc6F)c6nc(c(-c7c(F)cccc7F)c7ccc4[nH]7)C=C6)C=C5)cc3)ccc21
REMARK SMILES IDX 17 1 15 2 16 3 14 4 13 5 12 6 11 7 9 8 8 9 1 10 2 11 3 12
REMARK SMILES IDX 79 13 4 14 5 15 6 16 78 17 7 18 77 19 10 20 18 22 19 23
REMARK SMILES IDX 20 24 21 25 22 26 23 27 24 28 76 29 25 30 75 31 26 32 27 33
REMARK SMILES IDX 28 34 69 35 29 36 74 37 68 38 70 39 30 40 73 41 67 42 66 43
REMARK SMILES IDX 31 45 57 46 40 47 56 48 41 49 44 50 55 51 71 52 42 53 43 54
REMARK SMILES IDX 54 56 72 57 45 58 32 59 33 60 38 61 34 62 35 63 37 64 39 65
REMARK SMILES IDX 36 66 58 67 59 68 64 69 60 70 61 71 63 72 65 73 62 74 46 75
REMARK SMILES IDX 47 76 52 77 48 78 49 79 51 80 53 81 50 82
REMARK H PARENT 10 21 70 44 44 55
REMARK Flexibility Score: inf
ROOT
ATOM      1  O   UNL A   1      44.342  19.241  25.220  1.00  0.00    -0.462 OA
ENDROOT
BRANCH   1   2
ATOM      2  C   UNL A   1      45.560  18.771  24.863  1.00  0.00     0.305 C 
ATOM      3  O   UNL A   1      46.082  17.757  25.310  1.00  0.00    -0.252 OA
BRANCH   2   4
ATOM      4  C   UNL A   1      46.252  19.667  23.859  1.00  0.00     0.123 C 
BRANCH   4   5
ATOM      5  C   UNL A   1      46.730  21.019  24.398  1.00  0.00     0.012 C 
BRANCH   5   6
ATOM      6  C   UNL A   1      45.634  21.955  24.919  1.00  0.00     0.004 C 
BRANCH   6   7
ATOM      7  C   UNL A   1      45.636  23.354  24.294  1.00  0.00     0.037 C 
BRANCH   7   8
ATOM      8  C   UNL A   1      46.537  24.360  25.028  1.00  0.00     0.144 C 
BRANCH   8   9
ATOM      9  C   UNL A   1      45.748  25.554  25.525  1.00  0.00    -0.019 A 
ATOM     10  C   UNL A   1      43.800  30.178  26.961  1.00  0.00     0.153 C 
ATOM     11  N   UNL A   1      43.453  28.904  26.393  1.00  0.00    -0.315 N 
ATOM     12  C   UNL A   1      42.180  28.565  25.929  1.00  0.00     0.231 C 
ATOM     13  C   UNL A   1      44.358  27.855  26.205  1.00  0.00     0.047 A 
ATOM     14  O   UNL A   1      41.179  29.264  25.937  1.00  0.00    -0.274 OA
ATOM     15  C   UNL A   1      42.258  27.136  25.385  1.00  0.00     0.138 C 
ATOM     16  C   UNL A   1      43.695  26.783  25.613  1.00  0.00    -0.014 A 
ATOM     17  C   UNL A   1      45.707  27.801  26.498  1.00  0.00     0.027 A 
ATOM     18  C   UNL A   1      44.365  25.624  25.282  1.00  0.00     0.012 A 
ATOM     19  C   UNL A   1      46.405  26.639  26.150  1.00  0.00     0.008 A 
ENDBRANCH   8   9
BRANCH   8  20
ATOM     20  O   UNL A   1      47.150  23.698  26.133  1.00  0.00    -0.388 OA
ATOM     21  H   UNL A   1      46.525  23.658  26.872  1.00  0.00     0.211 HD
ENDBRANCH   8  20
ENDBRANCH   7   8
ENDBRANCH   6   7
ENDBRANCH   5   6
ENDBRANCH   4   5
ENDBRANCH   2   4
ENDBRANCH   1   2
BRANCH   1  22
ATOM     22  C   UNL A   1      43.822  18.820  26.493  1.00  0.00     0.274 C 
BRANCH  22  23
ATOM     23  C   UNL A   1      42.397  18.285  26.344  1.00  0.00     0.275 C 
BRANCH  23  24
ATOM     24  O   UNL A   1      41.666  19.054  25.371  1.00  0.00    -0.458 OA
BRANCH  24  25
ATOM     25  C   UNL A   1      40.625  19.771  25.852  1.00  0.00     0.338 C 
ATOM     26  O   UNL A   1      39.450  19.455  25.886  1.00  0.00    -0.246 OA
BRANCH  25  27
ATOM     27  C   UNL A   1      41.142  21.000  26.471  1.00  0.00     0.060 A 
ATOM     28  C   UNL A   1      40.968  21.175  27.845  1.00  0.00     0.016 A 
ATOM     29  C   UNL A   1      41.733  21.997  25.695  1.00  0.00     0.016 A 
ATOM     30  C   UNL A   1      41.389  22.351  28.459  1.00  0.00     0.010 A 
ATOM     31  C   UNL A   1      42.157  23.178  26.312  1.00  0.00     0.010 A 
ATOM     32  C   UNL A   1      41.981  23.363  27.696  1.00  0.00    -0.014 A 
BRANCH  32  33
ATOM     33  C   UNL A   1      42.369  24.639  28.338  1.00  0.00     0.031 A 
ATOM     34  C   UNL A   1      41.347  25.721  28.523  1.00  0.00     0.074 A 
ATOM     35  C   UNL A   1      43.634  24.822  28.760  1.00  0.00     0.049 A 
ATOM     36  N   UNL A   1      41.504  26.941  28.967  1.00  0.00    -0.248 NA
ATOM     37  C   UNL A   1      39.962  25.384  28.157  1.00  0.00     0.031 C 
ATOM     38  C   UNL A   1      44.704  23.829  28.674  1.00  0.00     0.029 A 
ATOM     39  N   UNL A   1      44.231  25.912  29.338  1.00  0.00    -0.354 N 
ATOM     40  C   UNL A   1      40.247  27.527  28.910  1.00  0.00     0.074 A 
ATOM     41  C   UNL A   1      39.338  26.531  28.381  1.00  0.00     0.031 C 
ATOM     42  C   UNL A   1      45.832  24.360  29.174  1.00  0.00     0.029 A 
ATOM     43  C   UNL A   1      45.573  25.740  29.574  1.00  0.00     0.049 A 
ATOM     44  H   UNL A   1      43.746  26.740  29.561  1.00  0.00     0.167 HD
ATOM     45  C   UNL A   1      39.886  28.782  29.266  1.00  0.00     0.037 A 
ATOM     46  C   UNL A   1      46.494  26.608  30.032  1.00  0.00     0.037 A 
ATOM     47  C   UNL A   1      40.789  29.764  29.809  1.00  0.00     0.049 A 
ATOM     48  C   UNL A   1      46.077  28.009  30.379  1.00  0.00     0.074 A 
ATOM     49  C   UNL A   1      40.514  31.058  30.216  1.00  0.00     0.029 A 
ATOM     50  N   UNL A   1      42.143  29.557  30.017  1.00  0.00    -0.354 N 
ATOM     51  N   UNL A   1      44.888  28.557  30.316  1.00  0.00    -0.248 NA
ATOM     52  C   UNL A   1      47.131  28.917  30.855  1.00  0.00     0.031 C 
ATOM     53  C   UNL A   1      41.711  31.645  30.642  1.00  0.00     0.029 A 
ATOM     54  C   UNL A   1      42.723  30.705  30.532  1.00  0.00     0.049 A 
ATOM     55  H   UNL A   1      42.623  28.719  29.827  1.00  0.00     0.167 HD
ATOM     56  C   UNL A   1      45.045  29.864  30.757  1.00  0.00     0.074 A 
ATOM     57  C   UNL A   1      46.444  30.024  31.098  1.00  0.00     0.031 C 
ATOM     58  C   UNL A   1      44.117  30.844  30.867  1.00  0.00     0.037 A 
BRANCH  45  59
ATOM     59  C   UNL A   1      38.455  29.174  29.049  1.00  0.00     0.057 A 
ATOM     60  C   UNL A   1      37.508  29.123  30.078  1.00  0.00     0.134 A 
ATOM     61  C   UNL A   1      38.028  29.630  27.795  1.00  0.00     0.134 A 
ATOM     62  F   UNL A   1      37.852  28.681  31.297  1.00  0.00    -0.206 F 
ATOM     63  C   UNL A   1      36.179  29.495  29.864  1.00  0.00     0.040 A 
ATOM     64  C   UNL A   1      36.706  30.024  27.574  1.00  0.00     0.040 A 
ATOM     65  F   UNL A   1      38.887  29.704  26.768  1.00  0.00    -0.206 F 
ATOM     66  C   UNL A   1      35.777  29.952  28.609  1.00  0.00     0.006 A 
ENDBRANCH  45  59
BRANCH  46  67
ATOM     67  C   UNL A   1      47.908  26.181  30.163  1.00  0.00     0.057 A 
ATOM     68  C   UNL A   1      48.392  25.630  31.354  1.00  0.00     0.134 A 
ATOM     69  C   UNL A   1      48.808  26.314  29.099  1.00  0.00     0.134 A 
ATOM     70  F   UNL A   1      47.582  25.501  32.416  1.00  0.00    -0.206 F 
ATOM     71  C   UNL A   1      49.723  25.233  31.487  1.00  0.00     0.040 A 
ATOM     72  C   UNL A   1      50.136  25.900  29.209  1.00  0.00     0.040 A 
ATOM     73  F   UNL A   1      48.404  26.836  27.932  1.00  0.00    -0.206 F 
ATOM     74  C   UNL A   1      50.598  25.361  30.408  1.00  0.00     0.006 A 
ENDBRANCH  46  67
BRANCH  58  75
ATOM     75  C   UNL A   1      44.579  32.167  31.400  1.00  0.00     0.057 A 
ATOM     76  C   UNL A   1      45.017  33.189  30.550  1.00  0.00     0.134 A 
ATOM     77  C   UNL A   1      44.552  32.430  32.774  1.00  0.00     0.134 A 
ATOM     78  F   UNL A   1      45.079  32.992  29.224  1.00  0.00    -0.206 F 
ATOM     79  C   UNL A   1      45.428  34.425  31.051  1.00  0.00     0.040 A 
ATOM     80  C   UNL A   1      44.941  33.669  33.286  1.00  0.00     0.040 A 
ATOM     81  F   UNL A   1      44.137  31.493  33.640  1.00  0.00    -0.206 F 
ATOM     82  C   UNL A   1      45.383  34.670  32.424  1.00  0.00     0.006 A 
ENDBRANCH  58  75
ENDBRANCH  32  33
ENDBRANCH  25  27
ENDBRANCH  24  25
ENDBRANCH  23  24
ENDBRANCH  22  23
ENDBRANCH   1  22
TORSDOF 17
ENDMDL
MODEL 3
REMARK VINA RESULT:      -8.5      5.786     11.775
REMARK SMILES CN1C(=O)Cc2cc([C@@H](O)CCCCC(=O)OCCOC(=O)c3ccc(-c4c5nc(c(-c6c(F)cccc6F)c6ccc([nH]6)c(-c6c(F)cccc6F)c6nc(c(-c7c(F)cccc7F)c7ccc4[nH]7)C=C6)C=C5)cc3)ccc21
REMARK SMILES IDX 17 1 15 2 16 3 14 4 13 5 12 6 11 7 9 8 8 9 1 10 2 11 3 12
REMARK SMILES IDX 79 13 4 14 5 15 6 16 78 17 7 18 77 19 10 20 18 22 19 23
REMARK SMILES IDX 20 24 21 25 22 26 23 27 24 28 76 29 25 30 75 31 26 32 27 33
REMARK SMILES IDX 28 34 69 35 29 36 74 37 68 38 70 39 30 40 73 41 67 42 66 43
REMARK SMILES IDX 31 45 57 46 40 47 56 48 41 49 44 50 55 51 71 52 42 53 43 54
REMARK SMILES IDX 54 56 72 57 45 58 32 59 33 60 38 61 34 62 35 63 37 64 39 65
REMARK SMILES IDX 36 66 58 67 59 68 64 69 60 70 61 71 63 72 65 73 62 74 46 75
REMARK SMILES IDX 47 76 52 77 48 78 49 79 51 80 53 81 50 82
REMARK H PARENT 10 21 70 44 44 55
REMARK Flexibility Score: inf
ROOT
ATOM      1  O   UNL A   1      34.606  34.786  28.933  1.00  0.00    -0.462 OA
ENDROOT
BRANCH   1   2
ATOM      2  C   UNL A   1      34.757  33.470  29.209  1.00  0.00     0.305 C 
ATOM      3  O   UNL A   1      34.134  32.854  30.066  1.00  0.00    -0.252 OA
BRANCH   2   4
ATOM      4  C   UNL A   1      35.828  32.821  28.359  1.00  0.00     0.123 C 
BRANCH   4   5
ATOM      5  C   UNL A   1      35.405  31.551  27.616  1.00  0.00     0.012 C 
BRANCH   5   6
ATOM      6  C   UNL A   1      35.690  30.229  28.338  1.00  0.00     0.004 C 
BRANCH   6   7
ATOM      7  C   UNL A   1      35.381  28.972  27.519  1.00  0.00     0.037 C 
BRANCH   7   8
ATOM      8  C   UNL A   1      34.006  29.000  26.834  1.00  0.00     0.144 C 
BRANCH   8   9
ATOM      9  C   UNL A   1      33.888  27.923  25.775  1.00  0.00    -0.019 A 
ATOM     10  C   UNL A   1      32.838  23.820  22.725  1.00  0.00     0.153 C 
ATOM     11  N   UNL A   1      33.144  25.225  22.708  1.00  0.00    -0.315 N 
ATOM     12  C   UNL A   1      33.180  26.013  21.555  1.00  0.00     0.231 C 
ATOM     13  C   UNL A   1      33.412  25.985  23.850  1.00  0.00     0.047 A 
ATOM     14  O   UNL A   1      32.977  25.653  20.406  1.00  0.00    -0.274 OA
ATOM     15  C   UNL A   1      33.516  27.441  21.989  1.00  0.00     0.138 C 
ATOM     16  C   UNL A   1      33.642  27.305  23.474  1.00  0.00    -0.014 A 
ATOM     17  C   UNL A   1      33.442  25.592  25.174  1.00  0.00     0.027 A 
ATOM     18  C   UNL A   1      33.897  28.282  24.416  1.00  0.00     0.012 A 
ATOM     19  C   UNL A   1      33.679  26.574  26.143  1.00  0.00     0.008 A 
ENDBRANCH   8   9
BRANCH   8  20
ATOM     20  O   UNL A   1      33.000  28.805  27.827  1.00  0.00    -0.388 OA
ATOM     21  H   UNL A   1      32.865  27.855  27.967  1.00  0.00     0.211 HD
ENDBRANCH   8  20
ENDBRANCH   7   8
ENDBRANCH   6   7
ENDBRANCH   5   6
ENDBRANCH   4   5
ENDBRANCH   2   4
ENDBRANCH   1   2
BRANCH   1  22
ATOM     22  C   UNL A   1      33.261  35.278  28.792  1.00  0.00     0.274 C 
BRANCH  22  23
ATOM     23  C   UNL A   1      32.911  36.224  29.941  1.00  0.00     0.275 C 
BRANCH  23  24
ATOM     24  O   UNL A   1      32.358  35.493  31.051  1.00  0.00    -0.458 OA
BRANCH  24  25
ATOM     25  C   UNL A   1      32.723  35.927  32.279  1.00  0.00     0.338 C 
ATOM     26  O   UNL A   1      32.159  36.745  32.982  1.00  0.00    -0.246 OA
BRANCH  25  27
ATOM     27  C   UNL A   1      33.887  35.150  32.729  1.00  0.00     0.060 A 
ATOM     28  C   UNL A   1      35.159  35.693  32.541  1.00  0.00     0.016 A 
ATOM     29  C   UNL A   1      33.729  33.874  33.270  1.00  0.00     0.016 A 
ATOM     30  C   UNL A   1      36.290  34.965  32.898  1.00  0.00     0.010 A 
ATOM     31  C   UNL A   1      34.865  33.144  33.631  1.00  0.00     0.010 A 
ATOM     32  C   UNL A   1      36.151  33.681  33.440  1.00  0.00    -0.014 A 
BRANCH  32  33
ATOM     33  C   UNL A   1      37.355  32.882  33.759  1.00  0.00     0.031 A 
ATOM     34  C   UNL A   1      38.098  33.134  35.038  1.00  0.00     0.074 A 
ATOM     35  C   UNL A   1      37.774  31.928  32.907  1.00  0.00     0.049 A 
ATOM     36  N   UNL A   1      39.226  32.617  35.455  1.00  0.00    -0.248 NA
ATOM     37  C   UNL A   1      37.492  34.097  35.970  1.00  0.00     0.031 C 
ATOM     38  C   UNL A   1      37.111  31.563  31.656  1.00  0.00     0.029 A 
ATOM     39  N   UNL A   1      38.864  31.099  32.965  1.00  0.00    -0.354 N 
ATOM     40  C   UNL A   1      39.478  33.211  36.684  1.00  0.00     0.074 A 
ATOM     41  C   UNL A   1      38.392  34.132  36.942  1.00  0.00     0.031 C 
ATOM     42  C   UNL A   1      37.814  30.587  31.059  1.00  0.00     0.029 A 
ATOM     43  C   UNL A   1      38.996  30.292  31.863  1.00  0.00     0.049 A 
ATOM     44  H   UNL A   1      39.494  31.085  33.722  1.00  0.00     0.167 HD
ATOM     45  C   UNL A   1      40.524  33.004  37.519  1.00  0.00     0.037 A 
ATOM     46  C   UNL A   1      39.977  29.433  31.525  1.00  0.00     0.037 A 
ATOM     47  C   UNL A   1      41.594  32.075  37.268  1.00  0.00     0.049 A 
ATOM     48  C   UNL A   1      41.149  29.254  32.449  1.00  0.00     0.074 A 
ATOM     49  C   UNL A   1      42.689  31.782  38.062  1.00  0.00     0.029 A 
ATOM     50  N   UNL A   1      41.700  31.287  36.132  1.00  0.00    -0.354 N 
ATOM     51  N   UNL A   1      41.383  29.824  33.605  1.00  0.00    -0.248 NA
ATOM     52  C   UNL A   1      42.197  28.318  32.017  1.00  0.00     0.031 C 
ATOM     53  C   UNL A   1      43.476  30.840  37.391  1.00  0.00     0.029 A 
ATOM     54  C   UNL A   1      42.852  30.519  36.195  1.00  0.00     0.049 A 
ATOM     55  H   UNL A   1      41.054  31.274  35.390  1.00  0.00     0.167 HD
ATOM     56  C   UNL A   1      42.594  29.307  34.047  1.00  0.00     0.074 A 
ATOM     57  C   UNL A   1      43.039  28.366  33.039  1.00  0.00     0.031 C 
ATOM     58  C   UNL A   1      43.277  29.588  35.183  1.00  0.00     0.037 A 
BRANCH  45  59
ATOM     59  C   UNL A   1      40.576  33.828  38.771  1.00  0.00     0.057 A 
ATOM     60  C   UNL A   1      39.946  33.419  39.953  1.00  0.00     0.134 A 
ATOM     61  C   UNL A   1      41.287  35.034  38.798  1.00  0.00     0.134 A 
ATOM     62  F   UNL A   1      39.237  32.281  39.987  1.00  0.00    -0.206 F 
ATOM     63  C   UNL A   1      40.005  34.193  41.114  1.00  0.00     0.040 A 
ATOM     64  C   UNL A   1      41.370  35.806  39.959  1.00  0.00     0.040 A 
ATOM     65  F   UNL A   1      41.914  35.480  37.699  1.00  0.00    -0.206 F 
ATOM     66  C   UNL A   1      40.724  35.388  41.120  1.00  0.00     0.006 A 
ENDBRANCH  45  59
BRANCH  46  67
ATOM     67  C   UNL A   1      39.902  28.696  30.240  1.00  0.00     0.057 A 
ATOM     68  C   UNL A   1      39.231  27.472  30.144  1.00  0.00     0.134 A 
ATOM     69  C   UNL A   1      40.499  29.200  29.079  1.00  0.00     0.134 A 
ATOM     70  F   UNL A   1      38.661  26.928  31.229  1.00  0.00    -0.206 F 
ATOM     71  C   UNL A   1      39.163  26.771  28.940  1.00  0.00     0.040 A 
ATOM     72  C   UNL A   1      40.419  28.521  27.863  1.00  0.00     0.040 A 
ATOM     73  F   UNL A   1      41.157  30.368  29.108  1.00  0.00    -0.206 F 
ATOM     74  C   UNL A   1      39.753  27.299  27.793  1.00  0.00     0.006 A 
ENDBRANCH  46  67
BRANCH  58  75
ATOM     75  C   UNL A   1      44.563  28.850  35.407  1.00  0.00     0.057 A 
ATOM     76  C   UNL A   1      44.596  27.615  36.066  1.00  0.00     0.134 A 
ATOM     77  C   UNL A   1      45.773  29.363  34.926  1.00  0.00     0.134 A 
ATOM     78  F   UNL A   1      43.471  27.078  36.561  1.00  0.00    -0.206 F 
ATOM     79  C   UNL A   1      45.794  26.924  36.254  1.00  0.00     0.040 A 
ATOM     80  C   UNL A   1      46.974  28.671  35.090  1.00  0.00     0.040 A 
ATOM     81  F   UNL A   1      45.806  30.539  34.281  1.00  0.00    -0.206 F 
ATOM     82  C   UNL A   1      46.986  27.449  35.758  1.00  0.00     0.006 A 
ENDBRANCH  58  75
ENDBRANCH  32  33
ENDBRANCH  25  27
ENDBRANCH  24  25
ENDBRANCH  23  24
ENDBRANCH  22  23
ENDBRANCH   1  22
TORSDOF 17
ENDMDL
