MODEL 1
REMARK VINA RESULT:     -11.7      0.000      0.000
REMARK SMILES N#CC1=C(N)N2C(=O)[C@@H](CC(=O)OCCOC(=O)c3ccc(-c4c5nc(c(-c6c(F)cccc6F)c6ccc([nH]6)c(-c6c(F)cccc6F)c6nc(c(-c7c(F)cccc7F)c7ccc4[nH]7)C=C6)C=C5)cc3)SC2=C(C#N)[C@H]1c1ccc(Cl)cc1
REMARK SMILES IDX 14 1 13 2 11 3 12 4 10 5 9 6 3 7 4 8 78 9 6 10 75 11 7 12
REMARK SMILES IDX 74 13 8 14 73 15 2 16 1 17 5 18 79 21 80 22 85 23 81 24
REMARK SMILES IDX 84 25 82 26 83 27 76 28 77 29 15 30 16 31 17 32 18 33 19 34
REMARK SMILES IDX 20 35 72 36 21 37 71 38 22 39 23 40 24 41 65 42 25 43 70 44
REMARK SMILES IDX 64 45 66 46 26 47 69 48 63 49 62 50 27 52 53 53 36 54 52 55
REMARK SMILES IDX 37 56 40 57 51 58 67 59 38 60 39 61 50 63 68 64 41 65 28 66
REMARK SMILES IDX 29 67 34 68 30 69 31 70 33 71 35 72 32 73 54 74 55 75 60 76
REMARK SMILES IDX 56 77 57 78 59 79 61 80 58 81 42 82 43 83 48 84 44 85 45 86
REMARK SMILES IDX 47 87 49 88 46 89
REMARK H PARENT 5 19 5 20 66 51 40 62
REMARK Flexibility Score: inf
ROOT
ATOM      1  C   UNL A   1      32.390  30.953  26.883  1.00  0.00     0.274 C 
ENDROOT
BRANCH   1   2
ATOM      2  O   UNL A   1      32.304  29.538  26.608  1.00  0.00    -0.462 OA
BRANCH   2   3
ATOM      3  C   UNL A   1      32.427  29.171  25.317  1.00  0.00     0.307 C 
ATOM      4  O   UNL A   1      33.488  29.151  24.702  1.00  0.00    -0.252 OA
BRANCH   3   5
ATOM      5  C   UNL A   1      31.120  28.871  24.632  1.00  0.00     0.147 C 
BRANCH   5   6
ATOM      6  C   UNL A   1      30.578  27.446  24.502  1.00  0.00     0.154 C 
ATOM      7  C   UNL A   1      32.974  23.408  25.505  1.00  0.00     0.083 C 
ATOM      8  C   UNL A   1      32.091  24.320  25.986  1.00  0.00     0.126 C 
ATOM      9  C   UNL A   1      33.511  23.405  24.103  1.00  0.00     0.107 C 
ATOM     10  N   UNL A   1      31.666  25.376  25.168  1.00  0.00    -0.258 N 
ATOM     11  C   UNL A   1      32.944  24.563  23.299  1.00  0.00     0.073 C 
ATOM     12  C   UNL A   1      30.801  26.404  25.595  1.00  0.00     0.247 C 
ATOM     13  C   UNL A   1      32.081  25.429  23.853  1.00  0.00     0.099 C 
ATOM     14  O   UNL A   1      30.228  26.455  26.683  1.00  0.00    -0.273 OA
ATOM     15  S   UNL A   1      31.276  26.685  22.982  1.00  0.00    -0.093 SA
BRANCH   7  16
ATOM     16  C   UNL A   1      33.283  22.162  26.319  1.00  0.00     0.100 C 
ATOM     17  N   UNL A   1      33.539  21.128  26.994  1.00  0.00    -0.193 NA
ENDBRANCH   7  16
BRANCH   8  18
ATOM     18  N   UNL A   1      31.578  24.212  27.254  1.00  0.00    -0.384 N 
ATOM     19  H   UNL A   1      30.824  24.782  27.529  1.00  0.00     0.158 HD
ATOM     20  H   UNL A   1      31.964  23.567  27.888  1.00  0.00     0.158 HD
ENDBRANCH   8  18
BRANCH   9  21
ATOM     21  C   UNL A   1      35.021  23.210  24.278  1.00  0.00    -0.034 A 
ATOM     22  C   UNL A   1      35.762  24.099  25.069  1.00  0.00     0.006 A 
ATOM     23  C   UNL A   1      35.588  21.942  24.010  1.00  0.00     0.006 A 
ATOM     24  C   UNL A   1      37.018  23.742  25.574  1.00  0.00     0.021 A 
ATOM     25  C   UNL A   1      36.837  21.581  24.533  1.00  0.00     0.021 A 
ATOM     26  C   UNL A   1      37.551  22.487  25.309  1.00  0.00     0.041 A 
ATOM     27  Cl  UNL A   1      39.064  22.044  25.991  1.00  0.00    -0.084 Cl
ENDBRANCH   9  21
BRANCH  11  28
ATOM     28  C   UNL A   1      33.162  24.551  21.795  1.00  0.00     0.098 C 
ATOM     29  N   UNL A   1      33.342  24.540  20.547  1.00  0.00    -0.193 NA
ENDBRANCH  11  28
ENDBRANCH   5   6
ENDBRANCH   3   5
ENDBRANCH   2   3
ENDBRANCH   1   2
BRANCH   1  30
ATOM     30  C   UNL A   1      33.671  31.344  27.640  1.00  0.00     0.275 C 
BRANCH  30  31
ATOM     31  O   UNL A   1      34.465  30.202  28.051  1.00  0.00    -0.458 OA
BRANCH  31  32
ATOM     32  C   UNL A   1      35.591  30.538  28.700  1.00  0.00     0.338 C 
ATOM     33  O   UNL A   1      35.723  31.508  29.451  1.00  0.00    -0.246 OA
BRANCH  32  34
ATOM     34  C   UNL A   1      36.758  29.673  28.513  1.00  0.00     0.060 A 
ATOM     35  C   UNL A   1      37.322  29.124  29.678  1.00  0.00     0.016 A 
ATOM     36  C   UNL A   1      37.490  29.715  27.329  1.00  0.00     0.016 A 
ATOM     37  C   UNL A   1      38.654  28.720  29.698  1.00  0.00     0.010 A 
ATOM     38  C   UNL A   1      38.828  29.298  27.354  1.00  0.00     0.010 A 
ATOM     39  C   UNL A   1      39.439  28.870  28.553  1.00  0.00    -0.014 A 
BRANCH  39  40
ATOM     40  C   UNL A   1      40.871  28.488  28.564  1.00  0.00     0.031 A 
ATOM     41  C   UNL A   1      41.991  29.468  28.757  1.00  0.00     0.074 A 
ATOM     42  C   UNL A   1      41.164  27.195  28.379  1.00  0.00     0.049 A 
ATOM     43  N   UNL A   1      43.226  29.424  28.322  1.00  0.00    -0.248 NA
ATOM     44  C   UNL A   1      41.690  30.658  29.547  1.00  0.00     0.031 C 
ATOM     45  C   UNL A   1      40.181  26.119  28.295  1.00  0.00     0.029 A 
ATOM     46  N   UNL A   1      42.374  26.587  28.207  1.00  0.00    -0.354 N 
ATOM     47  C   UNL A   1      43.797  30.650  28.664  1.00  0.00     0.074 A 
ATOM     48  C   UNL A   1      42.789  31.386  29.387  1.00  0.00     0.031 C 
ATOM     49  C   UNL A   1      40.825  24.977  28.026  1.00  0.00     0.029 A 
ATOM     50  C   UNL A   1      42.251  25.264  27.881  1.00  0.00     0.049 A 
ATOM     51  H   UNL A   1      43.238  27.048  28.306  1.00  0.00     0.167 HD
ATOM     52  C   UNL A   1      45.054  31.094  28.410  1.00  0.00     0.037 A 
ATOM     53  C   UNL A   1      43.182  24.395  27.457  1.00  0.00     0.037 A 
ATOM     54  C   UNL A   1      46.115  30.223  27.961  1.00  0.00     0.049 A 
ATOM     55  C   UNL A   1      44.605  24.842  27.362  1.00  0.00     0.074 A 
ATOM     56  C   UNL A   1      47.455  30.511  27.764  1.00  0.00     0.029 A 
ATOM     57  N   UNL A   1      45.966  28.861  27.748  1.00  0.00    -0.354 N 
ATOM     58  N   UNL A   1      45.096  26.053  27.463  1.00  0.00    -0.248 NA
ATOM     59  C   UNL A   1      45.606  23.798  27.128  1.00  0.00     0.031 C 
ATOM     60  C   UNL A   1      48.122  29.317  27.470  1.00  0.00     0.029 A 
ATOM     61  C   UNL A   1      47.199  28.285  27.498  1.00  0.00     0.049 A 
ATOM     62  H   UNL A   1      45.110  28.375  27.772  1.00  0.00     0.167 HD
ATOM     63  C   UNL A   1      46.468  25.918  27.321  1.00  0.00     0.074 A 
ATOM     64  C   UNL A   1      46.729  24.502  27.141  1.00  0.00     0.031 C 
ATOM     65  C   UNL A   1      47.428  26.875  27.334  1.00  0.00     0.037 A 
BRANCH  52  66
ATOM     66  C   UNL A   1      45.405  32.544  28.640  1.00  0.00     0.057 A 
ATOM     67  C   UNL A   1      46.007  33.009  29.815  1.00  0.00     0.134 A 
ATOM     68  C   UNL A   1      45.266  33.469  27.591  1.00  0.00     0.134 A 
ATOM     69  F   UNL A   1      46.185  32.188  30.860  1.00  0.00    -0.206 F 
ATOM     70  C   UNL A   1      46.446  34.332  29.943  1.00  0.00     0.040 A 
ATOM     71  C   UNL A   1      45.733  34.784  27.694  1.00  0.00     0.040 A 
ATOM     72  F   UNL A   1      44.720  33.098  26.423  1.00  0.00    -0.206 F 
ATOM     73  C   UNL A   1      46.325  35.218  28.875  1.00  0.00     0.006 A 
ENDBRANCH  52  66
BRANCH  53  74
ATOM     74  C   UNL A   1      42.746  23.029  27.110  1.00  0.00     0.057 A 
ATOM     75  C   UNL A   1      42.761  22.584  25.787  1.00  0.00     0.134 A 
ATOM     76  C   UNL A   1      42.446  22.099  28.114  1.00  0.00     0.134 A 
ATOM     77  F   UNL A   1      43.047  23.434  24.792  1.00  0.00    -0.206 F 
ATOM     78  C   UNL A   1      42.495  21.253  25.470  1.00  0.00     0.040 A 
ATOM     79  C   UNL A   1      42.200  20.762  27.813  1.00  0.00     0.040 A 
ATOM     80  F   UNL A   1      42.453  22.468  29.405  1.00  0.00    -0.206 F 
ATOM     81  C   UNL A   1      42.226  20.335  26.487  1.00  0.00     0.006 A 
ENDBRANCH  53  74
BRANCH  65  82
ATOM     82  C   UNL A   1      48.841  26.407  27.192  1.00  0.00     0.057 A 
ATOM     83  C   UNL A   1      49.472  26.354  25.945  1.00  0.00     0.134 A 
ATOM     84  C   UNL A   1      49.574  26.006  28.315  1.00  0.00     0.134 A 
ATOM     85  F   UNL A   1      48.814  26.718  24.834  1.00  0.00    -0.206 F 
ATOM     86  C   UNL A   1      50.780  25.888  25.814  1.00  0.00     0.040 A 
ATOM     87  C   UNL A   1      50.888  25.553  28.199  1.00  0.00     0.040 A 
ATOM     88  F   UNL A   1      49.024  26.044  29.538  1.00  0.00    -0.206 F 
ATOM     89  C   UNL A   1      51.491  25.486  26.944  1.00  0.00     0.006 A 
ENDBRANCH  65  82
ENDBRANCH  39  40
ENDBRANCH  32  34
ENDBRANCH  31  32
ENDBRANCH  30  31
ENDBRANCH   1  30
TORSDOF 16
ENDMDL
MODEL 2
REMARK VINA RESULT:     -11.7      0.471      1.029
REMARK SMILES N#CC1=C(N)N2C(=O)[C@@H](CC(=O)OCCOC(=O)c3ccc(-c4c5nc(c(-c6c(F)cccc6F)c6ccc([nH]6)c(-c6c(F)cccc6F)c6nc(c(-c7c(F)cccc7F)c7ccc4[nH]7)C=C6)C=C5)cc3)SC2=C(C#N)[C@H]1c1ccc(Cl)cc1
REMARK SMILES IDX 14 1 13 2 11 3 12 4 10 5 9 6 3 7 4 8 78 9 6 10 75 11 7 12
REMARK SMILES IDX 74 13 8 14 73 15 2 16 1 17 5 18 79 21 80 22 85 23 81 24
REMARK SMILES IDX 84 25 82 26 83 27 76 28 77 29 15 30 16 31 17 32 18 33 19 34
REMARK SMILES IDX 20 35 72 36 21 37 71 38 22 39 23 40 24 41 65 42 25 43 70 44
REMARK SMILES IDX 64 45 66 46 26 47 69 48 63 49 62 50 27 52 53 53 36 54 52 55
REMARK SMILES IDX 37 56 40 57 51 58 67 59 38 60 39 61 50 63 68 64 41 65 28 66
REMARK SMILES IDX 29 67 34 68 30 69 31 70 33 71 35 72 32 73 54 74 55 75 60 76
REMARK SMILES IDX 56 77 57 78 59 79 61 80 58 81 42 82 43 83 48 84 44 85 45 86
REMARK SMILES IDX 47 87 49 88 46 89
REMARK H PARENT 5 19 5 20 66 51 40 62
REMARK Flexibility Score: inf
ROOT
ATOM      1  C   UNL A   1      33.071  29.422  26.308  1.00  0.00     0.274 C 
ENDROOT
BRANCH   1   2
ATOM      2  O   UNL A   1      33.377  28.606  25.156  1.00  0.00    -0.462 OA
BRANCH   2   3
ATOM      3  C   UNL A   1      32.631  28.824  24.054  1.00  0.00     0.307 C 
ATOM      4  O   UNL A   1      33.063  29.303  23.010  1.00  0.00    -0.252 OA
BRANCH   3   5
ATOM      5  C   UNL A   1      31.167  28.519  24.228  1.00  0.00     0.147 C 
BRANCH   5   6
ATOM      6  C   UNL A   1      30.633  27.086  24.271  1.00  0.00     0.154 C 
ATOM      7  C   UNL A   1      33.076  23.204  25.693  1.00  0.00     0.083 C 
ATOM      8  C   UNL A   1      32.193  24.160  26.081  1.00  0.00     0.126 C 
ATOM      9  C   UNL A   1      33.590  23.043  24.293  1.00  0.00     0.107 C 
ATOM     10  N   UNL A   1      31.747  25.113  25.153  1.00  0.00    -0.258 N 
ATOM     11  C   UNL A   1      33.003  24.098  23.370  1.00  0.00     0.073 C 
ATOM     12  C   UNL A   1      30.881  26.178  25.473  1.00  0.00     0.247 C 
ATOM     13  C   UNL A   1      32.142  25.016  23.835  1.00  0.00     0.099 C 
ATOM     14  O   UNL A   1      30.325  26.351  26.557  1.00  0.00    -0.273 OA
ATOM     15  S   UNL A   1      31.314  26.159  22.838  1.00  0.00    -0.093 SA
BRANCH   7  16
ATOM     16  C   UNL A   1      33.406  22.062  26.640  1.00  0.00     0.100 C 
ATOM     17  N   UNL A   1      33.681  21.114  27.426  1.00  0.00    -0.193 NA
ENDBRANCH   7  16
BRANCH   8  18
ATOM     18  N   UNL A   1      31.701  24.196  27.361  1.00  0.00    -0.384 N 
ATOM     19  H   UNL A   1      31.087  23.491  27.672  1.00  0.00     0.158 HD
ATOM     20  H   UNL A   1      31.959  24.926  27.967  1.00  0.00     0.158 HD
ENDBRANCH   8  18
BRANCH   9  21
ATOM     21  C   UNL A   1      35.105  22.877  24.465  1.00  0.00    -0.034 A 
ATOM     22  C   UNL A   1      35.870  23.912  25.020  1.00  0.00     0.006 A 
ATOM     23  C   UNL A   1      35.661  21.577  24.467  1.00  0.00     0.006 A 
ATOM     24  C   UNL A   1      37.139  23.664  25.556  1.00  0.00     0.021 A 
ATOM     25  C   UNL A   1      36.924  21.329  25.022  1.00  0.00     0.021 A 
ATOM     26  C   UNL A   1      37.661  22.377  25.560  1.00  0.00     0.041 A 
ATOM     27  Cl  UNL A   1      39.193  22.082  26.281  1.00  0.00    -0.084 Cl
ENDBRANCH   9  21
BRANCH  11  28
ATOM     28  C   UNL A   1      33.198  23.913  21.874  1.00  0.00     0.098 C 
ATOM     29  N   UNL A   1      33.359  23.760  20.633  1.00  0.00    -0.193 NA
ENDBRANCH  11  28
ENDBRANCH   5   6
ENDBRANCH   3   5
ENDBRANCH   2   3
ENDBRANCH   1   2
BRANCH   1  30
ATOM     30  C   UNL A   1      34.145  29.342  27.406  1.00  0.00     0.275 C 
BRANCH  30  31
ATOM     31  O   UNL A   1      34.769  30.620  27.692  1.00  0.00    -0.458 OA
BRANCH  31  32
ATOM     32  C   UNL A   1      35.673  30.566  28.682  1.00  0.00     0.338 C 
ATOM     33  O   UNL A   1      35.601  31.178  29.751  1.00  0.00    -0.246 OA
BRANCH  32  34
ATOM     34  C   UNL A   1      36.835  29.697  28.485  1.00  0.00     0.060 A 
ATOM     35  C   UNL A   1      37.396  29.131  29.644  1.00  0.00     0.016 A 
ATOM     36  C   UNL A   1      37.567  29.748  27.302  1.00  0.00     0.016 A 
ATOM     37  C   UNL A   1      38.726  28.720  29.659  1.00  0.00     0.010 A 
ATOM     38  C   UNL A   1      38.903  29.324  27.321  1.00  0.00     0.010 A 
ATOM     39  C   UNL A   1      39.511  28.878  28.515  1.00  0.00    -0.014 A 
BRANCH  39  40
ATOM     40  C   UNL A   1      40.942  28.489  28.521  1.00  0.00     0.031 A 
ATOM     41  C   UNL A   1      42.068  29.464  28.701  1.00  0.00     0.074 A 
ATOM     42  C   UNL A   1      41.226  27.193  28.345  1.00  0.00     0.049 A 
ATOM     43  N   UNL A   1      43.300  29.410  28.259  1.00  0.00    -0.248 NA
ATOM     44  C   UNL A   1      41.778  30.661  29.484  1.00  0.00     0.031 C 
ATOM     45  C   UNL A   1      40.237  26.122  28.274  1.00  0.00     0.029 A 
ATOM     46  N   UNL A   1      42.432  26.577  28.170  1.00  0.00    -0.354 N 
ATOM     47  C   UNL A   1      43.880  30.635  28.589  1.00  0.00     0.074 A 
ATOM     48  C   UNL A   1      42.880  31.383  29.312  1.00  0.00     0.031 C 
ATOM     49  C   UNL A   1      40.874  24.974  28.010  1.00  0.00     0.029 A 
ATOM     50  C   UNL A   1      42.300  25.253  27.855  1.00  0.00     0.049 A 
ATOM     51  H   UNL A   1      43.299  27.033  28.262  1.00  0.00     0.167 HD
ATOM     52  C   UNL A   1      45.138  31.070  28.325  1.00  0.00     0.037 A 
ATOM     53  C   UNL A   1      43.224  24.375  27.433  1.00  0.00     0.037 A 
ATOM     54  C   UNL A   1      46.192  30.190  27.877  1.00  0.00     0.049 A 
ATOM     55  C   UNL A   1      44.649  24.813  27.326  1.00  0.00     0.074 A 
ATOM     56  C   UNL A   1      47.533  30.469  27.671  1.00  0.00     0.029 A 
ATOM     57  N   UNL A   1      46.034  28.827  27.675  1.00  0.00    -0.354 N 
ATOM     58  N   UNL A   1      45.147  26.022  27.416  1.00  0.00    -0.248 NA
ATOM     59  C   UNL A   1      45.643  23.762  27.095  1.00  0.00     0.031 C 
ATOM     60  C   UNL A   1      48.191  29.269  27.382  1.00  0.00     0.029 A 
ATOM     61  C   UNL A   1      47.262  28.243  27.422  1.00  0.00     0.049 A 
ATOM     62  H   UNL A   1      45.176  28.346  27.707  1.00  0.00     0.167 HD
ATOM     63  C   UNL A   1      46.517  25.878  27.267  1.00  0.00     0.074 A 
ATOM     64  C   UNL A   1      46.770  24.460  27.097  1.00  0.00     0.031 C 
ATOM     65  C   UNL A   1      47.483  26.830  27.268  1.00  0.00     0.037 A 
BRANCH  52  66
ATOM     66  C   UNL A   1      45.498  32.520  28.542  1.00  0.00     0.057 A 
ATOM     67  C   UNL A   1      46.133  32.986  29.699  1.00  0.00     0.134 A 
ATOM     68  C   UNL A   1      45.332  33.443  27.495  1.00  0.00     0.134 A 
ATOM     69  F   UNL A   1      46.337  32.167  30.741  1.00  0.00    -0.206 F 
ATOM     70  C   UNL A   1      46.578  34.309  29.813  1.00  0.00     0.040 A 
ATOM     71  C   UNL A   1      45.805  34.757  27.583  1.00  0.00     0.040 A 
ATOM     72  F   UNL A   1      44.754  33.071  26.344  1.00  0.00    -0.206 F 
ATOM     73  C   UNL A   1      46.430  35.193  28.747  1.00  0.00     0.006 A 
ENDBRANCH  52  66
BRANCH  53  74
ATOM     74  C   UNL A   1      42.778  23.009  27.099  1.00  0.00     0.057 A 
ATOM     75  C   UNL A   1      42.777  22.556  25.778  1.00  0.00     0.134 A 
ATOM     76  C   UNL A   1      42.485  22.086  28.111  1.00  0.00     0.134 A 
ATOM     77  F   UNL A   1      43.057  23.399  24.775  1.00  0.00    -0.206 F 
ATOM     78  C   UNL A   1      42.502  21.224  25.472  1.00  0.00     0.040 A 
ATOM     79  C   UNL A   1      42.230  20.748  27.821  1.00  0.00     0.040 A 
ATOM     80  F   UNL A   1      42.507  22.463  29.399  1.00  0.00    -0.206 F 
ATOM     81  C   UNL A   1      42.240  20.314  26.497  1.00  0.00     0.006 A 
ENDBRANCH  53  74
BRANCH  65  82
ATOM     82  C   UNL A   1      48.892  26.353  27.122  1.00  0.00     0.057 A 
ATOM     83  C   UNL A   1      49.638  25.925  28.225  1.00  0.00     0.134 A 
ATOM     84  C   UNL A   1      49.506  26.323  25.864  1.00  0.00     0.134 A 
ATOM     85  F   UNL A   1      49.102  25.941  29.455  1.00  0.00    -0.206 F 
ATOM     86  C   UNL A   1      50.962  25.509  28.087  1.00  0.00     0.040 A 
ATOM     87  C   UNL A   1      50.825  25.895  25.711  1.00  0.00     0.040 A 
ATOM     88  F   UNL A   1      48.837  26.714  24.769  1.00  0.00    -0.206 F 
ATOM     89  C   UNL A   1      51.558  25.494  26.827  1.00  0.00     0.006 A 
ENDBRANCH  65  82
ENDBRANCH  39  40
ENDBRANCH  32  34
ENDBRANCH  31  32
ENDBRANCH  30  31
ENDBRANCH   1  30
TORSDOF 16
ENDMDL
MODEL 3
REMARK VINA RESULT:     -11.3      5.395      9.807
REMARK SMILES N#CC1=C(N)N2C(=O)[C@@H](CC(=O)OCCOC(=O)c3ccc(-c4c5nc(c(-c6c(F)cccc6F)c6ccc([nH]6)c(-c6c(F)cccc6F)c6nc(c(-c7c(F)cccc7F)c7ccc4[nH]7)C=C6)C=C5)cc3)SC2=C(C#N)[C@H]1c1ccc(Cl)cc1
REMARK SMILES IDX 14 1 13 2 11 3 12 4 10 5 9 6 3 7 4 8 78 9 6 10 75 11 7 12
REMARK SMILES IDX 74 13 8 14 73 15 2 16 1 17 5 18 79 21 80 22 85 23 81 24
REMARK SMILES IDX 84 25 82 26 83 27 76 28 77 29 15 30 16 31 17 32 18 33 19 34
REMARK SMILES IDX 20 35 72 36 21 37 71 38 22 39 23 40 24 41 65 42 25 43 70 44
REMARK SMILES IDX 64 45 66 46 26 47 69 48 63 49 62 50 27 52 53 53 36 54 52 55
REMARK SMILES IDX 37 56 40 57 51 58 67 59 38 60 39 61 50 63 68 64 41 65 28 66
REMARK SMILES IDX 29 67 34 68 30 69 31 70 33 71 35 72 32 73 54 74 55 75 60 76
REMARK SMILES IDX 56 77 57 78 59 79 61 80 58 81 42 82 43 83 48 84 44 85 45 86
REMARK SMILES IDX 47 87 49 88 46 89
REMARK H PARENT 5 19 5 20 66 51 40 62
REMARK Flexibility Score: inf
ROOT
ATOM      1  C   UNL A   1      37.355  22.128  25.539  1.00  0.00     0.274 C 
ENDROOT
BRANCH   1   2
ATOM      2  O   UNL A   1      36.046  22.517  25.067  1.00  0.00    -0.462 OA
BRANCH   2   3
ATOM      3  C   UNL A   1      35.020  21.723  25.432  1.00  0.00     0.307 C 
ATOM      4  O   UNL A   1      34.749  21.431  26.593  1.00  0.00    -0.252 OA
BRANCH   3   5
ATOM      5  C   UNL A   1      34.260  21.124  24.278  1.00  0.00     0.147 C 
BRANCH   5   6
ATOM      6  C   UNL A   1      33.136  21.876  23.564  1.00  0.00     0.154 C 
ATOM      7  C   UNL A   1      32.364  26.613  23.720  1.00  0.00     0.083 C 
ATOM      8  C   UNL A   1      32.928  25.606  23.005  1.00  0.00     0.126 C 
ATOM      9  C   UNL A   1      31.538  26.415  24.957  1.00  0.00     0.107 C 
ATOM     10  N   UNL A   1      32.800  24.281  23.447  1.00  0.00    -0.258 N 
ATOM     11  C   UNL A   1      31.429  24.941  25.310  1.00  0.00     0.073 C 
ATOM     12  C   UNL A   1      33.399  23.177  22.809  1.00  0.00     0.247 C 
ATOM     13  C   UNL A   1      32.026  24.006  24.556  1.00  0.00     0.099 C 
ATOM     14  O   UNL A   1      34.012  23.208  21.742  1.00  0.00    -0.273 OA
ATOM     15  S   UNL A   1      31.839  22.305  24.793  1.00  0.00    -0.093 SA
BRANCH   7  16
ATOM     16  C   UNL A   1      32.336  28.018  23.141  1.00  0.00     0.100 C 
ATOM     17  N   UNL A   1      32.313  29.184  22.662  1.00  0.00    -0.193 NA
ENDBRANCH   7  16
BRANCH   8  18
ATOM     18  N   UNL A   1      33.600  25.855  21.835  1.00  0.00    -0.384 N 
ATOM     19  H   UNL A   1      34.077  25.124  21.377  1.00  0.00     0.158 HD
ATOM     20  H   UNL A   1      33.607  26.762  21.454  1.00  0.00     0.158 HD
ENDBRANCH   8  18
BRANCH   9  21
ATOM     21  C   UNL A   1      32.096  27.441  25.951  1.00  0.00    -0.034 A 
ATOM     22  C   UNL A   1      33.450  27.410  26.313  1.00  0.00     0.006 A 
ATOM     23  C   UNL A   1      31.385  28.643  26.171  1.00  0.00     0.006 A 
ATOM     24  C   UNL A   1      34.073  28.531  26.875  1.00  0.00     0.021 A 
ATOM     25  C   UNL A   1      32.017  29.769  26.716  1.00  0.00     0.021 A 
ATOM     26  C   UNL A   1      33.359  29.707  27.071  1.00  0.00     0.041 A 
ATOM     27  Cl  UNL A   1      34.158  31.091  27.702  1.00  0.00    -0.084 Cl
ENDBRANCH   9  21
BRANCH  11  28
ATOM     28  C   UNL A   1      30.408  24.542  26.364  1.00  0.00     0.098 C 
ATOM     29  N   UNL A   1      29.562  24.211  27.238  1.00  0.00    -0.193 NA
ENDBRANCH  11  28
ENDBRANCH   5   6
ENDBRANCH   3   5
ENDBRANCH   2   3
ENDBRANCH   1   2
BRANCH   1  30
ATOM     30  C   UNL A   1      38.292  23.326  25.770  1.00  0.00     0.275 C 
BRANCH  30  31
ATOM     31  O   UNL A   1      39.420  23.015  26.628  1.00  0.00    -0.458 OA
BRANCH  31  32
ATOM     32  C   UNL A   1      40.350  23.981  26.662  1.00  0.00     0.338 C 
ATOM     33  O   UNL A   1      41.481  23.904  26.174  1.00  0.00    -0.246 OA
BRANCH  32  34
ATOM     34  C   UNL A   1      39.990  25.238  27.321  1.00  0.00     0.060 A 
ATOM     35  C   UNL A   1      40.789  26.355  27.018  1.00  0.00     0.016 A 
ATOM     36  C   UNL A   1      39.183  25.238  28.456  1.00  0.00     0.016 A 
ATOM     37  C   UNL A   1      40.874  27.427  27.902  1.00  0.00     0.010 A 
ATOM     38  C   UNL A   1      39.266  26.324  29.337  1.00  0.00     0.010 A 
ATOM     39  C   UNL A   1      40.165  27.388  29.104  1.00  0.00    -0.014 A 
BRANCH  39  40
ATOM     40  C   UNL A   1      40.275  28.498  30.081  1.00  0.00     0.031 A 
ATOM     41  C   UNL A   1      41.243  28.505  31.227  1.00  0.00     0.074 A 
ATOM     42  C   UNL A   1      39.449  29.540  29.923  1.00  0.00     0.049 A 
ATOM     43  N   UNL A   1      41.152  29.089  32.396  1.00  0.00    -0.248 NA
ATOM     44  C   UNL A   1      42.483  27.757  31.040  1.00  0.00     0.031 C 
ATOM     45  C   UNL A   1      38.541  29.723  28.794  1.00  0.00     0.029 A 
ATOM     46  N   UNL A   1      39.234  30.618  30.732  1.00  0.00    -0.354 N 
ATOM     47  C   UNL A   1      42.257  28.654  33.129  1.00  0.00     0.074 A 
ATOM     48  C   UNL A   1      43.023  27.803  32.252  1.00  0.00     0.031 C 
ATOM     49  C   UNL A   1      37.815  30.827  29.009  1.00  0.00     0.029 A 
ATOM     50  C   UNL A   1      38.187  31.388  30.306  1.00  0.00     0.049 A 
ATOM     51  H   UNL A   1      39.771  30.819  31.531  1.00  0.00     0.167 HD
ATOM     52  C   UNL A   1      42.596  28.964  34.406  1.00  0.00     0.037 A 
ATOM     53  C   UNL A   1      37.562  32.402  30.925  1.00  0.00     0.037 A 
ATOM     54  C   UNL A   1      41.978  30.045  35.138  1.00  0.00     0.049 A 
ATOM     55  C   UNL A   1      38.063  32.865  32.254  1.00  0.00     0.074 A 
ATOM     56  C   UNL A   1      42.291  30.538  36.394  1.00  0.00     0.029 A 
ATOM     57  N   UNL A   1      40.991  30.872  34.622  1.00  0.00    -0.354 N 
ATOM     58  N   UNL A   1      38.952  32.305  33.039  1.00  0.00    -0.248 NA
ATOM     59  C   UNL A   1      37.501  34.117  32.769  1.00  0.00     0.031 C 
ATOM     60  C   UNL A   1      41.520  31.683  36.620  1.00  0.00     0.029 A 
ATOM     61  C   UNL A   1      40.739  31.910  35.500  1.00  0.00     0.049 A 
ATOM     62  H   UNL A   1      40.538  30.739  33.758  1.00  0.00     0.167 HD
ATOM     63  C   UNL A   1      39.070  33.145  34.135  1.00  0.00     0.074 A 
ATOM     64  C   UNL A   1      38.171  34.259  33.904  1.00  0.00     0.031 C 
ATOM     65  C   UNL A   1      39.848  33.008  35.237  1.00  0.00     0.037 A 
BRANCH  52  66
ATOM     66  C   UNL A   1      43.692  28.197  35.105  1.00  0.00     0.057 A 
ATOM     67  C   UNL A   1      45.001  28.676  35.232  1.00  0.00     0.134 A 
ATOM     68  C   UNL A   1      43.382  27.012  35.794  1.00  0.00     0.134 A 
ATOM     69  F   UNL A   1      45.375  29.805  34.613  1.00  0.00    -0.206 F 
ATOM     70  C   UNL A   1      45.958  28.008  36.004  1.00  0.00     0.040 A 
ATOM     71  C   UNL A   1      44.320  26.354  36.598  1.00  0.00     0.040 A 
ATOM     72  F   UNL A   1      42.144  26.497  35.744  1.00  0.00    -0.206 F 
ATOM     73  C   UNL A   1      45.614  26.853  36.703  1.00  0.00     0.006 A 
ENDBRANCH  52  66
BRANCH  53  74
ATOM     74  C   UNL A   1      36.403  33.016  30.248  1.00  0.00     0.057 A 
ATOM     75  C   UNL A   1      35.108  32.842  30.740  1.00  0.00     0.134 A 
ATOM     76  C   UNL A   1      36.588  33.906  29.182  1.00  0.00     0.134 A 
ATOM     77  F   UNL A   1      34.881  32.006  31.762  1.00  0.00    -0.206 F 
ATOM     78  C   UNL A   1      34.029  33.538  30.197  1.00  0.00     0.040 A 
ATOM     79  C   UNL A   1      35.523  34.625  28.645  1.00  0.00     0.040 A 
ATOM     80  F   UNL A   1      37.818  34.135  28.695  1.00  0.00    -0.206 F 
ATOM     81  C   UNL A   1      34.239  34.442  29.154  1.00  0.00     0.006 A 
ENDBRANCH  53  74
BRANCH  65  82
ATOM     82  C   UNL A   1      39.783  34.113  36.242  1.00  0.00     0.057 A 
ATOM     83  C   UNL A   1      40.529  35.286  36.089  1.00  0.00     0.134 A 
ATOM     84  C   UNL A   1      38.965  33.999  37.373  1.00  0.00     0.134 A 
ATOM     85  F   UNL A   1      41.336  35.445  35.030  1.00  0.00    -0.206 F 
ATOM     86  C   UNL A   1      40.487  36.301  37.046  1.00  0.00     0.040 A 
ATOM     87  C   UNL A   1      38.903  35.013  38.328  1.00  0.00     0.040 A 
ATOM     88  F   UNL A   1      38.221  32.900  37.569  1.00  0.00    -0.206 F 
ATOM     89  C   UNL A   1      39.673  36.165  38.169  1.00  0.00     0.006 A 
ENDBRANCH  65  82
ENDBRANCH  39  40
ENDBRANCH  32  34
ENDBRANCH  31  32
ENDBRANCH  30  31
ENDBRANCH   1  30
TORSDOF 16
ENDMDL
