MODEL 1
REMARK VINA RESULT:     -11.8      0.000      0.000
REMARK SMILES Cc1cc(OC(F)(F)F)cc2c1O[C@@H](C(F)(F)F)C(C(=O)OCCOC(=O)c1ccc(-c3c4nc(c(-c5c(F)cccc5F)c5ccc([nH]5)c(-c5c(F)cccc5F)c5nc(c(-c6c(F)cccc6F)c6ccc3[nH]6)C=C5)C=C4)cc1)=C2
REMARK SMILES IDX 23 1 22 2 20 3 21 4 19 5 1 6 2 7 3 8 12 9 4 10 11 11 13 12
REMARK SMILES IDX 10 13 82 14 14 15 5 16 6 17 7 18 8 19 9 20 15 21 16 22 17 23
REMARK SMILES IDX 18 24 24 25 25 26 26 27 27 28 28 29 29 30 81 31 30 32 80 33
REMARK SMILES IDX 31 34 32 35 33 36 74 37 34 38 79 39 73 40 75 41 35 42 78 43
REMARK SMILES IDX 72 44 71 45 36 47 62 48 45 49 61 50 46 51 49 52 60 53 76 54
REMARK SMILES IDX 47 55 48 56 59 58 77 59 50 60 37 61 38 62 43 63 39 64 40 65
REMARK SMILES IDX 42 66 44 67 41 68 63 69 64 70 69 71 65 72 66 73 68 74 70 75
REMARK SMILES IDX 67 76 51 77 52 78 57 79 53 80 54 81 56 82 58 83 55 84
REMARK H PARENT 75 46 49 57
REMARK Flexibility Score: inf
ROOT
ATOM      1  C   UNL A   1      31.393  29.379  25.241  1.00  0.00     0.275 C 
ENDROOT
BRANCH   1   2
ATOM      2  O   UNL A   1      32.439  28.612  25.874  1.00  0.00    -0.459 OA
BRANCH   2   3
ATOM      3  C   UNL A   1      32.042  27.525  26.570  1.00  0.00     0.338 C 
ATOM      4  O   UNL A   1      31.391  27.533  27.599  1.00  0.00    -0.246 OA
BRANCH   3   5
ATOM      5  C   UNL A   1      32.433  26.288  25.865  1.00  0.00     0.087 C 
ATOM      6  C   UNL A   1      32.779  22.547  22.366  1.00  0.00     0.048 C 
ATOM      7  C   UNL A   1      33.696  23.172  23.378  1.00  0.00    -0.005 A 
ATOM      8  C   UNL A   1      35.027  22.719  23.485  1.00  0.00     0.054 A 
ATOM      9  C   UNL A   1      33.272  24.243  24.177  1.00  0.00     0.131 A 
ATOM     10  C   UNL A   1      35.919  23.314  24.380  1.00  0.00     0.130 A 
ATOM     11  C   UNL A   1      34.168  24.851  25.058  1.00  0.00     0.021 A 
ATOM     12  O   UNL A   1      31.990  24.713  24.017  1.00  0.00    -0.475 OA
ATOM     13  C   UNL A   1      35.479  24.377  25.169  1.00  0.00     0.058 A 
ATOM     14  C   UNL A   1      33.745  26.027  25.796  1.00  0.00     0.027 C 
ATOM     15  C   UNL A   1      31.416  25.429  25.159  1.00  0.00     0.316 C 
BRANCH  10  16
ATOM     16  O   UNL A   1      37.225  22.972  24.582  1.00  0.00    -0.406 OA
BRANCH  16  17
ATOM     17  C   UNL A   1      37.500  21.838  25.385  1.00  0.00     0.573 C 
ATOM     18  F   UNL A   1      38.545  22.069  26.207  1.00  0.00    -0.132 F 
ATOM     19  F   UNL A   1      36.421  21.487  26.116  1.00  0.00    -0.132 F 
ATOM     20  F   UNL A   1      37.817  20.801  24.580  1.00  0.00    -0.132 F 
ENDBRANCH  16  17
ENDBRANCH  10  16
BRANCH  15  21
ATOM     21  C   UNL A   1      30.649  24.435  26.049  1.00  0.00     0.430 C 
ATOM     22  F   UNL A   1      30.381  23.268  25.423  1.00  0.00    -0.167 F 
ATOM     23  F   UNL A   1      31.391  24.112  27.142  1.00  0.00    -0.167 F 
ATOM     24  F   UNL A   1      29.477  24.938  26.496  1.00  0.00    -0.167 F 
ENDBRANCH  15  21
ENDBRANCH   3   5
ENDBRANCH   2   3
ENDBRANCH   1   2
BRANCH   1  25
ATOM     25  C   UNL A   1      31.418  30.824  25.741  1.00  0.00     0.275 C 
BRANCH  25  26
ATOM     26  O   UNL A   1      32.042  30.881  27.038  1.00  0.00    -0.458 OA
BRANCH  26  27
ATOM     27  C   UNL A   1      32.787  31.979  27.286  1.00  0.00     0.338 C 
ATOM     28  O   UNL A   1      32.440  33.149  27.208  1.00  0.00    -0.246 OA
BRANCH  27  29
ATOM     29  C   UNL A   1      34.136  31.587  27.719  1.00  0.00     0.060 A 
ATOM     30  C   UNL A   1      34.407  30.248  27.996  1.00  0.00     0.016 A 
ATOM     31  C   UNL A   1      35.085  32.568  28.003  1.00  0.00     0.016 A 
ATOM     32  C   UNL A   1      35.573  29.898  28.674  1.00  0.00     0.010 A 
ATOM     33  C   UNL A   1      36.301  32.200  28.587  1.00  0.00     0.010 A 
ATOM     34  C   UNL A   1      36.536  30.870  28.980  1.00  0.00    -0.014 A 
BRANCH  34  35
ATOM     35  C   UNL A   1      37.746  30.518  29.773  1.00  0.00     0.031 A 
ATOM     36  C   UNL A   1      38.803  29.626  29.171  1.00  0.00     0.074 A 
ATOM     37  C   UNL A   1      37.923  31.003  31.017  1.00  0.00     0.049 A 
ATOM     38  N   UNL A   1      39.839  29.061  29.742  1.00  0.00    -0.248 NA
ATOM     39  C   UNL A   1      38.672  29.323  27.737  1.00  0.00     0.031 C 
ATOM     40  C   UNL A   1      37.021  31.926  31.706  1.00  0.00     0.029 A 
ATOM     41  N   UNL A   1      38.933  30.790  31.923  1.00  0.00    -0.354 N 
ATOM     42  C   UNL A   1      40.451  28.302  28.752  1.00  0.00     0.074 A 
ATOM     43  C   UNL A   1      39.665  28.467  27.548  1.00  0.00     0.031 C 
ATOM     44  C   UNL A   1      37.532  32.225  32.911  1.00  0.00     0.029 A 
ATOM     45  C   UNL A   1      38.754  31.454  33.112  1.00  0.00     0.049 A 
ATOM     46  H   UNL A   1      39.711  30.216  31.738  1.00  0.00     0.167 HD
ATOM     47  C   UNL A   1      41.568  27.538  28.836  1.00  0.00     0.037 A 
ATOM     48  C   UNL A   1      39.466  31.414  34.254  1.00  0.00     0.037 A 
ATOM     49  C   UNL A   1      42.376  27.406  30.020  1.00  0.00     0.049 A 
ATOM     50  C   UNL A   1      40.662  30.510  34.344  1.00  0.00     0.074 A 
ATOM     51  C   UNL A   1      43.523  26.654  30.206  1.00  0.00     0.029 A 
ATOM     52  N   UNL A   1      42.127  28.059  31.218  1.00  0.00    -0.354 N 
ATOM     53  N   UNL A   1      41.193  29.743  33.422  1.00  0.00    -0.248 NA
ATOM     54  C   UNL A   1      41.344  30.447  35.645  1.00  0.00     0.031 C 
ATOM     55  C   UNL A   1      43.952  26.828  31.527  1.00  0.00     0.029 A 
ATOM     56  C   UNL A   1      43.093  27.718  32.151  1.00  0.00     0.049 A 
ATOM     57  H   UNL A   1      41.376  28.674  31.381  1.00  0.00     0.167 HD
ATOM     58  C   UNL A   1      42.278  29.121  34.025  1.00  0.00     0.074 A 
ATOM     59  C   UNL A   1      42.341  29.611  35.387  1.00  0.00     0.031 C 
ATOM     60  C   UNL A   1      43.143  28.220  33.500  1.00  0.00     0.037 A 
BRANCH  47  61
ATOM     61  C   UNL A   1      41.960  26.759  27.614  1.00  0.00     0.057 A 
ATOM     62  C   UNL A   1      42.759  27.346  26.624  1.00  0.00     0.134 A 
ATOM     63  C   UNL A   1      41.546  25.436  27.409  1.00  0.00     0.134 A 
ATOM     64  F   UNL A   1      43.186  28.611  26.755  1.00  0.00    -0.206 F 
ATOM     65  C   UNL A   1      43.135  26.645  25.477  1.00  0.00     0.040 A 
ATOM     66  C   UNL A   1      41.935  24.717  26.277  1.00  0.00     0.040 A 
ATOM     67  F   UNL A   1      40.793  24.811  28.327  1.00  0.00    -0.206 F 
ATOM     68  C   UNL A   1      42.730  25.323  25.305  1.00  0.00     0.006 A 
ENDBRANCH  47  61
BRANCH  48  69
ATOM     69  C   UNL A   1      39.046  32.225  35.424  1.00  0.00     0.057 A 
ATOM     70  C   UNL A   1      39.439  33.561  35.567  1.00  0.00     0.134 A 
ATOM     71  C   UNL A   1      38.221  31.685  36.416  1.00  0.00     0.134 A 
ATOM     72  F   UNL A   1      40.228  34.137  34.649  1.00  0.00    -0.206 F 
ATOM     73  C   UNL A   1      39.040  34.327  36.663  1.00  0.00     0.040 A 
ATOM     74  C   UNL A   1      37.793  32.447  37.505  1.00  0.00     0.040 A 
ATOM     75  F   UNL A   1      37.789  30.418  36.320  1.00  0.00    -0.206 F 
ATOM     76  C   UNL A   1      38.208  33.772  37.633  1.00  0.00     0.006 A 
ENDBRANCH  48  69
BRANCH  60  77
ATOM     77  C   UNL A   1      44.246  27.738  34.393  1.00  0.00     0.057 A 
ATOM     78  C   UNL A   1      44.075  26.594  35.183  1.00  0.00     0.134 A 
ATOM     79  C   UNL A   1      45.472  28.410  34.481  1.00  0.00     0.134 A 
ATOM     80  F   UNL A   1      42.923  25.908  35.148  1.00  0.00    -0.206 F 
ATOM     81  C   UNL A   1      45.085  26.136  36.028  1.00  0.00     0.040 A 
ATOM     82  C   UNL A   1      46.498  27.948  35.306  1.00  0.00     0.040 A 
ATOM     83  F   UNL A   1      45.703  29.502  33.735  1.00  0.00    -0.206 F 
ATOM     84  C   UNL A   1      46.304  26.810  36.087  1.00  0.00     0.006 A 
ENDBRANCH  60  77
ENDBRANCH  34  35
ENDBRANCH  27  29
ENDBRANCH  26  27
ENDBRANCH  25  26
ENDBRANCH   1  25
TORSDOF 14
ENDMDL
MODEL 2
REMARK VINA RESULT:     -11.8      3.865      8.961
REMARK SMILES Cc1cc(OC(F)(F)F)cc2c1O[C@@H](C(F)(F)F)C(C(=O)OCCOC(=O)c1ccc(-c3c4nc(c(-c5c(F)cccc5F)c5ccc([nH]5)c(-c5c(F)cccc5F)c5nc(c(-c6c(F)cccc6F)c6ccc3[nH]6)C=C5)C=C4)cc1)=C2
REMARK SMILES IDX 23 1 22 2 20 3 21 4 19 5 1 6 2 7 3 8 12 9 4 10 11 11 13 12
REMARK SMILES IDX 10 13 82 14 14 15 5 16 6 17 7 18 8 19 9 20 15 21 16 22 17 23
REMARK SMILES IDX 18 24 24 25 25 26 26 27 27 28 28 29 29 30 81 31 30 32 80 33
REMARK SMILES IDX 31 34 32 35 33 36 74 37 34 38 79 39 73 40 75 41 35 42 78 43
REMARK SMILES IDX 72 44 71 45 36 47 62 48 45 49 61 50 46 51 49 52 60 53 76 54
REMARK SMILES IDX 47 55 48 56 59 58 77 59 50 60 37 61 38 62 43 63 39 64 40 65
REMARK SMILES IDX 42 66 44 67 41 68 63 69 64 70 69 71 65 72 66 73 68 74 70 75
REMARK SMILES IDX 67 76 51 77 52 78 57 79 53 80 54 81 56 82 58 83 55 84
REMARK H PARENT 75 46 49 57
REMARK Flexibility Score: inf
ROOT
ATOM      1  C   UNL A   1      35.378  21.141  24.867  1.00  0.00     0.275 C 
ENDROOT
BRANCH   1   2
ATOM      2  O   UNL A   1      35.672  22.550  24.959  1.00  0.00    -0.459 OA
BRANCH   2   3
ATOM      3  C   UNL A   1      35.389  23.290  23.866  1.00  0.00     0.338 C 
ATOM      4  O   UNL A   1      35.906  23.173  22.769  1.00  0.00    -0.246 OA
BRANCH   3   5
ATOM      5  C   UNL A   1      34.284  24.229  24.146  1.00  0.00     0.087 C 
ATOM      6  C   UNL A   1      29.628  26.161  25.117  1.00  0.00     0.048 C 
ATOM      7  C   UNL A   1      31.044  26.522  25.463  1.00  0.00    -0.005 A 
ATOM      8  C   UNL A   1      31.297  27.649  26.272  1.00  0.00     0.054 A 
ATOM      9  C   UNL A   1      32.118  25.722  25.049  1.00  0.00     0.131 A 
ATOM     10  C   UNL A   1      32.600  27.981  26.653  1.00  0.00     0.130 A 
ATOM     11  C   UNL A   1      33.417  26.042  25.446  1.00  0.00     0.021 A 
ATOM     12  O   UNL A   1      31.849  24.592  24.313  1.00  0.00    -0.475 OA
ATOM     13  C   UNL A   1      33.656  27.175  26.230  1.00  0.00     0.058 A 
ATOM     14  C   UNL A   1      34.503  25.143  25.102  1.00  0.00     0.027 C 
ATOM     15  C   UNL A   1      32.942  24.088  23.478  1.00  0.00     0.316 C 
BRANCH  10  16
ATOM     16  O   UNL A   1      32.980  29.039  27.427  1.00  0.00    -0.406 OA
BRANCH  16  17
ATOM     17  C   UNL A   1      33.092  30.309  26.809  1.00  0.00     0.573 C 
ATOM     18  F   UNL A   1      31.988  31.054  27.030  1.00  0.00    -0.132 F 
ATOM     19  F   UNL A   1      34.179  30.974  27.256  1.00  0.00    -0.132 F 
ATOM     20  F   UNL A   1      33.224  30.136  25.476  1.00  0.00    -0.132 F 
ENDBRANCH  16  17
ENDBRANCH  10  16
BRANCH  15  21
ATOM     21  C   UNL A   1      32.830  24.701  22.071  1.00  0.00     0.430 C 
ATOM     22  F   UNL A   1      33.695  25.719  21.871  1.00  0.00    -0.167 F 
ATOM     23  F   UNL A   1      33.124  23.768  21.126  1.00  0.00    -0.167 F 
ATOM     24  F   UNL A   1      31.587  25.161  21.803  1.00  0.00    -0.167 F 
ENDBRANCH  15  21
ENDBRANCH   3   5
ENDBRANCH   2   3
ENDBRANCH   1   2
BRANCH   1  25
ATOM     25  C   UNL A   1      36.664  20.322  24.982  1.00  0.00     0.275 C 
BRANCH  25  26
ATOM     26  O   UNL A   1      37.808  21.195  24.906  1.00  0.00    -0.458 OA
BRANCH  26  27
ATOM     27  C   UNL A   1      38.849  20.873  25.701  1.00  0.00     0.338 C 
ATOM     28  O   UNL A   1      39.354  19.770  25.860  1.00  0.00    -0.246 OA
BRANCH  27  29
ATOM     29  C   UNL A   1      39.363  22.076  26.372  1.00  0.00     0.060 A 
ATOM     30  C   UNL A   1      38.793  23.316  26.092  1.00  0.00     0.016 A 
ATOM     31  C   UNL A   1      40.513  21.994  27.156  1.00  0.00     0.016 A 
ATOM     32  C   UNL A   1      39.439  24.486  26.486  1.00  0.00     0.010 A 
ATOM     33  C   UNL A   1      41.101  23.167  27.641  1.00  0.00     0.010 A 
ATOM     34  C   UNL A   1      40.603  24.427  27.265  1.00  0.00    -0.014 A 
BRANCH  34  35
ATOM     35  C   UNL A   1      41.341  25.670  27.622  1.00  0.00     0.031 A 
ATOM     36  C   UNL A   1      40.669  26.727  28.464  1.00  0.00     0.074 A 
ATOM     37  C   UNL A   1      42.614  25.857  27.223  1.00  0.00     0.049 A 
ATOM     38  N   UNL A   1      41.064  27.945  28.742  1.00  0.00    -0.248 NA
ATOM     39  C   UNL A   1      39.375  26.366  29.065  1.00  0.00     0.031 C 
ATOM     40  C   UNL A   1      43.415  24.899  26.461  1.00  0.00     0.029 A 
ATOM     41  N   UNL A   1      43.462  26.921  27.412  1.00  0.00    -0.354 N 
ATOM     42  C   UNL A   1      40.049  28.507  29.507  1.00  0.00     0.074 A 
ATOM     43  C   UNL A   1      39.015  27.504  29.639  1.00  0.00     0.031 C 
ATOM     44  C   UNL A   1      44.646  25.403  26.275  1.00  0.00     0.029 A 
ATOM     45  C   UNL A   1      44.695  26.751  26.832  1.00  0.00     0.049 A 
ATOM     46  H   UNL A   1      43.209  27.729  27.915  1.00  0.00     0.167 HD
ATOM     47  C   UNL A   1      39.985  29.746  30.053  1.00  0.00     0.037 A 
ATOM     48  C   UNL A   1      45.736  27.598  26.721  1.00  0.00     0.037 A 
ATOM     49  C   UNL A   1      41.030  30.731  29.960  1.00  0.00     0.049 A 
ATOM     50  C   UNL A   1      45.616  28.988  27.277  1.00  0.00     0.074 A 
ATOM     51  C   UNL A   1      41.058  32.016  30.477  1.00  0.00     0.029 A 
ATOM     52  N   UNL A   1      42.244  30.532  29.320  1.00  0.00    -0.354 N 
ATOM     53  N   UNL A   1      44.624  29.533  27.940  1.00  0.00    -0.248 NA
ATOM     54  C   UNL A   1      46.753  29.890  27.046  1.00  0.00     0.031 C 
ATOM     55  C   UNL A   1      42.278  32.605  30.121  1.00  0.00     0.029 A 
ATOM     56  C   UNL A   1      43.023  31.673  29.417  1.00  0.00     0.049 A 
ATOM     57  H   UNL A   1      42.512  29.702  28.864  1.00  0.00     0.167 HD
ATOM     58  C   UNL A   1      45.023  30.833  28.218  1.00  0.00     0.074 A 
ATOM     59  C   UNL A   1      46.354  30.991  27.668  1.00  0.00     0.031 C 
ATOM     60  C   UNL A   1      44.347  31.811  28.868  1.00  0.00     0.037 A 
BRANCH  47  61
ATOM     61  C   UNL A   1      38.720  30.114  30.774  1.00  0.00     0.057 A 
ATOM     62  C   UNL A   1      38.573  29.832  32.139  1.00  0.00     0.134 A 
ATOM     63  C   UNL A   1      37.646  30.736  30.125  1.00  0.00     0.134 A 
ATOM     64  F   UNL A   1      39.561  29.233  32.820  1.00  0.00    -0.206 F 
ATOM     65  C   UNL A   1      37.408  30.160  32.832  1.00  0.00     0.040 A 
ATOM     66  C   UNL A   1      36.484  31.090  30.813  1.00  0.00     0.040 A 
ATOM     67  F   UNL A   1      37.729  31.048  28.823  1.00  0.00    -0.206 F 
ATOM     68  C   UNL A   1      36.361  30.799  32.170  1.00  0.00     0.006 A 
ENDBRANCH  47  61
BRANCH  48  69
ATOM     69  C   UNL A   1      46.972  27.172  26.019  1.00  0.00     0.057 A 
ATOM     70  C   UNL A   1      48.025  26.553  26.701  1.00  0.00     0.134 A 
ATOM     71  C   UNL A   1      47.118  27.358  24.639  1.00  0.00     0.134 A 
ATOM     72  F   UNL A   1      47.946  26.345  28.024  1.00  0.00    -0.206 F 
ATOM     73  C   UNL A   1      49.186  26.146  26.042  1.00  0.00     0.040 A 
ATOM     74  C   UNL A   1      48.262  26.933  23.962  1.00  0.00     0.040 A 
ATOM     75  F   UNL A   1      46.130  27.921  23.927  1.00  0.00    -0.206 F 
ATOM     76  C   UNL A   1      49.303  26.330  24.666  1.00  0.00     0.006 A 
ENDBRANCH  48  69
BRANCH  60  77
ATOM     77  C   UNL A   1      45.053  33.122  29.045  1.00  0.00     0.057 A 
ATOM     78  C   UNL A   1      44.906  34.143  28.099  1.00  0.00     0.134 A 
ATOM     79  C   UNL A   1      45.885  33.369  30.143  1.00  0.00     0.134 A 
ATOM     80  F   UNL A   1      44.125  33.968  27.022  1.00  0.00    -0.206 F 
ATOM     81  C   UNL A   1      45.562  35.366  28.241  1.00  0.00     0.040 A 
ATOM     82  C   UNL A   1      46.530  34.596  30.307  1.00  0.00     0.040 A 
ATOM     83  F   UNL A   1      46.053  32.436  31.093  1.00  0.00    -0.206 F 
ATOM     84  C   UNL A   1      46.372  35.597  29.351  1.00  0.00     0.006 A 
ENDBRANCH  60  77
ENDBRANCH  34  35
ENDBRANCH  27  29
ENDBRANCH  26  27
ENDBRANCH  25  26
ENDBRANCH   1  25
TORSDOF 14
ENDMDL
MODEL 3
REMARK VINA RESULT:     -11.7      1.716      2.426
REMARK SMILES Cc1cc(OC(F)(F)F)cc2c1O[C@@H](C(F)(F)F)C(C(=O)OCCOC(=O)c1ccc(-c3c4nc(c(-c5c(F)cccc5F)c5ccc([nH]5)c(-c5c(F)cccc5F)c5nc(c(-c6c(F)cccc6F)c6ccc3[nH]6)C=C5)C=C4)cc1)=C2
REMARK SMILES IDX 23 1 22 2 20 3 21 4 19 5 1 6 2 7 3 8 12 9 4 10 11 11 13 12
REMARK SMILES IDX 10 13 82 14 14 15 5 16 6 17 7 18 8 19 9 20 15 21 16 22 17 23
REMARK SMILES IDX 18 24 24 25 25 26 26 27 27 28 28 29 29 30 81 31 30 32 80 33
REMARK SMILES IDX 31 34 32 35 33 36 74 37 34 38 79 39 73 40 75 41 35 42 78 43
REMARK SMILES IDX 72 44 71 45 36 47 62 48 45 49 61 50 46 51 49 52 60 53 76 54
REMARK SMILES IDX 47 55 48 56 59 58 77 59 50 60 37 61 38 62 43 63 39 64 40 65
REMARK SMILES IDX 42 66 44 67 41 68 63 69 64 70 69 71 65 72 66 73 68 74 70 75
REMARK SMILES IDX 67 76 51 77 52 78 57 79 53 80 54 81 56 82 58 83 55 84
REMARK H PARENT 75 46 49 57
REMARK Flexibility Score: inf
ROOT
ATOM      1  C   UNL A   1      31.465  28.907  25.015  1.00  0.00     0.275 C 
ENDROOT
BRANCH   1   2
ATOM      2  O   UNL A   1      32.390  28.070  25.740  1.00  0.00    -0.459 OA
BRANCH   2   3
ATOM      3  C   UNL A   1      31.914  26.877  26.154  1.00  0.00     0.338 C 
ATOM      4  O   UNL A   1      30.950  26.703  26.878  1.00  0.00    -0.246 OA
BRANCH   3   5
ATOM      5  C   UNL A   1      32.676  25.772  25.537  1.00  0.00     0.087 C 
ATOM      6  C   UNL A   1      36.490  22.958  23.565  1.00  0.00     0.048 C 
ATOM      7  C   UNL A   1      35.215  22.685  24.309  1.00  0.00    -0.005 A 
ATOM      8  C   UNL A   1      34.868  21.356  24.629  1.00  0.00     0.054 A 
ATOM      9  C   UNL A   1      34.394  23.731  24.750  1.00  0.00     0.131 A 
ATOM     10  C   UNL A   1      33.715  21.072  25.365  1.00  0.00     0.130 A 
ATOM     11  C   UNL A   1      33.252  23.450  25.503  1.00  0.00     0.021 A 
ATOM     12  O   UNL A   1      34.779  25.024  24.485  1.00  0.00    -0.475 OA
ATOM     13  C   UNL A   1      32.908  22.126  25.793  1.00  0.00     0.058 A 
ATOM     14  C   UNL A   1      32.475  24.549  26.045  1.00  0.00     0.027 C 
ATOM     15  C   UNL A   1      33.713  26.028  24.475  1.00  0.00     0.316 C 
BRANCH  10  16
ATOM     16  O   UNL A   1      33.265  19.838  25.737  1.00  0.00    -0.406 OA
BRANCH  16  17
ATOM     17  C   UNL A   1      32.960  18.905  24.716  1.00  0.00     0.573 C 
ATOM     18  F   UNL A   1      32.302  19.500  23.698  1.00  0.00    -0.132 F 
ATOM     19  F   UNL A   1      34.079  18.316  24.244  1.00  0.00    -0.132 F 
ATOM     20  F   UNL A   1      32.163  17.942  25.229  1.00  0.00    -0.132 F 
ENDBRANCH  16  17
ENDBRANCH  10  16
BRANCH  15  21
ATOM     21  C   UNL A   1      33.174  26.183  23.041  1.00  0.00     0.430 C 
ATOM     22  F   UNL A   1      33.559  27.339  22.458  1.00  0.00    -0.167 F 
ATOM     23  F   UNL A   1      33.653  25.187  22.248  1.00  0.00    -0.167 F 
ATOM     24  F   UNL A   1      31.825  26.124  22.985  1.00  0.00    -0.167 F 
ENDBRANCH  15  21
ENDBRANCH   3   5
ENDBRANCH   2   3
ENDBRANCH   1   2
BRANCH   1  25
ATOM     25  C   UNL A   1      31.465  30.323  25.593  1.00  0.00     0.275 C 
BRANCH  25  26
ATOM     26  O   UNL A   1      32.134  30.329  26.870  1.00  0.00    -0.458 OA
BRANCH  26  27
ATOM     27  C   UNL A   1      32.771  31.473  27.196  1.00  0.00     0.338 C 
ATOM     28  O   UNL A   1      32.321  32.610  27.174  1.00  0.00    -0.246 OA
BRANCH  27  29
ATOM     29  C   UNL A   1      34.142  31.178  27.639  1.00  0.00     0.060 A 
ATOM     30  C   UNL A   1      34.528  29.856  27.848  1.00  0.00     0.016 A 
ATOM     31  C   UNL A   1      34.992  32.222  28.001  1.00  0.00     0.016 A 
ATOM     32  C   UNL A   1      35.707  29.573  28.533  1.00  0.00     0.010 A 
ATOM     33  C   UNL A   1      36.225  31.932  28.593  1.00  0.00     0.010 A 
ATOM     34  C   UNL A   1      36.572  30.608  28.917  1.00  0.00    -0.014 A 
BRANCH  34  35
ATOM     35  C   UNL A   1      37.794  30.319  29.718  1.00  0.00     0.031 A 
ATOM     36  C   UNL A   1      38.892  29.468  29.130  1.00  0.00     0.074 A 
ATOM     37  C   UNL A   1      37.944  30.828  30.956  1.00  0.00     0.049 A 
ATOM     38  N   UNL A   1      39.950  28.958  29.712  1.00  0.00    -0.248 NA
ATOM     39  C   UNL A   1      38.780  29.143  27.700  1.00  0.00     0.031 C 
ATOM     40  C   UNL A   1      36.998  31.718  31.631  1.00  0.00     0.029 A 
ATOM     41  N   UNL A   1      38.959  30.671  31.868  1.00  0.00    -0.354 N 
ATOM     42  C   UNL A   1      40.599  28.215  28.733  1.00  0.00     0.074 A 
ATOM     43  C   UNL A   1      39.812  28.330  27.524  1.00  0.00     0.031 C 
ATOM     44  C   UNL A   1      37.491  32.054  32.833  1.00  0.00     0.029 A 
ATOM     45  C   UNL A   1      38.745  31.340  33.049  1.00  0.00     0.049 A 
ATOM     46  H   UNL A   1      39.763  30.130  31.693  1.00  0.00     0.167 HD
ATOM     47  C   UNL A   1      41.749  27.503  28.830  1.00  0.00     0.037 A 
ATOM     48  C   UNL A   1      39.454  31.346  34.193  1.00  0.00     0.037 A 
ATOM     49  C   UNL A   1      42.557  27.423  30.019  1.00  0.00     0.049 A 
ATOM     50  C   UNL A   1      40.690  30.498  34.299  1.00  0.00     0.074 A 
ATOM     51  C   UNL A   1      43.737  26.725  30.218  1.00  0.00     0.029 A 
ATOM     52  N   UNL A   1      42.275  28.078  31.207  1.00  0.00    -0.354 N 
ATOM     53  N   UNL A   1      41.257  29.745  33.388  1.00  0.00    -0.248 NA
ATOM     54  C   UNL A   1      41.368  30.482  35.602  1.00  0.00     0.031 C 
ATOM     55  C   UNL A   1      44.153  26.934  31.538  1.00  0.00     0.029 A 
ATOM     56  C   UNL A   1      43.251  27.792  32.148  1.00  0.00     0.049 A 
ATOM     57  H   UNL A   1      41.497  28.660  31.360  1.00  0.00     0.167 HD
ATOM     58  C   UNL A   1      42.367  29.179  34.002  1.00  0.00     0.074 A 
ATOM     59  C   UNL A   1      42.402  29.689  35.358  1.00  0.00     0.031 C 
ATOM     60  C   UNL A   1      43.274  28.312  33.491  1.00  0.00     0.037 A 
BRANCH  47  61
ATOM     61  C   UNL A   1      42.181  26.728  27.619  1.00  0.00     0.057 A 
ATOM     62  C   UNL A   1      41.792  25.392  27.456  1.00  0.00     0.134 A 
ATOM     63  C   UNL A   1      42.984  27.293  26.620  1.00  0.00     0.134 A 
ATOM     64  F   UNL A   1      41.027  24.788  28.378  1.00  0.00    -0.206 F 
ATOM     65  C   UNL A   1      42.182  24.647  26.342  1.00  0.00     0.040 A 
ATOM     66  C   UNL A   1      43.361  26.566  25.490  1.00  0.00     0.040 A 
ATOM     67  F   UNL A   1      43.377  28.572  26.709  1.00  0.00    -0.206 F 
ATOM     68  C   UNL A   1      42.963  25.237  25.350  1.00  0.00     0.006 A 
ENDBRANCH  47  61
BRANCH  48  69
ATOM     69  C   UNL A   1      38.993  32.152  35.351  1.00  0.00     0.057 A 
ATOM     70  C   UNL A   1      38.206  31.593  36.365  1.00  0.00     0.134 A 
ATOM     71  C   UNL A   1      39.349  33.499  35.480  1.00  0.00     0.134 A 
ATOM     72  F   UNL A   1      37.834  30.306  36.300  1.00  0.00    -0.206 F 
ATOM     73  C   UNL A   1      37.777  32.346  37.457  1.00  0.00     0.040 A 
ATOM     74  C   UNL A   1      38.948  34.259  36.580  1.00  0.00     0.040 A 
ATOM     75  F   UNL A   1      40.124  34.084  34.554  1.00  0.00    -0.206 F 
ATOM     76  C   UNL A   1      38.154  33.683  37.571  1.00  0.00     0.006 A 
ENDBRANCH  48  69
BRANCH  60  77
ATOM     77  C   UNL A   1      44.394  27.891  34.394  1.00  0.00     0.057 A 
ATOM     78  C   UNL A   1      44.264  26.760  35.209  1.00  0.00     0.134 A 
ATOM     79  C   UNL A   1      45.594  28.609  34.465  1.00  0.00     0.134 A 
ATOM     80  F   UNL A   1      43.138  26.031  35.190  1.00  0.00    -0.206 F 
ATOM     81  C   UNL A   1      45.291  26.358  36.064  1.00  0.00     0.040 A 
ATOM     82  C   UNL A   1      46.636  28.204  35.299  1.00  0.00     0.040 A 
ATOM     83  F   UNL A   1      45.785  29.691  33.695  1.00  0.00    -0.206 F 
ATOM     84  C   UNL A   1      46.484  27.077  36.106  1.00  0.00     0.006 A 
ENDBRANCH  60  77
ENDBRANCH  34  35
ENDBRANCH  27  29
ENDBRANCH  26  27
ENDBRANCH  25  26
ENDBRANCH   1  25
TORSDOF 14
ENDMDL
