MODEL 1
REMARK VINA RESULT:     -11.4      0.000      0.000
REMARK SMILES CC1=C(C)C[C@@H](C(=O)OCCOC(=O)c2ccc(-c3c4nc(c(-c5c(F)cccc5F)c5ccc([nH]5)c(-c5c(F)cccc5F)c5nc(c(-c6c(F)cccc6F)c6ccc3[nH]6)C=C5)C=C4)cc2)[C@H](C(=O)NCc2cccnc2)C1
REMARK SMILES IDX 10 1 9 2 7 3 8 4 6 5 1 6 2 7 3 8 80 9 4 10 5 11 69 12 70 13
REMARK SMILES IDX 71 14 72 15 73 17 74 18 75 19 79 20 76 21 78 22 77 23 11 24
REMARK SMILES IDX 12 25 13 26 14 27 15 28 16 29 68 30 17 31 67 32 18 33 19 34
REMARK SMILES IDX 20 35 61 36 21 37 66 38 60 39 62 40 22 41 65 42 59 43 58 44
REMARK SMILES IDX 23 46 49 47 32 48 48 49 33 50 36 51 47 52 63 53 34 54 35 55
REMARK SMILES IDX 46 57 64 58 37 59 24 60 25 61 30 62 26 63 27 64 29 65 31 66
REMARK SMILES IDX 28 67 50 68 51 69 56 70 52 71 53 72 55 73 57 74 54 75 38 76
REMARK SMILES IDX 39 77 44 78 40 79 41 80 43 81 45 82 42 83
REMARK H PARENT 72 16 62 45 36 56
REMARK Flexibility Score: inf
ROOT
ATOM      1  C   UNL A   1      31.394  30.915  26.087  1.00  0.00     0.274 C 
ENDROOT
BRANCH   1   2
ATOM      2  O   UNL A   1      32.294  29.919  26.616  1.00  0.00    -0.462 OA
BRANCH   2   3
ATOM      3  C   UNL A   1      31.735  28.718  26.916  1.00  0.00     0.310 C 
ATOM      4  O   UNL A   1      31.283  28.415  28.015  1.00  0.00    -0.252 OA
BRANCH   3   5
ATOM      5  C   UNL A   1      31.782  27.721  25.766  1.00  0.00     0.116 C 
ATOM      6  C   UNL A   1      34.492  24.159  25.699  1.00  0.00     0.039 C 
ATOM      7  C   UNL A   1      33.495  25.291  25.753  1.00  0.00    -0.074 C 
ATOM      8  C   UNL A   1      32.250  25.202  26.261  1.00  0.00    -0.073 C 
ATOM      9  C   UNL A   1      34.048  26.568  25.164  1.00  0.00     0.045 C 
ATOM     10  C   UNL A   1      31.628  23.949  26.831  1.00  0.00     0.039 C 
ATOM     11  C   UNL A   1      31.303  26.373  26.307  1.00  0.00     0.046 C 
ATOM     12  C   UNL A   1      33.098  27.753  24.981  1.00  0.00     0.097 C 
BRANCH  12  13
ATOM     13  C   UNL A   1      32.911  28.130  23.509  1.00  0.00     0.224 C 
ATOM     14  O   UNL A   1      33.548  29.073  23.027  1.00  0.00    -0.275 OA
ATOM     15  N   UNL A   1      32.064  27.506  22.662  1.00  0.00    -0.352 N 
ATOM     16  H   UNL A   1      32.100  27.849  21.740  1.00  0.00     0.163 HD
BRANCH  15  17
ATOM     17  C   UNL A   1      31.115  26.435  22.848  1.00  0.00     0.153 C 
BRANCH  17  18
ATOM     18  C   UNL A   1      31.722  25.065  22.722  1.00  0.00    -0.010 A 
ATOM     19  C   UNL A   1      31.130  23.900  23.222  1.00  0.00     0.009 A 
ATOM     20  C   UNL A   1      32.912  24.913  22.014  1.00  0.00     0.116 A 
ATOM     21  C   UNL A   1      31.748  22.667  23.026  1.00  0.00     0.020 A 
ATOM     22  N   UNL A   1      33.537  23.732  21.811  1.00  0.00    -0.264 NA
ATOM     23  C   UNL A   1      32.941  22.634  22.324  1.00  0.00     0.111 A 
ENDBRANCH  17  18
ENDBRANCH  15  17
ENDBRANCH  12  13
ENDBRANCH   3   5
ENDBRANCH   2   3
ENDBRANCH   1   2
BRANCH   1  24
ATOM     24  C   UNL A   1      31.444  32.221  26.883  1.00  0.00     0.275 C 
BRANCH  24  25
ATOM     25  O   UNL A   1      32.725  32.865  26.760  1.00  0.00    -0.458 OA
BRANCH  25  26
ATOM     26  C   UNL A   1      33.111  33.588  27.839  1.00  0.00     0.338 C 
ATOM     27  O   UNL A   1      32.506  34.501  28.368  1.00  0.00    -0.246 OA
BRANCH  26  28
ATOM     28  C   UNL A   1      34.366  33.032  28.366  1.00  0.00     0.060 A 
ATOM     29  C   UNL A   1      34.344  31.753  28.926  1.00  0.00     0.016 A 
ATOM     30  C   UNL A   1      35.535  33.792  28.385  1.00  0.00     0.016 A 
ATOM     31  C   UNL A   1      35.486  31.222  29.518  1.00  0.00     0.010 A 
ATOM     32  C   UNL A   1      36.685  33.259  28.976  1.00  0.00     0.010 A 
ATOM     33  C   UNL A   1      36.661  31.976  29.556  1.00  0.00    -0.014 A 
BRANCH  33  34
ATOM     34  C   UNL A   1      37.852  31.452  30.263  1.00  0.00     0.031 A 
ATOM     35  C   UNL A   1      38.743  30.461  29.577  1.00  0.00     0.074 A 
ATOM     36  C   UNL A   1      38.128  31.860  31.514  1.00  0.00     0.049 A 
ATOM     37  N   UNL A   1      39.741  29.769  30.063  1.00  0.00    -0.248 NA
ATOM     38  C   UNL A   1      38.471  30.212  28.153  1.00  0.00     0.031 C 
ATOM     39  C   UNL A   1      37.365  32.856  32.265  1.00  0.00     0.029 A 
ATOM     40  N   UNL A   1      39.118  31.467  32.380  1.00  0.00    -0.354 N 
ATOM     41  C   UNL A   1      40.191  28.973  29.019  1.00  0.00     0.074 A 
ATOM     42  C   UNL A   1      39.361  29.271  27.871  1.00  0.00     0.031 C 
ATOM     43  C   UNL A   1      37.901  32.979  33.491  1.00  0.00     0.029 A 
ATOM     44  C   UNL A   1      39.010  32.040  33.623  1.00  0.00     0.049 A 
ATOM     45  H   UNL A   1      39.833  30.838  32.134  1.00  0.00     0.167 HD
ATOM     46  C   UNL A   1      41.201  28.072  29.024  1.00  0.00     0.037 A 
ATOM     47  C   UNL A   1      39.701  31.799  34.753  1.00  0.00     0.037 A 
ATOM     48  C   UNL A   1      42.040  27.800  30.161  1.00  0.00     0.049 A 
ATOM     49  C   UNL A   1      40.793  30.766  34.747  1.00  0.00     0.074 A 
ATOM     50  C   UNL A   1      43.113  26.932  30.254  1.00  0.00     0.029 A 
ATOM     51  N   UNL A   1      41.895  28.394  31.405  1.00  0.00    -0.354 N 
ATOM     52  N   UNL A   1      41.209  30.014  33.757  1.00  0.00    -0.248 NA
ATOM     53  C   UNL A   1      41.502  30.541  36.014  1.00  0.00     0.031 C 
ATOM     54  C   UNL A   1      43.598  26.975  31.566  1.00  0.00     0.029 A 
ATOM     55  C   UNL A   1      42.847  27.896  32.280  1.00  0.00     0.049 A 
ATOM     56  H   UNL A   1      41.217  29.070  31.634  1.00  0.00     0.167 HD
ATOM     57  C   UNL A   1      42.235  29.234  34.277  1.00  0.00     0.074 A 
ATOM     58  C   UNL A   1      42.387  29.616  35.667  1.00  0.00     0.031 C 
ATOM     59  C   UNL A   1      42.981  28.287  33.660  1.00  0.00     0.037 A 
BRANCH  46  60
ATOM     60  C   UNL A   1      41.423  27.286  27.768  1.00  0.00     0.057 A 
ATOM     61  C   UNL A   1      40.815  26.044  27.551  1.00  0.00     0.134 A 
ATOM     62  C   UNL A   1      42.250  27.789  26.756  1.00  0.00     0.134 A 
ATOM     63  F   UNL A   1      40.024  25.500  28.488  1.00  0.00    -0.206 F 
ATOM     64  C   UNL A   1      41.040  25.319  26.379  1.00  0.00     0.040 A 
ATOM     65  C   UNL A   1      42.466  27.084  25.572  1.00  0.00     0.040 A 
ATOM     66  F   UNL A   1      42.860  28.975  26.902  1.00  0.00    -0.206 F 
ATOM     67  C   UNL A   1      41.864  25.841  25.383  1.00  0.00     0.006 A 
ENDBRANCH  46  60
BRANCH  47  68
ATOM     68  C   UNL A   1      39.344  32.524  35.996  1.00  0.00     0.057 A 
ATOM     69  C   UNL A   1      39.910  33.765  36.301  1.00  0.00     0.134 A 
ATOM     70  C   UNL A   1      38.410  31.996  36.898  1.00  0.00     0.134 A 
ATOM     71  F   UNL A   1      40.825  34.308  35.485  1.00  0.00    -0.206 F 
ATOM     72  C   UNL A   1      39.562  34.458  37.461  1.00  0.00     0.040 A 
ATOM     73  C   UNL A   1      38.038  32.688  38.051  1.00  0.00     0.040 A 
ATOM     74  F   UNL A   1      37.834  30.810  36.659  1.00  0.00    -0.206 F 
ATOM     75  C   UNL A   1      38.618  33.923  38.337  1.00  0.00     0.006 A 
ENDBRANCH  47  68
BRANCH  59  76
ATOM     76  C   UNL A   1      44.040  27.611  34.476  1.00  0.00     0.057 A 
ATOM     77  C   UNL A   1      45.323  28.156  34.609  1.00  0.00     0.134 A 
ATOM     78  C   UNL A   1      43.759  26.431  35.174  1.00  0.00     0.134 A 
ATOM     79  F   UNL A   1      45.656  29.279  33.955  1.00  0.00    -0.206 F 
ATOM     80  C   UNL A   1      46.294  27.543  35.401  1.00  0.00     0.040 A 
ATOM     81  C   UNL A   1      44.716  25.818  35.984  1.00  0.00     0.040 A 
ATOM     82  F   UNL A   1      42.546  25.863  35.091  1.00  0.00    -0.206 F 
ATOM     83  C   UNL A   1      45.989  26.373  36.096  1.00  0.00     0.006 A 
ENDBRANCH  59  76
ENDBRANCH  33  34
ENDBRANCH  26  28
ENDBRANCH  25  26
ENDBRANCH  24  25
ENDBRANCH   1  24
TORSDOF 14
ENDMDL
MODEL 2
REMARK VINA RESULT:     -11.3      4.811      9.129
REMARK SMILES CC1=C(C)C[C@@H](C(=O)OCCOC(=O)c2ccc(-c3c4nc(c(-c5c(F)cccc5F)c5ccc([nH]5)c(-c5c(F)cccc5F)c5nc(c(-c6c(F)cccc6F)c6ccc3[nH]6)C=C5)C=C4)cc2)[C@H](C(=O)NCc2cccnc2)C1
REMARK SMILES IDX 10 1 9 2 7 3 8 4 6 5 1 6 2 7 3 8 80 9 4 10 5 11 69 12 70 13
REMARK SMILES IDX 71 14 72 15 73 17 74 18 75 19 79 20 76 21 78 22 77 23 11 24
REMARK SMILES IDX 12 25 13 26 14 27 15 28 16 29 68 30 17 31 67 32 18 33 19 34
REMARK SMILES IDX 20 35 61 36 21 37 66 38 60 39 62 40 22 41 65 42 59 43 58 44
REMARK SMILES IDX 23 46 49 47 32 48 48 49 33 50 36 51 47 52 63 53 34 54 35 55
REMARK SMILES IDX 46 57 64 58 37 59 24 60 25 61 30 62 26 63 27 64 29 65 31 66
REMARK SMILES IDX 28 67 50 68 51 69 56 70 52 71 53 72 55 73 57 74 54 75 38 76
REMARK SMILES IDX 39 77 44 78 40 79 41 80 43 81 45 82 42 83
REMARK H PARENT 72 16 62 45 36 56
REMARK Flexibility Score: inf
ROOT
ATOM      1  C   UNL A   1      38.245  21.261  25.340  1.00  0.00     0.274 C 
ENDROOT
BRANCH   1   2
ATOM      2  O   UNL A   1      36.834  21.137  25.069  1.00  0.00    -0.462 OA
BRANCH   2   3
ATOM      3  C   UNL A   1      36.328  22.007  24.157  1.00  0.00     0.310 C 
ATOM      4  O   UNL A   1      36.958  22.468  23.210  1.00  0.00    -0.252 OA
BRANCH   3   5
ATOM      5  C   UNL A   1      34.897  22.435  24.453  1.00  0.00     0.116 C 
ATOM      6  C   UNL A   1      33.749  26.627  25.523  1.00  0.00     0.039 C 
ATOM      7  C   UNL A   1      34.101  25.235  25.058  1.00  0.00    -0.074 C 
ATOM      8  C   UNL A   1      34.099  24.825  23.774  1.00  0.00    -0.073 C 
ATOM      9  C   UNL A   1      34.464  24.323  26.206  1.00  0.00     0.045 C 
ATOM     10  C   UNL A   1      33.715  25.675  22.586  1.00  0.00     0.039 C 
ATOM     11  C   UNL A   1      34.480  23.426  23.364  1.00  0.00     0.046 C 
ATOM     12  C   UNL A   1      34.668  22.836  25.915  1.00  0.00     0.097 C 
BRANCH  12  13
ATOM     13  C   UNL A   1      33.637  21.955  26.625  1.00  0.00     0.224 C 
ATOM     14  O   UNL A   1      33.933  21.384  27.680  1.00  0.00    -0.275 OA
ATOM     15  N   UNL A   1      32.386  21.724  26.170  1.00  0.00    -0.352 N 
ATOM     16  H   UNL A   1      31.841  21.168  26.772  1.00  0.00     0.163 HD
BRANCH  15  17
ATOM     17  C   UNL A   1      31.695  22.134  24.971  1.00  0.00     0.153 C 
BRANCH  17  18
ATOM     18  C   UNL A   1      31.054  23.490  25.082  1.00  0.00    -0.010 A 
ATOM     19  C   UNL A   1      30.646  24.252  23.981  1.00  0.00     0.009 A 
ATOM     20  C   UNL A   1      30.782  24.012  26.344  1.00  0.00     0.116 A 
ATOM     21  C   UNL A   1      30.027  25.484  24.180  1.00  0.00     0.020 A 
ATOM     22  N   UNL A   1      30.186  25.204  26.568  1.00  0.00    -0.264 NA
ATOM     23  C   UNL A   1      29.823  25.915  25.479  1.00  0.00     0.111 A 
ENDBRANCH  17  18
ENDBRANCH  15  17
ENDBRANCH  12  13
ENDBRANCH   3   5
ENDBRANCH   2   3
ENDBRANCH   1   2
BRANCH   1  24
ATOM     24  C   UNL A   1      38.967  19.912  25.284  1.00  0.00     0.275 C 
BRANCH  24  25
ATOM     25  O   UNL A   1      39.887  19.762  26.380  1.00  0.00    -0.458 OA
BRANCH  25  26
ATOM     26  C   UNL A   1      41.197  19.840  26.045  1.00  0.00     0.338 C 
ATOM     27  O   UNL A   1      41.833  19.052  25.371  1.00  0.00    -0.246 OA
BRANCH  26  28
ATOM     28  C   UNL A   1      41.747  21.109  26.545  1.00  0.00     0.060 A 
ATOM     29  C   UNL A   1      41.968  21.243  27.917  1.00  0.00     0.016 A 
ATOM     30  C   UNL A   1      41.965  22.185  25.685  1.00  0.00     0.016 A 
ATOM     31  C   UNL A   1      42.402  22.454  28.447  1.00  0.00     0.010 A 
ATOM     32  C   UNL A   1      42.404  23.402  26.215  1.00  0.00     0.010 A 
ATOM     33  C   UNL A   1      42.613  23.545  27.600  1.00  0.00    -0.014 A 
BRANCH  33  34
ATOM     34  C   UNL A   1      42.988  24.859  28.169  1.00  0.00     0.031 A 
ATOM     35  C   UNL A   1      41.922  25.876  28.449  1.00  0.00     0.074 A 
ATOM     36  C   UNL A   1      44.277  25.140  28.427  1.00  0.00     0.049 A 
ATOM     37  N   UNL A   1      42.046  27.130  28.801  1.00  0.00    -0.248 NA
ATOM     38  C   UNL A   1      40.531  25.420  28.311  1.00  0.00     0.031 C 
ATOM     39  C   UNL A   1      45.395  24.216  28.243  1.00  0.00     0.029 A 
ATOM     40  N   UNL A   1      44.863  26.296  28.880  1.00  0.00    -0.354 N 
ATOM     41  C   UNL A   1      40.753  27.625  28.887  1.00  0.00     0.074 A 
ATOM     42  C   UNL A   1      39.858  26.536  28.555  1.00  0.00     0.031 C 
ATOM     43  C   UNL A   1      46.538  24.849  28.557  1.00  0.00     0.029 A 
ATOM     44  C   UNL A   1      46.234  26.230  28.918  1.00  0.00     0.049 A 
ATOM     45  H   UNL A   1      44.351  27.091  29.150  1.00  0.00     0.167 HD
ATOM     46  C   UNL A   1      40.351  28.878  29.207  1.00  0.00     0.037 A 
ATOM     47  C   UNL A   1      47.143  27.191  29.171  1.00  0.00     0.037 A 
ATOM     48  C   UNL A   1      41.244  29.949  29.563  1.00  0.00     0.049 A 
ATOM     49  C   UNL A   1      46.677  28.585  29.486  1.00  0.00     0.074 A 
ATOM     50  C   UNL A   1      40.932  31.243  29.940  1.00  0.00     0.029 A 
ATOM     51  N   UNL A   1      42.627  29.847  29.583  1.00  0.00    -0.354 N 
ATOM     52  N   UNL A   1      45.453  29.048  29.560  1.00  0.00    -0.248 NA
ATOM     53  C   UNL A   1      47.718  29.591  29.742  1.00  0.00     0.031 C 
ATOM     54  C   UNL A   1      42.129  31.935  30.155  1.00  0.00     0.029 A 
ATOM     55  C   UNL A   1      43.185  31.062  29.945  1.00  0.00     0.049 A 
ATOM     56  H   UNL A   1      43.136  29.032  29.371  1.00  0.00     0.167 HD
ATOM     57  C   UNL A   1      45.573  30.394  29.881  1.00  0.00     0.074 A 
ATOM     58  C   UNL A   1      46.990  30.670  30.001  1.00  0.00     0.031 C 
ATOM     59  C   UNL A   1      44.598  31.318  30.058  1.00  0.00     0.037 A 
BRANCH  46  60
ATOM     60  C   UNL A   1      38.882  29.164  29.145  1.00  0.00     0.057 A 
ATOM     61  C   UNL A   1      38.240  29.505  27.949  1.00  0.00     0.134 A 
ATOM     62  C   UNL A   1      38.097  29.082  30.302  1.00  0.00     0.134 A 
ATOM     63  F   UNL A   1      38.939  29.614  26.809  1.00  0.00    -0.206 F 
ATOM     64  C   UNL A   1      36.871  29.777  27.910  1.00  0.00     0.040 A 
ATOM     65  C   UNL A   1      36.725  29.333  30.272  1.00  0.00     0.040 A 
ATOM     66  F   UNL A   1      38.652  28.758  31.480  1.00  0.00    -0.206 F 
ATOM     67  C   UNL A   1      36.109  29.687  29.073  1.00  0.00     0.006 A 
ENDBRANCH  46  60
BRANCH  47  68
ATOM     68  C   UNL A   1      48.587  26.869  29.090  1.00  0.00     0.057 A 
ATOM     69  C   UNL A   1      49.283  26.370  30.195  1.00  0.00     0.134 A 
ATOM     70  C   UNL A   1      49.300  27.037  27.896  1.00  0.00     0.134 A 
ATOM     71  F   UNL A   1      48.657  26.209  31.370  1.00  0.00    -0.206 F 
ATOM     72  C   UNL A   1      50.639  26.049  30.118  1.00  0.00     0.040 A 
ATOM     73  C   UNL A   1      50.651  26.700  27.799  1.00  0.00     0.040 A 
ATOM     74  F   UNL A   1      48.687  27.512  26.802  1.00  0.00    -0.206 F 
ATOM     75  C   UNL A   1      51.325  26.207  28.914  1.00  0.00     0.006 A 
ENDBRANCH  47  68
BRANCH  59  76
ATOM     76  C   UNL A   1      45.029  32.707  30.417  1.00  0.00     0.057 A 
ATOM     77  C   UNL A   1      45.234  33.687  29.440  1.00  0.00     0.134 A 
ATOM     78  C   UNL A   1      45.193  33.079  31.757  1.00  0.00     0.134 A 
ATOM     79  F   UNL A   1      45.103  33.388  28.139  1.00  0.00    -0.206 F 
ATOM     80  C   UNL A   1      45.599  34.990  29.782  1.00  0.00     0.040 A 
ATOM     81  C   UNL A   1      45.540  34.383  32.113  1.00  0.00     0.040 A 
ATOM     82  F   UNL A   1      45.006  32.185  32.740  1.00  0.00    -0.206 F 
ATOM     83  C   UNL A   1      45.747  35.342  31.123  1.00  0.00     0.006 A 
ENDBRANCH  59  76
ENDBRANCH  33  34
ENDBRANCH  26  28
ENDBRANCH  25  26
ENDBRANCH  24  25
ENDBRANCH   1  24
TORSDOF 14
ENDMDL
MODEL 3
REMARK VINA RESULT:     -11.2      4.251      9.060
REMARK SMILES CC1=C(C)C[C@@H](C(=O)OCCOC(=O)c2ccc(-c3c4nc(c(-c5c(F)cccc5F)c5ccc([nH]5)c(-c5c(F)cccc5F)c5nc(c(-c6c(F)cccc6F)c6ccc3[nH]6)C=C5)C=C4)cc2)[C@H](C(=O)NCc2cccnc2)C1
REMARK SMILES IDX 10 1 9 2 7 3 8 4 6 5 1 6 2 7 3 8 80 9 4 10 5 11 69 12 70 13
REMARK SMILES IDX 71 14 72 15 73 17 74 18 75 19 79 20 76 21 78 22 77 23 11 24
REMARK SMILES IDX 12 25 13 26 14 27 15 28 16 29 68 30 17 31 67 32 18 33 19 34
REMARK SMILES IDX 20 35 61 36 21 37 66 38 60 39 62 40 22 41 65 42 59 43 58 44
REMARK SMILES IDX 23 46 49 47 32 48 48 49 33 50 36 51 47 52 63 53 34 54 35 55
REMARK SMILES IDX 46 57 64 58 37 59 24 60 25 61 30 62 26 63 27 64 29 65 31 66
REMARK SMILES IDX 28 67 50 68 51 69 56 70 52 71 53 72 55 73 57 74 54 75 38 76
REMARK SMILES IDX 39 77 44 78 40 79 41 80 43 81 45 82 42 83
REMARK H PARENT 72 16 62 45 36 56
REMARK Flexibility Score: inf
ROOT
ATOM      1  C   UNL A   1      34.727  20.827  25.130  1.00  0.00     0.274 C 
ENDROOT
BRANCH   1   2
ATOM      2  O   UNL A   1      34.291  21.852  24.215  1.00  0.00    -0.462 OA
BRANCH   2   3
ATOM      3  C   UNL A   1      32.973  21.831  23.887  1.00  0.00     0.310 C 
ATOM      4  O   UNL A   1      32.415  20.907  23.306  1.00  0.00    -0.252 OA
BRANCH   3   5
ATOM      5  C   UNL A   1      32.237  23.116  24.245  1.00  0.00     0.116 C 
ATOM      6  C   UNL A   1      34.066  27.186  23.886  1.00  0.00     0.039 C 
ATOM      7  C   UNL A   1      33.397  25.833  23.910  1.00  0.00    -0.074 C 
ATOM      8  C   UNL A   1      32.709  25.293  22.885  1.00  0.00    -0.073 C 
ATOM      9  C   UNL A   1      33.581  25.127  25.233  1.00  0.00     0.045 C 
ATOM     10  C   UNL A   1      32.460  25.959  21.552  1.00  0.00     0.039 C 
ATOM     11  C   UNL A   1      32.077  23.926  22.957  1.00  0.00     0.046 C 
ATOM     12  C   UNL A   1      32.810  23.828  25.475  1.00  0.00     0.097 C 
BRANCH  12  13
ATOM     13  C   UNL A   1      31.804  23.952  26.622  1.00  0.00     0.224 C 
ATOM     14  O   UNL A   1      31.946  23.273  27.645  1.00  0.00    -0.275 OA
ATOM     15  N   UNL A   1      30.720  24.757  26.603  1.00  0.00    -0.352 N 
ATOM     16  H   UNL A   1      30.203  24.746  27.441  1.00  0.00     0.163 HD
BRANCH  15  17
ATOM     17  C   UNL A   1      30.174  25.632  25.594  1.00  0.00     0.153 C 
BRANCH  17  18
ATOM     18  C   UNL A   1      30.709  27.036  25.662  1.00  0.00    -0.010 A 
ATOM     19  C   UNL A   1      31.413  27.551  26.756  1.00  0.00     0.009 A 
ATOM     20  C   UNL A   1      30.565  27.871  24.556  1.00  0.00     0.116 A 
ATOM     21  C   UNL A   1      31.905  28.853  26.715  1.00  0.00     0.020 A 
ATOM     22  N   UNL A   1      31.028  29.139  24.489  1.00  0.00    -0.264 NA
ATOM     23  C   UNL A   1      31.687  29.603  25.573  1.00  0.00     0.111 A 
ENDBRANCH  17  18
ENDBRANCH  15  17
ENDBRANCH  12  13
ENDBRANCH   3   5
ENDBRANCH   2   3
ENDBRANCH   1   2
BRANCH   1  24
ATOM     24  C   UNL A   1      36.223  20.528  24.997  1.00  0.00     0.275 C 
BRANCH  24  25
ATOM     25  O   UNL A   1      37.018  21.492  25.710  1.00  0.00    -0.458 OA
BRANCH  25  26
ATOM     26  C   UNL A   1      38.339  21.202  25.786  1.00  0.00     0.338 C 
ATOM     27  O   UNL A   1      38.900  20.207  25.369  1.00  0.00    -0.246 OA
BRANCH  26  28
ATOM     28  C   UNL A   1      39.049  22.345  26.379  1.00  0.00     0.060 A 
ATOM     29  C   UNL A   1      38.614  23.634  26.065  1.00  0.00     0.016 A 
ATOM     30  C   UNL A   1      40.180  22.155  27.171  1.00  0.00     0.016 A 
ATOM     31  C   UNL A   1      39.308  24.747  26.530  1.00  0.00     0.010 A 
ATOM     32  C   UNL A   1      40.878  23.272  27.643  1.00  0.00     0.010 A 
ATOM     33  C   UNL A   1      40.451  24.572  27.314  1.00  0.00    -0.014 A 
BRANCH  33  34
ATOM     34  C   UNL A   1      41.244  25.749  27.736  1.00  0.00     0.031 A 
ATOM     35  C   UNL A   1      40.601  26.811  28.576  1.00  0.00     0.074 A 
ATOM     36  C   UNL A   1      42.530  25.865  27.364  1.00  0.00     0.049 A 
ATOM     37  N   UNL A   1      41.064  27.984  28.925  1.00  0.00    -0.248 NA
ATOM     38  C   UNL A   1      39.254  26.515  29.088  1.00  0.00     0.031 C 
ATOM     39  C   UNL A   1      43.278  24.875  26.590  1.00  0.00     0.029 A 
ATOM     40  N   UNL A   1      43.429  26.883  27.571  1.00  0.00    -0.354 N 
ATOM     41  C   UNL A   1      40.052  28.583  29.663  1.00  0.00     0.074 A 
ATOM     42  C   UNL A   1      38.952  27.643  29.716  1.00  0.00     0.031 C 
ATOM     43  C   UNL A   1      44.517  25.344  26.366  1.00  0.00     0.029 A 
ATOM     44  C   UNL A   1      44.631  26.682  26.939  1.00  0.00     0.049 A 
ATOM     45  H   UNL A   1      43.230  27.676  28.117  1.00  0.00     0.167 HD
ATOM     46  C   UNL A   1      40.043  29.808  30.237  1.00  0.00     0.037 A 
ATOM     47  C   UNL A   1      45.687  27.506  26.800  1.00  0.00     0.037 A 
ATOM     48  C   UNL A   1      41.150  30.727  30.205  1.00  0.00     0.049 A 
ATOM     49  C   UNL A   1      45.641  28.878  27.412  1.00  0.00     0.074 A 
ATOM     50  C   UNL A   1      41.251  31.978  30.789  1.00  0.00     0.029 A 
ATOM     51  N   UNL A   1      42.349  30.493  29.548  1.00  0.00    -0.354 N 
ATOM     52  N   UNL A   1      44.679  29.439  28.104  1.00  0.00    -0.248 NA
ATOM     53  C   UNL A   1      46.820  29.733  27.217  1.00  0.00     0.031 C 
ATOM     54  C   UNL A   1      42.500  32.515  30.456  1.00  0.00     0.029 A 
ATOM     55  C   UNL A   1      43.189  31.584  29.694  1.00  0.00     0.049 A 
ATOM     56  H   UNL A   1      42.570  29.672  29.052  1.00  0.00     0.167 HD
ATOM     57  C   UNL A   1      45.138  30.707  28.435  1.00  0.00     0.074 A 
ATOM     58  C   UNL A   1      46.472  30.827  27.880  1.00  0.00     0.031 C 
ATOM     59  C   UNL A   1      44.512  31.685  29.133  1.00  0.00     0.037 A 
BRANCH  46  60
ATOM     60  C   UNL A   1      38.778  30.239  30.913  1.00  0.00     0.057 A 
ATOM     61  C   UNL A   1      38.534  29.985  32.268  1.00  0.00     0.134 A 
ATOM     62  C   UNL A   1      37.793  30.932  30.197  1.00  0.00     0.134 A 
ATOM     63  F   UNL A   1      39.430  29.312  33.006  1.00  0.00    -0.206 F 
ATOM     64  C   UNL A   1      37.345  30.384  32.881  1.00  0.00     0.040 A 
ATOM     65  C   UNL A   1      36.610  31.354  30.803  1.00  0.00     0.040 A 
ATOM     66  F   UNL A   1      37.968  31.208  28.895  1.00  0.00    -0.206 F 
ATOM     67  C   UNL A   1      36.381  31.076  32.149  1.00  0.00     0.006 A 
ENDBRANCH  46  60
BRANCH  47  68
ATOM     68  C   UNL A   1      46.859  27.063  26.008  1.00  0.00     0.057 A 
ATOM     69  C   UNL A   1      46.964  27.349  24.644  1.00  0.00     0.134 A 
ATOM     70  C   UNL A   1      47.911  26.357  26.607  1.00  0.00     0.134 A 
ATOM     71  F   UNL A   1      45.977  28.002  24.014  1.00  0.00    -0.206 F 
ATOM     72  C   UNL A   1      48.075  26.948  23.900  1.00  0.00     0.040 A 
ATOM     73  C   UNL A   1      49.036  25.969  25.879  1.00  0.00     0.040 A 
ATOM     74  F   UNL A   1      47.867  26.054  27.912  1.00  0.00    -0.206 F 
ATOM     75  C   UNL A   1      49.119  26.262  24.519  1.00  0.00     0.006 A 
ENDBRANCH  47  68
BRANCH  59  76
ATOM     76  C   UNL A   1      45.267  32.960  29.352  1.00  0.00     0.057 A 
ATOM     77  C   UNL A   1      46.137  33.121  30.437  1.00  0.00     0.134 A 
ATOM     78  C   UNL A   1      45.159  34.019  28.443  1.00  0.00     0.134 A 
ATOM     79  F   UNL A   1      46.274  32.146  31.349  1.00  0.00    -0.206 F 
ATOM     80  C   UNL A   1      46.867  34.296  30.616  1.00  0.00     0.040 A 
ATOM     81  C   UNL A   1      45.897  35.193  28.602  1.00  0.00     0.040 A 
ATOM     82  F   UNL A   1      44.345  33.924  27.381  1.00  0.00    -0.206 F 
ATOM     83  C   UNL A   1      46.752  35.334  29.693  1.00  0.00     0.006 A 
ENDBRANCH  59  76
ENDBRANCH  33  34
ENDBRANCH  26  28
ENDBRANCH  25  26
ENDBRANCH  24  25
ENDBRANCH   1  24
TORSDOF 14
ENDMDL
