MODEL 1
REMARK VINA RESULT:     -11.1      0.000      0.000
REMARK SMILES CC[C@](C)(NC(=O)N1CCC[C@@H]1C)C(=O)OCCOC(=O)c1ccc(-c2c3nc(c(-c4c(F)cccc4F)c4ccc([nH]4)c(-c4c(F)cccc4F)c4nc(c(-c5c(F)cccc5F)c5ccc2[nH]5)C=C4)C=C3)cc1
REMARK SMILES IDX 17 1 16 2 14 3 15 4 3 5 4 6 2 7 1 8 5 9 6 10 7 12 8 13 9 14
REMARK SMILES IDX 12 15 10 16 11 17 13 18 18 19 19 20 20 21 21 22 22 23 23 24
REMARK SMILES IDX 75 25 24 26 74 27 25 28 26 29 27 30 68 31 28 32 73 33 67 34
REMARK SMILES IDX 69 35 29 36 72 37 66 38 65 39 30 41 56 42 39 43 55 44 40 45
REMARK SMILES IDX 43 46 54 47 70 48 41 49 42 50 53 52 71 53 44 54 31 55 32 56
REMARK SMILES IDX 37 57 33 58 34 59 36 60 38 61 35 62 57 63 58 64 63 65 59 66
REMARK SMILES IDX 60 67 62 68 64 69 61 70 45 71 46 72 51 73 47 74 48 75 50 76
REMARK SMILES IDX 52 77 49 78
REMARK H PARENT 5 11 69 40 43 51
REMARK Flexibility Score: inf
ROOT
ATOM      1  C   UNL A   1      36.831  22.631  23.644  1.00  0.00     0.274 C 
ENDROOT
BRANCH   1   2
ATOM      2  O   UNL A   1      35.692  23.203  24.318  1.00  0.00    -0.460 OA
BRANCH   2   3
ATOM      3  C   UNL A   1      34.548  23.348  23.595  1.00  0.00     0.331 C 
ATOM      4  O   UNL A   1      34.430  24.164  22.686  1.00  0.00    -0.249 OA
BRANCH   3   5
ATOM      5  C   UNL A   1      33.366  22.494  24.157  1.00  0.00     0.136 C 
ATOM      6  C   UNL A   1      32.218  22.435  23.136  1.00  0.00     0.047 C 
BRANCH   5   7
ATOM      7  C   UNL A   1      32.865  23.217  25.442  1.00  0.00     0.037 C 
ATOM      8  C   UNL A   1      31.433  23.751  25.396  1.00  0.00     0.007 C 
ENDBRANCH   5   7
BRANCH   5   9
ATOM      9  N   UNL A   1      33.827  21.138  24.549  1.00  0.00    -0.322 N 
ATOM     10  C   UNL A   1      33.053  20.017  24.660  1.00  0.00     0.318 C 
ATOM     11  H   UNL A   1      34.786  21.037  24.748  1.00  0.00     0.166 HD
ATOM     12  O   UNL A   1      31.962  20.036  25.222  1.00  0.00    -0.249 OA
BRANCH  10  13
ATOM     13  N   UNL A   1      33.601  18.870  24.118  1.00  0.00    -0.322 N 
ATOM     14  C   UNL A   1      34.855  18.358  24.659  1.00  0.00     0.122 C 
ATOM     15  C   UNL A   1      32.870  17.800  23.438  1.00  0.00     0.083 C 
ATOM     16  C   UNL A   1      34.709  16.843  24.642  1.00  0.00     0.024 C 
ATOM     17  C   UNL A   1      33.823  16.598  23.433  1.00  0.00     0.027 C 
ATOM     18  C   UNL A   1      32.370  18.110  22.035  1.00  0.00     0.031 C 
ENDBRANCH  10  13
ENDBRANCH   5   9
ENDBRANCH   3   5
ENDBRANCH   2   3
ENDBRANCH   1   2
BRANCH   1  19
ATOM     19  C   UNL A   1      37.365  21.420  24.409  1.00  0.00     0.275 C 
BRANCH  19  20
ATOM     20  O   UNL A   1      37.736  21.816  25.738  1.00  0.00    -0.458 OA
BRANCH  20  21
ATOM     21  C   UNL A   1      39.027  21.624  26.085  1.00  0.00     0.338 C 
ATOM     22  O   UNL A   1      39.706  20.621  25.928  1.00  0.00    -0.246 OA
BRANCH  21  23
ATOM     23  C   UNL A   1      39.504  22.829  26.762  1.00  0.00     0.060 A 
ATOM     24  C   UNL A   1      40.589  22.743  27.630  1.00  0.00     0.016 A 
ATOM     25  C   UNL A   1      38.897  24.054  26.498  1.00  0.00     0.016 A 
ATOM     26  C   UNL A   1      41.109  23.880  28.221  1.00  0.00     0.010 A 
ATOM     27  C   UNL A   1      39.471  25.212  27.018  1.00  0.00     0.010 A 
ATOM     28  C   UNL A   1      40.606  25.126  27.843  1.00  0.00    -0.014 A 
BRANCH  28  29
ATOM     29  C   UNL A   1      41.397  26.329  28.156  1.00  0.00     0.031 A 
ATOM     30  C   UNL A   1      40.792  27.454  28.924  1.00  0.00     0.074 A 
ATOM     31  C   UNL A   1      42.661  26.378  27.692  1.00  0.00     0.049 A 
ATOM     32  N   UNL A   1      41.277  28.646  29.142  1.00  0.00    -0.248 NA
ATOM     33  C   UNL A   1      39.467  27.215  29.517  1.00  0.00     0.031 C 
ATOM     34  C   UNL A   1      43.332  25.299  26.955  1.00  0.00     0.029 A 
ATOM     35  N   UNL A   1      43.608  27.364  27.761  1.00  0.00    -0.354 N 
ATOM     36  C   UNL A   1      40.304  29.317  29.867  1.00  0.00     0.074 A 
ATOM     37  C   UNL A   1      39.202  28.397  30.060  1.00  0.00     0.031 C 
ATOM     38  C   UNL A   1      44.581  25.677  26.652  1.00  0.00     0.029 A 
ATOM     39  C   UNL A   1      44.770  27.049  27.097  1.00  0.00     0.049 A 
ATOM     40  H   UNL A   1      43.470  28.213  28.238  1.00  0.00     0.167 HD
ATOM     41  C   UNL A   1      40.340  30.593  30.312  1.00  0.00     0.037 A 
ATOM     42  C   UNL A   1      45.846  27.808  26.828  1.00  0.00     0.037 A 
ATOM     43  C   UNL A   1      41.463  31.473  30.111  1.00  0.00     0.049 A 
ATOM     44  C   UNL A   1      45.836  29.231  27.300  1.00  0.00     0.074 A 
ATOM     45  C   UNL A   1      41.624  32.779  30.534  1.00  0.00     0.029 A 
ATOM     46  N   UNL A   1      42.618  31.128  29.422  1.00  0.00    -0.354 N 
ATOM     47  N   UNL A   1      44.910  29.863  27.981  1.00  0.00    -0.248 NA
ATOM     48  C   UNL A   1      47.000  30.052  26.951  1.00  0.00     0.031 C 
ATOM     49  C   UNL A   1      42.860  33.238  30.066  1.00  0.00     0.029 A 
ATOM     50  C   UNL A   1      43.486  32.205  29.383  1.00  0.00     0.049 A 
ATOM     51  H   UNL A   1      42.794  30.247  29.019  1.00  0.00     0.167 HD
ATOM     52  C   UNL A   1      45.375  31.158  28.140  1.00  0.00     0.074 A 
ATOM     53  C   UNL A   1      46.681  31.210  27.512  1.00  0.00     0.031 C 
ATOM     54  C   UNL A   1      44.775  32.215  28.738  1.00  0.00     0.037 A 
BRANCH  41  55
ATOM     55  C   UNL A   1      39.126  31.122  31.011  1.00  0.00     0.057 A 
ATOM     56  C   UNL A   1      38.077  31.739  30.319  1.00  0.00     0.134 A 
ATOM     57  C   UNL A   1      38.992  30.983  32.398  1.00  0.00     0.134 A 
ATOM     58  F   UNL A   1      38.150  31.918  28.991  1.00  0.00    -0.206 F 
ATOM     59  C   UNL A   1      36.941  32.206  30.983  1.00  0.00     0.040 A 
ATOM     60  C   UNL A   1      37.854  31.428  33.071  1.00  0.00     0.040 A 
ATOM     61  F   UNL A   1      39.962  30.404  33.121  1.00  0.00    -0.206 F 
ATOM     62  C   UNL A   1      36.824  32.044  32.363  1.00  0.00     0.006 A 
ENDBRANCH  41  55
BRANCH  42  63
ATOM     63  C   UNL A   1      46.969  27.259  26.027  1.00  0.00     0.057 A 
ATOM     64  C   UNL A   1      47.029  27.437  24.641  1.00  0.00     0.134 A 
ATOM     65  C   UNL A   1      48.016  26.546  26.628  1.00  0.00     0.134 A 
ATOM     66  F   UNL A   1      46.050  28.095  24.002  1.00  0.00    -0.206 F 
ATOM     67  C   UNL A   1      48.078  26.916  23.881  1.00  0.00     0.040 A 
ATOM     68  C   UNL A   1      49.084  26.044  25.886  1.00  0.00     0.040 A 
ATOM     69  F   UNL A   1      48.024  26.345  27.955  1.00  0.00    -0.206 F 
ATOM     70  C   UNL A   1      49.113  26.221  24.505  1.00  0.00     0.006 A 
ENDBRANCH  42  63
BRANCH  54  71
ATOM     71  C   UNL A   1      45.538  33.502  28.732  1.00  0.00     0.057 A 
ATOM     72  C   UNL A   1      45.354  34.452  27.721  1.00  0.00     0.134 A 
ATOM     73  C   UNL A   1      46.441  33.802  29.758  1.00  0.00     0.134 A 
ATOM     74  F   UNL A   1      44.516  34.210  26.703  1.00  0.00    -0.206 F 
ATOM     75  C   UNL A   1      46.059  35.656  27.722  1.00  0.00     0.040 A 
ATOM     76  C   UNL A   1      47.133  35.012  29.782  1.00  0.00     0.040 A 
ATOM     77  F   UNL A   1      46.655  32.930  30.754  1.00  0.00    -0.206 F 
ATOM     78  C   UNL A   1      46.946  35.941  28.759  1.00  0.00     0.006 A 
ENDBRANCH  54  71
ENDBRANCH  28  29
ENDBRANCH  21  23
ENDBRANCH  20  21
ENDBRANCH  19  20
ENDBRANCH   1  19
TORSDOF 14
ENDMDL
MODEL 2
REMARK VINA RESULT:     -10.8      5.278      9.696
REMARK SMILES CC[C@](C)(NC(=O)N1CCC[C@@H]1C)C(=O)OCCOC(=O)c1ccc(-c2c3nc(c(-c4c(F)cccc4F)c4ccc([nH]4)c(-c4c(F)cccc4F)c4nc(c(-c5c(F)cccc5F)c5ccc2[nH]5)C=C4)C=C3)cc1
REMARK SMILES IDX 17 1 16 2 14 3 15 4 3 5 4 6 2 7 1 8 5 9 6 10 7 12 8 13 9 14
REMARK SMILES IDX 12 15 10 16 11 17 13 18 18 19 19 20 20 21 21 22 22 23 23 24
REMARK SMILES IDX 75 25 24 26 74 27 25 28 26 29 27 30 68 31 28 32 73 33 67 34
REMARK SMILES IDX 69 35 29 36 72 37 66 38 65 39 30 41 56 42 39 43 55 44 40 45
REMARK SMILES IDX 43 46 54 47 70 48 41 49 42 50 53 52 71 53 44 54 31 55 32 56
REMARK SMILES IDX 37 57 33 58 34 59 36 60 38 61 35 62 57 63 58 64 63 65 59 66
REMARK SMILES IDX 60 67 62 68 64 69 61 70 45 71 46 72 51 73 47 74 48 75 50 76
REMARK SMILES IDX 52 77 49 78
REMARK H PARENT 5 11 69 40 43 51
REMARK Flexibility Score: inf
ROOT
ATOM      1  C   UNL A   1      31.288  30.914  25.733  1.00  0.00     0.274 C 
ENDROOT
BRANCH   1   2
ATOM      2  O   UNL A   1      32.416  30.021  25.645  1.00  0.00    -0.460 OA
BRANCH   2   3
ATOM      3  C   UNL A   1      32.238  28.746  26.086  1.00  0.00     0.331 C 
ATOM      4  O   UNL A   1      31.875  28.477  27.227  1.00  0.00    -0.249 OA
BRANCH   3   5
ATOM      5  C   UNL A   1      32.707  27.676  25.047  1.00  0.00     0.136 C 
ATOM      6  C   UNL A   1      33.146  26.390  25.767  1.00  0.00     0.047 C 
BRANCH   5   7
ATOM      7  C   UNL A   1      33.933  28.284  24.304  1.00  0.00     0.037 C 
ATOM      8  C   UNL A   1      33.813  28.384  22.783  1.00  0.00     0.007 C 
ENDBRANCH   5   7
BRANCH   5   9
ATOM      9  N   UNL A   1      31.649  27.412  24.039  1.00  0.00    -0.322 N 
ATOM     10  C   UNL A   1      30.342  27.102  24.296  1.00  0.00     0.318 C 
ATOM     11  H   UNL A   1      31.915  27.467  23.093  1.00  0.00     0.166 HD
ATOM     12  O   UNL A   1      30.028  26.277  25.148  1.00  0.00    -0.249 OA
BRANCH  10  13
ATOM     13  N   UNL A   1      29.418  27.764  23.510  1.00  0.00    -0.322 N 
ATOM     14  C   UNL A   1      28.037  27.296  23.491  1.00  0.00     0.122 C 
ATOM     15  C   UNL A   1      29.482  29.166  23.095  1.00  0.00     0.083 C 
ATOM     16  C   UNL A   1      27.188  28.558  23.432  1.00  0.00     0.024 C 
ATOM     17  C   UNL A   1      28.060  29.520  22.645  1.00  0.00     0.027 C 
ATOM     18  C   UNL A   1      30.500  29.505  22.017  1.00  0.00     0.031 C 
ENDBRANCH  10  13
ENDBRANCH   5   9
ENDBRANCH   3   5
ENDBRANCH   2   3
ENDBRANCH   1   2
BRANCH   1  19
ATOM     19  C   UNL A   1      31.594  32.089  26.661  1.00  0.00     0.275 C 
BRANCH  19  20
ATOM     20  O   UNL A   1      32.704  31.756  27.510  1.00  0.00    -0.458 OA
BRANCH  20  21
ATOM     21  C   UNL A   1      33.570  32.754  27.788  1.00  0.00     0.338 C 
ATOM     22  O   UNL A   1      33.364  33.957  27.759  1.00  0.00    -0.246 OA
BRANCH  21  23
ATOM     23  C   UNL A   1      34.871  32.159  28.089  1.00  0.00     0.060 A 
ATOM     24  C   UNL A   1      35.988  32.982  28.211  1.00  0.00     0.016 A 
ATOM     25  C   UNL A   1      34.971  30.786  28.296  1.00  0.00     0.016 A 
ATOM     26  C   UNL A   1      37.213  32.455  28.574  1.00  0.00     0.010 A 
ATOM     27  C   UNL A   1      36.180  30.263  28.748  1.00  0.00     0.010 A 
ATOM     28  C   UNL A   1      37.288  31.107  28.931  1.00  0.00    -0.014 A 
BRANCH  28  29
ATOM     29  C   UNL A   1      38.469  30.642  29.680  1.00  0.00     0.031 A 
ATOM     30  C   UNL A   1      39.423  29.676  29.066  1.00  0.00     0.074 A 
ATOM     31  C   UNL A   1      38.624  31.098  30.939  1.00  0.00     0.049 A 
ATOM     32  N   UNL A   1      40.410  29.035  29.629  1.00  0.00    -0.248 NA
ATOM     33  C   UNL A   1      39.241  29.383  27.636  1.00  0.00     0.031 C 
ATOM     34  C   UNL A   1      37.744  32.071  31.599  1.00  0.00     0.029 A 
ATOM     35  N   UNL A   1      39.563  30.809  31.892  1.00  0.00    -0.354 N 
ATOM     36  C   UNL A   1      40.948  28.232  28.635  1.00  0.00     0.074 A 
ATOM     37  C   UNL A   1      40.184  28.472  27.429  1.00  0.00     0.031 C 
ATOM     38  C   UNL A   1      38.191  32.305  32.839  1.00  0.00     0.029 A 
ATOM     39  C   UNL A   1      39.333  31.441  33.091  1.00  0.00     0.049 A 
ATOM     40  H   UNL A   1      40.326  30.208  31.734  1.00  0.00     0.167 HD
ATOM     41  C   UNL A   1      41.982  27.367  28.744  1.00  0.00     0.037 A 
ATOM     42  C   UNL A   1      39.945  31.293  34.279  1.00  0.00     0.037 A 
ATOM     43  C   UNL A   1      42.727  27.167  29.959  1.00  0.00     0.049 A 
ATOM     44  C   UNL A   1      41.060  30.296  34.374  1.00  0.00     0.074 A 
ATOM     45  C   UNL A   1      43.807  26.334  30.185  1.00  0.00     0.029 A 
ATOM     46  N   UNL A   1      42.459  27.812  31.160  1.00  0.00    -0.354 N 
ATOM     47  N   UNL A   1      41.562  29.534  33.432  1.00  0.00    -0.248 NA
ATOM     48  C   UNL A   1      41.677  30.117  35.692  1.00  0.00     0.031 C 
ATOM     49  C   UNL A   1      44.168  26.446  31.532  1.00  0.00     0.029 A 
ATOM     50  C   UNL A   1      43.336  27.375  32.138  1.00  0.00     0.049 A 
ATOM     51  H   UNL A   1      41.750  28.481  31.296  1.00  0.00     0.167 HD
ATOM     52  C   UNL A   1      42.552  28.781  34.041  1.00  0.00     0.074 A 
ATOM     53  C   UNL A   1      42.601  29.203  35.427  1.00  0.00     0.031 C 
ATOM     54  C   UNL A   1      43.343  27.818  33.509  1.00  0.00     0.037 A 
BRANCH  41  55
ATOM     55  C   UNL A   1      42.333  26.547  27.540  1.00  0.00     0.057 A 
ATOM     56  C   UNL A   1      43.239  26.997  26.572  1.00  0.00     0.134 A 
ATOM     57  C   UNL A   1      41.780  25.273  27.366  1.00  0.00     0.134 A 
ATOM     58  F   UNL A   1      43.792  28.215  26.671  1.00  0.00    -0.206 F 
ATOM     59  C   UNL A   1      43.574  26.211  25.467  1.00  0.00     0.040 A 
ATOM     60  C   UNL A   1      42.121  24.470  26.277  1.00  0.00     0.040 A 
ATOM     61  F   UNL A   1      40.904  24.783  28.256  1.00  0.00    -0.206 F 
ATOM     62  C   UNL A   1      43.020  24.940  25.322  1.00  0.00     0.006 A 
ENDBRANCH  41  55
BRANCH  42  63
ATOM     63  C   UNL A   1      39.471  32.051  35.465  1.00  0.00     0.057 A 
ATOM     64  C   UNL A   1      39.954  33.332  35.750  1.00  0.00     0.134 A 
ATOM     65  C   UNL A   1      38.518  31.513  36.342  1.00  0.00     0.134 A 
ATOM     66  F   UNL A   1      40.879  33.895  34.960  1.00  0.00    -0.206 F 
ATOM     67  C   UNL A   1      39.518  34.046  36.868  1.00  0.00     0.040 A 
ATOM     68  C   UNL A   1      38.052  32.226  37.447  1.00  0.00     0.040 A 
ATOM     69  F   UNL A   1      38.009  30.291  36.123  1.00  0.00    -0.206 F 
ATOM     70  C   UNL A   1      38.560  33.494  37.718  1.00  0.00     0.006 A 
ENDBRANCH  42  63
BRANCH  54  71
ATOM     71  C   UNL A   1      44.317  27.171  34.442  1.00  0.00     0.057 A 
ATOM     72  C   UNL A   1      43.996  25.993  35.128  1.00  0.00     0.134 A 
ATOM     73  C   UNL A   1      45.592  27.714  34.634  1.00  0.00     0.134 A 
ATOM     74  F   UNL A   1      42.782  25.439  34.998  1.00  0.00    -0.206 F 
ATOM     75  C   UNL A   1      44.909  25.385  35.990  1.00  0.00     0.040 A 
ATOM     76  C   UNL A   1      46.521  27.102  35.475  1.00  0.00     0.040 A 
ATOM     77  F   UNL A   1      45.956  28.839  34.001  1.00  0.00    -0.206 F 
ATOM     78  C   UNL A   1      46.178  25.937  36.159  1.00  0.00     0.006 A 
ENDBRANCH  54  71
ENDBRANCH  28  29
ENDBRANCH  21  23
ENDBRANCH  20  21
ENDBRANCH  19  20
ENDBRANCH   1  19
TORSDOF 14
ENDMDL
MODEL 3
REMARK VINA RESULT:     -10.7      5.705     10.388
REMARK SMILES CC[C@](C)(NC(=O)N1CCC[C@@H]1C)C(=O)OCCOC(=O)c1ccc(-c2c3nc(c(-c4c(F)cccc4F)c4ccc([nH]4)c(-c4c(F)cccc4F)c4nc(c(-c5c(F)cccc5F)c5ccc2[nH]5)C=C4)C=C3)cc1
REMARK SMILES IDX 17 1 16 2 14 3 15 4 3 5 4 6 2 7 1 8 5 9 6 10 7 12 8 13 9 14
REMARK SMILES IDX 12 15 10 16 11 17 13 18 18 19 19 20 20 21 21 22 22 23 23 24
REMARK SMILES IDX 75 25 24 26 74 27 25 28 26 29 27 30 68 31 28 32 73 33 67 34
REMARK SMILES IDX 69 35 29 36 72 37 66 38 65 39 30 41 56 42 39 43 55 44 40 45
REMARK SMILES IDX 43 46 54 47 70 48 41 49 42 50 53 52 71 53 44 54 31 55 32 56
REMARK SMILES IDX 37 57 33 58 34 59 36 60 38 61 35 62 57 63 58 64 63 65 59 66
REMARK SMILES IDX 60 67 62 68 64 69 61 70 45 71 46 72 51 73 47 74 48 75 50 76
REMARK SMILES IDX 52 77 49 78
REMARK H PARENT 5 11 69 40 43 51
REMARK Flexibility Score: inf
ROOT
ATOM      1  C   UNL A   1      32.554  30.770  26.897  1.00  0.00     0.274 C 
ENDROOT
BRANCH   1   2
ATOM      2  O   UNL A   1      33.146  30.151  25.738  1.00  0.00    -0.460 OA
BRANCH   2   3
ATOM      3  C   UNL A   1      33.179  28.791  25.705  1.00  0.00     0.331 C 
ATOM      4  O   UNL A   1      33.905  28.121  26.433  1.00  0.00    -0.249 OA
BRANCH   3   5
ATOM      5  C   UNL A   1      32.330  28.195  24.535  1.00  0.00     0.136 C 
ATOM      6  C   UNL A   1      31.470  27.027  25.042  1.00  0.00     0.047 C 
BRANCH   5   7
ATOM      7  C   UNL A   1      33.341  27.658  23.479  1.00  0.00     0.037 C 
ATOM      8  C   UNL A   1      34.028  28.713  22.612  1.00  0.00     0.007 C 
ENDBRANCH   5   7
BRANCH   5   9
ATOM      9  N   UNL A   1      31.508  29.245  23.884  1.00  0.00    -0.322 N 
ATOM     10  C   UNL A   1      30.385  29.047  23.128  1.00  0.00     0.318 C 
ATOM     11  H   UNL A   1      31.799  30.177  24.009  1.00  0.00     0.166 HD
ATOM     12  O   UNL A   1      30.331  28.176  22.266  1.00  0.00    -0.249 OA
BRANCH  10  13
ATOM     13  N   UNL A   1      29.341  29.911  23.393  1.00  0.00    -0.322 N 
ATOM     14  C   UNL A   1      29.631  31.224  23.958  1.00  0.00     0.122 C 
ATOM     15  C   UNL A   1      28.040  29.925  22.722  1.00  0.00     0.083 C 
ATOM     16  C   UNL A   1      28.652  32.175  23.283  1.00  0.00     0.024 C 
ATOM     17  C   UNL A   1      27.435  31.298  23.042  1.00  0.00     0.027 C 
ATOM     18  C   UNL A   1      27.080  28.804  23.088  1.00  0.00     0.031 C 
ENDBRANCH  10  13
ENDBRANCH   5   9
ENDBRANCH   3   5
ENDBRANCH   2   3
ENDBRANCH   1   2
BRANCH   1  19
ATOM     19  C   UNL A   1      33.587  31.598  27.661  1.00  0.00     0.275 C 
BRANCH  19  20
ATOM     20  O   UNL A   1      33.465  32.980  27.290  1.00  0.00    -0.458 OA
BRANCH  20  21
ATOM     21  C   UNL A   1      33.366  33.869  28.302  1.00  0.00     0.338 C 
ATOM     22  O   UNL A   1      32.495  34.703  28.486  1.00  0.00    -0.246 OA
BRANCH  21  23
ATOM     23  C   UNL A   1      34.542  33.719  29.158  1.00  0.00     0.060 A 
ATOM     24  C   UNL A   1      34.437  33.002  30.347  1.00  0.00     0.016 A 
ATOM     25  C   UNL A   1      35.762  34.256  28.754  1.00  0.00     0.016 A 
ATOM     26  C   UNL A   1      35.551  32.778  31.134  1.00  0.00     0.010 A 
ATOM     27  C   UNL A   1      36.903  33.958  29.496  1.00  0.00     0.010 A 
ATOM     28  C   UNL A   1      36.802  33.179  30.661  1.00  0.00    -0.014 A 
BRANCH  28  29
ATOM     29  C   UNL A   1      38.008  32.608  31.288  1.00  0.00     0.031 A 
ATOM     30  C   UNL A   1      38.684  31.423  30.687  1.00  0.00     0.074 A 
ATOM     31  C   UNL A   1      38.443  33.178  32.429  1.00  0.00     0.049 A 
ATOM     32  N   UNL A   1      39.642  30.692  31.187  1.00  0.00    -0.248 NA
ATOM     33  C   UNL A   1      38.218  30.997  29.359  1.00  0.00     0.031 C 
ATOM     34  C   UNL A   1      37.847  34.362  33.062  1.00  0.00     0.029 A 
ATOM     35  N   UNL A   1      39.474  32.845  33.265  1.00  0.00    -0.354 N 
ATOM     36  C   UNL A   1      39.874  29.693  30.252  1.00  0.00     0.074 A 
ATOM     37  C   UNL A   1      38.961  29.917  29.151  1.00  0.00     0.031 C 
ATOM     38  C   UNL A   1      38.529  34.662  34.175  1.00  0.00     0.029 A 
ATOM     39  C   UNL A   1      39.552  33.647  34.379  1.00  0.00     0.049 A 
ATOM     40  H   UNL A   1      40.098  32.106  33.086  1.00  0.00     0.167 HD
ATOM     41  C   UNL A   1      40.765  28.680  30.333  1.00  0.00     0.037 A 
ATOM     42  C   UNL A   1      40.326  33.538  35.472  1.00  0.00     0.037 A 
ATOM     43  C   UNL A   1      41.667  28.501  31.441  1.00  0.00     0.049 A 
ATOM     44  C   UNL A   1      41.274  32.380  35.546  1.00  0.00     0.074 A 
ATOM     45  C   UNL A   1      42.629  27.525  31.624  1.00  0.00     0.029 A 
ATOM     46  N   UNL A   1      41.709  29.322  32.561  1.00  0.00    -0.354 N 
ATOM     47  N   UNL A   1      41.486  31.435  34.663  1.00  0.00    -0.248 NA
ATOM     48  C   UNL A   1      42.072  32.256  36.771  1.00  0.00     0.031 C 
ATOM     49  C   UNL A   1      43.226  27.733  32.873  1.00  0.00     0.029 A 
ATOM     50  C   UNL A   1      42.662  28.859  33.451  1.00  0.00     0.049 A 
ATOM     51  H   UNL A   1      41.145  30.116  32.700  1.00  0.00     0.167 HD
ATOM     52  C   UNL A   1      42.438  30.599  35.222  1.00  0.00     0.074 A 
ATOM     53  C   UNL A   1      42.786  31.169  36.509  1.00  0.00     0.031 C 
ATOM     54  C   UNL A   1      42.970  29.456  34.727  1.00  0.00     0.037 A 
BRANCH  41  55
ATOM     55  C   UNL A   1      40.777  27.673  29.224  1.00  0.00     0.057 A 
ATOM     56  C   UNL A   1      39.844  26.633  29.153  1.00  0.00     0.134 A 
ATOM     57  C   UNL A   1      41.721  27.768  28.193  1.00  0.00     0.134 A 
ATOM     58  F   UNL A   1      38.924  26.476  30.117  1.00  0.00    -0.206 F 
ATOM     59  C   UNL A   1      39.855  25.715  28.100  1.00  0.00     0.040 A 
ATOM     60  C   UNL A   1      41.730  26.870  27.126  1.00  0.00     0.040 A 
ATOM     61  F   UNL A   1      42.645  28.741  28.203  1.00  0.00    -0.206 F 
ATOM     62  C   UNL A   1      40.795  25.838  27.078  1.00  0.00     0.006 A 
ENDBRANCH  41  55
BRANCH  42  63
ATOM     63  C   UNL A   1      40.183  34.504  36.591  1.00  0.00     0.057 A 
ATOM     64  C   UNL A   1      39.277  34.280  37.633  1.00  0.00     0.134 A 
ATOM     65  C   UNL A   1      40.953  35.674  36.650  1.00  0.00     0.134 A 
ATOM     66  F   UNL A   1      38.498  33.188  37.627  1.00  0.00    -0.206 F 
ATOM     67  C   UNL A   1      39.132  35.188  38.684  1.00  0.00     0.040 A 
ATOM     68  C   UNL A   1      40.839  36.576  37.708  1.00  0.00     0.040 A 
ATOM     69  F   UNL A   1      41.846  35.947  35.686  1.00  0.00    -0.206 F 
ATOM     70  C   UNL A   1      39.918  36.338  38.726  1.00  0.00     0.006 A 
ENDBRANCH  42  63
BRANCH  54  71
ATOM     71  C   UNL A   1      43.977  28.765  35.591  1.00  0.00     0.057 A 
ATOM     72  C   UNL A   1      45.343  29.055  35.493  1.00  0.00     0.134 A 
ATOM     73  C   UNL A   1      43.574  27.823  36.545  1.00  0.00     0.134 A 
ATOM     74  F   UNL A   1      45.788  29.934  34.583  1.00  0.00    -0.206 F 
ATOM     75  C   UNL A   1      46.280  28.417  36.306  1.00  0.00     0.040 A 
ATOM     76  C   UNL A   1      44.499  27.196  37.379  1.00  0.00     0.040 A 
ATOM     77  F   UNL A   1      42.279  27.507  36.685  1.00  0.00    -0.206 F 
ATOM     78  C   UNL A   1      45.856  27.490  37.257  1.00  0.00     0.006 A 
ENDBRANCH  54  71
ENDBRANCH  28  29
ENDBRANCH  21  23
ENDBRANCH  20  21
ENDBRANCH  19  20
ENDBRANCH   1  19
TORSDOF 14
ENDMDL
