MODEL 1
REMARK VINA RESULT:     -13.5      0.000      0.000
REMARK SMILES Cc1cccc(CC(=O)N2CCC3(CCC(=O)N([C@H](C)C(=O)OCCOC(=O)c4ccc(-c5c6nc(c(-c7c(F)cccc7F)c7ccc([nH]7)c(-c7c(F)cccc7F)c7nc(c(-c8c(F)cccc8F)c8ccc5[nH]8)C=C7)C=C6)cc4)C3)CC2)c1
REMARK SMILES IDX 24 1 23 2 21 3 22 4 19 5 20 6 18 7 8 8 9 9 10 10 11 11 85 12
REMARK SMILES IDX 12 13 84 14 13 15 14 16 83 17 15 18 16 19 17 20 7 21 6 22
REMARK SMILES IDX 1 23 2 24 3 25 86 26 4 27 5 28 25 29 26 30 27 31 28 32 29 33
REMARK SMILES IDX 30 34 82 35 31 36 81 37 32 38 33 39 34 40 75 41 35 42 80 43
REMARK SMILES IDX 74 44 76 45 36 46 79 47 73 48 72 49 37 51 63 52 46 53 62 54
REMARK SMILES IDX 47 55 50 56 61 57 77 58 48 59 49 60 60 62 78 63 51 64 38 65
REMARK SMILES IDX 39 66 44 67 40 68 41 69 43 70 45 71 42 72 64 73 65 74 70 75
REMARK SMILES IDX 66 76 67 77 69 78 71 79 68 80 52 81 53 82 58 83 54 84 55 85
REMARK SMILES IDX 57 86 59 87 56 88
REMARK H PARENT 76 50 50 61
REMARK Flexibility Score: inf
ROOT
ATOM      1  C   UNL A   1      33.468  28.881  26.806  1.00  0.00     0.274 C 
ENDROOT
BRANCH   1   2
ATOM      2  O   UNL A   1      33.484  28.868  25.380  1.00  0.00    -0.461 OA
BRANCH   2   3
ATOM      3  C   UNL A   1      32.350  29.355  24.783  1.00  0.00     0.328 C 
ATOM      4  O   UNL A   1      31.635  30.199  25.272  1.00  0.00    -0.250 OA
BRANCH   3   5
ATOM      5  C   UNL A   1      32.239  28.813  23.342  1.00  0.00     0.192 C 
ATOM      6  C   UNL A   1      33.592  28.730  22.641  1.00  0.00     0.044 C 
BRANCH   5   7
ATOM      7  N   UNL A   1      31.500  27.541  23.272  1.00  0.00    -0.329 N 
ATOM      8  C   UNL A   1      32.655  22.417  27.065  1.00  0.00     0.226 C 
ATOM      9  O   UNL A   1      32.304  22.677  28.223  1.00  0.00    -0.275 OA
ATOM     10  N   UNL A   1      32.210  23.181  25.988  1.00  0.00    -0.342 N 
ATOM     11  C   UNL A   1      31.517  24.421  26.297  1.00  0.00     0.120 C 
ATOM     12  C   UNL A   1      32.097  22.737  24.595  1.00  0.00     0.120 C 
ATOM     13  C   UNL A   1      31.965  25.514  25.344  1.00  0.00     0.030 C 
ATOM     14  C   UNL A   1      32.467  23.828  23.582  1.00  0.00     0.030 C 
ATOM     15  C   UNL A   1      31.720  25.150  23.858  1.00  0.00    -0.008 C 
ATOM     16  C   UNL A   1      30.237  24.993  23.471  1.00  0.00     0.019 C 
ATOM     17  C   UNL A   1      32.235  26.303  22.984  1.00  0.00     0.127 C 
ATOM     18  C   UNL A   1      29.432  26.246  23.752  1.00  0.00     0.101 C 
ATOM     19  C   UNL A   1      30.133  27.565  23.503  1.00  0.00     0.223 C 
ATOM     20  O   UNL A   1      29.504  28.616  23.630  1.00  0.00    -0.275 OA
BRANCH   8  21
ATOM     21  C   UNL A   1      33.727  21.358  26.854  1.00  0.00     0.135 C 
BRANCH  21  22
ATOM     22  C   UNL A   1      35.017  21.821  26.234  1.00  0.00    -0.038 A 
ATOM     23  C   UNL A   1      38.101  20.178  24.725  1.00  0.00     0.044 C 
ATOM     24  C   UNL A   1      37.149  21.226  25.220  1.00  0.00    -0.051 A 
ATOM     25  C   UNL A   1      37.551  22.562  25.322  1.00  0.00     0.003 A 
ATOM     26  C   UNL A   1      35.864  20.874  25.636  1.00  0.00     0.007 A 
ATOM     27  C   UNL A   1      36.685  23.525  25.846  1.00  0.00     0.001 A 
ATOM     28  C   UNL A   1      35.422  23.157  26.306  1.00  0.00     0.004 A 
ENDBRANCH  21  22
ENDBRANCH   8  21
ENDBRANCH   5   7
ENDBRANCH   3   5
ENDBRANCH   2   3
ENDBRANCH   1   2
BRANCH   1  29
ATOM     29  C   UNL A   1      34.227  30.100  27.350  1.00  0.00     0.275 C 
BRANCH  29  30
ATOM     30  O   UNL A   1      35.377  29.875  28.232  1.00  0.00    -0.458 OA
BRANCH  30  31
ATOM     31  C   UNL A   1      36.604  30.451  28.309  1.00  0.00     0.338 C 
ATOM     32  O   UNL A   1      36.749  31.668  28.299  1.00  0.00    -0.246 OA
BRANCH  31  33
ATOM     33  C   UNL A   1      37.788  29.595  28.471  1.00  0.00     0.060 A 
ATOM     34  C   UNL A   1      37.856  28.645  29.507  1.00  0.00     0.016 A 
ATOM     35  C   UNL A   1      38.812  29.691  27.548  1.00  0.00     0.016 A 
ATOM     36  C   UNL A   1      38.882  27.694  29.512  1.00  0.00     0.010 A 
ATOM     37  C   UNL A   1      39.695  28.651  27.436  1.00  0.00     0.010 A 
ATOM     38  C   UNL A   1      39.769  27.674  28.434  1.00  0.00    -0.014 A 
BRANCH  38  39
ATOM     39  C   UNL A   1      40.987  26.876  28.352  1.00  0.00     0.031 A 
ATOM     40  C   UNL A   1      40.963  25.419  28.134  1.00  0.00     0.074 A 
ATOM     41  C   UNL A   1      42.125  27.608  28.417  1.00  0.00     0.049 A 
ATOM     42  N   UNL A   1      41.560  24.542  28.873  1.00  0.00    -0.248 NA
ATOM     43  C   UNL A   1      40.235  24.823  27.012  1.00  0.00     0.031 C 
ATOM     44  C   UNL A   1      43.508  27.203  28.285  1.00  0.00     0.029 A 
ATOM     45  N   UNL A   1      42.225  28.964  28.765  1.00  0.00    -0.354 N 
ATOM     46  C   UNL A   1      41.581  23.375  28.126  1.00  0.00     0.074 A 
ATOM     47  C   UNL A   1      40.577  23.533  27.102  1.00  0.00     0.031 C 
ATOM     48  C   UNL A   1      44.271  28.134  28.896  1.00  0.00     0.029 A 
ATOM     49  C   UNL A   1      43.381  29.109  29.520  1.00  0.00     0.049 A 
ATOM     50  H   UNL A   1      41.595  29.678  28.520  1.00  0.00     0.167 HD
ATOM     51  C   UNL A   1      42.645  22.521  28.172  1.00  0.00     0.037 A 
ATOM     52  C   UNL A   1      43.292  29.428  30.848  1.00  0.00     0.037 A 
ATOM     53  C   UNL A   1      43.737  23.126  28.920  1.00  0.00     0.049 A 
ATOM     54  C   UNL A   1      43.725  28.254  31.700  1.00  0.00     0.074 A 
ATOM     55  C   UNL A   1      44.809  23.885  28.480  1.00  0.00     0.029 A 
ATOM     56  N   UNL A   1      43.608  23.382  30.280  1.00  0.00    -0.354 N 
ATOM     57  N   UNL A   1      43.766  27.026  31.259  1.00  0.00    -0.248 NA
ATOM     58  C   UNL A   1      44.148  28.362  33.093  1.00  0.00     0.031 C 
ATOM     59  C   UNL A   1      45.258  24.681  29.559  1.00  0.00     0.029 A 
ATOM     60  C   UNL A   1      44.472  24.395  30.659  1.00  0.00     0.049 A 
ATOM     61  H   UNL A   1      42.992  22.910  30.886  1.00  0.00     0.167 HD
ATOM     62  C   UNL A   1      44.266  26.207  32.230  1.00  0.00     0.074 A 
ATOM     63  C   UNL A   1      44.478  27.086  33.367  1.00  0.00     0.031 C 
ATOM     64  C   UNL A   1      44.495  24.877  32.028  1.00  0.00     0.037 A 
BRANCH  51  65
ATOM     65  C   UNL A   1      42.805  21.385  27.187  1.00  0.00     0.057 A 
ATOM     66  C   UNL A   1      42.079  20.183  27.292  1.00  0.00     0.134 A 
ATOM     67  C   UNL A   1      43.688  21.447  26.093  1.00  0.00     0.134 A 
ATOM     68  F   UNL A   1      41.164  19.994  28.250  1.00  0.00    -0.206 F 
ATOM     69  C   UNL A   1      42.265  19.100  26.423  1.00  0.00     0.040 A 
ATOM     70  C   UNL A   1      43.899  20.362  25.225  1.00  0.00     0.040 A 
ATOM     71  F   UNL A   1      44.382  22.567  25.837  1.00  0.00    -0.206 F 
ATOM     72  C   UNL A   1      43.191  19.180  25.394  1.00  0.00     0.006 A 
ENDBRANCH  51  65
BRANCH  52  73
ATOM     73  C   UNL A   1      42.177  30.378  31.171  1.00  0.00     0.057 A 
ATOM     74  C   UNL A   1      42.270  31.693  30.669  1.00  0.00     0.134 A 
ATOM     75  C   UNL A   1      40.907  29.957  31.582  1.00  0.00     0.134 A 
ATOM     76  F   UNL A   1      43.460  32.183  30.288  1.00  0.00    -0.206 F 
ATOM     77  C   UNL A   1      41.141  32.484  30.429  1.00  0.00     0.040 A 
ATOM     78  C   UNL A   1      39.770  30.755  31.372  1.00  0.00     0.040 A 
ATOM     79  F   UNL A   1      40.721  28.730  32.086  1.00  0.00    -0.206 F 
ATOM     80  C   UNL A   1      39.879  31.997  30.748  1.00  0.00     0.006 A 
ENDBRANCH  52  73
BRANCH  64  81
ATOM     81  C   UNL A   1      44.891  23.925  33.109  1.00  0.00     0.057 A 
ATOM     82  C   UNL A   1      44.048  22.914  33.581  1.00  0.00     0.134 A 
ATOM     83  C   UNL A   1      46.210  23.919  33.605  1.00  0.00     0.134 A 
ATOM     84  F   UNL A   1      42.811  22.754  33.090  1.00  0.00    -0.206 F 
ATOM     85  C   UNL A   1      44.465  22.001  34.551  1.00  0.00     0.040 A 
ATOM     86  C   UNL A   1      46.653  22.978  34.532  1.00  0.00     0.040 A 
ATOM     87  F   UNL A   1      47.122  24.814  33.194  1.00  0.00    -0.206 F 
ATOM     88  C   UNL A   1      45.773  22.027  35.025  1.00  0.00     0.006 A 
ENDBRANCH  64  81
ENDBRANCH  38  39
ENDBRANCH  31  33
ENDBRANCH  30  31
ENDBRANCH  29  30
ENDBRANCH   1  29
TORSDOF 14
ENDMDL
MODEL 2
REMARK VINA RESULT:     -13.3      3.427      9.520
REMARK SMILES Cc1cccc(CC(=O)N2CCC3(CCC(=O)N([C@H](C)C(=O)OCCOC(=O)c4ccc(-c5c6nc(c(-c7c(F)cccc7F)c7ccc([nH]7)c(-c7c(F)cccc7F)c7nc(c(-c8c(F)cccc8F)c8ccc5[nH]8)C=C7)C=C6)cc4)C3)CC2)c1
REMARK SMILES IDX 24 1 23 2 21 3 22 4 19 5 20 6 18 7 8 8 9 9 10 10 11 11 85 12
REMARK SMILES IDX 12 13 84 14 13 15 14 16 83 17 15 18 16 19 17 20 7 21 6 22
REMARK SMILES IDX 1 23 2 24 3 25 86 26 4 27 5 28 25 29 26 30 27 31 28 32 29 33
REMARK SMILES IDX 30 34 82 35 31 36 81 37 32 38 33 39 34 40 75 41 35 42 80 43
REMARK SMILES IDX 74 44 76 45 36 46 79 47 73 48 72 49 37 51 63 52 46 53 62 54
REMARK SMILES IDX 47 55 50 56 61 57 77 58 48 59 49 60 60 62 78 63 51 64 38 65
REMARK SMILES IDX 39 66 44 67 40 68 41 69 43 70 45 71 42 72 64 73 65 74 70 75
REMARK SMILES IDX 66 76 67 77 69 78 71 79 68 80 52 81 53 82 58 83 54 84 55 85
REMARK SMILES IDX 57 86 59 87 56 88
REMARK H PARENT 76 50 50 61
REMARK Flexibility Score: inf
ROOT
ATOM      1  C   UNL A   1      37.052  23.105  25.423  1.00  0.00     0.274 C 
ENDROOT
BRANCH   1   2
ATOM      2  O   UNL A   1      35.857  22.673  26.071  1.00  0.00    -0.461 OA
BRANCH   2   3
ATOM      3  C   UNL A   1      35.478  21.385  25.792  1.00  0.00     0.328 C 
ATOM      4  O   UNL A   1      36.229  20.533  25.374  1.00  0.00    -0.250 OA
BRANCH   3   5
ATOM      5  C   UNL A   1      34.028  21.147  26.265  1.00  0.00     0.192 C 
ATOM      6  C   UNL A   1      33.763  21.728  27.651  1.00  0.00     0.044 C 
BRANCH   5   7
ATOM      7  N   UNL A   1      33.031  21.592  25.278  1.00  0.00    -0.329 N 
ATOM      8  C   UNL A   1      33.103  27.365  22.338  1.00  0.00     0.226 C 
ATOM      9  O   UNL A   1      34.057  27.411  21.550  1.00  0.00    -0.275 OA
ATOM     10  N   UNL A   1      32.638  26.150  22.835  1.00  0.00    -0.342 N 
ATOM     11  C   UNL A   1      33.455  24.973  22.581  1.00  0.00     0.120 C 
ATOM     12  C   UNL A   1      31.284  25.871  23.324  1.00  0.00     0.120 C 
ATOM     13  C   UNL A   1      33.496  24.097  23.820  1.00  0.00     0.030 C 
ATOM     14  C   UNL A   1      31.260  24.928  24.533  1.00  0.00     0.030 C 
ATOM     15  C   UNL A   1      32.088  23.649  24.284  1.00  0.00    -0.008 C 
ATOM     16  C   UNL A   1      31.343  22.739  23.288  1.00  0.00     0.019 C 
ATOM     17  C   UNL A   1      32.242  22.799  25.554  1.00  0.00     0.127 C 
ATOM     18  C   UNL A   1      32.118  21.478  22.968  1.00  0.00     0.101 C 
ATOM     19  C   UNL A   1      32.893  20.857  24.111  1.00  0.00     0.223 C 
ATOM     20  O   UNL A   1      33.472  19.784  23.935  1.00  0.00    -0.275 OA
BRANCH   8  21
ATOM     21  C   UNL A   1      32.563  28.672  22.897  1.00  0.00     0.135 C 
BRANCH  21  22
ATOM     22  C   UNL A   1      32.803  28.929  24.359  1.00  0.00    -0.038 A 
ATOM     23  C   UNL A   1      31.653  31.479  26.940  1.00  0.00     0.044 C 
ATOM     24  C   UNL A   1      32.365  30.320  26.309  1.00  0.00    -0.051 A 
ATOM     25  C   UNL A   1      33.393  29.658  26.990  1.00  0.00     0.003 A 
ATOM     26  C   UNL A   1      32.047  29.917  25.011  1.00  0.00     0.007 A 
ATOM     27  C   UNL A   1      34.099  28.623  26.375  1.00  0.00     0.001 A 
ATOM     28  C   UNL A   1      33.810  28.260  25.061  1.00  0.00     0.004 A 
ENDBRANCH  21  22
ENDBRANCH   8  21
ENDBRANCH   5   7
ENDBRANCH   3   5
ENDBRANCH   2   3
ENDBRANCH   1   2
BRANCH   1  29
ATOM     29  C   UNL A   1      37.748  24.206  26.236  1.00  0.00     0.275 C 
BRANCH  29  30
ATOM     30  O   UNL A   1      39.021  23.894  26.893  1.00  0.00    -0.458 OA
BRANCH  30  31
ATOM     31  C   UNL A   1      40.165  24.603  27.065  1.00  0.00     0.338 C 
ATOM     32  O   UNL A   1      41.255  24.170  26.711  1.00  0.00    -0.246 OA
BRANCH  31  33
ATOM     33  C   UNL A   1      40.090  25.956  27.638  1.00  0.00     0.060 A 
ATOM     34  C   UNL A   1      40.311  27.091  26.836  1.00  0.00     0.016 A 
ATOM     35  C   UNL A   1      39.733  26.101  28.964  1.00  0.00     0.016 A 
ATOM     36  C   UNL A   1      40.017  28.365  27.338  1.00  0.00     0.010 A 
ATOM     37  C   UNL A   1      39.260  27.313  29.389  1.00  0.00     0.010 A 
ATOM     38  C   UNL A   1      39.438  28.457  28.605  1.00  0.00    -0.014 A 
BRANCH  38  39
ATOM     39  C   UNL A   1      39.223  29.691  29.352  1.00  0.00     0.031 A 
ATOM     40  C   UNL A   1      38.180  30.665  28.986  1.00  0.00     0.074 A 
ATOM     41  C   UNL A   1      40.016  29.813  30.444  1.00  0.00     0.049 A 
ATOM     42  N   UNL A   1      38.372  31.927  28.784  1.00  0.00    -0.248 NA
ATOM     43  C   UNL A   1      36.781  30.264  28.821  1.00  0.00     0.031 C 
ATOM     44  C   UNL A   1      40.044  30.830  31.472  1.00  0.00     0.029 A 
ATOM     45  N   UNL A   1      41.118  29.006  30.769  1.00  0.00    -0.354 N 
ATOM     46  C   UNL A   1      37.115  32.508  28.827  1.00  0.00     0.074 A 
ATOM     47  C   UNL A   1      36.168  31.437  28.632  1.00  0.00     0.031 C 
ATOM     48  C   UNL A   1      41.268  30.807  32.042  1.00  0.00     0.029 A 
ATOM     49  C   UNL A   1      42.084  29.835  31.322  1.00  0.00     0.049 A 
ATOM     50  H   UNL A   1      41.192  28.035  30.630  1.00  0.00     0.167 HD
ATOM     51  C   UNL A   1      36.922  33.747  29.368  1.00  0.00     0.037 A 
ATOM     52  C   UNL A   1      43.254  30.064  30.648  1.00  0.00     0.037 A 
ATOM     53  C   UNL A   1      38.142  34.200  30.021  1.00  0.00     0.049 A 
ATOM     54  C   UNL A   1      43.308  31.497  30.164  1.00  0.00     0.074 A 
ATOM     55  C   UNL A   1      38.551  34.069  31.338  1.00  0.00     0.029 A 
ATOM     56  N   UNL A   1      39.286  34.465  29.279  1.00  0.00    -0.354 N 
ATOM     57  N   UNL A   1      42.251  32.252  30.039  1.00  0.00    -0.248 NA
ATOM     58  C   UNL A   1      44.538  32.191  29.790  1.00  0.00     0.031 C 
ATOM     59  C   UNL A   1      39.962  34.152  31.370  1.00  0.00     0.029 A 
ATOM     60  C   UNL A   1      40.411  34.348  30.078  1.00  0.00     0.049 A 
ATOM     61  H   UNL A   1      39.296  34.702  28.323  1.00  0.00     0.167 HD
ATOM     62  C   UNL A   1      42.627  33.507  29.658  1.00  0.00     0.074 A 
ATOM     63  C   UNL A   1      44.069  33.418  29.499  1.00  0.00     0.031 C 
ATOM     64  C   UNL A   1      41.739  34.534  29.522  1.00  0.00     0.037 A 
BRANCH  51  65
ATOM     65  C   UNL A   1      35.542  34.291  29.655  1.00  0.00     0.057 A 
ATOM     66  C   UNL A   1      34.700  34.795  28.645  1.00  0.00     0.134 A 
ATOM     67  C   UNL A   1      34.997  34.332  30.952  1.00  0.00     0.134 A 
ATOM     68  F   UNL A   1      35.057  34.777  27.356  1.00  0.00    -0.206 F 
ATOM     69  C   UNL A   1      33.445  35.359  28.909  1.00  0.00     0.040 A 
ATOM     70  C   UNL A   1      33.748  34.912  31.233  1.00  0.00     0.040 A 
ATOM     71  F   UNL A   1      35.667  33.812  31.993  1.00  0.00    -0.206 F 
ATOM     72  C   UNL A   1      32.970  35.436  30.210  1.00  0.00     0.006 A 
ENDBRANCH  51  65
BRANCH  52  73
ATOM     73  C   UNL A   1      43.767  28.868  29.902  1.00  0.00     0.057 A 
ATOM     74  C   UNL A   1      44.208  27.762  30.660  1.00  0.00     0.134 A 
ATOM     75  C   UNL A   1      43.480  28.625  28.554  1.00  0.00     0.134 A 
ATOM     76  F   UNL A   1      44.536  27.922  31.951  1.00  0.00    -0.206 F 
ATOM     77  C   UNL A   1      44.199  26.458  30.153  1.00  0.00     0.040 A 
ATOM     78  C   UNL A   1      43.497  27.323  28.027  1.00  0.00     0.040 A 
ATOM     79  F   UNL A   1      43.071  29.615  27.751  1.00  0.00    -0.206 F 
ATOM     80  C   UNL A   1      43.806  26.232  28.839  1.00  0.00     0.006 A 
ENDBRANCH  52  73
BRANCH  64  81
ATOM     81  C   UNL A   1      42.089  35.872  28.957  1.00  0.00     0.057 A 
ATOM     82  C   UNL A   1      42.907  36.791  29.622  1.00  0.00     0.134 A 
ATOM     83  C   UNL A   1      41.715  36.209  27.640  1.00  0.00     0.134 A 
ATOM     84  F   UNL A   1      43.418  36.519  30.831  1.00  0.00    -0.206 F 
ATOM     85  C   UNL A   1      43.266  38.010  29.044  1.00  0.00     0.040 A 
ATOM     86  C   UNL A   1      42.114  37.398  27.034  1.00  0.00     0.040 A 
ATOM     87  F   UNL A   1      40.966  35.388  26.888  1.00  0.00    -0.206 F 
ATOM     88  C   UNL A   1      42.875  38.314  27.744  1.00  0.00     0.006 A 
ENDBRANCH  64  81
ENDBRANCH  38  39
ENDBRANCH  31  33
ENDBRANCH  30  31
ENDBRANCH  29  30
ENDBRANCH   1  29
TORSDOF 14
ENDMDL
MODEL 3
REMARK VINA RESULT:     -13.2      1.784      2.862
REMARK SMILES Cc1cccc(CC(=O)N2CCC3(CCC(=O)N([C@H](C)C(=O)OCCOC(=O)c4ccc(-c5c6nc(c(-c7c(F)cccc7F)c7ccc([nH]7)c(-c7c(F)cccc7F)c7nc(c(-c8c(F)cccc8F)c8ccc5[nH]8)C=C7)C=C6)cc4)C3)CC2)c1
REMARK SMILES IDX 24 1 23 2 21 3 22 4 19 5 20 6 18 7 8 8 9 9 10 10 11 11 85 12
REMARK SMILES IDX 12 13 84 14 13 15 14 16 83 17 15 18 16 19 17 20 7 21 6 22
REMARK SMILES IDX 1 23 2 24 3 25 86 26 4 27 5 28 25 29 26 30 27 31 28 32 29 33
REMARK SMILES IDX 30 34 82 35 31 36 81 37 32 38 33 39 34 40 75 41 35 42 80 43
REMARK SMILES IDX 74 44 76 45 36 46 79 47 73 48 72 49 37 51 63 52 46 53 62 54
REMARK SMILES IDX 47 55 50 56 61 57 77 58 48 59 49 60 60 62 78 63 51 64 38 65
REMARK SMILES IDX 39 66 44 67 40 68 41 69 43 70 45 71 42 72 64 73 65 74 70 75
REMARK SMILES IDX 66 76 67 77 69 78 71 79 68 80 52 81 53 82 58 83 54 84 55 85
REMARK SMILES IDX 57 86 59 87 56 88
REMARK H PARENT 76 50 50 61
REMARK Flexibility Score: inf
ROOT
ATOM      1  C   UNL A   1      33.561  29.032  27.514  1.00  0.00     0.274 C 
ENDROOT
BRANCH   1   2
ATOM      2  O   UNL A   1      33.040  28.717  26.224  1.00  0.00    -0.461 OA
BRANCH   2   3
ATOM      3  C   UNL A   1      31.933  27.908  26.227  1.00  0.00     0.328 C 
ATOM      4  O   UNL A   1      31.502  27.354  27.213  1.00  0.00    -0.250 OA
BRANCH   3   5
ATOM      5  C   UNL A   1      31.230  27.972  24.855  1.00  0.00     0.192 C 
ATOM      6  C   UNL A   1      31.679  29.169  24.022  1.00  0.00     0.044 C 
BRANCH   5   7
ATOM      7  N   UNL A   1      31.332  26.707  24.109  1.00  0.00    -0.329 N 
ATOM      8  C   UNL A   1      35.590  22.006  25.427  1.00  0.00     0.226 C 
ATOM      9  O   UNL A   1      35.288  21.469  26.500  1.00  0.00    -0.275 OA
ATOM     10  N   UNL A   1      34.674  22.791  24.731  1.00  0.00    -0.342 N 
ATOM     11  C   UNL A   1      33.444  23.144  25.422  1.00  0.00     0.120 C 
ATOM     12  C   UNL A   1      34.673  23.054  23.288  1.00  0.00     0.120 C 
ATOM     13  C   UNL A   1      33.088  24.591  25.136  1.00  0.00     0.030 C 
ATOM     14  C   UNL A   1      34.248  24.485  22.935  1.00  0.00     0.030 C 
ATOM     15  C   UNL A   1      32.923  24.880  23.623  1.00  0.00    -0.008 C 
ATOM     16  C   UNL A   1      31.753  24.137  22.951  1.00  0.00     0.019 C 
ATOM     17  C   UNL A   1      32.598  26.370  23.445  1.00  0.00     0.127 C 
ATOM     18  C   UNL A   1      30.421  24.450  23.602  1.00  0.00     0.101 C 
ATOM     19  C   UNL A   1      30.226  25.872  24.081  1.00  0.00     0.223 C 
ATOM     20  O   UNL A   1      29.133  26.210  24.539  1.00  0.00    -0.275 OA
BRANCH   8  21
ATOM     21  C   UNL A   1      37.040  21.944  24.970  1.00  0.00     0.135 C 
BRANCH  21  22
ATOM     22  C   UNL A   1      38.042  22.691  25.806  1.00  0.00    -0.038 A 
ATOM     23  C   UNL A   1      41.139  21.819  27.840  1.00  0.00     0.044 C 
ATOM     24  C   UNL A   1      40.025  22.607  27.217  1.00  0.00    -0.051 A 
ATOM     25  C   UNL A   1      39.789  23.933  27.597  1.00  0.00     0.003 A 
ATOM     26  C   UNL A   1      39.172  22.010  26.287  1.00  0.00     0.007 A 
ATOM     27  C   UNL A   1      38.711  24.642  27.065  1.00  0.00     0.001 A 
ATOM     28  C   UNL A   1      37.835  24.024  26.174  1.00  0.00     0.004 A 
ENDBRANCH  21  22
ENDBRANCH   8  21
ENDBRANCH   5   7
ENDBRANCH   3   5
ENDBRANCH   2   3
ENDBRANCH   1   2
BRANCH   1  29
ATOM     29  C   UNL A   1      35.084  29.221  27.457  1.00  0.00     0.275 C 
BRANCH  29  30
ATOM     30  O   UNL A   1      35.744  29.935  28.555  1.00  0.00    -0.458 OA
BRANCH  30  31
ATOM     31  C   UNL A   1      36.490  29.515  29.609  1.00  0.00     0.338 C 
ATOM     32  O   UNL A   1      36.019  29.414  30.736  1.00  0.00    -0.246 OA
BRANCH  31  33
ATOM     33  C   UNL A   1      37.886  29.112  29.383  1.00  0.00     0.060 A 
ATOM     34  C   UNL A   1      38.719  29.850  28.522  1.00  0.00     0.016 A 
ATOM     35  C   UNL A   1      38.390  28.033  30.081  1.00  0.00     0.016 A 
ATOM     36  C   UNL A   1      40.094  29.589  28.491  1.00  0.00     0.010 A 
ATOM     37  C   UNL A   1      39.748  27.906  30.204  1.00  0.00     0.010 A 
ATOM     38  C   UNL A   1      40.606  28.644  29.384  1.00  0.00    -0.014 A 
BRANCH  38  39
ATOM     39  C   UNL A   1      41.968  28.123  29.379  1.00  0.00     0.031 A 
ATOM     40  C   UNL A   1      42.354  26.929  28.607  1.00  0.00     0.074 A 
ATOM     41  C   UNL A   1      42.844  28.880  30.082  1.00  0.00     0.049 A 
ATOM     42  N   UNL A   1      42.962  25.893  29.085  1.00  0.00    -0.248 NA
ATOM     43  C   UNL A   1      42.073  26.819  27.174  1.00  0.00     0.031 C 
ATOM     44  C   UNL A   1      44.277  28.749  30.242  1.00  0.00     0.029 A 
ATOM     45  N   UNL A   1      42.526  29.935  30.951  1.00  0.00    -0.354 N 
ATOM     46  C   UNL A   1      43.440  25.200  27.985  1.00  0.00     0.074 A 
ATOM     47  C   UNL A   1      42.691  25.678  26.849  1.00  0.00     0.031 C 
ATOM     48  C   UNL A   1      44.625  29.390  31.378  1.00  0.00     0.029 A 
ATOM     49  C   UNL A   1      43.404  29.864  32.023  1.00  0.00     0.049 A 
ATOM     50  H   UNL A   1      41.812  30.601  30.825  1.00  0.00     0.167 HD
ATOM     51  C   UNL A   1      44.642  24.553  28.021  1.00  0.00     0.037 A 
ATOM     52  C   UNL A   1      42.938  29.538  33.268  1.00  0.00     0.037 A 
ATOM     53  C   UNL A   1      45.350  24.884  29.249  1.00  0.00     0.049 A 
ATOM     54  C   UNL A   1      43.439  28.169  33.674  1.00  0.00     0.074 A 
ATOM     55  C   UNL A   1      46.273  25.884  29.505  1.00  0.00     0.029 A 
ATOM     56  N   UNL A   1      44.853  24.483  30.483  1.00  0.00    -0.354 N 
ATOM     57  N   UNL A   1      43.880  27.285  32.820  1.00  0.00    -0.248 NA
ATOM     58  C   UNL A   1      43.490  27.688  35.052  1.00  0.00     0.031 C 
ATOM     59  C   UNL A   1      46.253  26.157  30.893  1.00  0.00     0.029 A 
ATOM     60  C   UNL A   1      45.330  25.314  31.482  1.00  0.00     0.049 A 
ATOM     61  H   UNL A   1      44.250  23.718  30.625  1.00  0.00     0.167 HD
ATOM     62  C   UNL A   1      44.330  26.185  33.491  1.00  0.00     0.074 A 
ATOM     63  C   UNL A   1      44.051  26.476  34.887  1.00  0.00     0.031 C 
ATOM     64  C   UNL A   1      44.919  25.127  32.861  1.00  0.00     0.037 A 
BRANCH  51  65
ATOM     65  C   UNL A   1      45.298  24.010  26.771  1.00  0.00     0.057 A 
ATOM     66  C   UNL A   1      46.219  24.758  26.013  1.00  0.00     0.134 A 
ATOM     67  C   UNL A   1      45.039  22.718  26.278  1.00  0.00     0.134 A 
ATOM     68  F   UNL A   1      46.605  25.985  26.382  1.00  0.00    -0.206 F 
ATOM     69  C   UNL A   1      46.784  24.290  24.819  1.00  0.00     0.040 A 
ATOM     70  C   UNL A   1      45.583  22.242  25.073  1.00  0.00     0.040 A 
ATOM     71  F   UNL A   1      44.238  21.876  26.951  1.00  0.00    -0.206 F 
ATOM     72  C   UNL A   1      46.454  23.033  24.334  1.00  0.00     0.006 A 
ENDBRANCH  51  65
BRANCH  52  73
ATOM     73  C   UNL A   1      41.580  30.098  33.572  1.00  0.00     0.057 A 
ATOM     74  C   UNL A   1      41.449  31.501  33.642  1.00  0.00     0.134 A 
ATOM     75  C   UNL A   1      40.396  29.370  33.403  1.00  0.00     0.134 A 
ATOM     76  F   UNL A   1      42.534  32.266  33.838  1.00  0.00    -0.206 F 
ATOM     77  C   UNL A   1      40.238  32.153  33.388  1.00  0.00     0.040 A 
ATOM     78  C   UNL A   1      39.168  30.015  33.176  1.00  0.00     0.040 A 
ATOM     79  F   UNL A   1      40.416  28.032  33.341  1.00  0.00    -0.206 F 
ATOM     80  C   UNL A   1      39.097  31.407  33.116  1.00  0.00     0.006 A 
ENDBRANCH  52  73
BRANCH  64  81
ATOM     81  C   UNL A   1      45.278  23.846  33.541  1.00  0.00     0.057 A 
ATOM     82  C   UNL A   1      46.551  23.586  34.057  1.00  0.00     0.134 A 
ATOM     83  C   UNL A   1      44.284  22.884  33.819  1.00  0.00     0.134 A 
ATOM     84  F   UNL A   1      47.540  24.486  33.953  1.00  0.00    -0.206 F 
ATOM     85  C   UNL A   1      46.842  22.403  34.739  1.00  0.00     0.040 A 
ATOM     86  C   UNL A   1      44.551  21.727  34.548  1.00  0.00     0.040 A 
ATOM     87  F   UNL A   1      43.016  23.044  33.413  1.00  0.00    -0.206 F 
ATOM     88  C   UNL A   1      45.840  21.473  34.992  1.00  0.00     0.006 A 
ENDBRANCH  64  81
ENDBRANCH  38  39
ENDBRANCH  31  33
ENDBRANCH  30  31
ENDBRANCH  29  30
ENDBRANCH   1  29
TORSDOF 14
ENDMDL
