MODEL 1
REMARK VINA RESULT:     -11.9      0.000      0.000
REMARK SMILES Cc1ccc(C)c(NC(=O)/C=C/C(=O)OCCOC(=O)c2ccc(-c3c4nc(c(-c5c(F)cccc5F)c5ccc([nH]5)c(-c5c(F)cccc5F)c5nc(c(-c6c(F)cccc6F)c6ccc3[nH]6)C=C5)C=C4)cc2)c1
REMARK SMILES IDX 16 1 15 2 13 3 14 4 12 5 11 6 9 7 8 8 10 10 7 11 1 12 2 13
REMARK SMILES IDX 3 14 75 15 4 16 5 17 6 18 17 19 18 20 19 21 20 22 21 23
REMARK SMILES IDX 22 24 74 25 23 26 73 27 24 28 25 29 26 30 67 31 27 32 72 33
REMARK SMILES IDX 66 34 68 35 28 36 71 37 65 38 64 39 29 41 55 42 38 43 54 44
REMARK SMILES IDX 39 45 42 46 53 47 69 48 40 49 41 50 52 52 70 53 43 54 30 55
REMARK SMILES IDX 31 56 36 57 32 58 33 59 35 60 37 61 34 62 56 63 57 64 62 65
REMARK SMILES IDX 58 66 59 67 61 68 63 69 60 70 44 71 45 72 50 73 46 74 47 75
REMARK SMILES IDX 49 76 51 77 48 78
REMARK H PARENT 8 9 68 40 42 51
REMARK Flexibility Score: inf
ROOT
ATOM      1  C   UNL A   1      36.783  31.683  28.730  1.00  0.00     0.275 C 
ENDROOT
BRANCH   1   2
ATOM      2  O   UNL A   1      35.786  31.911  27.729  1.00  0.00    -0.459 OA
BRANCH   2   3
ATOM      3  C   UNL A   1      34.481  32.357  28.224  1.00  0.00     0.331 C 
ATOM      4  O   UNL A   1      33.646  31.624  27.616  1.00  0.00    -0.247 OA
BRANCH   3   5
ATOM      5  C   UNL A   1      34.200  33.906  29.663  1.00  0.00     0.099 C 
ATOM      6  C   UNL A   1      33.413  35.058  29.984  1.00  0.00     0.079 C 
BRANCH   6   7
ATOM      7  C   UNL A   1      33.455  36.186  31.012  1.00  0.00     0.248 C 
ATOM      8  N   UNL A   1      34.259  36.212  32.141  1.00  0.00    -0.322 N 
ATOM      9  H   UNL A   1      34.197  37.056  32.644  1.00  0.00     0.170 HD
ATOM     10  O   UNL A   1      32.861  37.231  30.720  1.00  0.00    -0.270 OA
BRANCH   8  11
ATOM     11  C   UNL A   1      35.150  35.280  32.720  1.00  0.00     0.044 A 
ATOM     12  C   UNL A   1      38.847  34.209  32.706  1.00  0.00     0.044 C 
ATOM     13  C   UNL A   1      37.428  34.492  33.118  1.00  0.00    -0.049 A 
ATOM     14  C   UNL A   1      36.997  33.964  34.336  1.00  0.00     0.004 A 
ATOM     15  C   UNL A   1      36.505  35.224  32.340  1.00  0.00     0.029 A 
ATOM     16  C   UNL A   1      35.637  33.825  34.564  1.00  0.00     0.006 A 
ATOM     17  C   UNL A   1      34.731  34.314  33.620  1.00  0.00    -0.027 A 
ATOM     18  C   UNL A   1      33.547  33.455  33.251  1.00  0.00     0.046 C 
ENDBRANCH   8  11
ENDBRANCH   6   7
ENDBRANCH   3   5
ENDBRANCH   2   3
ENDBRANCH   1   2
BRANCH   1  19
ATOM     19  C   UNL A   1      36.371  30.448  29.540  1.00  0.00     0.275 C 
BRANCH  19  20
ATOM     20  O   UNL A   1      37.401  29.965  30.446  1.00  0.00    -0.458 OA
BRANCH  20  21
ATOM     21  C   UNL A   1      38.261  29.003  30.012  1.00  0.00     0.338 C 
ATOM     22  O   UNL A   1      38.242  27.839  30.358  1.00  0.00    -0.246 OA
BRANCH  21  23
ATOM     23  C   UNL A   1      39.326  29.602  29.175  1.00  0.00     0.060 A 
ATOM     24  C   UNL A   1      39.293  29.266  27.381  1.00  0.00     0.016 A 
ATOM     25  C   UNL A   1      40.910  29.781  30.048  1.00  0.00     0.016 A 
ATOM     26  C   UNL A   1      40.849  28.863  26.491  1.00  0.00     0.010 A 
ATOM     27  C   UNL A   1      42.460  29.459  29.135  1.00  0.00     0.010 A 
ATOM     28  C   UNL A   1      42.413  28.858  27.413  1.00  0.00    -0.014 A 
BRANCH  28  29
ATOM     29  C   UNL A   1      43.641  28.077  26.990  1.00  0.00     0.031 A 
ATOM     30  C   UNL A   1      43.158  26.690  27.007  1.00  0.00     0.074 A 
ATOM     31  C   UNL A   1      44.879  28.361  26.455  1.00  0.00     0.049 A 
ATOM     32  N   UNL A   1      42.944  26.028  28.102  1.00  0.00    -0.248 NA
ATOM     33  C   UNL A   1      42.409  26.185  25.842  1.00  0.00     0.031 C 
ATOM     34  C   UNL A   1      45.517  29.639  26.103  1.00  0.00     0.029 A 
ATOM     35  N   UNL A   1      45.887  27.464  26.063  1.00  0.00    -0.354 N 
ATOM     36  C   UNL A   1      42.327  24.880  27.649  1.00  0.00     0.074 A 
ATOM     37  C   UNL A   1      41.634  25.288  26.464  1.00  0.00     0.031 C 
ATOM     38  C   UNL A   1      46.656  29.438  25.376  1.00  0.00     0.029 A 
ATOM     39  C   UNL A   1      46.949  28.017  25.285  1.00  0.00     0.049 A 
ATOM     40  H   UNL A   1      45.863  26.511  26.310  1.00  0.00     0.167 HD
ATOM     41  C   UNL A   1      42.912  23.672  27.884  1.00  0.00     0.037 A 
ATOM     42  C   UNL A   1      48.005  27.358  24.680  1.00  0.00     0.037 A 
ATOM     43  C   UNL A   1      43.968  23.820  28.877  1.00  0.00     0.049 A 
ATOM     44  C   UNL A   1      48.150  26.051  25.362  1.00  0.00     0.074 A 
ATOM     45  C   UNL A   1      44.075  24.345  30.152  1.00  0.00     0.029 A 
ATOM     46  N   UNL A   1      45.245  23.783  28.380  1.00  0.00    -0.354 N 
ATOM     47  N   UNL A   1      48.549  25.925  26.592  1.00  0.00    -0.248 NA
ATOM     48  C   UNL A   1      47.351  24.967  24.828  1.00  0.00     0.031 C 
ATOM     49  C   UNL A   1      45.365  24.960  30.212  1.00  0.00     0.029 A 
ATOM     50  C   UNL A   1      46.040  24.687  29.026  1.00  0.00     0.049 A 
ATOM     51  H   UNL A   1      45.548  23.187  27.658  1.00  0.00     0.167 HD
ATOM     52  C   UNL A   1      47.613  25.069  27.142  1.00  0.00     0.074 A 
ATOM     53  C   UNL A   1      46.922  24.476  25.991  1.00  0.00     0.031 C 
ATOM     54  C   UNL A   1      47.269  25.188  28.458  1.00  0.00     0.037 A 
BRANCH  41  55
ATOM     55  C   UNL A   1      42.928  22.534  26.867  1.00  0.00     0.057 A 
ATOM     56  C   UNL A   1      42.277  21.342  27.225  1.00  0.00     0.134 A 
ATOM     57  C   UNL A   1      43.733  22.429  25.706  1.00  0.00     0.134 A 
ATOM     58  F   UNL A   1      41.480  21.295  28.302  1.00  0.00    -0.206 F 
ATOM     59  C   UNL A   1      42.487  20.134  26.547  1.00  0.00     0.040 A 
ATOM     60  C   UNL A   1      43.920  21.238  25.003  1.00  0.00     0.040 A 
ATOM     61  F   UNL A   1      44.461  23.423  25.196  1.00  0.00    -0.206 F 
ATOM     62  C   UNL A   1      43.321  20.076  25.438  1.00  0.00     0.006 A 
ENDBRANCH  41  55
BRANCH  42  63
ATOM     63  C   UNL A   1      48.777  27.542  23.393  1.00  0.00     0.057 A 
ATOM     64  C   UNL A   1      50.110  27.078  23.221  1.00  0.00     0.134 A 
ATOM     65  C   UNL A   1      48.106  27.831  22.198  1.00  0.00     0.134 A 
ATOM     66  F   UNL A   1      50.854  26.718  24.279  1.00  0.00    -0.206 F 
ATOM     67  C   UNL A   1      50.705  26.884  21.955  1.00  0.00     0.040 A 
ATOM     68  C   UNL A   1      48.687  27.636  20.929  1.00  0.00     0.040 A 
ATOM     69  F   UNL A   1      46.824  28.217  22.221  1.00  0.00    -0.206 F 
ATOM     70  C   UNL A   1      49.983  27.147  20.800  1.00  0.00     0.006 A 
ENDBRANCH  42  63
BRANCH  54  71
ATOM     71  C   UNL A   1      48.163  26.017  29.343  1.00  0.00     0.057 A 
ATOM     72  C   UNL A   1      49.427  25.627  29.821  1.00  0.00     0.134 A 
ATOM     73  C   UNL A   1      47.752  27.319  29.646  1.00  0.00     0.134 A 
ATOM     74  F   UNL A   1      49.948  24.431  29.514  1.00  0.00    -0.206 F 
ATOM     75  C   UNL A   1      50.216  26.484  30.601  1.00  0.00     0.040 A 
ATOM     76  C   UNL A   1      48.542  28.192  30.393  1.00  0.00     0.040 A 
ATOM     77  F   UNL A   1      46.576  27.776  29.185  1.00  0.00    -0.206 F 
ATOM     78  C   UNL A   1      49.772  27.772  30.886  1.00  0.00     0.006 A 
ENDBRANCH  54  71
ENDBRANCH  28  29
ENDBRANCH  21  23
ENDBRANCH  20  21
ENDBRANCH  19  20
ENDBRANCH   1  19
TORSDOF 13
ENDMDL
MODEL 2
REMARK VINA RESULT:     -11.8      4.208      8.440
REMARK SMILES Cc1ccc(C)c(NC(=O)/C=C/C(=O)OCCOC(=O)c2ccc(-c3c4nc(c(-c5c(F)cccc5F)c5ccc([nH]5)c(-c5c(F)cccc5F)c5nc(c(-c6c(F)cccc6F)c6ccc3[nH]6)C=C5)C=C4)cc2)c1
REMARK SMILES IDX 16 1 15 2 13 3 14 4 12 5 11 6 9 7 8 8 10 10 7 11 1 12 2 13
REMARK SMILES IDX 3 14 75 15 4 16 5 17 6 18 17 19 18 20 19 21 20 22 21 23
REMARK SMILES IDX 22 24 74 25 23 26 73 27 24 28 25 29 26 30 67 31 27 32 72 33
REMARK SMILES IDX 66 34 68 35 28 36 71 37 65 38 64 39 29 41 55 42 38 43 54 44
REMARK SMILES IDX 39 45 42 46 53 47 69 48 40 49 41 50 52 52 70 53 43 54 30 55
REMARK SMILES IDX 31 56 36 57 32 58 33 59 35 60 37 61 34 62 56 63 57 64 62 65
REMARK SMILES IDX 58 66 59 67 61 68 63 69 60 70 44 71 45 72 50 73 46 74 47 75
REMARK SMILES IDX 49 76 51 77 48 78
REMARK H PARENT 8 9 68 40 42 51
REMARK Flexibility Score: inf
ROOT
ATOM      1  C   UNL A   1      33.806  30.791  27.197  1.00  0.00     0.275 C 
ENDROOT
BRANCH   1   2
ATOM      2  O   UNL A   1      32.552  30.157  27.473  1.00  0.00    -0.459 OA
BRANCH   2   3
ATOM      3  C   UNL A   1      32.006  29.335  26.392  1.00  0.00     0.331 C 
ATOM      4  O   UNL A   1      31.734  30.162  25.473  1.00  0.00    -0.247 OA
BRANCH   3   5
ATOM      5  C   UNL A   1      31.787  27.214  26.479  1.00  0.00     0.099 C 
ATOM      6  C   UNL A   1      32.506  25.980  26.568  1.00  0.00     0.079 C 
BRANCH   6   7
ATOM      7  C   UNL A   1      32.185  24.491  26.451  1.00  0.00     0.248 C 
ATOM      8  N   UNL A   1      33.027  23.530  25.914  1.00  0.00    -0.322 N 
ATOM      9  H   UNL A   1      32.672  22.615  25.991  1.00  0.00     0.170 HD
ATOM     10  O   UNL A   1      31.176  24.089  27.041  1.00  0.00    -0.270 OA
BRANCH   8  11
ATOM     11  C   UNL A   1      34.288  23.589  25.280  1.00  0.00     0.044 A 
ATOM     12  C   UNL A   1      38.055  23.817  26.040  1.00  0.00     0.044 C 
ATOM     13  C   UNL A   1      36.727  23.509  25.402  1.00  0.00    -0.049 A 
ATOM     14  C   UNL A   1      36.742  22.999  24.103  1.00  0.00     0.004 A 
ATOM     15  C   UNL A   1      35.478  23.733  26.021  1.00  0.00     0.029 A 
ATOM     16  C   UNL A   1      35.597  23.097  23.330  1.00  0.00     0.006 A 
ATOM     17  C   UNL A   1      34.426  23.601  23.902  1.00  0.00    -0.027 A 
ATOM     18  C   UNL A   1      33.609  24.590  23.107  1.00  0.00     0.046 C 
ENDBRANCH   8  11
ENDBRANCH   6   7
ENDBRANCH   3   5
ENDBRANCH   2   3
ENDBRANCH   1   2
BRANCH   1  19
ATOM     19  C   UNL A   1      33.857  32.107  27.982  1.00  0.00     0.275 C 
BRANCH  19  20
ATOM     20  O   UNL A   1      35.031  32.245  28.829  1.00  0.00    -0.458 OA
BRANCH  20  21
ATOM     21  C   UNL A   1      34.882  32.758  30.081  1.00  0.00     0.338 C 
ATOM     22  O   UNL A   1      34.032  33.559  30.414  1.00  0.00    -0.246 OA
BRANCH  21  23
ATOM     23  C   UNL A   1      36.001  32.327  30.952  1.00  0.00     0.060 A 
ATOM     24  C   UNL A   1      37.564  33.265  30.859  1.00  0.00     0.016 A 
ATOM     25  C   UNL A   1      36.019  30.538  31.267  1.00  0.00     0.016 A 
ATOM     26  C   UNL A   1      39.171  32.374  30.837  1.00  0.00     0.010 A 
ATOM     27  C   UNL A   1      37.626  29.670  31.326  1.00  0.00     0.010 A 
ATOM     28  C   UNL A   1      39.175  30.564  30.962  1.00  0.00    -0.014 A 
BRANCH  28  29
ATOM     29  C   UNL A   1      40.300  29.683  30.455  1.00  0.00     0.031 A 
ATOM     30  C   UNL A   1      41.016  29.339  31.691  1.00  0.00     0.074 A 
ATOM     31  C   UNL A   1      40.626  29.044  29.279  1.00  0.00     0.049 A 
ATOM     32  N   UNL A   1      41.774  30.178  32.327  1.00  0.00    -0.248 NA
ATOM     33  C   UNL A   1      40.501  28.239  32.527  1.00  0.00     0.031 C 
ATOM     34  C   UNL A   1      39.953  29.013  27.970  1.00  0.00     0.029 A 
ATOM     35  N   UNL A   1      41.715  28.196  29.019  1.00  0.00    -0.354 N 
ATOM     36  C   UNL A   1      42.064  29.502  33.495  1.00  0.00     0.074 A 
ATOM     37  C   UNL A   1      40.921  28.671  33.723  1.00  0.00     0.031 C 
ATOM     38  C   UNL A   1      40.496  28.057  27.160  1.00  0.00     0.029 A 
ATOM     39  C   UNL A   1      41.653  27.453  27.800  1.00  0.00     0.049 A 
ATOM     40  H   UNL A   1      42.476  28.119  29.638  1.00  0.00     0.167 HD
ATOM     41  C   UNL A   1      43.362  29.215  33.793  1.00  0.00     0.037 A 
ATOM     42  C   UNL A   1      42.521  26.476  27.345  1.00  0.00     0.037 A 
ATOM     43  C   UNL A   1      44.249  29.980  32.927  1.00  0.00     0.049 A 
ATOM     44  C   UNL A   1      43.798  26.654  28.073  1.00  0.00     0.074 A 
ATOM     45  C   UNL A   1      44.412  31.312  32.589  1.00  0.00     0.029 A 
ATOM     46  N   UNL A   1      44.841  29.265  31.920  1.00  0.00    -0.354 N 
ATOM     47  N   UNL A   1      44.583  27.676  27.905  1.00  0.00    -0.248 NA
ATOM     48  C   UNL A   1      43.905  25.959  29.340  1.00  0.00     0.031 C 
ATOM     49  C   UNL A   1      44.754  31.321  31.200  1.00  0.00     0.029 A 
ATOM     50  C   UNL A   1      44.903  30.005  30.773  1.00  0.00     0.049 A 
ATOM     51  H   UNL A   1      45.177  28.344  32.010  1.00  0.00     0.167 HD
ATOM     52  C   UNL A   1      44.851  28.084  29.199  1.00  0.00     0.074 A 
ATOM     53  C   UNL A   1      44.439  26.958  30.044  1.00  0.00     0.031 C 
ATOM     54  C   UNL A   1      45.055  29.408  29.468  1.00  0.00     0.037 A 
BRANCH  41  55
ATOM     55  C   UNL A   1      43.807  27.899  34.426  1.00  0.00     0.057 A 
ATOM     56  C   UNL A   1      44.548  27.977  35.617  1.00  0.00     0.134 A 
ATOM     57  C   UNL A   1      43.790  26.611  33.837  1.00  0.00     0.134 A 
ATOM     58  F   UNL A   1      44.649  29.134  36.285  1.00  0.00    -0.206 F 
ATOM     59  C   UNL A   1      45.285  26.896  36.119  1.00  0.00     0.040 A 
ATOM     60  C   UNL A   1      44.492  25.519  34.349  1.00  0.00     0.040 A 
ATOM     61  F   UNL A   1      43.173  26.310  32.693  1.00  0.00    -0.206 F 
ATOM     62  C   UNL A   1      45.268  25.664  35.477  1.00  0.00     0.006 A 
ENDBRANCH  41  55
BRANCH  42  63
ATOM     63  C   UNL A   1      42.362  25.197  26.554  1.00  0.00     0.057 A 
ATOM     64  C   UNL A   1      43.184  24.873  25.439  1.00  0.00     0.134 A 
ATOM     65  C   UNL A   1      41.668  24.109  27.096  1.00  0.00     0.134 A 
ATOM     66  F   UNL A   1      43.944  25.810  24.851  1.00  0.00    -0.206 F 
ATOM     67  C   UNL A   1      43.327  23.561  24.938  1.00  0.00     0.040 A 
ATOM     68  C   UNL A   1      41.805  22.795  26.609  1.00  0.00     0.040 A 
ATOM     69  F   UNL A   1      40.908  24.270  28.187  1.00  0.00    -0.206 F 
ATOM     70  C   UNL A   1      42.647  22.511  25.537  1.00  0.00     0.006 A 
ENDBRANCH  42  63
BRANCH  54  71
ATOM     71  C   UNL A   1      45.319  30.327  28.303  1.00  0.00     0.057 A 
ATOM     72  C   UNL A   1      44.338  31.014  27.568  1.00  0.00     0.134 A 
ATOM     73  C   UNL A   1      46.652  30.595  27.976  1.00  0.00     0.134 A 
ATOM     74  F   UNL A   1      43.036  30.892  27.860  1.00  0.00    -0.206 F 
ATOM     75  C   UNL A   1      44.676  31.891  26.528  1.00  0.00     0.040 A 
ATOM     76  C   UNL A   1      47.003  31.490  26.966  1.00  0.00     0.040 A 
ATOM     77  F   UNL A   1      47.644  30.009  28.666  1.00  0.00    -0.206 F 
ATOM     78  C   UNL A   1      46.015  32.132  26.227  1.00  0.00     0.006 A 
ENDBRANCH  54  71
ENDBRANCH  28  29
ENDBRANCH  21  23
ENDBRANCH  20  21
ENDBRANCH  19  20
ENDBRANCH   1  19
TORSDOF 13
ENDMDL
MODEL 3
REMARK VINA RESULT:     -11.8      5.834     11.775
REMARK SMILES Cc1ccc(C)c(NC(=O)/C=C/C(=O)OCCOC(=O)c2ccc(-c3c4nc(c(-c5c(F)cccc5F)c5ccc([nH]5)c(-c5c(F)cccc5F)c5nc(c(-c6c(F)cccc6F)c6ccc3[nH]6)C=C5)C=C4)cc2)c1
REMARK SMILES IDX 16 1 15 2 13 3 14 4 12 5 11 6 9 7 8 8 10 10 7 11 1 12 2 13
REMARK SMILES IDX 3 14 75 15 4 16 5 17 6 18 17 19 18 20 19 21 20 22 21 23
REMARK SMILES IDX 22 24 74 25 23 26 73 27 24 28 25 29 26 30 67 31 27 32 72 33
REMARK SMILES IDX 66 34 68 35 28 36 71 37 65 38 64 39 29 41 55 42 38 43 54 44
REMARK SMILES IDX 39 45 42 46 53 47 69 48 40 49 41 50 52 52 70 53 43 54 30 55
REMARK SMILES IDX 31 56 36 57 32 58 33 59 35 60 37 61 34 62 56 63 57 64 62 65
REMARK SMILES IDX 58 66 59 67 61 68 63 69 60 70 44 71 45 72 50 73 46 74 47 75
REMARK SMILES IDX 49 76 51 77 48 78
REMARK H PARENT 8 9 68 40 42 51
REMARK Flexibility Score: inf
ROOT
ATOM      1  C   UNL A   1      39.667  22.328  26.777  1.00  0.00     0.275 C 
ENDROOT
BRANCH   1   2
ATOM      2  O   UNL A   1      38.612  22.016  25.862  1.00  0.00    -0.459 OA
BRANCH   2   3
ATOM      3  C   UNL A   1      37.472  22.937  25.870  1.00  0.00     0.331 C 
ATOM      4  O   UNL A   1      37.993  24.084  25.745  1.00  0.00    -0.247 OA
BRANCH   3   5
ATOM      5  C   UNL A   1      35.433  22.335  26.047  1.00  0.00     0.099 C 
ATOM      6  C   UNL A   1      34.080  22.786  25.929  1.00  0.00     0.079 C 
BRANCH   6   7
ATOM      7  C   UNL A   1      32.691  22.245  26.263  1.00  0.00     0.248 C 
ATOM      8  N   UNL A   1      32.140  21.081  25.749  1.00  0.00    -0.322 N 
ATOM      9  H   UNL A   1      31.262  20.862  26.138  1.00  0.00     0.170 HD
ATOM     10  O   UNL A   1      32.088  22.790  27.195  1.00  0.00    -0.270 OA
BRANCH   8  11
ATOM     11  C   UNL A   1      32.575  20.145  24.785  1.00  0.00     0.044 A 
ATOM     12  C   UNL A   1      34.798  17.030  24.373  1.00  0.00     0.044 C 
ATOM     13  C   UNL A   1      33.706  18.054  24.222  1.00  0.00    -0.049 A 
ATOM     14  C   UNL A   1      32.865  17.935  23.115  1.00  0.00     0.004 A 
ATOM     15  C   UNL A   1      33.503  19.135  25.107  1.00  0.00     0.029 A 
ATOM     16  C   UNL A   1      32.144  19.042  22.698  1.00  0.00     0.006 A 
ATOM     17  C   UNL A   1      32.190  20.215  23.456  1.00  0.00    -0.027 A 
ATOM     18  C   UNL A   1      32.345  21.530  22.733  1.00  0.00     0.046 C 
ENDBRANCH   8  11
ENDBRANCH   6   7
ENDBRANCH   3   5
ENDBRANCH   2   3
ENDBRANCH   1   2
BRANCH   1  19
ATOM     19  C   UNL A   1      40.941  21.630  26.291  1.00  0.00     0.275 C 
BRANCH  19  20
ATOM     20  O   UNL A   1      42.164  22.359  26.584  1.00  0.00    -0.458 OA
BRANCH  20  21
ATOM     21  C   UNL A   1      42.980  22.718  25.555  1.00  0.00     0.338 C 
ATOM     22  O   UNL A   1      43.293  22.000  24.626  1.00  0.00    -0.246 OA
BRANCH  21  23
ATOM     23  C   UNL A   1      43.566  24.056  25.801  1.00  0.00     0.060 A 
ATOM     24  C   UNL A   1      44.474  24.315  27.363  1.00  0.00     0.016 A 
ATOM     25  C   UNL A   1      42.605  25.409  25.061  1.00  0.00     0.016 A 
ATOM     26  C   UNL A   1      44.228  25.861  28.325  1.00  0.00     0.010 A 
ATOM     27  C   UNL A   1      42.431  26.975  25.986  1.00  0.00     0.010 A 
ATOM     28  C   UNL A   1      43.114  27.136  27.671  1.00  0.00    -0.014 A 
BRANCH  28  29
ATOM     29  C   UNL A   1      42.421  28.174  28.530  1.00  0.00     0.031 A 
ATOM     30  C   UNL A   1      43.313  29.335  28.407  1.00  0.00     0.074 A 
ATOM     31  C   UNL A   1      41.194  28.320  29.140  1.00  0.00     0.049 A 
ATOM     32  N   UNL A   1      44.463  29.411  29.002  1.00  0.00    -0.248 NA
ATOM     33  C   UNL A   1      43.191  30.202  27.221  1.00  0.00     0.031 C 
ATOM     34  C   UNL A   1      40.028  27.423  29.206  1.00  0.00     0.029 A 
ATOM     35  N   UNL A   1      40.703  29.419  29.863  1.00  0.00    -0.354 N 
ATOM     36  C   UNL A   1      45.016  30.550  28.455  1.00  0.00     0.074 A 
ATOM     37  C   UNL A   1      44.459  30.623  27.138  1.00  0.00     0.031 C 
ATOM     38  C   UNL A   1      38.937  28.071  29.711  1.00  0.00     0.029 A 
ATOM     39  C   UNL A   1      39.302  29.410  30.143  1.00  0.00     0.049 A 
ATOM     40  H   UNL A   1      41.289  30.153  30.160  1.00  0.00     0.167 HD
ATOM     41  C   UNL A   1      45.336  31.594  29.270  1.00  0.00     0.037 A 
ATOM     42  C   UNL A   1      38.538  30.400  30.736  1.00  0.00     0.037 A 
ATOM     43  C   UNL A   1      45.309  31.160  30.660  1.00  0.00     0.049 A 
ATOM     44  C   UNL A   1      39.467  31.276  31.486  1.00  0.00     0.074 A 
ATOM     45  C   UNL A   1      45.883  30.143  31.402  1.00  0.00     0.029 A 
ATOM     46  N   UNL A   1      44.220  31.577  31.381  1.00  0.00    -0.354 N 
ATOM     47  N   UNL A   1      40.112  30.895  32.548  1.00  0.00    -0.248 NA
ATOM     48  C   UNL A   1      40.047  32.371  30.736  1.00  0.00     0.031 C 
ATOM     49  C   UNL A   1      44.886  29.738  32.345  1.00  0.00     0.029 A 
ATOM     50  C   UNL A   1      43.794  30.592  32.226  1.00  0.00     0.049 A 
ATOM     51  H   UNL A   1      43.803  32.465  31.301  1.00  0.00     0.167 HD
ATOM     52  C   UNL A   1      41.411  31.291  32.287  1.00  0.00     0.074 A 
ATOM     53  C   UNL A   1      41.300  32.237  31.170  1.00  0.00     0.031 C 
ATOM     54  C   UNL A   1      42.458  30.559  32.770  1.00  0.00     0.037 A 
BRANCH  41  55
ATOM     55  C   UNL A   1      45.123  33.056  28.887  1.00  0.00     0.057 A 
ATOM     56  C   UNL A   1      46.243  33.902  28.930  1.00  0.00     0.134 A 
ATOM     57  C   UNL A   1      43.888  33.735  28.738  1.00  0.00     0.134 A 
ATOM     58  F   UNL A   1      47.477  33.396  29.065  1.00  0.00    -0.206 F 
ATOM     59  C   UNL A   1      46.134  35.299  28.924  1.00  0.00     0.040 A 
ATOM     60  C   UNL A   1      43.773  35.125  28.695  1.00  0.00     0.040 A 
ATOM     61  F   UNL A   1      42.696  33.138  28.699  1.00  0.00    -0.206 F 
ATOM     62  C   UNL A   1      44.894  35.915  28.818  1.00  0.00     0.006 A 
ENDBRANCH  41  55
BRANCH  42  63
ATOM     63  C   UNL A   1      37.125  30.906  30.553  1.00  0.00     0.057 A 
ATOM     64  C   UNL A   1      36.284  31.255  31.646  1.00  0.00     0.134 A 
ATOM     65  C   UNL A   1      36.706  31.412  29.316  1.00  0.00     0.134 A 
ATOM     66  F   UNL A   1      36.592  30.879  32.897  1.00  0.00    -0.206 F 
ATOM     67  C   UNL A   1      35.143  32.075  31.513  1.00  0.00     0.040 A 
ATOM     68  C   UNL A   1      35.573  32.235  29.171  1.00  0.00     0.040 A 
ATOM     69  F   UNL A   1      37.446  31.205  28.218  1.00  0.00    -0.206 F 
ATOM     70  C   UNL A   1      34.794  32.585  30.270  1.00  0.00     0.006 A 
ENDBRANCH  42  63
BRANCH  54  71
ATOM     71  C   UNL A   1      42.165  29.547  33.848  1.00  0.00     0.057 A 
ATOM     72  C   UNL A   1      41.769  28.216  33.633  1.00  0.00     0.134 A 
ATOM     73  C   UNL A   1      42.392  29.928  35.175  1.00  0.00     0.134 A 
ATOM     74  F   UNL A   1      41.609  27.729  32.395  1.00  0.00    -0.206 F 
ATOM     75  C   UNL A   1      41.566  27.326  34.697  1.00  0.00     0.040 A 
ATOM     76  C   UNL A   1      42.226  29.043  36.240  1.00  0.00     0.040 A 
ATOM     77  F   UNL A   1      42.816  31.171  35.454  1.00  0.00    -0.206 F 
ATOM     78  C   UNL A   1      41.798  27.741  36.006  1.00  0.00     0.006 A 
ENDBRANCH  54  71
ENDBRANCH  28  29
ENDBRANCH  21  23
ENDBRANCH  20  21
ENDBRANCH  19  20
ENDBRANCH   1  19
TORSDOF 13
ENDMDL
