MODEL 1
REMARK VINA RESULT:     -10.9      0.000      0.000
REMARK SMILES CCOc1ccccc1NC(=O)N[C@@](C)(CC)C(=O)OCCOC(=O)c1ccc(-c2c3nc(c(-c4c(F)cccc4F)c4ccc([nH]4)c(-c4c(F)cccc4F)c4nc(c(-c5c(F)cccc5F)c5ccc2[nH]5)C=C4)C=C3)cc1
REMARK SMILES IDX 21 1 20 2 18 3 19 4 14 5 15 6 13 7 10 8 11 9 12 11 9 13 4 14
REMARK SMILES IDX 5 15 6 16 8 17 7 18 3 19 2 20 1 21 16 22 17 23 22 24 23 25
REMARK SMILES IDX 24 26 25 27 26 28 27 29 79 30 28 31 78 32 29 33 30 34 31 35
REMARK SMILES IDX 72 36 32 37 77 38 71 39 73 40 33 41 76 42 70 43 69 44 34 46
REMARK SMILES IDX 60 47 43 48 59 49 44 50 47 51 58 52 74 53 45 54 46 55 57 57
REMARK SMILES IDX 75 58 48 59 35 60 36 61 41 62 37 63 38 64 40 65 42 66 39 67
REMARK SMILES IDX 61 68 62 69 67 70 63 71 64 72 66 73 68 74 65 75 49 76 50 77
REMARK SMILES IDX 55 78 51 79 52 80 54 81 56 82 53 83
REMARK H PARENT 10 10 13 12 73 45 47 56
REMARK Flexibility Score: inf
ROOT
ATOM      1  C   UNL A   1      35.676  20.557  25.003  1.00  0.00     0.274 C 
ENDROOT
BRANCH   1   2
ATOM      2  O   UNL A   1      35.478  21.790  24.267  1.00  0.00    -0.460 OA
BRANCH   2   3
ATOM      3  C   UNL A   1      34.186  22.206  24.233  1.00  0.00     0.331 C 
ATOM      4  O   UNL A   1      33.260  21.426  24.126  1.00  0.00    -0.249 OA
BRANCH   3   5
ATOM      5  C   UNL A   1      33.968  23.723  24.425  1.00  0.00     0.136 C 
ATOM      6  C   UNL A   1      35.048  24.439  25.247  1.00  0.00     0.047 C 
BRANCH   5   7
ATOM      7  N   UNL A   1      33.869  24.395  23.091  1.00  0.00    -0.322 N 
ATOM      8  N   UNL A   1      33.615  26.733  23.463  1.00  0.00    -0.305 N 
ATOM      9  C   UNL A   1      33.590  25.651  22.657  1.00  0.00     0.320 C 
ATOM     10  H   UNL A   1      34.188  27.453  23.113  1.00  0.00     0.172 HD
ATOM     11  O   UNL A   1      33.598  25.817  21.433  1.00  0.00    -0.248 OA
ATOM     12  H   UNL A   1      34.050  23.776  22.346  1.00  0.00     0.166 HD
BRANCH   8  13
ATOM     13  C   UNL A   1      33.011  27.069  24.687  1.00  0.00     0.085 A 
ATOM     14  C   UNL A   1      31.607  26.979  24.773  1.00  0.00     0.142 A 
ATOM     15  C   UNL A   1      30.927  27.388  25.920  1.00  0.00     0.048 A 
ATOM     16  C   UNL A   1      31.653  27.858  27.012  1.00  0.00     0.004 A 
ATOM     17  C   UNL A   1      33.725  27.452  25.813  1.00  0.00     0.030 A 
ATOM     18  C   UNL A   1      33.049  27.873  26.964  1.00  0.00     0.002 A 
BRANCH  14  19
ATOM     19  O   UNL A   1      30.894  26.692  23.637  1.00  0.00    -0.492 OA
BRANCH  19  20
ATOM     20  C   UNL A   1      29.880  27.655  23.353  1.00  0.00     0.226 C 
ATOM     21  C   UNL A   1      30.511  28.699  22.449  1.00  0.00     0.049 C 
ENDBRANCH  19  20
ENDBRANCH  14  19
ENDBRANCH   8  13
ENDBRANCH   5   7
BRANCH   5  22
ATOM     22  C   UNL A   1      32.631  23.930  25.216  1.00  0.00     0.037 C 
ATOM     23  C   UNL A   1      32.663  23.790  26.731  1.00  0.00     0.007 C 
ENDBRANCH   5  22
ENDBRANCH   3   5
ENDBRANCH   2   3
ENDBRANCH   1   2
BRANCH   1  24
ATOM     24  C   UNL A   1      37.111  19.981  25.028  1.00  0.00     0.275 C 
BRANCH  24  25
ATOM     25  O   UNL A   1      38.136  21.002  25.060  1.00  0.00    -0.458 OA
BRANCH  25  26
ATOM     26  C   UNL A   1      39.190  20.759  25.878  1.00  0.00     0.338 C 
ATOM     27  O   UNL A   1      39.812  19.711  25.970  1.00  0.00    -0.246 OA
BRANCH  26  28
ATOM     28  C   UNL A   1      39.621  21.974  26.606  1.00  0.00     0.060 A 
ATOM     29  C   UNL A   1      39.108  23.208  26.186  1.00  0.00     0.016 A 
ATOM     30  C   UNL A   1      40.656  21.945  27.537  1.00  0.00     0.016 A 
ATOM     31  C   UNL A   1      39.619  24.409  26.659  1.00  0.00     0.010 A 
ATOM     32  C   UNL A   1      41.194  23.156  28.004  1.00  0.00     0.010 A 
ATOM     33  C   UNL A   1      40.701  24.391  27.537  1.00  0.00    -0.014 A 
BRANCH  33  34
ATOM     34  C   UNL A   1      41.430  25.657  27.785  1.00  0.00     0.031 A 
ATOM     35  C   UNL A   1      40.755  26.723  28.600  1.00  0.00     0.074 A 
ATOM     36  C   UNL A   1      42.702  25.823  27.384  1.00  0.00     0.049 A 
ATOM     37  N   UNL A   1      41.142  27.945  28.858  1.00  0.00    -0.248 NA
ATOM     38  C   UNL A   1      39.473  26.351  29.224  1.00  0.00     0.031 C 
ATOM     39  C   UNL A   1      43.518  24.809  26.721  1.00  0.00     0.029 A 
ATOM     40  N   UNL A   1      43.532  26.910  27.487  1.00  0.00    -0.354 N 
ATOM     41  C   UNL A   1      40.142  28.497  29.647  1.00  0.00     0.074 A 
ATOM     42  C   UNL A   1      39.130  27.478  29.830  1.00  0.00     0.031 C 
ATOM     43  C   UNL A   1      44.730  25.328  26.458  1.00  0.00     0.029 A 
ATOM     44  C   UNL A   1      44.756  26.723  26.891  1.00  0.00     0.049 A 
ATOM     45  H   UNL A   1      43.276  27.744  27.942  1.00  0.00     0.167 HD
ATOM     46  C   UNL A   1      40.069  29.745  30.166  1.00  0.00     0.037 A 
ATOM     47  C   UNL A   1      45.762  27.594  26.689  1.00  0.00     0.037 A 
ATOM     48  C   UNL A   1      41.081  30.751  29.988  1.00  0.00     0.049 A 
ATOM     49  C   UNL A   1      45.613  29.011  27.172  1.00  0.00     0.074 A 
ATOM     50  C   UNL A   1      41.089  32.061  30.431  1.00  0.00     0.029 A 
ATOM     51  N   UNL A   1      42.275  30.549  29.309  1.00  0.00    -0.354 N 
ATOM     52  N   UNL A   1      44.631  29.555  27.851  1.00  0.00    -0.248 NA
ATOM     53  C   UNL A   1      46.702  29.942  26.844  1.00  0.00     0.031 C 
ATOM     54  C   UNL A   1      42.272  32.664  29.987  1.00  0.00     0.029 A 
ATOM     55  C   UNL A   1      43.017  31.717  29.302  1.00  0.00     0.049 A 
ATOM     56  H   UNL A   1      42.552  29.700  28.895  1.00  0.00     0.167 HD
ATOM     57  C   UNL A   1      44.990  30.882  28.046  1.00  0.00     0.074 A 
ATOM     58  C   UNL A   1      46.286  31.060  27.425  1.00  0.00     0.031 C 
ATOM     59  C   UNL A   1      44.307  31.867  28.679  1.00  0.00     0.037 A 
BRANCH  46  60
ATOM     60  C   UNL A   1      38.820  30.098  30.914  1.00  0.00     0.057 A 
ATOM     61  C   UNL A   1      37.719  30.694  30.287  1.00  0.00     0.134 A 
ATOM     62  C   UNL A   1      38.731  29.857  32.291  1.00  0.00     0.134 A 
ATOM     63  F   UNL A   1      37.750  30.971  28.976  1.00  0.00    -0.206 F 
ATOM     64  C   UNL A   1      36.581  31.063  31.010  1.00  0.00     0.040 A 
ATOM     65  C   UNL A   1      37.592  30.202  33.019  1.00  0.00     0.040 A 
ATOM     66  F   UNL A   1      39.753  29.291  32.951  1.00  0.00    -0.206 F 
ATOM     67  C   UNL A   1      36.516  30.814  32.380  1.00  0.00     0.006 A 
ENDBRANCH  46  60
BRANCH  47  68
ATOM     68  C   UNL A   1      46.979  27.168  25.952  1.00  0.00     0.057 A 
ATOM     69  C   UNL A   1      48.068  26.592  26.614  1.00  0.00     0.134 A 
ATOM     70  C   UNL A   1      47.090  27.351  24.566  1.00  0.00     0.134 A 
ATOM     71  F   UNL A   1      48.035  26.419  27.943  1.00  0.00    -0.206 F 
ATOM     72  C   UNL A   1      49.227  26.221  25.928  1.00  0.00     0.040 A 
ATOM     73  C   UNL A   1      48.233  26.964  23.866  1.00  0.00     0.040 A 
ATOM     74  F   UNL A   1      46.085  27.907  23.874  1.00  0.00    -0.206 F 
ATOM     75  C   UNL A   1      49.309  26.402  24.549  1.00  0.00     0.006 A 
ENDBRANCH  47  68
BRANCH  59  76
ATOM     76  C   UNL A   1      44.960  33.215  28.749  1.00  0.00     0.057 A 
ATOM     77  C   UNL A   1      45.856  33.544  29.773  1.00  0.00     0.134 A 
ATOM     78  C   UNL A   1      44.726  34.173  27.755  1.00  0.00     0.134 A 
ATOM     79  F   UNL A   1      46.111  32.672  30.760  1.00  0.00    -0.206 F 
ATOM     80  C   UNL A   1      46.486  34.788  29.815  1.00  0.00     0.040 A 
ATOM     81  C   UNL A   1      45.367  35.413  27.775  1.00  0.00     0.040 A 
ATOM     82  F   UNL A   1      43.884  33.916  26.744  1.00  0.00    -0.206 F 
ATOM     83  C   UNL A   1      46.248  35.724  28.810  1.00  0.00     0.006 A 
ENDBRANCH  59  76
ENDBRANCH  33  34
ENDBRANCH  26  28
ENDBRANCH  25  26
ENDBRANCH  24  25
ENDBRANCH   1  24
TORSDOF 16
ENDMDL
MODEL 2
REMARK VINA RESULT:     -10.9      1.084      2.125
REMARK SMILES CCOc1ccccc1NC(=O)N[C@@](C)(CC)C(=O)OCCOC(=O)c1ccc(-c2c3nc(c(-c4c(F)cccc4F)c4ccc([nH]4)c(-c4c(F)cccc4F)c4nc(c(-c5c(F)cccc5F)c5ccc2[nH]5)C=C4)C=C3)cc1
REMARK SMILES IDX 21 1 20 2 18 3 19 4 14 5 15 6 13 7 10 8 11 9 12 11 9 13 4 14
REMARK SMILES IDX 5 15 6 16 8 17 7 18 3 19 2 20 1 21 16 22 17 23 22 24 23 25
REMARK SMILES IDX 24 26 25 27 26 28 27 29 79 30 28 31 78 32 29 33 30 34 31 35
REMARK SMILES IDX 72 36 32 37 77 38 71 39 73 40 33 41 76 42 70 43 69 44 34 46
REMARK SMILES IDX 60 47 43 48 59 49 44 50 47 51 58 52 74 53 45 54 46 55 57 57
REMARK SMILES IDX 75 58 48 59 35 60 36 61 41 62 37 63 38 64 40 65 42 66 39 67
REMARK SMILES IDX 61 68 62 69 67 70 63 71 64 72 66 73 68 74 65 75 49 76 50 77
REMARK SMILES IDX 55 78 51 79 52 80 54 81 56 82 53 83
REMARK H PARENT 10 10 13 12 73 45 47 56
REMARK Flexibility Score: inf
ROOT
ATOM      1  C   UNL A   1      35.217  21.657  24.557  1.00  0.00     0.274 C 
ENDROOT
BRANCH   1   2
ATOM      2  O   UNL A   1      34.965  23.080  24.676  1.00  0.00    -0.460 OA
BRANCH   2   3
ATOM      3  C   UNL A   1      34.307  23.610  23.612  1.00  0.00     0.331 C 
ATOM      4  O   UNL A   1      34.614  23.346  22.466  1.00  0.00    -0.249 OA
BRANCH   3   5
ATOM      5  C   UNL A   1      33.092  24.499  23.956  1.00  0.00     0.136 C 
ATOM      6  C   UNL A   1      31.902  24.381  22.994  1.00  0.00     0.047 C 
BRANCH   5   7
ATOM      7  N   UNL A   1      32.611  24.189  25.340  1.00  0.00    -0.322 N 
ATOM      8  N   UNL A   1      30.663  25.494  25.751  1.00  0.00    -0.305 N 
ATOM      9  C   UNL A   1      31.662  24.691  26.171  1.00  0.00     0.320 C 
ATOM     10  H   UNL A   1      29.774  25.163  26.014  1.00  0.00     0.172 HD
ATOM     11  O   UNL A   1      31.570  24.151  27.278  1.00  0.00    -0.248 OA
ATOM     12  H   UNL A   1      33.103  23.439  25.747  1.00  0.00     0.166 HD
BRANCH   8  13
ATOM     13  C   UNL A   1      30.600  26.696  25.024  1.00  0.00     0.085 A 
ATOM     14  C   UNL A   1      31.335  27.797  25.509  1.00  0.00     0.142 A 
ATOM     15  C   UNL A   1      31.246  29.048  24.901  1.00  0.00     0.048 A 
ATOM     16  C   UNL A   1      30.444  29.201  23.771  1.00  0.00     0.004 A 
ATOM     17  C   UNL A   1      29.878  26.842  23.848  1.00  0.00     0.030 A 
ATOM     18  C   UNL A   1      29.777  28.097  23.238  1.00  0.00     0.002 A 
BRANCH  14  19
ATOM     19  O   UNL A   1      31.971  27.682  26.718  1.00  0.00    -0.492 OA
BRANCH  19  20
ATOM     20  C   UNL A   1      32.664  28.869  27.102  1.00  0.00     0.226 C 
ATOM     21  C   UNL A   1      34.147  28.569  26.974  1.00  0.00     0.049 C 
ENDBRANCH  19  20
ENDBRANCH  14  19
ENDBRANCH   8  13
ENDBRANCH   5   7
BRANCH   5  22
ATOM     22  C   UNL A   1      33.545  25.998  23.884  1.00  0.00     0.037 C 
ATOM     23  C   UNL A   1      33.478  26.704  22.537  1.00  0.00     0.007 C 
ENDBRANCH   5  22
ENDBRANCH   3   5
ENDBRANCH   2   3
ENDBRANCH   1   2
BRANCH   1  24
ATOM     24  C   UNL A   1      36.380  21.081  25.396  1.00  0.00     0.275 C 
BRANCH  24  25
ATOM     25  O   UNL A   1      37.685  21.456  24.897  1.00  0.00    -0.458 OA
BRANCH  25  26
ATOM     26  C   UNL A   1      38.740  21.117  25.678  1.00  0.00     0.338 C 
ATOM     27  O   UNL A   1      39.306  20.033  25.705  1.00  0.00    -0.246 OA
BRANCH  26  28
ATOM     28  C   UNL A   1      39.251  22.269  26.455  1.00  0.00     0.060 A 
ATOM     29  C   UNL A   1      38.746  23.540  26.154  1.00  0.00     0.016 A 
ATOM     30  C   UNL A   1      40.344  22.152  27.311  1.00  0.00     0.016 A 
ATOM     31  C   UNL A   1      39.320  24.694  26.671  1.00  0.00     0.010 A 
ATOM     32  C   UNL A   1      40.944  23.316  27.821  1.00  0.00     0.010 A 
ATOM     33  C   UNL A   1      40.455  24.591  27.471  1.00  0.00    -0.014 A 
BRANCH  33  34
ATOM     34  C   UNL A   1      41.234  25.820  27.754  1.00  0.00     0.031 A 
ATOM     35  C   UNL A   1      40.592  26.899  28.578  1.00  0.00     0.074 A 
ATOM     36  C   UNL A   1      42.519  25.938  27.375  1.00  0.00     0.049 A 
ATOM     37  N   UNL A   1      41.027  28.099  28.864  1.00  0.00    -0.248 NA
ATOM     38  C   UNL A   1      39.286  26.571  29.176  1.00  0.00     0.031 C 
ATOM     39  C   UNL A   1      43.301  24.903  26.705  1.00  0.00     0.029 A 
ATOM     40  N   UNL A   1      43.392  26.987  27.511  1.00  0.00    -0.354 N 
ATOM     41  C   UNL A   1      40.038  28.679  29.649  1.00  0.00     0.074 A 
ATOM     42  C   UNL A   1      38.982  27.701  29.797  1.00  0.00     0.031 C 
ATOM     43  C   UNL A   1      44.537  25.374  26.470  1.00  0.00     0.029 A 
ATOM     44  C   UNL A   1      44.616  26.759  26.930  1.00  0.00     0.049 A 
ATOM     45  H   UNL A   1      43.164  27.823  27.977  1.00  0.00     0.167 HD
ATOM     46  C   UNL A   1      40.011  29.919  30.189  1.00  0.00     0.037 A 
ATOM     47  C   UNL A   1      45.662  27.589  26.760  1.00  0.00     0.037 A 
ATOM     48  C   UNL A   1      41.067  30.884  30.045  1.00  0.00     0.049 A 
ATOM     49  C   UNL A   1      45.565  29.003  27.266  1.00  0.00     0.074 A 
ATOM     50  C   UNL A   1      41.124  32.185  30.513  1.00  0.00     0.029 A 
ATOM     51  N   UNL A   1      42.261  30.643  29.381  1.00  0.00    -0.354 N 
ATOM     52  N   UNL A   1      44.597  29.576  27.940  1.00  0.00    -0.248 NA
ATOM     53  C   UNL A   1      46.698  29.892  26.972  1.00  0.00     0.031 C 
ATOM     54  C   UNL A   1      42.338  32.744  30.098  1.00  0.00     0.029 A 
ATOM     55  C   UNL A   1      43.053  31.778  29.407  1.00  0.00     0.049 A 
ATOM     56  H   UNL A   1      42.509  29.791  28.955  1.00  0.00     0.167 HD
ATOM     57  C   UNL A   1      45.008  30.882  28.166  1.00  0.00     0.074 A 
ATOM     58  C   UNL A   1      46.321  31.015  27.567  1.00  0.00     0.031 C 
ATOM     59  C   UNL A   1      44.358  31.885  28.806  1.00  0.00     0.037 A 
BRANCH  46  60
ATOM     60  C   UNL A   1      38.766  30.312  30.925  1.00  0.00     0.057 A 
ATOM     61  C   UNL A   1      37.689  30.939  30.286  1.00  0.00     0.134 A 
ATOM     62  C   UNL A   1      38.657  30.078  32.302  1.00  0.00     0.134 A 
ATOM     63  F   UNL A   1      37.741  31.212  28.975  1.00  0.00    -0.206 F 
ATOM     64  C   UNL A   1      36.557  31.344  30.998  1.00  0.00     0.040 A 
ATOM     65  C   UNL A   1      37.522  30.459  33.019  1.00  0.00     0.040 A 
ATOM     66  F   UNL A   1      39.655  29.483  32.972  1.00  0.00    -0.206 F 
ATOM     67  C   UNL A   1      36.471  31.101  32.368  1.00  0.00     0.006 A 
ENDBRANCH  46  60
BRANCH  47  68
ATOM     68  C   UNL A   1      46.870  27.125  26.032  1.00  0.00     0.057 A 
ATOM     69  C   UNL A   1      47.935  26.514  26.704  1.00  0.00     0.134 A 
ATOM     70  C   UNL A   1      47.000  27.305  24.649  1.00  0.00     0.134 A 
ATOM     71  F   UNL A   1      47.884  26.341  28.032  1.00  0.00    -0.206 F 
ATOM     72  C   UNL A   1      49.087  26.106  26.029  1.00  0.00     0.040 A 
ATOM     73  C   UNL A   1      48.137  26.882  23.958  1.00  0.00     0.040 A 
ATOM     74  F   UNL A   1      46.019  27.893  23.947  1.00  0.00    -0.206 F 
ATOM     75  C   UNL A   1      49.187  26.286  24.651  1.00  0.00     0.006 A 
ENDBRANCH  47  68
BRANCH  59  76
ATOM     76  C   UNL A   1      45.067  33.201  28.911  1.00  0.00     0.057 A 
ATOM     77  C   UNL A   1      44.862  34.222  27.975  1.00  0.00     0.134 A 
ATOM     78  C   UNL A   1      45.924  33.466  29.986  1.00  0.00     0.134 A 
ATOM     79  F   UNL A   1      44.062  34.023  26.916  1.00  0.00    -0.206 F 
ATOM     80  C   UNL A   1      45.500  35.456  28.095  1.00  0.00     0.040 A 
ATOM     81  C   UNL A   1      46.551  34.705  30.128  1.00  0.00     0.040 A 
ATOM     82  F   UNL A   1      46.155  32.532  30.921  1.00  0.00    -0.206 F 
ATOM     83  C   UNL A   1      46.341  35.703  29.179  1.00  0.00     0.006 A 
ENDBRANCH  59  76
ENDBRANCH  33  34
ENDBRANCH  26  28
ENDBRANCH  25  26
ENDBRANCH  24  25
ENDBRANCH   1  24
TORSDOF 16
ENDMDL
MODEL 3
REMARK VINA RESULT:     -10.9      3.961      8.968
REMARK SMILES CCOc1ccccc1NC(=O)N[C@@](C)(CC)C(=O)OCCOC(=O)c1ccc(-c2c3nc(c(-c4c(F)cccc4F)c4ccc([nH]4)c(-c4c(F)cccc4F)c4nc(c(-c5c(F)cccc5F)c5ccc2[nH]5)C=C4)C=C3)cc1
REMARK SMILES IDX 21 1 20 2 18 3 19 4 14 5 15 6 13 7 10 8 11 9 12 11 9 13 4 14
REMARK SMILES IDX 5 15 6 16 8 17 7 18 3 19 2 20 1 21 16 22 17 23 22 24 23 25
REMARK SMILES IDX 24 26 25 27 26 28 27 29 79 30 28 31 78 32 29 33 30 34 31 35
REMARK SMILES IDX 72 36 32 37 77 38 71 39 73 40 33 41 76 42 70 43 69 44 34 46
REMARK SMILES IDX 60 47 43 48 59 49 44 50 47 51 58 52 74 53 45 54 46 55 57 57
REMARK SMILES IDX 75 58 48 59 35 60 36 61 41 62 37 63 38 64 40 65 42 66 39 67
REMARK SMILES IDX 61 68 62 69 67 70 63 71 64 72 66 73 68 74 65 75 49 76 50 77
REMARK SMILES IDX 55 78 51 79 52 80 54 81 56 82 53 83
REMARK H PARENT 10 10 13 12 73 45 47 56
REMARK Flexibility Score: inf
ROOT
ATOM      1  C   UNL A   1      31.423  28.934  25.228  1.00  0.00     0.274 C 
ENDROOT
BRANCH   1   2
ATOM      2  O   UNL A   1      31.810  27.537  25.177  1.00  0.00    -0.460 OA
BRANCH   2   3
ATOM      3  C   UNL A   1      31.091  26.739  26.007  1.00  0.00     0.331 C 
ATOM      4  O   UNL A   1      31.078  26.905  27.211  1.00  0.00    -0.249 OA
BRANCH   3   5
ATOM      5  C   UNL A   1      30.225  25.664  25.314  1.00  0.00     0.136 C 
ATOM      6  C   UNL A   1      30.839  25.043  24.051  1.00  0.00     0.047 C 
BRANCH   5   7
ATOM      7  N   UNL A   1      29.915  24.561  26.278  1.00  0.00    -0.322 N 
ATOM      8  N   UNL A   1      31.971  23.539  26.911  1.00  0.00    -0.305 N 
ATOM      9  C   UNL A   1      30.622  23.564  26.869  1.00  0.00     0.320 C 
ATOM     10  H   UNL A   1      32.320  23.429  27.825  1.00  0.00     0.172 HD
ATOM     11  O   UNL A   1      29.987  22.824  27.627  1.00  0.00    -0.248 OA
ATOM     12  H   UNL A   1      28.969  24.558  26.550  1.00  0.00     0.166 HD
BRANCH   8  13
ATOM     13  C   UNL A   1      32.992  23.634  25.949  1.00  0.00     0.085 A 
ATOM     14  C   UNL A   1      33.015  22.672  24.918  1.00  0.00     0.142 A 
ATOM     15  C   UNL A   1      34.050  22.640  23.985  1.00  0.00     0.048 A 
ATOM     16  C   UNL A   1      35.058  23.599  24.052  1.00  0.00     0.004 A 
ATOM     17  C   UNL A   1      33.952  24.635  25.948  1.00  0.00     0.030 A 
ATOM     18  C   UNL A   1      34.999  24.603  25.021  1.00  0.00     0.002 A 
BRANCH  14  19
ATOM     19  O   UNL A   1      32.125  21.630  24.970  1.00  0.00    -0.492 OA
BRANCH  19  20
ATOM     20  C   UNL A   1      32.721  20.405  25.395  1.00  0.00     0.226 C 
ATOM     21  C   UNL A   1      32.532  19.413  24.261  1.00  0.00     0.049 C 
ENDBRANCH  19  20
ENDBRANCH  14  19
ENDBRANCH   8  13
ENDBRANCH   5   7
BRANCH   5  22
ATOM     22  C   UNL A   1      28.890  26.338  24.845  1.00  0.00     0.037 C 
ATOM     23  C   UNL A   1      28.874  27.036  23.492  1.00  0.00     0.007 C 
ENDBRANCH   5  22
ENDBRANCH   3   5
ENDBRANCH   2   3
ENDBRANCH   1   2
BRANCH   1  24
ATOM     24  C   UNL A   1      32.519  29.947  25.628  1.00  0.00     0.275 C 
BRANCH  24  25
ATOM     25  O   UNL A   1      32.384  30.430  26.985  1.00  0.00    -0.458 OA
BRANCH  25  26
ATOM     26  C   UNL A   1      33.097  31.541  27.294  1.00  0.00     0.338 C 
ATOM     27  O   UNL A   1      32.664  32.682  27.377  1.00  0.00    -0.246 OA
BRANCH  26  28
ATOM     28  C   UNL A   1      34.497  31.223  27.655  1.00  0.00     0.060 A 
ATOM     29  C   UNL A   1      34.810  29.892  27.959  1.00  0.00     0.016 A 
ATOM     30  C   UNL A   1      35.439  32.220  27.899  1.00  0.00     0.016 A 
ATOM     31  C   UNL A   1      36.031  29.538  28.517  1.00  0.00     0.010 A 
ATOM     32  C   UNL A   1      36.668  31.873  28.484  1.00  0.00     0.010 A 
ATOM     33  C   UNL A   1      36.952  30.536  28.828  1.00  0.00    -0.014 A 
BRANCH  33  34
ATOM     34  C   UNL A   1      38.101  30.191  29.698  1.00  0.00     0.031 A 
ATOM     35  C   UNL A   1      39.171  29.295  29.145  1.00  0.00     0.074 A 
ATOM     36  C   UNL A   1      38.246  30.738  30.917  1.00  0.00     0.049 A 
ATOM     37  N   UNL A   1      40.208  28.767  29.744  1.00  0.00    -0.248 NA
ATOM     38  C   UNL A   1      39.066  28.961  27.714  1.00  0.00     0.031 C 
ATOM     39  C   UNL A   1      37.359  31.737  31.507  1.00  0.00     0.029 A 
ATOM     40  N   UNL A   1      39.206  30.531  31.876  1.00  0.00    -0.354 N 
ATOM     41  C   UNL A   1      40.861  28.018  28.773  1.00  0.00     0.074 A 
ATOM     42  C   UNL A   1      40.107  28.159  27.546  1.00  0.00     0.031 C 
ATOM     43  C   UNL A   1      37.805  32.045  32.737  1.00  0.00     0.029 A 
ATOM     44  C   UNL A   1      38.979  31.229  33.036  1.00  0.00     0.049 A 
ATOM     45  H   UNL A   1      39.981  29.939  31.745  1.00  0.00     0.167 HD
ATOM     46  C   UNL A   1      41.983  27.273  28.897  1.00  0.00     0.037 A 
ATOM     47  C   UNL A   1      39.627  31.183  34.216  1.00  0.00     0.037 A 
ATOM     48  C   UNL A   1      42.733  27.143  30.118  1.00  0.00     0.049 A 
ATOM     49  C   UNL A   1      40.804  30.258  34.368  1.00  0.00     0.074 A 
ATOM     50  C   UNL A   1      43.858  26.378  30.367  1.00  0.00     0.029 A 
ATOM     51  N   UNL A   1      42.427  27.805  31.298  1.00  0.00    -0.354 N 
ATOM     52  N   UNL A   1      41.375  29.489  33.472  1.00  0.00    -0.248 NA
ATOM     53  C   UNL A   1      41.417  30.178  35.702  1.00  0.00     0.031 C 
ATOM     54  C   UNL A   1      44.211  26.549  31.710  1.00  0.00     0.029 A 
ATOM     55  C   UNL A   1      43.329  27.450  32.286  1.00  0.00     0.049 A 
ATOM     56  H   UNL A   1      41.679  28.434  31.415  1.00  0.00     0.167 HD
ATOM     57  C   UNL A   1      42.420  28.850  34.124  1.00  0.00     0.074 A 
ATOM     58  C   UNL A   1      42.414  29.330  35.491  1.00  0.00     0.031 C 
ATOM     59  C   UNL A   1      43.304  27.944  33.638  1.00  0.00     0.037 A 
BRANCH  46  60
ATOM     60  C   UNL A   1      42.418  26.493  27.694  1.00  0.00     0.057 A 
ATOM     61  C   UNL A   1      43.271  27.034  26.723  1.00  0.00     0.134 A 
ATOM     62  C   UNL A   1      41.952  25.187  27.494  1.00  0.00     0.134 A 
ATOM     63  F   UNL A   1      43.733  28.286  26.845  1.00  0.00    -0.206 F 
ATOM     64  C   UNL A   1      43.625  26.310  25.582  1.00  0.00     0.040 A 
ATOM     65  C   UNL A   1      42.316  24.448  26.368  1.00  0.00     0.040 A 
ATOM     66  F   UNL A   1      41.130  24.614  28.386  1.00  0.00    -0.206 F 
ATOM     67  C   UNL A   1      43.149  25.012  25.405  1.00  0.00     0.006 A 
ENDBRANCH  46  60
BRANCH  47  68
ATOM     68  C   UNL A   1      39.148  31.996  35.362  1.00  0.00     0.057 A 
ATOM     69  C   UNL A   1      39.552  33.325  35.532  1.00  0.00     0.134 A 
ATOM     70  C   UNL A   1      38.292  31.454  36.331  1.00  0.00     0.134 A 
ATOM     71  F   UNL A   1      40.394  33.891  34.656  1.00  0.00    -0.206 F 
ATOM     72  C   UNL A   1      39.130  34.083  36.626  1.00  0.00     0.040 A 
ATOM     73  C   UNL A   1      37.845  32.207  37.417  1.00  0.00     0.040 A 
ATOM     74  F   UNL A   1      37.876  30.183  36.231  1.00  0.00    -0.206 F 
ATOM     75  C   UNL A   1      38.269  33.524  37.570  1.00  0.00     0.006 A 
ENDBRANCH  47  68
BRANCH  59  76
ATOM     76  C   UNL A   1      44.348  27.433  34.585  1.00  0.00     0.057 A 
ATOM     77  C   UNL A   1      45.543  28.127  34.805  1.00  0.00     0.134 A 
ATOM     78  C   UNL A   1      44.131  26.260  35.319  1.00  0.00     0.134 A 
ATOM     79  F   UNL A   1      45.812  29.250  34.121  1.00  0.00    -0.206 F 
ATOM     80  C   UNL A   1      46.497  27.664  35.711  1.00  0.00     0.040 A 
ATOM     81  C   UNL A   1      45.069  25.798  36.245  1.00  0.00     0.040 A 
ATOM     82  F   UNL A   1      43.003  25.553  35.160  1.00  0.00    -0.206 F 
ATOM     83  C   UNL A   1      46.257  26.500  36.440  1.00  0.00     0.006 A 
ENDBRANCH  59  76
ENDBRANCH  33  34
ENDBRANCH  26  28
ENDBRANCH  25  26
ENDBRANCH  24  25
ENDBRANCH   1  24
TORSDOF 16
ENDMDL
