MODEL 1
REMARK VINA RESULT:     -11.5      0.000      0.000
REMARK SMILES O=C(OCCOC(=O)c1cccc2nc(Cl)c(Cl)nc12)c1ccc(-c2c3nc(c(-c4c(F)cccc4F)c4ccc([nH]4)c(-c4c(F)cccc4F)c4nc(c(-c5c(F)cccc5F)c5ccc2[nH]5)C=C4)C=C3)cc1
REMARK SMILES IDX 4 1 3 2 2 3 1 4 21 5 22 6 74 7 23 8 73 9 24 10 25 11 26 12
REMARK SMILES IDX 67 13 27 14 72 15 66 16 68 17 28 18 71 19 65 20 64 21 29 23
REMARK SMILES IDX 55 24 38 25 54 26 39 27 42 28 53 29 69 30 40 31 41 32 52 34
REMARK SMILES IDX 70 35 43 36 30 37 31 38 36 39 32 40 33 41 35 42 37 43 34 44
REMARK SMILES IDX 56 45 57 46 62 47 58 48 59 49 61 50 63 51 60 52 44 53 45 54
REMARK SMILES IDX 50 55 46 56 47 57 49 58 51 59 48 60 5 61 6 62 7 63 8 64 9 65
REMARK SMILES IDX 10 66 20 67 11 68 13 69 19 70 12 71 14 72 17 73 15 74 18 75
REMARK SMILES IDX 16 76
REMARK H PARENT 68 22 42 33
REMARK Flexibility Score: inf
ROOT
ATOM      1  C   UNL A   1      31.797  32.436  27.060  1.00  0.00     0.275 C 
ENDROOT
BRANCH   1   2
ATOM      2  O   UNL A   1      32.571  33.642  27.165  1.00  0.00    -0.458 OA
BRANCH   2   3
ATOM      3  C   UNL A   1      33.078  34.181  28.302  1.00  0.00     0.338 C 
ATOM      4  O   UNL A   1      32.619  35.225  28.756  1.00  0.00    -0.246 OA
BRANCH   3   5
ATOM      5  C   UNL A   1      34.341  33.656  28.892  1.00  0.00     0.060 A 
ATOM      6  C   UNL A   1      34.198  32.818  30.006  1.00  0.00     0.016 A 
ATOM      7  C   UNL A   1      35.628  33.904  28.411  1.00  0.00     0.016 A 
ATOM      8  C   UNL A   1      35.314  32.360  30.708  1.00  0.00     0.010 A 
ATOM      9  C   UNL A   1      36.752  33.430  29.096  1.00  0.00     0.010 A 
ATOM     10  C   UNL A   1      36.604  32.668  30.258  1.00  0.00    -0.014 A 
BRANCH  10  11
ATOM     11  C   UNL A   1      37.774  31.971  30.834  1.00  0.00     0.031 A 
ATOM     12  C   UNL A   1      38.400  30.761  30.213  1.00  0.00     0.074 A 
ATOM     13  C   UNL A   1      38.224  32.434  32.013  1.00  0.00     0.049 A 
ATOM     14  N   UNL A   1      39.528  30.174  30.524  1.00  0.00    -0.248 NA
ATOM     15  C   UNL A   1      37.696  30.135  29.087  1.00  0.00     0.031 C 
ATOM     16  C   UNL A   1      37.644  33.563  32.745  1.00  0.00     0.029 A 
ATOM     17  N   UNL A   1      39.230  31.987  32.822  1.00  0.00    -0.354 N 
ATOM     18  C   UNL A   1      39.728  29.196  29.561  1.00  0.00     0.074 A 
ATOM     19  C   UNL A   1      38.566  29.211  28.698  1.00  0.00     0.031 C 
ATOM     20  C   UNL A   1      38.279  33.697  33.915  1.00  0.00     0.029 A 
ATOM     21  C   UNL A   1      39.272  32.638  34.027  1.00  0.00     0.049 A 
ATOM     22  H   UNL A   1      39.858  31.274  32.566  1.00  0.00     0.167 HD
ATOM     23  C   UNL A   1      40.787  28.364  29.417  1.00  0.00     0.037 A 
ATOM     24  C   UNL A   1      39.991  32.371  35.128  1.00  0.00     0.037 A 
ATOM     25  C   UNL A   1      41.792  28.182  30.434  1.00  0.00     0.049 A 
ATOM     26  C   UNL A   1      40.986  31.256  35.077  1.00  0.00     0.074 A 
ATOM     27  C   UNL A   1      42.882  27.330  30.445  1.00  0.00     0.029 A 
ATOM     28  N   UNL A   1      41.758  28.798  31.679  1.00  0.00    -0.354 N 
ATOM     29  N   UNL A   1      41.297  30.477  34.069  1.00  0.00    -0.248 NA
ATOM     30  C   UNL A   1      41.729  30.984  36.310  1.00  0.00     0.031 C 
ATOM     31  C   UNL A   1      43.429  27.342  31.737  1.00  0.00     0.029 A 
ATOM     32  C   UNL A   1      42.729  28.260  32.506  1.00  0.00     0.049 A 
ATOM     33  H   UNL A   1      41.133  29.514  31.936  1.00  0.00     0.167 HD
ATOM     34  C   UNL A   1      42.276  29.618  34.542  1.00  0.00     0.074 A 
ATOM     35  C   UNL A   1      42.523  29.995  35.922  1.00  0.00     0.031 C 
ATOM     36  C   UNL A   1      42.914  28.610  33.895  1.00  0.00     0.037 A 
BRANCH  23  37
ATOM     37  C   UNL A   1      40.856  27.552  28.155  1.00  0.00     0.057 A 
ATOM     38  C   UNL A   1      40.238  26.300  28.056  1.00  0.00     0.134 A 
ATOM     39  C   UNL A   1      41.549  28.018  27.029  1.00  0.00     0.134 A 
ATOM     40  F   UNL A   1      39.555  25.795  29.093  1.00  0.00    -0.206 F 
ATOM     41  C   UNL A   1      40.300  25.545  26.882  1.00  0.00     0.040 A 
ATOM     42  C   UNL A   1      41.610  27.277  25.845  1.00  0.00     0.040 A 
ATOM     43  F   UNL A   1      42.154  29.216  27.048  1.00  0.00    -0.206 F 
ATOM     44  C   UNL A   1      40.983  26.035  25.770  1.00  0.00     0.006 A 
ENDBRANCH  23  37
BRANCH  24  45
ATOM     45  C   UNL A   1      39.723  33.154  36.355  1.00  0.00     0.057 A 
ATOM     46  C   UNL A   1      38.695  32.776  37.233  1.00  0.00     0.134 A 
ATOM     47  C   UNL A   1      40.403  34.341  36.626  1.00  0.00     0.134 A 
ATOM     48  F   UNL A   1      37.993  31.655  37.013  1.00  0.00    -0.206 F 
ATOM     49  C   UNL A   1      38.335  33.570  38.321  1.00  0.00     0.040 A 
ATOM     50  C   UNL A   1      40.070  35.133  37.726  1.00  0.00     0.040 A 
ATOM     51  F   UNL A   1      41.397  34.747  35.823  1.00  0.00    -0.206 F 
ATOM     52  C   UNL A   1      39.025  34.754  38.569  1.00  0.00     0.006 A 
ENDBRANCH  24  45
BRANCH  36  53
ATOM     53  C   UNL A   1      43.905  27.827  34.703  1.00  0.00     0.057 A 
ATOM     54  C   UNL A   1      43.534  26.636  35.338  1.00  0.00     0.134 A 
ATOM     55  C   UNL A   1      45.235  28.251  34.840  1.00  0.00     0.134 A 
ATOM     56  F   UNL A   1      42.277  26.179  35.251  1.00  0.00    -0.206 F 
ATOM     57  C   UNL A   1      44.453  25.892  36.080  1.00  0.00     0.040 A 
ATOM     58  C   UNL A   1      46.168  27.498  35.552  1.00  0.00     0.040 A 
ATOM     59  F   UNL A   1      45.656  29.373  34.238  1.00  0.00    -0.206 F 
ATOM     60  C   UNL A   1      45.776  26.317  36.179  1.00  0.00     0.006 A 
ENDBRANCH  36  53
ENDBRANCH  10  11
ENDBRANCH   3   5
ENDBRANCH   2   3
ENDBRANCH   1   2
BRANCH   1  61
ATOM     61  C   UNL A   1      32.609  31.142  27.166  1.00  0.00     0.275 C 
BRANCH  61  62
ATOM     62  O   UNL A   1      32.507  30.300  26.006  1.00  0.00    -0.458 OA
BRANCH  62  63
ATOM     63  C   UNL A   1      31.823  29.136  26.179  1.00  0.00     0.340 C 
ATOM     64  O   UNL A   1      31.470  28.648  27.239  1.00  0.00    -0.246 OA
BRANCH  63  65
ATOM     65  C   UNL A   1      31.606  28.516  24.858  1.00  0.00     0.088 A 
ATOM     66  C   UNL A   1      32.374  27.395  24.515  1.00  0.00     0.018 A 
ATOM     67  C   UNL A   1      30.675  29.076  23.973  1.00  0.00     0.105 A 
ATOM     68  C   UNL A   1      32.226  26.823  23.259  1.00  0.00     0.003 A 
ATOM     69  C   UNL A   1      30.580  28.503  22.674  1.00  0.00     0.091 A 
ATOM     70  N   UNL A   1      29.932  30.169  24.281  1.00  0.00    -0.230 NA
ATOM     71  C   UNL A   1      31.348  27.397  22.345  1.00  0.00     0.031 A 
ATOM     72  N   UNL A   1      29.795  29.024  21.715  1.00  0.00    -0.231 NA
ATOM     73  C   UNL A   1      29.134  30.678  23.310  1.00  0.00     0.167 A 
ATOM     74  C   UNL A   1      29.079  30.123  22.045  1.00  0.00     0.167 A 
ATOM     75  Cl  UNL A   1      28.275  32.084  23.780  1.00  0.00    -0.059 Cl
ATOM     76  Cl  UNL A   1      28.163  30.763  20.744  1.00  0.00    -0.059 Cl
ENDBRANCH  63  65
ENDBRANCH  62  63
ENDBRANCH  61  62
ENDBRANCH   1  61
TORSDOF 11
ENDMDL
MODEL 2
REMARK VINA RESULT:     -11.4      5.857     10.272
REMARK SMILES O=C(OCCOC(=O)c1cccc2nc(Cl)c(Cl)nc12)c1ccc(-c2c3nc(c(-c4c(F)cccc4F)c4ccc([nH]4)c(-c4c(F)cccc4F)c4nc(c(-c5c(F)cccc5F)c5ccc2[nH]5)C=C4)C=C3)cc1
REMARK SMILES IDX 4 1 3 2 2 3 1 4 21 5 22 6 74 7 23 8 73 9 24 10 25 11 26 12
REMARK SMILES IDX 67 13 27 14 72 15 66 16 68 17 28 18 71 19 65 20 64 21 29 23
REMARK SMILES IDX 55 24 38 25 54 26 39 27 42 28 53 29 69 30 40 31 41 32 52 34
REMARK SMILES IDX 70 35 43 36 30 37 31 38 36 39 32 40 33 41 35 42 37 43 34 44
REMARK SMILES IDX 56 45 57 46 62 47 58 48 59 49 61 50 63 51 60 52 44 53 45 54
REMARK SMILES IDX 50 55 46 56 47 57 49 58 51 59 48 60 5 61 6 62 7 63 8 64 9 65
REMARK SMILES IDX 10 66 20 67 11 68 13 69 19 70 12 71 14 72 17 73 15 74 18 75
REMARK SMILES IDX 16 76
REMARK H PARENT 68 22 42 33
REMARK Flexibility Score: inf
ROOT
ATOM      1  C   UNL A   1      38.717  19.925  25.030  1.00  0.00     0.275 C 
ENDROOT
BRANCH   1   2
ATOM      2  O   UNL A   1      39.658  19.210  25.847  1.00  0.00    -0.458 OA
BRANCH   2   3
ATOM      3  C   UNL A   1      40.988  19.458  25.954  1.00  0.00     0.338 C 
ATOM      4  O   UNL A   1      41.805  18.556  25.796  1.00  0.00    -0.246 OA
BRANCH   3   5
ATOM      5  C   UNL A   1      41.475  20.759  26.491  1.00  0.00     0.060 A 
ATOM      6  C   UNL A   1      42.060  21.629  25.560  1.00  0.00     0.016 A 
ATOM      7  C   UNL A   1      41.369  21.183  27.817  1.00  0.00     0.016 A 
ATOM      8  C   UNL A   1      42.651  22.825  25.968  1.00  0.00     0.010 A 
ATOM      9  C   UNL A   1      41.940  22.390  28.230  1.00  0.00     0.010 A 
ATOM     10  C   UNL A   1      42.599  23.213  27.313  1.00  0.00    -0.014 A 
BRANCH  10  11
ATOM     11  C   UNL A   1      42.982  24.588  27.700  1.00  0.00     0.031 A 
ATOM     12  C   UNL A   1      41.994  25.696  27.891  1.00  0.00     0.074 A 
ATOM     13  C   UNL A   1      44.300  24.832  27.808  1.00  0.00     0.049 A 
ATOM     14  N   UNL A   1      42.189  26.886  28.400  1.00  0.00    -0.248 NA
ATOM     15  C   UNL A   1      40.606  25.443  27.486  1.00  0.00     0.031 C 
ATOM     16  C   UNL A   1      45.357  23.844  27.573  1.00  0.00     0.029 A 
ATOM     17  N   UNL A   1      44.973  25.988  28.087  1.00  0.00    -0.354 N 
ATOM     18  C   UNL A   1      40.936  27.473  28.491  1.00  0.00     0.074 A 
ATOM     19  C   UNL A   1      39.992  26.542  27.910  1.00  0.00     0.031 C 
ATOM     20  C   UNL A   1      46.547  24.445  27.681  1.00  0.00     0.029 A 
ATOM     21  C   UNL A   1      46.330  25.860  27.945  1.00  0.00     0.049 A 
ATOM     22  H   UNL A   1      44.530  26.823  28.363  1.00  0.00     0.167 HD
ATOM     23  C   UNL A   1      40.609  28.680  29.012  1.00  0.00     0.037 A 
ATOM     24  C   UNL A   1      47.291  26.796  27.963  1.00  0.00     0.037 A 
ATOM     25  C   UNL A   1      41.585  29.692  29.330  1.00  0.00     0.049 A 
ATOM     26  C   UNL A   1      46.907  28.208  28.266  1.00  0.00     0.074 A 
ATOM     27  C   UNL A   1      41.390  30.977  29.805  1.00  0.00     0.029 A 
ATOM     28  N   UNL A   1      42.947  29.559  29.095  1.00  0.00    -0.354 N 
ATOM     29  N   UNL A   1      45.724  28.695  28.555  1.00  0.00    -0.248 NA
ATOM     30  C   UNL A   1      47.986  29.200  28.250  1.00  0.00     0.031 C 
ATOM     31  C   UNL A   1      42.617  31.654  29.738  1.00  0.00     0.029 A 
ATOM     32  C   UNL A   1      43.590  30.769  29.298  1.00  0.00     0.049 A 
ATOM     33  H   UNL A   1      43.393  28.724  28.822  1.00  0.00     0.167 HD
ATOM     34  C   UNL A   1      45.911  30.052  28.756  1.00  0.00     0.074 A 
ATOM     35  C   UNL A   1      47.330  30.303  28.583  1.00  0.00     0.031 C 
ATOM     36  C   UNL A   1      44.993  31.006  29.059  1.00  0.00     0.037 A 
BRANCH  23  37
ATOM     37  C   UNL A   1      39.148  28.978  29.191  1.00  0.00     0.057 A 
ATOM     38  C   UNL A   1      38.504  28.772  30.417  1.00  0.00     0.134 A 
ATOM     39  C   UNL A   1      38.372  29.469  28.131  1.00  0.00     0.134 A 
ATOM     40  F   UNL A   1      39.187  28.308  31.473  1.00  0.00    -0.206 F 
ATOM     41  C   UNL A   1      37.145  29.050  30.585  1.00  0.00     0.040 A 
ATOM     42  C   UNL A   1      37.014  29.761  28.289  1.00  0.00     0.040 A 
ATOM     43  F   UNL A   1      38.926  29.703  26.932  1.00  0.00    -0.206 F 
ATOM     44  C   UNL A   1      36.397  29.551  29.521  1.00  0.00     0.006 A 
ENDBRANCH  23  37
BRANCH  24  45
ATOM     45  C   UNL A   1      48.675  26.394  27.624  1.00  0.00     0.057 A 
ATOM     46  C   UNL A   1      49.122  26.422  26.294  1.00  0.00     0.134 A 
ATOM     47  C   UNL A   1      49.542  25.881  28.589  1.00  0.00     0.134 A 
ATOM     48  F   UNL A   1      48.325  26.886  25.320  1.00  0.00    -0.206 F 
ATOM     49  C   UNL A   1      50.371  25.921  25.932  1.00  0.00     0.040 A 
ATOM     50  C   UNL A   1      50.807  25.401  28.244  1.00  0.00     0.040 A 
ATOM     51  F   UNL A   1      49.170  25.836  29.875  1.00  0.00    -0.206 F 
ATOM     52  C   UNL A   1      51.219  25.409  26.911  1.00  0.00     0.006 A 
ENDBRANCH  24  45
BRANCH  36  53
ATOM     53  C   UNL A   1      45.510  32.409  29.173  1.00  0.00     0.057 A 
ATOM     54  C   UNL A   1      45.482  33.278  28.076  1.00  0.00     0.134 A 
ATOM     55  C   UNL A   1      46.025  32.903  30.380  1.00  0.00     0.134 A 
ATOM     56  F   UNL A   1      45.006  32.866  26.892  1.00  0.00    -0.206 F 
ATOM     57  C   UNL A   1      45.946  34.590  28.176  1.00  0.00     0.040 A 
ATOM     58  C   UNL A   1      46.462  34.222  30.499  1.00  0.00     0.040 A 
ATOM     59  F   UNL A   1      46.061  32.126  31.473  1.00  0.00    -0.206 F 
ATOM     60  C   UNL A   1      46.427  35.068  29.393  1.00  0.00     0.006 A 
ENDBRANCH  36  53
ENDBRANCH  10  11
ENDBRANCH   3   5
ENDBRANCH   2   3
ENDBRANCH   1   2
BRANCH   1  61
ATOM     61  C   UNL A   1      38.337  21.312  25.558  1.00  0.00     0.275 C 
BRANCH  61  62
ATOM     62  O   UNL A   1      36.925  21.486  25.759  1.00  0.00    -0.458 OA
BRANCH  62  63
ATOM     63  C   UNL A   1      36.207  21.824  24.652  1.00  0.00     0.340 C 
ATOM     64  O   UNL A   1      36.630  22.369  23.647  1.00  0.00    -0.246 OA
BRANCH  63  65
ATOM     65  C   UNL A   1      34.796  21.459  24.877  1.00  0.00     0.088 A 
ATOM     66  C   UNL A   1      34.416  20.123  24.687  1.00  0.00     0.018 A 
ATOM     67  C   UNL A   1      33.871  22.449  25.236  1.00  0.00     0.105 A 
ATOM     68  C   UNL A   1      33.084  19.763  24.842  1.00  0.00     0.003 A 
ATOM     69  C   UNL A   1      32.506  22.063  25.338  1.00  0.00     0.091 A 
ATOM     70  N   UNL A   1      34.216  23.750  25.412  1.00  0.00    -0.230 NA
ATOM     71  C   UNL A   1      32.141  20.740  25.143  1.00  0.00     0.031 A 
ATOM     72  N   UNL A   1      31.524  22.951  25.576  1.00  0.00    -0.231 NA
ATOM     73  C   UNL A   1      33.220  24.634  25.663  1.00  0.00     0.167 A 
ATOM     74  C   UNL A   1      31.896  24.242  25.729  1.00  0.00     0.167 A 
ATOM     75  Cl  UNL A   1      33.750  26.255  25.821  1.00  0.00    -0.059 Cl
ATOM     76  Cl  UNL A   1      30.577  25.315  25.956  1.00  0.00    -0.059 Cl
ENDBRANCH  63  65
ENDBRANCH  62  63
ENDBRANCH  61  62
ENDBRANCH   1  61
TORSDOF 11
ENDMDL
MODEL 3
REMARK VINA RESULT:     -11.2      4.687      9.364
REMARK SMILES O=C(OCCOC(=O)c1cccc2nc(Cl)c(Cl)nc12)c1ccc(-c2c3nc(c(-c4c(F)cccc4F)c4ccc([nH]4)c(-c4c(F)cccc4F)c4nc(c(-c5c(F)cccc5F)c5ccc2[nH]5)C=C4)C=C3)cc1
REMARK SMILES IDX 4 1 3 2 2 3 1 4 21 5 22 6 74 7 23 8 73 9 24 10 25 11 26 12
REMARK SMILES IDX 67 13 27 14 72 15 66 16 68 17 28 18 71 19 65 20 64 21 29 23
REMARK SMILES IDX 55 24 38 25 54 26 39 27 42 28 53 29 69 30 40 31 41 32 52 34
REMARK SMILES IDX 70 35 43 36 30 37 31 38 36 39 32 40 33 41 35 42 37 43 34 44
REMARK SMILES IDX 56 45 57 46 62 47 58 48 59 49 61 50 63 51 60 52 44 53 45 54
REMARK SMILES IDX 50 55 46 56 47 57 49 58 51 59 48 60 5 61 6 62 7 63 8 64 9 65
REMARK SMILES IDX 10 66 20 67 11 68 13 69 19 70 12 71 14 72 17 73 15 74 18 75
REMARK SMILES IDX 16 76
REMARK H PARENT 68 22 42 33
REMARK Flexibility Score: inf
ROOT
ATOM      1  C   UNL A   1      35.317  32.907  28.613  1.00  0.00     0.275 C 
ENDROOT
BRANCH   1   2
ATOM      2  O   UNL A   1      34.461  31.778  28.377  1.00  0.00    -0.458 OA
BRANCH   2   3
ATOM      3  C   UNL A   1      34.852  30.520  28.050  1.00  0.00     0.338 C 
ATOM      4  O   UNL A   1      34.048  29.719  27.584  1.00  0.00    -0.246 OA
BRANCH   3   5
ATOM      5  C   UNL A   1      36.190  30.012  28.462  1.00  0.00     0.060 A 
ATOM      6  C   UNL A   1      37.193  30.057  27.483  1.00  0.00     0.016 A 
ATOM      7  C   UNL A   1      36.523  29.533  29.730  1.00  0.00     0.016 A 
ATOM      8  C   UNL A   1      38.452  29.505  27.721  1.00  0.00     0.010 A 
ATOM      9  C   UNL A   1      37.790  28.997  29.983  1.00  0.00     0.010 A 
ATOM     10  C   UNL A   1      38.759  28.965  28.977  1.00  0.00    -0.014 A 
BRANCH  10  11
ATOM     11  C   UNL A   1      40.159  28.627  29.313  1.00  0.00     0.031 A 
ATOM     12  C   UNL A   1      41.114  29.599  29.935  1.00  0.00     0.074 A 
ATOM     13  C   UNL A   1      40.578  27.399  28.963  1.00  0.00     0.049 A 
ATOM     14  N   UNL A   1      42.301  29.370  30.437  1.00  0.00    -0.248 NA
ATOM     15  C   UNL A   1      40.688  31.000  30.033  1.00  0.00     0.031 C 
ATOM     16  C   UNL A   1      39.753  26.394  28.286  1.00  0.00     0.029 A 
ATOM     17  N   UNL A   1      41.804  26.808  29.078  1.00  0.00    -0.354 N 
ATOM     18  C   UNL A   1      42.707  30.562  31.017  1.00  0.00     0.074 A 
ATOM     19  C   UNL A   1      41.676  31.539  30.737  1.00  0.00     0.031 C 
ATOM     20  C   UNL A   1      40.507  25.324  28.011  1.00  0.00     0.029 A 
ATOM     21  C   UNL A   1      41.869  25.591  28.451  1.00  0.00     0.049 A 
ATOM     22  H   UNL A   1      42.560  27.212  29.561  1.00  0.00     0.167 HD
ATOM     23  C   UNL A   1      43.839  30.812  31.718  1.00  0.00     0.037 A 
ATOM     24  C   UNL A   1      42.926  24.804  28.201  1.00  0.00     0.037 A 
ATOM     25  C   UNL A   1      44.963  29.911  31.749  1.00  0.00     0.049 A 
ATOM     26  C   UNL A   1      44.261  25.211  28.737  1.00  0.00     0.074 A 
ATOM     27  C   UNL A   1      46.192  30.065  32.366  1.00  0.00     0.029 A 
ATOM     28  N   UNL A   1      45.026  28.722  31.033  1.00  0.00    -0.354 N 
ATOM     29  N   UNL A   1      44.570  26.255  29.468  1.00  0.00    -0.248 NA
ATOM     30  C   UNL A   1      45.391  24.334  28.418  1.00  0.00     0.031 C 
ATOM     31  C   UNL A   1      47.033  29.034  31.922  1.00  0.00     0.029 A 
ATOM     32  C   UNL A   1      46.305  28.194  31.092  1.00  0.00     0.049 A 
ATOM     33  H   UNL A   1      44.270  28.314  30.551  1.00  0.00     0.167 HD
ATOM     34  C   UNL A   1      45.933  26.164  29.701  1.00  0.00     0.074 A 
ATOM     35  C   UNL A   1      46.381  24.945  29.054  1.00  0.00     0.031 C 
ATOM     36  C   UNL A   1      46.741  27.011  30.389  1.00  0.00     0.037 A 
BRANCH  23  37
ATOM     37  C   UNL A   1      43.928  32.131  32.431  1.00  0.00     0.057 A 
ATOM     38  C   UNL A   1      43.461  32.288  33.741  1.00  0.00     0.134 A 
ATOM     39  C   UNL A   1      44.477  33.260  31.805  1.00  0.00     0.134 A 
ATOM     40  F   UNL A   1      42.926  31.250  34.400  1.00  0.00    -0.206 F 
ATOM     41  C   UNL A   1      43.543  33.514  34.405  1.00  0.00     0.040 A 
ATOM     42  C   UNL A   1      44.576  34.489  32.462  1.00  0.00     0.040 A 
ATOM     43  F   UNL A   1      44.957  33.179  30.554  1.00  0.00    -0.206 F 
ATOM     44  C   UNL A   1      44.107  34.618  33.768  1.00  0.00     0.006 A 
ENDBRANCH  23  37
BRANCH  24  45
ATOM     45  C   UNL A   1      42.730  23.602  27.359  1.00  0.00     0.057 A 
ATOM     46  C   UNL A   1      42.350  22.380  27.934  1.00  0.00     0.134 A 
ATOM     47  C   UNL A   1      43.015  23.616  25.993  1.00  0.00     0.134 A 
ATOM     48  F   UNL A   1      42.083  22.303  29.246  1.00  0.00    -0.206 F 
ATOM     49  C   UNL A   1      42.291  21.207  27.185  1.00  0.00     0.040 A 
ATOM     50  C   UNL A   1      42.935  22.453  25.225  1.00  0.00     0.040 A 
ATOM     51  F   UNL A   1      43.378  24.756  25.390  1.00  0.00    -0.206 F 
ATOM     52  C   UNL A   1      42.585  21.242  25.823  1.00  0.00     0.006 A 
ENDBRANCH  24  45
BRANCH  36  53
ATOM     53  C   UNL A   1      48.197  26.654  30.426  1.00  0.00     0.057 A 
ATOM     54  C   UNL A   1      49.083  27.148  29.463  1.00  0.00     0.134 A 
ATOM     55  C   UNL A   1      48.720  25.826  31.429  1.00  0.00     0.134 A 
ATOM     56  F   UNL A   1      48.645  27.940  28.474  1.00  0.00    -0.206 F 
ATOM     57  C   UNL A   1      50.443  26.833  29.498  1.00  0.00     0.040 A 
ATOM     58  C   UNL A   1      50.082  25.532  31.492  1.00  0.00     0.040 A 
ATOM     59  F   UNL A   1      47.925  25.337  32.392  1.00  0.00    -0.206 F 
ATOM     60  C   UNL A   1      50.946  26.033  30.520  1.00  0.00     0.006 A 
ENDBRANCH  36  53
ENDBRANCH  10  11
ENDBRANCH   3   5
ENDBRANCH   2   3
ENDBRANCH   1   2
BRANCH   1  61
ATOM     61  C   UNL A   1      34.924  34.178  27.855  1.00  0.00     0.275 C 
BRANCH  61  62
ATOM     62  O   UNL A   1      34.515  35.258  28.710  1.00  0.00    -0.458 OA
BRANCH  62  63
ATOM     63  C   UNL A   1      33.423  35.016  29.487  1.00  0.00     0.340 C 
ATOM     64  O   UNL A   1      32.438  34.367  29.180  1.00  0.00    -0.246 OA
BRANCH  63  65
ATOM     65  C   UNL A   1      33.599  35.713  30.775  1.00  0.00     0.088 A 
ATOM     66  C   UNL A   1      33.155  37.038  30.881  1.00  0.00     0.018 A 
ATOM     67  C   UNL A   1      34.229  35.055  31.840  1.00  0.00     0.105 A 
ATOM     68  C   UNL A   1      33.354  37.733  32.066  1.00  0.00     0.003 A 
ATOM     69  C   UNL A   1      34.467  35.805  33.025  1.00  0.00     0.091 A 
ATOM     70  N   UNL A   1      34.678  33.777  31.754  1.00  0.00    -0.230 NA
ATOM     71  C   UNL A   1      34.028  37.117  33.116  1.00  0.00     0.031 A 
ATOM     72  N   UNL A   1      35.154  35.304  34.067  1.00  0.00    -0.231 NA
ATOM     73  C   UNL A   1      35.358  33.279  32.816  1.00  0.00     0.167 A 
ATOM     74  C   UNL A   1      35.603  34.035  33.945  1.00  0.00     0.167 A 
ATOM     75  Cl  UNL A   1      35.925  31.677  32.590  1.00  0.00    -0.059 Cl
ATOM     76  Cl  UNL A   1      36.529  33.502  35.288  1.00  0.00    -0.059 Cl
ENDBRANCH  63  65
ENDBRANCH  62  63
ENDBRANCH  61  62
ENDBRANCH   1  61
TORSDOF 11
ENDMDL
