MODEL 1
REMARK VINA RESULT:     -12.1      0.000      0.000
REMARK SMILES Cc1nc(N2CCN(c3ccccc3)CC2)nc(OCC(=O)OCCOC(=O)c2ccc(-c3c4nc(c(-c5c(F)cccc5F)c5ccc([nH]5)c(-c5c(F)cccc5F)c5nc(c(-c6c(F)cccc6F)c6ccc3[nH]6)C=C5)C=C4)cc2)c1C
REMARK SMILES IDX 24 1 23 2 21 3 22 4 20 5 19 6 18 7 1 8 2 9 3 10 83 11 4 12
REMARK SMILES IDX 84 13 17 14 5 15 6 16 16 17 7 18 15 19 8 20 9 21 10 22 14 23
REMARK SMILES IDX 11 24 13 25 12 26 25 27 26 28 27 29 28 30 29 31 30 32 82 33
REMARK SMILES IDX 31 34 81 35 32 36 33 37 34 38 75 39 35 40 80 41 74 42 76 43
REMARK SMILES IDX 36 44 79 45 73 46 72 47 37 49 63 50 46 51 62 52 47 53 50 54
REMARK SMILES IDX 61 55 77 56 48 57 49 58 60 60 78 61 51 62 38 63 39 64 44 65
REMARK SMILES IDX 40 66 41 67 43 68 45 69 42 70 64 71 65 72 70 73 66 74 67 75
REMARK SMILES IDX 69 76 71 77 68 78 52 79 53 80 58 81 54 82 55 83 57 84 59 85
REMARK SMILES IDX 56 86
REMARK H PARENT 76 48 50 59
REMARK Flexibility Score: inf
ROOT
ATOM      1  C   UNL A   1      31.407  29.401  25.359  1.00  0.00     0.274 C 
ENDROOT
BRANCH   1   2
ATOM      2  O   UNL A   1      31.474  28.475  26.466  1.00  0.00    -0.460 OA
BRANCH   2   3
ATOM      3  C   UNL A   1      31.622  27.169  26.121  1.00  0.00     0.344 C 
ATOM      4  O   UNL A   1      30.695  26.380  25.958  1.00  0.00    -0.248 OA
BRANCH   3   5
ATOM      5  C   UNL A   1      33.080  26.707  26.065  1.00  0.00     0.353 C 
BRANCH   5   6
ATOM      6  O   UNL A   1      33.907  26.712  24.935  1.00  0.00    -0.465 OA
BRANCH   6   7
ATOM      7  C   UNL A   1      33.654  25.984  23.825  1.00  0.00     0.221 A 
ATOM      8  C   UNL A   1      32.512  25.650  20.261  1.00  0.00     0.067 C 
ATOM      9  C   UNL A   1      33.011  25.388  21.653  1.00  0.00     0.050 A 
ATOM     10  N   UNL A   1      33.394  24.114  21.871  1.00  0.00    -0.218 NA
ATOM     11  C   UNL A   1      33.036  26.366  22.650  1.00  0.00     0.033 A 
ATOM     12  C   UNL A   1      33.773  23.805  23.107  1.00  0.00     0.229 A 
ATOM     13  C   UNL A   1      32.293  27.650  22.512  1.00  0.00     0.052 C 
ATOM     14  N   UNL A   1      33.966  24.709  24.065  1.00  0.00    -0.177 NA
BRANCH  12  15
ATOM     15  N   UNL A   1      33.832  22.508  23.497  1.00  0.00    -0.337 N 
ATOM     16  C   UNL A   1      35.059  21.885  23.955  1.00  0.00     0.141 C 
ATOM     17  C   UNL A   1      32.802  21.624  22.956  1.00  0.00     0.141 C 
ATOM     18  C   UNL A   1      34.687  20.853  25.053  1.00  0.00     0.138 C 
ATOM     19  C   UNL A   1      32.427  20.572  24.013  1.00  0.00     0.138 C 
ATOM     20  N   UNL A   1      33.644  19.942  24.550  1.00  0.00    -0.368 N 
BRANCH  20  21
ATOM     21  C   UNL A   1      33.672  18.592  24.803  1.00  0.00     0.037 A 
ATOM     22  C   UNL A   1      34.754  17.790  24.431  1.00  0.00     0.026 A 
ATOM     23  C   UNL A   1      32.579  17.978  25.426  1.00  0.00     0.026 A 
ATOM     24  C   UNL A   1      34.744  16.414  24.670  1.00  0.00     0.002 A 
ATOM     25  C   UNL A   1      32.552  16.601  25.650  1.00  0.00     0.002 A 
ATOM     26  C   UNL A   1      33.638  15.818  25.272  1.00  0.00     0.000 A 
ENDBRANCH  20  21
ENDBRANCH  12  15
ENDBRANCH   6   7
ENDBRANCH   5   6
ENDBRANCH   3   5
ENDBRANCH   2   3
ENDBRANCH   1   2
BRANCH   1  27
ATOM     27  C   UNL A   1      31.513  30.854  25.817  1.00  0.00     0.275 C 
BRANCH  27  28
ATOM     28  O   UNL A   1      32.110  30.917  27.124  1.00  0.00    -0.458 OA
BRANCH  28  29
ATOM     29  C   UNL A   1      32.903  31.984  27.355  1.00  0.00     0.338 C 
ATOM     30  O   UNL A   1      32.594  33.163  27.219  1.00  0.00    -0.246 OA
BRANCH  29  31
ATOM     31  C   UNL A   1      34.235  31.568  27.859  1.00  0.00     0.060 A 
ATOM     32  C   UNL A   1      34.581  30.225  28.022  1.00  0.00     0.016 A 
ATOM     33  C   UNL A   1      35.119  32.559  28.298  1.00  0.00     0.016 A 
ATOM     34  C   UNL A   1      35.736  29.882  28.731  1.00  0.00     0.010 A 
ATOM     35  C   UNL A   1      36.321  32.212  28.924  1.00  0.00     0.010 A 
ATOM     36  C   UNL A   1      36.627  30.868  29.183  1.00  0.00    -0.014 A 
BRANCH  36  37
ATOM     37  C   UNL A   1      37.882  30.508  29.902  1.00  0.00     0.031 A 
ATOM     38  C   UNL A   1      38.948  29.667  29.248  1.00  0.00     0.074 A 
ATOM     39  C   UNL A   1      38.069  30.931  31.167  1.00  0.00     0.049 A 
ATOM     40  N   UNL A   1      40.013  29.116  29.778  1.00  0.00    -0.248 NA
ATOM     41  C   UNL A   1      38.800  29.408  27.808  1.00  0.00     0.031 C 
ATOM     42  C   UNL A   1      37.150  31.786  31.920  1.00  0.00     0.029 A 
ATOM     43  N   UNL A   1      39.102  30.704  32.041  1.00  0.00    -0.354 N 
ATOM     44  C   UNL A   1      40.637  28.419  28.751  1.00  0.00     0.074 A 
ATOM     45  C   UNL A   1      39.834  28.614  27.562  1.00  0.00     0.031 C 
ATOM     46  C   UNL A   1      37.685  32.059  33.117  1.00  0.00     0.029 A 
ATOM     47  C   UNL A   1      38.933  31.318  33.257  1.00  0.00     0.049 A 
ATOM     48  H   UNL A   1      39.887  30.154  31.818  1.00  0.00     0.167 HD
ATOM     49  C   UNL A   1      41.774  27.682  28.794  1.00  0.00     0.037 A 
ATOM     50  C   UNL A   1      39.670  31.264  34.381  1.00  0.00     0.037 A 
ATOM     51  C   UNL A   1      42.590  27.507  29.968  1.00  0.00     0.049 A 
ATOM     52  C   UNL A   1      40.875  30.379  34.435  1.00  0.00     0.074 A 
ATOM     53  C   UNL A   1      43.760  26.778  30.107  1.00  0.00     0.029 A 
ATOM     54  N   UNL A   1      42.327  28.075  31.205  1.00  0.00    -0.354 N 
ATOM     55  N   UNL A   1      41.404  29.653  33.481  1.00  0.00    -0.248 NA
ATOM     56  C   UNL A   1      41.560  30.273  35.729  1.00  0.00     0.031 C 
ATOM     57  C   UNL A   1      44.187  26.882  31.436  1.00  0.00     0.029 A 
ATOM     58  C   UNL A   1      43.302  27.701  32.115  1.00  0.00     0.049 A 
ATOM     59  H   UNL A   1      41.560  28.658  31.406  1.00  0.00     0.167 HD
ATOM     60  C   UNL A   1      42.480  28.995  34.060  1.00  0.00     0.074 A 
ATOM     61  C   UNL A   1      42.540  29.424  35.444  1.00  0.00     0.031 C 
ATOM     62  C   UNL A   1      43.335  28.110  33.494  1.00  0.00     0.037 A 
BRANCH  49  63
ATOM     63  C   UNL A   1      42.201  26.983  27.537  1.00  0.00     0.057 A 
ATOM     64  C   UNL A   1      41.819  25.666  27.257  1.00  0.00     0.134 A 
ATOM     65  C   UNL A   1      42.950  27.659  26.566  1.00  0.00     0.134 A 
ATOM     66  F   UNL A   1      41.110  24.959  28.150  1.00  0.00    -0.206 F 
ATOM     67  C   UNL A   1      42.175  25.043  26.058  1.00  0.00     0.040 A 
ATOM     68  C   UNL A   1      43.297  27.054  25.356  1.00  0.00     0.040 A 
ATOM     69  F   UNL A   1      43.344  28.926  26.771  1.00  0.00    -0.206 F 
ATOM     70  C   UNL A   1      42.910  25.740  25.101  1.00  0.00     0.006 A 
ENDBRANCH  49  63
BRANCH  50  71
ATOM     71  C   UNL A   1      39.245  32.063  35.552  1.00  0.00     0.057 A 
ATOM     72  C   UNL A   1      39.654  33.392  35.693  1.00  0.00     0.134 A 
ATOM     73  C   UNL A   1      38.354  31.550  36.502  1.00  0.00     0.134 A 
ATOM     74  F   UNL A   1      40.518  33.929  34.820  1.00  0.00    -0.206 F 
ATOM     75  C   UNL A   1      39.173  34.194  36.729  1.00  0.00     0.040 A 
ATOM     76  C   UNL A   1      37.850  32.345  37.530  1.00  0.00     0.040 A 
ATOM     77  F   UNL A   1      37.922  30.284  36.411  1.00  0.00    -0.206 F 
ATOM     78  C   UNL A   1      38.258  33.674  37.643  1.00  0.00     0.006 A 
ENDBRANCH  50  71
BRANCH  62  79
ATOM     79  C   UNL A   1      44.402  27.540  34.375  1.00  0.00     0.057 A 
ATOM     80  C   UNL A   1      45.614  28.211  34.577  1.00  0.00     0.134 A 
ATOM     81  C   UNL A   1      44.208  26.328  35.046  1.00  0.00     0.134 A 
ATOM     82  F   UNL A   1      45.864  29.369  33.950  1.00  0.00    -0.206 F 
ATOM     83  C   UNL A   1      46.604  27.686  35.410  1.00  0.00     0.040 A 
ATOM     84  C   UNL A   1      45.183  25.801  35.893  1.00  0.00     0.040 A 
ATOM     85  F   UNL A   1      43.066  25.641  34.894  1.00  0.00    -0.206 F 
ATOM     86  C   UNL A   1      46.387  26.480  36.075  1.00  0.00     0.006 A 
ENDBRANCH  62  79
ENDBRANCH  36  37
ENDBRANCH  29  31
ENDBRANCH  28  29
ENDBRANCH  27  28
ENDBRANCH   1  27
TORSDOF 15
ENDMDL
MODEL 2
REMARK VINA RESULT:     -11.8      1.804      2.993
REMARK SMILES Cc1nc(N2CCN(c3ccccc3)CC2)nc(OCC(=O)OCCOC(=O)c2ccc(-c3c4nc(c(-c5c(F)cccc5F)c5ccc([nH]5)c(-c5c(F)cccc5F)c5nc(c(-c6c(F)cccc6F)c6ccc3[nH]6)C=C5)C=C4)cc2)c1C
REMARK SMILES IDX 24 1 23 2 21 3 22 4 20 5 19 6 18 7 1 8 2 9 3 10 83 11 4 12
REMARK SMILES IDX 84 13 17 14 5 15 6 16 16 17 7 18 15 19 8 20 9 21 10 22 14 23
REMARK SMILES IDX 11 24 13 25 12 26 25 27 26 28 27 29 28 30 29 31 30 32 82 33
REMARK SMILES IDX 31 34 81 35 32 36 33 37 34 38 75 39 35 40 80 41 74 42 76 43
REMARK SMILES IDX 36 44 79 45 73 46 72 47 37 49 63 50 46 51 62 52 47 53 50 54
REMARK SMILES IDX 61 55 77 56 48 57 49 58 60 60 78 61 51 62 38 63 39 64 44 65
REMARK SMILES IDX 40 66 41 67 43 68 45 69 42 70 64 71 65 72 70 73 66 74 67 75
REMARK SMILES IDX 69 76 71 77 68 78 52 79 53 80 58 81 54 82 55 83 57 84 59 85
REMARK SMILES IDX 56 86
REMARK H PARENT 76 48 50 59
REMARK Flexibility Score: inf
ROOT
ATOM      1  C   UNL A   1      31.102  29.191  24.549  1.00  0.00     0.274 C 
ENDROOT
BRANCH   1   2
ATOM      2  O   UNL A   1      31.955  29.099  23.387  1.00  0.00    -0.460 OA
BRANCH   2   3
ATOM      3  C   UNL A   1      31.941  27.898  22.752  1.00  0.00     0.344 C 
ATOM      4  O   UNL A   1      30.998  27.467  22.094  1.00  0.00    -0.248 OA
BRANCH   3   5
ATOM      5  C   UNL A   1      33.179  27.041  23.025  1.00  0.00     0.353 C 
BRANCH   5   6
ATOM      6  O   UNL A   1      33.577  26.533  24.268  1.00  0.00    -0.465 OA
BRANCH   6   7
ATOM      7  C   UNL A   1      33.304  25.275  24.679  1.00  0.00     0.221 A 
ATOM      8  C   UNL A   1      30.925  22.584  25.781  1.00  0.00     0.067 C 
ATOM      9  C   UNL A   1      32.146  23.373  25.404  1.00  0.00     0.050 A 
ATOM     10  N   UNL A   1      33.283  22.650  25.380  1.00  0.00    -0.218 NA
ATOM     11  C   UNL A   1      32.116  24.745  25.144  1.00  0.00     0.033 A 
ATOM     12  C   UNL A   1      34.408  23.312  25.127  1.00  0.00     0.229 A 
ATOM     13  C   UNL A   1      30.947  25.591  25.514  1.00  0.00     0.052 C 
ATOM     14  N   UNL A   1      34.442  24.579  24.724  1.00  0.00    -0.177 NA
BRANCH  12  15
ATOM     15  N   UNL A   1      35.608  22.753  25.425  1.00  0.00    -0.337 N 
ATOM     16  C   UNL A   1      35.793  21.320  25.553  1.00  0.00     0.141 C 
ATOM     17  C   UNL A   1      36.561  23.610  26.126  1.00  0.00     0.141 C 
ATOM     18  C   UNL A   1      37.216  20.977  25.038  1.00  0.00     0.138 C 
ATOM     19  C   UNL A   1      37.987  23.278  25.655  1.00  0.00     0.138 C 
ATOM     20  N   UNL A   1      38.212  21.825  25.717  1.00  0.00    -0.368 N 
BRANCH  20  21
ATOM     21  C   UNL A   1      39.415  21.327  26.151  1.00  0.00     0.037 A 
ATOM     22  C   UNL A   1      39.888  20.075  25.752  1.00  0.00     0.026 A 
ATOM     23  C   UNL A   1      40.194  22.071  27.047  1.00  0.00     0.026 A 
ATOM     24  C   UNL A   1      41.101  19.577  26.234  1.00  0.00     0.002 A 
ATOM     25  C   UNL A   1      41.397  21.573  27.550  1.00  0.00     0.002 A 
ATOM     26  C   UNL A   1      41.851  20.323  27.140  1.00  0.00     0.000 A 
ENDBRANCH  20  21
ENDBRANCH  12  15
ENDBRANCH   6   7
ENDBRANCH   5   6
ENDBRANCH   3   5
ENDBRANCH   2   3
ENDBRANCH   1   2
BRANCH   1  27
ATOM     27  C   UNL A   1      31.407  30.428  25.392  1.00  0.00     0.275 C 
BRANCH  27  28
ATOM     28  O   UNL A   1      32.431  30.128  26.355  1.00  0.00    -0.458 OA
BRANCH  28  29
ATOM     29  C   UNL A   1      32.948  31.189  27.010  1.00  0.00     0.338 C 
ATOM     30  O   UNL A   1      32.399  32.269  27.191  1.00  0.00    -0.246 OA
BRANCH  29  31
ATOM     31  C   UNL A   1      34.293  30.882  27.558  1.00  0.00     0.060 A 
ATOM     32  C   UNL A   1      34.734  29.572  27.753  1.00  0.00     0.016 A 
ATOM     33  C   UNL A   1      35.087  31.945  28.002  1.00  0.00     0.016 A 
ATOM     34  C   UNL A   1      35.892  29.329  28.499  1.00  0.00     0.010 A 
ATOM     35  C   UNL A   1      36.293  31.700  28.666  1.00  0.00     0.010 A 
ATOM     36  C   UNL A   1      36.693  30.387  28.957  1.00  0.00    -0.014 A 
BRANCH  36  37
ATOM     37  C   UNL A   1      37.951  30.135  29.715  1.00  0.00     0.031 A 
ATOM     38  C   UNL A   1      39.085  29.343  29.115  1.00  0.00     0.074 A 
ATOM     39  C   UNL A   1      38.080  30.612  30.968  1.00  0.00     0.049 A 
ATOM     40  N   UNL A   1      40.169  28.881  29.688  1.00  0.00    -0.248 NA
ATOM     41  C   UNL A   1      38.988  29.026  27.682  1.00  0.00     0.031 C 
ATOM     42  C   UNL A   1      37.090  31.431  31.670  1.00  0.00     0.029 A 
ATOM     43  N   UNL A   1      39.104  30.483  31.873  1.00  0.00    -0.354 N 
ATOM     44  C   UNL A   1      40.862  28.192  28.700  1.00  0.00     0.074 A 
ATOM     45  C   UNL A   1      40.076  28.293  27.488  1.00  0.00     0.031 C 
ATOM     46  C   UNL A   1      37.577  31.779  32.868  1.00  0.00     0.029 A 
ATOM     47  C   UNL A   1      38.867  31.127  33.061  1.00  0.00     0.049 A 
ATOM     48  H   UNL A   1      39.928  29.978  31.687  1.00  0.00     0.167 HD
ATOM     49  C   UNL A   1      42.043  27.532  28.795  1.00  0.00     0.037 A 
ATOM     50  C   UNL A   1      39.579  31.160  34.203  1.00  0.00     0.037 A 
ATOM     51  C   UNL A   1      42.840  27.451  29.991  1.00  0.00     0.049 A 
ATOM     52  C   UNL A   1      40.836  30.357  34.314  1.00  0.00     0.074 A 
ATOM     53  C   UNL A   1      44.051  26.806  30.182  1.00  0.00     0.029 A 
ATOM     54  N   UNL A   1      42.511  28.044  31.201  1.00  0.00    -0.354 N 
ATOM     55  N   UNL A   1      41.434  29.635  33.399  1.00  0.00    -0.248 NA
ATOM     56  C   UNL A   1      41.495  30.341  35.626  1.00  0.00     0.031 C 
ATOM     57  C   UNL A   1      44.438  26.982  31.515  1.00  0.00     0.029 A 
ATOM     58  C   UNL A   1      43.486  27.765  32.145  1.00  0.00     0.049 A 
ATOM     59  H   UNL A   1      41.703  28.582  31.365  1.00  0.00     0.167 HD
ATOM     60  C   UNL A   1      42.536  29.069  34.024  1.00  0.00     0.074 A 
ATOM     61  C   UNL A   1      42.534  29.549  35.392  1.00  0.00     0.031 C 
ATOM     62  C   UNL A   1      43.460  28.223  33.509  1.00  0.00     0.037 A 
BRANCH  49  63
ATOM     63  C   UNL A   1      42.544  26.819  27.573  1.00  0.00     0.057 A 
ATOM     64  C   UNL A   1      43.385  27.444  26.645  1.00  0.00     0.134 A 
ATOM     65  C   UNL A   1      42.233  25.470  27.358  1.00  0.00     0.134 A 
ATOM     66  F   UNL A   1      43.713  28.737  26.788  1.00  0.00    -0.206 F 
ATOM     67  C   UNL A   1      43.891  26.754  25.541  1.00  0.00     0.040 A 
ATOM     68  C   UNL A   1      42.746  24.765  26.269  1.00  0.00     0.040 A 
ATOM     69  F   UNL A   1      41.436  24.812  28.214  1.00  0.00    -0.206 F 
ATOM     70  C   UNL A   1      43.578  25.409  25.355  1.00  0.00     0.006 A 
ENDBRANCH  49  63
BRANCH  50  71
ATOM     71  C   UNL A   1      39.075  31.969  35.335  1.00  0.00     0.057 A 
ATOM     72  C   UNL A   1      39.299  33.348  35.379  1.00  0.00     0.134 A 
ATOM     73  C   UNL A   1      38.286  31.403  36.343  1.00  0.00     0.134 A 
ATOM     74  F   UNL A   1      40.060  33.938  34.447  1.00  0.00    -0.206 F 
ATOM     75  C   UNL A   1      38.737  34.143  36.377  1.00  0.00     0.040 A 
ATOM     76  C   UNL A   1      37.701  32.189  37.336  1.00  0.00     0.040 A 
ATOM     77  F   UNL A   1      38.032  30.087  36.346  1.00  0.00    -0.206 F 
ATOM     78  C   UNL A   1      37.924  33.565  37.352  1.00  0.00     0.006 A 
ENDBRANCH  50  71
BRANCH  62  79
ATOM     79  C   UNL A   1      44.540  27.754  34.432  1.00  0.00     0.057 A 
ATOM     80  C   UNL A   1      45.711  28.498  34.619  1.00  0.00     0.134 A 
ATOM     81  C   UNL A   1      44.398  26.568  35.160  1.00  0.00     0.134 A 
ATOM     82  F   UNL A   1      45.911  29.636  33.939  1.00  0.00    -0.206 F 
ATOM     83  C   UNL A   1      46.713  28.068  35.492  1.00  0.00     0.040 A 
ATOM     84  C   UNL A   1      45.384  26.136  36.047  1.00  0.00     0.040 A 
ATOM     85  F   UNL A   1      43.296  25.814  35.026  1.00  0.00    -0.206 F 
ATOM     86  C   UNL A   1      46.548  26.886  36.212  1.00  0.00     0.006 A 
ENDBRANCH  62  79
ENDBRANCH  36  37
ENDBRANCH  29  31
ENDBRANCH  28  29
ENDBRANCH  27  28
ENDBRANCH   1  27
TORSDOF 15
ENDMDL
MODEL 3
REMARK VINA RESULT:     -11.7      2.786      8.157
REMARK SMILES Cc1nc(N2CCN(c3ccccc3)CC2)nc(OCC(=O)OCCOC(=O)c2ccc(-c3c4nc(c(-c5c(F)cccc5F)c5ccc([nH]5)c(-c5c(F)cccc5F)c5nc(c(-c6c(F)cccc6F)c6ccc3[nH]6)C=C5)C=C4)cc2)c1C
REMARK SMILES IDX 24 1 23 2 21 3 22 4 20 5 19 6 18 7 1 8 2 9 3 10 83 11 4 12
REMARK SMILES IDX 84 13 17 14 5 15 6 16 16 17 7 18 15 19 8 20 9 21 10 22 14 23
REMARK SMILES IDX 11 24 13 25 12 26 25 27 26 28 27 29 28 30 29 31 30 32 82 33
REMARK SMILES IDX 31 34 81 35 32 36 33 37 34 38 75 39 35 40 80 41 74 42 76 43
REMARK SMILES IDX 36 44 79 45 73 46 72 47 37 49 63 50 46 51 62 52 47 53 50 54
REMARK SMILES IDX 61 55 77 56 48 57 49 58 60 60 78 61 51 62 38 63 39 64 44 65
REMARK SMILES IDX 40 66 41 67 43 68 45 69 42 70 64 71 65 72 70 73 66 74 67 75
REMARK SMILES IDX 69 76 71 77 68 78 52 79 53 80 58 81 54 82 55 83 57 84 59 85
REMARK SMILES IDX 56 86
REMARK H PARENT 76 48 50 59
REMARK Flexibility Score: inf
ROOT
ATOM      1  C   UNL A   1      40.492  21.046  26.647  1.00  0.00     0.274 C 
ENDROOT
BRANCH   1   2
ATOM      2  O   UNL A   1      39.469  20.968  25.629  1.00  0.00    -0.460 OA
BRANCH   2   3
ATOM      3  C   UNL A   1      38.507  21.925  25.701  1.00  0.00     0.344 C 
ATOM      4  O   UNL A   1      38.619  22.983  26.315  1.00  0.00    -0.248 OA
BRANCH   3   5
ATOM      5  C   UNL A   1      37.186  21.523  25.042  1.00  0.00     0.353 C 
BRANCH   5   6
ATOM      6  O   UNL A   1      36.535  20.291  25.176  1.00  0.00    -0.465 OA
BRANCH   6   7
ATOM      7  C   UNL A   1      35.202  20.132  25.011  1.00  0.00     0.221 A 
ATOM      8  C   UNL A   1      32.147  17.999  24.531  1.00  0.00     0.067 C 
ATOM      9  C   UNL A   1      33.101  19.147  24.698  1.00  0.00     0.050 A 
ATOM     10  N   UNL A   1      32.503  20.351  24.790  1.00  0.00    -0.218 NA
ATOM     11  C   UNL A   1      34.489  18.988  24.711  1.00  0.00     0.033 A 
ATOM     12  C   UNL A   1      33.301  21.412  24.861  1.00  0.00     0.229 A 
ATOM     13  C   UNL A   1      35.141  17.727  24.258  1.00  0.00     0.052 C 
ATOM     14  N   UNL A   1      34.619  21.332  25.031  1.00  0.00    -0.177 NA
BRANCH  12  15
ATOM     15  N   UNL A   1      32.812  22.651  24.605  1.00  0.00    -0.337 N 
ATOM     16  C   UNL A   1      31.516  22.867  23.990  1.00  0.00     0.141 C 
ATOM     17  C   UNL A   1      33.800  23.718  24.462  1.00  0.00     0.141 C 
ATOM     18  C   UNL A   1      30.914  24.163  24.595  1.00  0.00     0.138 C 
ATOM     19  C   UNL A   1      33.224  25.025  25.031  1.00  0.00     0.138 C 
ATOM     20  N   UNL A   1      31.883  25.267  24.476  1.00  0.00    -0.368 N 
BRANCH  20  21
ATOM     21  C   UNL A   1      31.499  26.537  24.118  1.00  0.00     0.037 A 
ATOM     22  C   UNL A   1      31.042  26.839  22.834  1.00  0.00     0.026 A 
ATOM     23  C   UNL A   1      31.591  27.580  25.049  1.00  0.00     0.026 A 
ATOM     24  C   UNL A   1      30.690  28.146  22.485  1.00  0.00     0.002 A 
ATOM     25  C   UNL A   1      31.261  28.891  24.703  1.00  0.00     0.002 A 
ATOM     26  C   UNL A   1      30.808  29.173  23.419  1.00  0.00     0.000 A 
ENDBRANCH  20  21
ENDBRANCH  12  15
ENDBRANCH   6   7
ENDBRANCH   5   6
ENDBRANCH   3   5
ENDBRANCH   2   3
ENDBRANCH   1   2
BRANCH   1  27
ATOM     27  C   UNL A   1      41.885  21.233  26.050  1.00  0.00     0.275 C 
BRANCH  27  28
ATOM     28  O   UNL A   1      41.940  22.460  25.301  1.00  0.00    -0.458 OA
BRANCH  28  29
ATOM     29  C   UNL A   1      42.969  23.282  25.597  1.00  0.00     0.338 C 
ATOM     30  O   UNL A   1      44.119  23.182  25.185  1.00  0.00    -0.246 OA
BRANCH  29  31
ATOM     31  C   UNL A   1      42.534  24.397  26.473  1.00  0.00     0.060 A 
ATOM     32  C   UNL A   1      43.031  25.694  26.326  1.00  0.00     0.016 A 
ATOM     33  C   UNL A   1      41.694  24.106  27.553  1.00  0.00     0.016 A 
ATOM     34  C   UNL A   1      42.794  26.649  27.319  1.00  0.00     0.010 A 
ATOM     35  C   UNL A   1      41.382  25.090  28.496  1.00  0.00     0.010 A 
ATOM     36  C   UNL A   1      41.958  26.366  28.411  1.00  0.00    -0.014 A 
BRANCH  36  37
ATOM     37  C   UNL A   1      41.667  27.393  29.451  1.00  0.00     0.031 A 
ATOM     38  C   UNL A   1      42.501  27.503  30.702  1.00  0.00     0.074 A 
ATOM     39  C   UNL A   1      40.632  28.238  29.281  1.00  0.00     0.049 A 
ATOM     40  N   UNL A   1      42.287  28.213  31.783  1.00  0.00    -0.248 NA
ATOM     41  C   UNL A   1      43.738  26.710  30.748  1.00  0.00     0.031 C 
ATOM     42  C   UNL A   1      39.760  28.284  28.106  1.00  0.00     0.029 A 
ATOM     43  N   UNL A   1      40.142  29.227  30.096  1.00  0.00    -0.354 N 
ATOM     44  C   UNL A   1      43.337  27.925  32.646  1.00  0.00     0.074 A 
ATOM     45  C   UNL A   1      44.191  26.974  31.966  1.00  0.00     0.031 C 
ATOM     46  C   UNL A   1      38.882  29.285  28.249  1.00  0.00     0.029 A 
ATOM     47  C   UNL A   1      39.061  29.886  29.566  1.00  0.00     0.049 A 
ATOM     48  H   UNL A   1      40.528  29.442  30.975  1.00  0.00     0.167 HD
ATOM     49  C   UNL A   1      43.568  28.407  33.893  1.00  0.00     0.037 A 
ATOM     50  C   UNL A   1      38.267  30.838  30.089  1.00  0.00     0.037 A 
ATOM     51  C   UNL A   1      42.735  29.373  34.562  1.00  0.00     0.049 A 
ATOM     52  C   UNL A   1      38.487  31.296  31.496  1.00  0.00     0.074 A 
ATOM     53  C   UNL A   1      42.890  29.921  35.825  1.00  0.00     0.029 A 
ATOM     54  N   UNL A   1      41.595  29.944  34.018  1.00  0.00    -0.354 N 
ATOM     55  N   UNL A   1      39.432  30.949  32.335  1.00  0.00    -0.248 NA
ATOM     56  C   UNL A   1      37.510  32.245  32.042  1.00  0.00     0.031 C 
ATOM     57  C   UNL A   1      41.826  30.800  36.057  1.00  0.00     0.029 A 
ATOM     58  C   UNL A   1      41.028  30.824  34.926  1.00  0.00     0.049 A 
ATOM     59  H   UNL A   1      41.240  29.752  33.121  1.00  0.00     0.167 HD
ATOM     60  C   UNL A   1      39.159  31.628  33.513  1.00  0.00     0.074 A 
ATOM     61  C   UNL A   1      37.972  32.425  33.273  1.00  0.00     0.031 C 
ATOM     62  C   UNL A   1      39.832  31.589  34.688  1.00  0.00     0.037 A 
BRANCH  49  63
ATOM     63  C   UNL A   1      44.761  27.882  34.634  1.00  0.00     0.057 A 
ATOM     64  C   UNL A   1      44.693  26.730  35.426  1.00  0.00     0.134 A 
ATOM     65  C   UNL A   1      46.011  28.501  34.500  1.00  0.00     0.134 A 
ATOM     66  F   UNL A   1      43.524  26.096  35.603  1.00  0.00    -0.206 F 
ATOM     67  C   UNL A   1      45.824  26.218  36.067  1.00  0.00     0.040 A 
ATOM     68  C   UNL A   1      47.152  27.990  35.121  1.00  0.00     0.040 A 
ATOM     69  F   UNL A   1      46.146  29.606  33.751  1.00  0.00    -0.206 F 
ATOM     70  C   UNL A   1      47.059  26.844  35.909  1.00  0.00     0.006 A 
ENDBRANCH  49  63
BRANCH  50  71
ATOM     71  C   UNL A   1      37.169  31.386  29.260  1.00  0.00     0.057 A 
ATOM     72  C   UNL A   1      35.992  30.658  29.069  1.00  0.00     0.134 A 
ATOM     73  C   UNL A   1      37.235  32.676  28.721  1.00  0.00     0.134 A 
ATOM     74  F   UNL A   1      35.882  29.412  29.550  1.00  0.00    -0.206 F 
ATOM     75  C   UNL A   1      34.904  31.203  28.386  1.00  0.00     0.040 A 
ATOM     76  C   UNL A   1      36.149  33.241  28.054  1.00  0.00     0.040 A 
ATOM     77  F   UNL A   1      38.338  33.422  28.881  1.00  0.00    -0.206 F 
ATOM     78  C   UNL A   1      34.977  32.504  27.888  1.00  0.00     0.006 A 
ENDBRANCH  50  71
BRANCH  62  79
ATOM     79  C   UNL A   1      39.292  32.422  35.807  1.00  0.00     0.057 A 
ATOM     80  C   UNL A   1      39.695  33.751  35.985  1.00  0.00     0.134 A 
ATOM     81  C   UNL A   1      38.343  31.905  36.696  1.00  0.00     0.134 A 
ATOM     82  F   UNL A   1      40.612  34.298  35.174  1.00  0.00    -0.206 F 
ATOM     83  C   UNL A   1      39.181  34.534  37.020  1.00  0.00     0.040 A 
ATOM     84  C   UNL A   1      37.810  32.682  37.724  1.00  0.00     0.040 A 
ATOM     85  F   UNL A   1      37.915  30.639  36.574  1.00  0.00    -0.206 F 
ATOM     86  C   UNL A   1      38.231  34.000  37.891  1.00  0.00     0.006 A 
ENDBRANCH  62  79
ENDBRANCH  36  37
ENDBRANCH  29  31
ENDBRANCH  28  29
ENDBRANCH  27  28
ENDBRANCH   1  27
TORSDOF 15
ENDMDL
