MODEL 1
REMARK VINA RESULT:     -14.5      0.000      0.000
REMARK SMILES O=C(OCCOC(=O)c1ccc(-c2c3nc(c(-c4c(F)cccc4F)c4ccc([nH]4)c(-c4c(F)cccc4F)c4nc(c(-c5c(F)cccc5F)c5ccc2[nH]5)C=C4)C=C3)cc1)C1=Cc2cc(Cl)ccc2O[C@@H]1C(F)(F)F
REMARK SMILES IDX 5 1 4 2 3 3 2 4 1 5 63 6 64 7 73 8 65 9 72 10 66 11 71 12
REMARK SMILES IDX 67 13 70 14 68 15 69 16 74 17 75 18 76 19 77 20 6 21 7 22
REMARK SMILES IDX 8 23 9 24 10 25 62 26 11 27 61 28 12 29 13 30 14 31 55 32
REMARK SMILES IDX 15 33 60 34 54 35 56 36 16 37 59 38 53 39 52 40 17 42 43 43
REMARK SMILES IDX 26 44 42 45 27 46 30 47 41 48 57 49 28 50 29 51 40 53 58 54
REMARK SMILES IDX 31 55 18 56 19 57 24 58 20 59 21 60 23 61 25 62 22 63 44 64
REMARK SMILES IDX 45 65 50 66 46 67 47 68 49 69 51 70 48 71 32 72 33 73 38 74
REMARK SMILES IDX 34 75 35 76 37 77 39 78 36 79
REMARK H PARENT 56 41 30 52
REMARK Flexibility Score: inf
ROOT
ATOM      1  C   UNL A   1      31.346  32.149  26.873  1.00  0.00     0.275 C 
ENDROOT
BRANCH   1   2
ATOM      2  C   UNL A   1      32.140  30.141  26.522  1.00  0.00     0.275 C 
BRANCH   2   3
ATOM      3  O   UNL A   1      31.502  29.037  25.719  1.00  0.00    -0.459 OA
BRANCH   3   4
ATOM      4  C   UNL A   1      31.402  27.908  26.424  1.00  0.00     0.338 C 
ATOM      5  O   UNL A   1      31.530  27.770  27.617  1.00  0.00    -0.246 OA
BRANCH   4   6
ATOM      6  C   UNL A   1      31.646  26.962  25.334  1.00  0.00     0.087 C 
ATOM      7  C   UNL A   1      33.000  26.512  25.169  1.00  0.00     0.027 C 
ATOM      8  C   UNL A   1      30.190  25.874  25.919  1.00  0.00     0.316 C 
ATOM      9  C   UNL A   1      33.604  24.936  25.690  1.00  0.00     0.019 A 
ATOM     10  O   UNL A   1      30.834  24.187  26.679  1.00  0.00    -0.475 OA
ATOM     11  C   UNL A   1      34.922  24.676  25.470  1.00  0.00     0.032 A 
ATOM     12  C   UNL A   1      32.638  23.805  26.576  1.00  0.00     0.128 A 
ATOM     13  C   UNL A   1      35.377  23.502  26.073  1.00  0.00     0.041 A 
ATOM     14  C   UNL A   1      33.162  22.680  27.138  1.00  0.00     0.048 A 
ATOM     15  Cl  UNL A   1      37.061  23.145  25.854  1.00  0.00    -0.084 Cl
ATOM     16  C   UNL A   1      34.563  22.581  26.874  1.00  0.00     0.024 A 
BRANCH   8  17
ATOM     17  C   UNL A   1      29.478  26.340  24.465  1.00  0.00     0.430 C 
ATOM     18  F   UNL A   1      29.656  25.448  23.504  1.00  0.00    -0.167 F 
ATOM     19  F   UNL A   1      28.108  26.327  24.574  1.00  0.00    -0.167 F 
ATOM     20  F   UNL A   1      29.720  27.585  23.994  1.00  0.00    -0.167 F 
ENDBRANCH   8  17
ENDBRANCH   4   6
ENDBRANCH   3   4
ENDBRANCH   2   3
ENDBRANCH   1   2
BRANCH   1  21
ATOM     21  O   UNL A   1      32.408  33.524  27.251  1.00  0.00    -0.458 OA
BRANCH  21  22
ATOM     22  C   UNL A   1      33.195  34.039  28.281  1.00  0.00     0.338 C 
ATOM     23  O   UNL A   1      32.876  34.714  29.244  1.00  0.00    -0.246 OA
BRANCH  22  24
ATOM     24  C   UNL A   1      34.468  33.254  28.290  1.00  0.00     0.060 A 
ATOM     25  C   UNL A   1      35.678  33.893  28.659  1.00  0.00     0.016 A 
ATOM     26  C   UNL A   1      34.369  31.870  28.340  1.00  0.00     0.016 A 
ATOM     27  C   UNL A   1      36.673  33.151  29.336  1.00  0.00     0.010 A 
ATOM     28  C   UNL A   1      35.349  31.146  29.014  1.00  0.00     0.010 A 
ATOM     29  C   UNL A   1      36.464  31.786  29.594  1.00  0.00    -0.014 A 
BRANCH  29  30
ATOM     30  C   UNL A   1      37.532  30.908  30.138  1.00  0.00     0.031 A 
ATOM     31  C   UNL A   1      37.826  31.168  31.581  1.00  0.00     0.074 A 
ATOM     32  C   UNL A   1      38.311  30.074  29.415  1.00  0.00     0.049 A 
ATOM     33  N   UNL A   1      38.848  30.817  32.308  1.00  0.00    -0.248 NA
ATOM     34  C   UNL A   1      36.855  32.040  32.268  1.00  0.00     0.031 C 
ATOM     35  C   UNL A   1      38.148  29.736  28.001  1.00  0.00     0.029 A 
ATOM     36  N   UNL A   1      39.439  29.373  29.789  1.00  0.00    -0.354 N 
ATOM     37  C   UNL A   1      38.652  31.462  33.519  1.00  0.00     0.074 A 
ATOM     38  C   UNL A   1      37.490  32.304  33.389  1.00  0.00     0.031 C 
ATOM     39  C   UNL A   1      39.139  28.896  27.632  1.00  0.00     0.029 A 
ATOM     40  C   UNL A   1      40.034  28.666  28.767  1.00  0.00     0.049 A 
ATOM     41  H   UNL A   1      39.789  29.377  30.709  1.00  0.00     0.167 HD
ATOM     42  C   UNL A   1      39.356  31.344  34.661  1.00  0.00     0.037 A 
ATOM     43  C   UNL A   1      41.173  27.936  28.760  1.00  0.00     0.037 A 
ATOM     44  C   UNL A   1      40.518  30.519  34.778  1.00  0.00     0.049 A 
ATOM     45  C   UNL A   1      41.989  27.843  30.035  1.00  0.00     0.074 A 
ATOM     46  C   UNL A   1      41.310  30.302  35.886  1.00  0.00     0.029 A 
ATOM     47  N   UNL A   1      41.060  29.788  33.730  1.00  0.00    -0.354 N 
ATOM     48  N   UNL A   1      41.770  28.405  31.202  1.00  0.00    -0.248 NA
ATOM     49  C   UNL A   1      43.210  27.019  29.998  1.00  0.00     0.031 C 
ATOM     50  C   UNL A   1      42.375  29.491  35.491  1.00  0.00     0.029 A 
ATOM     51  C   UNL A   1      42.196  29.132  34.162  1.00  0.00     0.049 A 
ATOM     52  H   UNL A   1      40.692  29.743  32.819  1.00  0.00     0.167 HD
ATOM     53  C   UNL A   1      42.789  27.968  32.043  1.00  0.00     0.074 A 
ATOM     54  C   UNL A   1      43.634  27.099  31.253  1.00  0.00     0.031 C 
ATOM     55  C   UNL A   1      43.001  28.248  33.354  1.00  0.00     0.037 A 
BRANCH  42  56
ATOM     56  C   UNL A   1      38.878  32.169  35.816  1.00  0.00     0.057 A 
ATOM     57  C   UNL A   1      39.246  33.516  35.969  1.00  0.00     0.134 A 
ATOM     58  C   UNL A   1      38.152  31.575  36.853  1.00  0.00     0.134 A 
ATOM     59  F   UNL A   1      39.981  34.133  35.030  1.00  0.00    -0.206 F 
ATOM     60  C   UNL A   1      38.972  34.217  37.143  1.00  0.00     0.040 A 
ATOM     61  C   UNL A   1      37.830  32.282  38.010  1.00  0.00     0.040 A 
ATOM     62  F   UNL A   1      37.779  30.289  36.776  1.00  0.00    -0.206 F 
ATOM     63  C   UNL A   1      38.260  33.599  38.167  1.00  0.00     0.006 A 
ENDBRANCH  42  56
BRANCH  43  64
ATOM     64  C   UNL A   1      41.628  27.220  27.529  1.00  0.00     0.057 A 
ATOM     65  C   UNL A   1      41.339  25.862  27.326  1.00  0.00     0.134 A 
ATOM     66  C   UNL A   1      42.398  27.852  26.545  1.00  0.00     0.134 A 
ATOM     67  F   UNL A   1      40.640  25.177  28.244  1.00  0.00    -0.206 F 
ATOM     68  C   UNL A   1      41.802  25.163  26.205  1.00  0.00     0.040 A 
ATOM     69  C   UNL A   1      42.848  27.173  25.406  1.00  0.00     0.040 A 
ATOM     70  F   UNL A   1      42.733  29.144  26.675  1.00  0.00    -0.206 F 
ATOM     71  C   UNL A   1      42.553  25.822  25.237  1.00  0.00     0.006 A 
ENDBRANCH  43  64
BRANCH  55  72
ATOM     72  C   UNL A   1      44.137  27.561  34.056  1.00  0.00     0.057 A 
ATOM     73  C   UNL A   1      45.393  28.155  34.211  1.00  0.00     0.134 A 
ATOM     74  C   UNL A   1      43.913  26.336  34.704  1.00  0.00     0.134 A 
ATOM     75  F   UNL A   1      45.672  29.325  33.617  1.00  0.00    -0.206 F 
ATOM     76  C   UNL A   1      46.390  27.553  34.982  1.00  0.00     0.040 A 
ATOM     77  C   UNL A   1      44.888  25.744  35.504  1.00  0.00     0.040 A 
ATOM     78  F   UNL A   1      42.722  25.725  34.612  1.00  0.00    -0.206 F 
ATOM     79  C   UNL A   1      46.133  26.353  35.643  1.00  0.00     0.006 A 
ENDBRANCH  55  72
ENDBRANCH  29  30
ENDBRANCH  22  24
ENDBRANCH  21  22
ENDBRANCH   1  21
TORSDOF 12
ENDMDL
MODEL 2
REMARK VINA RESULT:     -14.5      0.320      1.368
REMARK SMILES O=C(OCCOC(=O)c1ccc(-c2c3nc(c(-c4c(F)cccc4F)c4ccc([nH]4)c(-c4c(F)cccc4F)c4nc(c(-c5c(F)cccc5F)c5ccc2[nH]5)C=C4)C=C3)cc1)C1=Cc2cc(Cl)ccc2O[C@@H]1C(F)(F)F
REMARK SMILES IDX 5 1 4 2 3 3 2 4 1 5 63 6 64 7 73 8 65 9 72 10 66 11 71 12
REMARK SMILES IDX 67 13 70 14 68 15 69 16 74 17 75 18 76 19 77 20 6 21 7 22
REMARK SMILES IDX 8 23 9 24 10 25 62 26 11 27 61 28 12 29 13 30 14 31 55 32
REMARK SMILES IDX 15 33 60 34 54 35 56 36 16 37 59 38 53 39 52 40 17 42 43 43
REMARK SMILES IDX 26 44 42 45 27 46 30 47 41 48 57 49 28 50 29 51 40 53 58 54
REMARK SMILES IDX 31 55 18 56 19 57 24 58 20 59 21 60 23 61 25 62 22 63 44 64
REMARK SMILES IDX 45 65 50 66 46 67 47 68 49 69 51 70 48 71 32 72 33 73 38 74
REMARK SMILES IDX 34 75 35 76 37 77 39 78 36 79
REMARK H PARENT 56 41 30 52
REMARK Flexibility Score: inf
ROOT
ATOM      1  C   UNL A   1      31.377  32.342  26.642  1.00  0.00     0.275 C 
ENDROOT
BRANCH   1   2
ATOM      2  C   UNL A   1      32.337  30.424  26.209  1.00  0.00     0.275 C 
BRANCH   2   3
ATOM      3  O   UNL A   1      31.765  29.279  25.414  1.00  0.00    -0.459 OA
BRANCH   3   4
ATOM      4  C   UNL A   1      31.578  28.197  26.172  1.00  0.00     0.338 C 
ATOM      5  O   UNL A   1      31.681  28.109  27.371  1.00  0.00    -0.246 OA
BRANCH   4   6
ATOM      6  C   UNL A   1      31.767  27.183  25.132  1.00  0.00     0.087 C 
ATOM      7  C   UNL A   1      33.088  26.633  25.010  1.00  0.00     0.027 C 
ATOM      8  C   UNL A   1      30.234  26.228  25.750  1.00  0.00     0.316 C 
ATOM      9  C   UNL A   1      33.576  25.047  25.615  1.00  0.00     0.019 A 
ATOM     10  O   UNL A   1      30.751  24.541  26.601  1.00  0.00    -0.475 OA
ATOM     11  C   UNL A   1      34.875  24.686  25.427  1.00  0.00     0.032 A 
ATOM     12  C   UNL A   1      32.525  24.032  26.543  1.00  0.00     0.128 A 
ATOM     13  C   UNL A   1      35.241  23.515  26.094  1.00  0.00     0.041 A 
ATOM     14  C   UNL A   1      32.963  22.903  27.166  1.00  0.00     0.048 A 
ATOM     15  Cl  UNL A   1      36.899  23.033  25.916  1.00  0.00    -0.084 Cl
ATOM     16  C   UNL A   1      34.357  22.694  26.928  1.00  0.00     0.024 A 
BRANCH   8  17
ATOM     17  C   UNL A   1      29.571  26.669  24.265  1.00  0.00     0.430 C 
ATOM     18  F   UNL A   1      30.110  26.007  23.253  1.00  0.00    -0.167 F 
ATOM     19  F   UNL A   1      28.265  26.249  24.176  1.00  0.00    -0.167 F 
ATOM     20  F   UNL A   1      29.475  27.984  23.962  1.00  0.00    -0.167 F 
ENDBRANCH   8  17
ENDBRANCH   4   6
ENDBRANCH   3   4
ENDBRANCH   2   3
ENDBRANCH   1   2
BRANCH   1  21
ATOM     21  O   UNL A   1      32.292  33.722  27.290  1.00  0.00    -0.458 OA
BRANCH  21  22
ATOM     22  C   UNL A   1      33.068  34.093  28.387  1.00  0.00     0.338 C 
ATOM     23  O   UNL A   1      32.750  34.686  29.404  1.00  0.00    -0.246 OA
BRANCH  22  24
ATOM     24  C   UNL A   1      34.302  33.249  28.353  1.00  0.00     0.060 A 
ATOM     25  C   UNL A   1      35.572  33.867  28.462  1.00  0.00     0.016 A 
ATOM     26  C   UNL A   1      34.161  31.895  28.627  1.00  0.00     0.016 A 
ATOM     27  C   UNL A   1      36.622  33.178  29.112  1.00  0.00     0.010 A 
ATOM     28  C   UNL A   1      35.196  31.225  29.272  1.00  0.00     0.010 A 
ATOM     29  C   UNL A   1      36.402  31.879  29.600  1.00  0.00    -0.014 A 
BRANCH  29  30
ATOM     30  C   UNL A   1      37.501  31.033  30.131  1.00  0.00     0.031 A 
ATOM     31  C   UNL A   1      37.794  31.290  31.575  1.00  0.00     0.074 A 
ATOM     32  C   UNL A   1      38.304  30.232  29.397  1.00  0.00     0.049 A 
ATOM     33  N   UNL A   1      38.830  30.966  32.294  1.00  0.00    -0.248 NA
ATOM     34  C   UNL A   1      36.797  32.122  32.274  1.00  0.00     0.031 C 
ATOM     35  C   UNL A   1      38.145  29.901  27.981  1.00  0.00     0.029 A 
ATOM     36  N   UNL A   1      39.456  29.565  29.759  1.00  0.00    -0.354 N 
ATOM     37  C   UNL A   1      38.620  31.594  33.511  1.00  0.00     0.074 A 
ATOM     38  C   UNL A   1      37.429  32.397  33.395  1.00  0.00     0.031 C 
ATOM     39  C   UNL A   1      39.162  29.097  27.599  1.00  0.00     0.029 A 
ATOM     40  C   UNL A   1      40.069  28.888  28.727  1.00  0.00     0.049 A 
ATOM     41  H   UNL A   1      39.811  29.573  30.677  1.00  0.00     0.167 HD
ATOM     42  C   UNL A   1      39.333  31.489  34.649  1.00  0.00     0.037 A 
ATOM     43  C   UNL A   1      41.232  28.196  28.708  1.00  0.00     0.037 A 
ATOM     44  C   UNL A   1      40.522  30.703  34.753  1.00  0.00     0.049 A 
ATOM     45  C   UNL A   1      42.057  28.119  29.979  1.00  0.00     0.074 A 
ATOM     46  C   UNL A   1      41.327  30.502  35.854  1.00  0.00     0.029 A 
ATOM     47  N   UNL A   1      41.083  29.999  33.696  1.00  0.00    -0.354 N 
ATOM     48  N   UNL A   1      41.825  28.663  31.152  1.00  0.00    -0.248 NA
ATOM     49  C   UNL A   1      43.305  27.336  29.928  1.00  0.00     0.031 C 
ATOM     50  C   UNL A   1      42.416  29.730  35.447  1.00  0.00     0.029 A 
ATOM     51  C   UNL A   1      42.242  29.377  34.116  1.00  0.00     0.049 A 
ATOM     52  H   UNL A   1      40.712  29.950  32.786  1.00  0.00     0.167 HD
ATOM     53  C   UNL A   1      42.863  28.252  31.984  1.00  0.00     0.074 A 
ATOM     54  C   UNL A   1      43.733  27.419  31.182  1.00  0.00     0.031 C 
ATOM     55  C   UNL A   1      43.072  28.528  33.297  1.00  0.00     0.037 A 
BRANCH  42  56
ATOM     56  C   UNL A   1      38.834  32.288  35.813  1.00  0.00     0.057 A 
ATOM     57  C   UNL A   1      39.172  33.640  35.987  1.00  0.00     0.134 A 
ATOM     58  C   UNL A   1      38.117  31.664  36.839  1.00  0.00     0.134 A 
ATOM     59  F   UNL A   1      39.897  34.285  35.059  1.00  0.00    -0.206 F 
ATOM     60  C   UNL A   1      38.880  34.319  37.169  1.00  0.00     0.040 A 
ATOM     61  C   UNL A   1      37.777  32.348  38.005  1.00  0.00     0.040 A 
ATOM     62  F   UNL A   1      37.773  30.371  36.743  1.00  0.00    -0.206 F 
ATOM     63  C   UNL A   1      38.178  33.672  38.182  1.00  0.00     0.006 A 
ENDBRANCH  42  56
BRANCH  43  64
ATOM     64  C   UNL A   1      41.704  27.507  27.469  1.00  0.00     0.057 A 
ATOM     65  C   UNL A   1      42.438  28.191  26.487  1.00  0.00     0.134 A 
ATOM     66  C   UNL A   1      41.404  26.164  27.207  1.00  0.00     0.134 A 
ATOM     67  F   UNL A   1      42.729  29.491  26.648  1.00  0.00    -0.206 F 
ATOM     68  C   UNL A   1      42.842  27.575  25.298  1.00  0.00     0.040 A 
ATOM     69  C   UNL A   1      41.823  25.527  26.033  1.00  0.00     0.040 A 
ATOM     70  F   UNL A   1      40.691  25.447  28.088  1.00  0.00    -0.206 F 
ATOM     71  C   UNL A   1      42.541  26.235  25.072  1.00  0.00     0.006 A 
ENDBRANCH  43  64
BRANCH  55  72
ATOM     72  C   UNL A   1      44.234  27.873  33.987  1.00  0.00     0.057 A 
ATOM     73  C   UNL A   1      44.150  26.595  34.548  1.00  0.00     0.134 A 
ATOM     74  C   UNL A   1      45.494  28.491  33.962  1.00  0.00     0.134 A 
ATOM     75  F   UNL A   1      42.975  25.951  34.605  1.00  0.00    -0.206 F 
ATOM     76  C   UNL A   1      45.279  25.955  35.066  1.00  0.00     0.040 A 
ATOM     77  C   UNL A   1      46.632  27.848  34.444  1.00  0.00     0.040 A 
ATOM     78  F   UNL A   1      45.644  29.709  33.419  1.00  0.00    -0.206 F 
ATOM     79  C   UNL A   1      46.525  26.576  35.000  1.00  0.00     0.006 A 
ENDBRANCH  55  72
ENDBRANCH  29  30
ENDBRANCH  22  24
ENDBRANCH  21  22
ENDBRANCH   1  21
TORSDOF 12
ENDMDL
MODEL 3
REMARK VINA RESULT:     -14.2      1.254      6.503
REMARK SMILES O=C(OCCOC(=O)c1ccc(-c2c3nc(c(-c4c(F)cccc4F)c4ccc([nH]4)c(-c4c(F)cccc4F)c4nc(c(-c5c(F)cccc5F)c5ccc2[nH]5)C=C4)C=C3)cc1)C1=Cc2cc(Cl)ccc2O[C@@H]1C(F)(F)F
REMARK SMILES IDX 5 1 4 2 3 3 2 4 1 5 63 6 64 7 73 8 65 9 72 10 66 11 71 12
REMARK SMILES IDX 67 13 70 14 68 15 69 16 74 17 75 18 76 19 77 20 6 21 7 22
REMARK SMILES IDX 8 23 9 24 10 25 62 26 11 27 61 28 12 29 13 30 14 31 55 32
REMARK SMILES IDX 15 33 60 34 54 35 56 36 16 37 59 38 53 39 52 40 17 42 43 43
REMARK SMILES IDX 26 44 42 45 27 46 30 47 41 48 57 49 28 50 29 51 40 53 58 54
REMARK SMILES IDX 31 55 18 56 19 57 24 58 20 59 21 60 23 61 25 62 22 63 44 64
REMARK SMILES IDX 45 65 50 66 46 67 47 68 49 69 51 70 48 71 32 72 33 73 38 74
REMARK SMILES IDX 34 75 35 76 37 77 39 78 36 79
REMARK H PARENT 56 41 30 52
REMARK Flexibility Score: inf
ROOT
ATOM      1  C   UNL A   1      31.356  32.127  26.873  1.00  0.00     0.275 C 
ENDROOT
BRANCH   1   2
ATOM      2  C   UNL A   1      32.214  30.119  26.743  1.00  0.00     0.275 C 
BRANCH   2   3
ATOM      3  O   UNL A   1      31.795  29.008  25.815  1.00  0.00    -0.459 OA
BRANCH   3   4
ATOM      4  C   UNL A   1      31.491  27.894  26.484  1.00  0.00     0.338 C 
ATOM      5  O   UNL A   1      31.484  27.731  27.681  1.00  0.00    -0.246 OA
BRANCH   4   6
ATOM      6  C   UNL A   1      31.723  26.935  25.403  1.00  0.00     0.087 C 
ATOM      7  C   UNL A   1      33.069  26.456  25.252  1.00  0.00     0.027 C 
ATOM      8  C   UNL A   1      30.242  25.880  25.987  1.00  0.00     0.316 C 
ATOM      9  C   UNL A   1      33.638  24.873  25.789  1.00  0.00     0.019 A 
ATOM     10  O   UNL A   1      30.847  24.187  26.765  1.00  0.00    -0.475 OA
ATOM     11  C   UNL A   1      34.952  24.584  25.581  1.00  0.00     0.032 A 
ATOM     12  C   UNL A   1      32.643  23.769  26.678  1.00  0.00     0.128 A 
ATOM     13  C   UNL A   1      35.379  23.406  26.197  1.00  0.00     0.041 A 
ATOM     14  C   UNL A   1      33.141  22.638  27.252  1.00  0.00     0.048 A 
ATOM     15  Cl  UNL A   1      37.057  23.014  25.992  1.00  0.00    -0.084 Cl
ATOM     16  C   UNL A   1      34.541  22.508  26.999  1.00  0.00     0.024 A 
BRANCH   8  17
ATOM     17  C   UNL A   1      29.550  26.349  24.524  1.00  0.00     0.430 C 
ATOM     18  F   UNL A   1      29.804  25.495  23.546  1.00  0.00    -0.167 F 
ATOM     19  F   UNL A   1      28.180  26.261  24.590  1.00  0.00    -0.167 F 
ATOM     20  F   UNL A   1      29.739  27.618  24.094  1.00  0.00    -0.167 F 
ENDBRANCH   8  17
ENDBRANCH   4   6
ENDBRANCH   3   4
ENDBRANCH   2   3
ENDBRANCH   1   2
BRANCH   1  21
ATOM     21  O   UNL A   1      32.360  33.555  27.210  1.00  0.00    -0.458 OA
BRANCH  21  22
ATOM     22  C   UNL A   1      32.958  34.239  28.268  1.00  0.00     0.338 C 
ATOM     23  O   UNL A   1      32.461  34.985  29.095  1.00  0.00    -0.246 OA
BRANCH  22  24
ATOM     24  C   UNL A   1      34.266  33.567  28.538  1.00  0.00     0.060 A 
ATOM     25  C   UNL A   1      35.472  34.235  28.214  1.00  0.00     0.016 A 
ATOM     26  C   UNL A   1      34.273  32.520  29.450  1.00  0.00     0.016 A 
ATOM     27  C   UNL A   1      36.616  34.025  29.018  1.00  0.00     0.010 A 
ATOM     28  C   UNL A   1      35.400  32.322  30.243  1.00  0.00     0.010 A 
ATOM     29  C   UNL A   1      36.550  33.127  30.097  1.00  0.00    -0.014 A 
BRANCH  29  30
ATOM     30  C   UNL A   1      37.752  32.723  30.870  1.00  0.00     0.031 A 
ATOM     31  C   UNL A   1      38.473  31.560  30.267  1.00  0.00     0.074 A 
ATOM     32  C   UNL A   1      38.104  33.198  32.085  1.00  0.00     0.049 A 
ATOM     33  N   UNL A   1      39.369  30.766  30.782  1.00  0.00    -0.248 NA
ATOM     34  C   UNL A   1      38.035  31.191  28.908  1.00  0.00     0.031 C 
ATOM     35  C   UNL A   1      37.486  34.317  32.796  1.00  0.00     0.029 A 
ATOM     36  N   UNL A   1      39.078  32.757  32.957  1.00  0.00    -0.354 N 
ATOM     37  C   UNL A   1      39.562  29.788  29.820  1.00  0.00     0.074 A 
ATOM     38  C   UNL A   1      38.620  30.023  28.754  1.00  0.00     0.031 C 
ATOM     39  C   UNL A   1      38.094  34.469  33.992  1.00  0.00     0.029 A 
ATOM     40  C   UNL A   1      39.118  33.437  34.155  1.00  0.00     0.049 A 
ATOM     41  H   UNL A   1      39.692  32.018  32.742  1.00  0.00     0.167 HD
ATOM     42  C   UNL A   1      40.469  28.792  29.798  1.00  0.00     0.037 A 
ATOM     43  C   UNL A   1      39.886  33.229  35.250  1.00  0.00     0.037 A 
ATOM     44  C   UNL A   1      41.389  28.555  30.866  1.00  0.00     0.049 A 
ATOM     45  C   UNL A   1      40.874  32.079  35.242  1.00  0.00     0.074 A 
ATOM     46  C   UNL A   1      42.369  27.589  30.958  1.00  0.00     0.029 A 
ATOM     47  N   UNL A   1      41.424  29.294  32.041  1.00  0.00    -0.354 N 
ATOM     48  N   UNL A   1      41.101  31.188  34.303  1.00  0.00    -0.248 NA
ATOM     49  C   UNL A   1      41.712  31.898  36.440  1.00  0.00     0.031 C 
ATOM     50  C   UNL A   1      42.953  27.698  32.221  1.00  0.00     0.029 A 
ATOM     51  C   UNL A   1      42.398  28.788  32.878  1.00  0.00     0.049 A 
ATOM     52  H   UNL A   1      40.843  30.061  32.246  1.00  0.00     0.167 HD
ATOM     53  C   UNL A   1      42.132  30.379  34.773  1.00  0.00     0.074 A 
ATOM     54  C   UNL A   1      42.483  30.878  36.086  1.00  0.00     0.031 C 
ATOM     55  C   UNL A   1      42.743  29.328  34.171  1.00  0.00     0.037 A 
BRANCH  42  56
ATOM     56  C   UNL A   1      40.438  27.900  28.596  1.00  0.00     0.057 A 
ATOM     57  C   UNL A   1      39.758  26.671  28.600  1.00  0.00     0.134 A 
ATOM     58  C   UNL A   1      41.204  28.211  27.469  1.00  0.00     0.134 A 
ATOM     59  F   UNL A   1      39.040  26.293  29.669  1.00  0.00    -0.206 F 
ATOM     60  C   UNL A   1      39.902  25.755  27.559  1.00  0.00     0.040 A 
ATOM     61  C   UNL A   1      41.316  27.323  26.400  1.00  0.00     0.040 A 
ATOM     62  F   UNL A   1      41.889  29.363  27.405  1.00  0.00    -0.206 F 
ATOM     63  C   UNL A   1      40.683  26.082  26.454  1.00  0.00     0.006 A 
ENDBRANCH  42  56
BRANCH  43  64
ATOM     64  C   UNL A   1      39.782  34.115  36.449  1.00  0.00     0.057 A 
ATOM     65  C   UNL A   1      40.575  35.266  36.578  1.00  0.00     0.134 A 
ATOM     66  C   UNL A   1      38.926  33.819  37.517  1.00  0.00     0.134 A 
ATOM     67  F   UNL A   1      41.450  35.592  35.613  1.00  0.00    -0.206 F 
ATOM     68  C   UNL A   1      40.529  36.077  37.717  1.00  0.00     0.040 A 
ATOM     69  C   UNL A   1      38.851  34.635  38.653  1.00  0.00     0.040 A 
ATOM     70  F   UNL A   1      38.149  32.727  37.479  1.00  0.00    -0.206 F 
ATOM     71  C   UNL A   1      39.658  35.765  38.757  1.00  0.00     0.006 A 
ENDBRANCH  43  64
BRANCH  55  72
ATOM     72  C   UNL A   1      43.904  28.681  34.869  1.00  0.00     0.057 A 
ATOM     73  C   UNL A   1      45.212  29.161  34.751  1.00  0.00     0.134 A 
ATOM     74  C   UNL A   1      43.674  27.641  35.783  1.00  0.00     0.134 A 
ATOM     75  F   UNL A   1      45.502  30.152  33.894  1.00  0.00    -0.206 F 
ATOM     76  C   UNL A   1      46.253  28.625  35.514  1.00  0.00     0.040 A 
ATOM     77  C   UNL A   1      44.697  27.123  36.574  1.00  0.00     0.040 A 
ATOM     78  F   UNL A   1      42.437  27.151  35.958  1.00  0.00    -0.206 F 
ATOM     79  C   UNL A   1      45.993  27.614  36.439  1.00  0.00     0.006 A 
ENDBRANCH  55  72
ENDBRANCH  29  30
ENDBRANCH  22  24
ENDBRANCH  21  22
ENDBRANCH   1  21
TORSDOF 12
ENDMDL
