MODEL 1
REMARK VINA RESULT:     -13.8      0.000      0.000
REMARK SMILES Cc1ccc([C@H]2CC(c3cccs3)=NN2C(=O)CCC(=O)OCCOC(=O)c2ccc(-c3c4nc(c(-c5c(F)cccc5F)c5ccc([nH]5)c(-c5c(F)cccc5F)c5nc(c(-c6c(F)cccc6F)c6ccc3[nH]6)C=C5)C=C4)cc2)o1
REMARK SMILES IDX 23 1 22 2 20 3 21 4 19 5 18 6 16 7 17 8 15 9 6 10 7 11 8 12
REMARK SMILES IDX 14 13 5 14 1 15 2 16 3 17 82 18 4 19 9 20 10 21 13 22 11 23
REMARK SMILES IDX 12 24 24 25 25 26 26 27 27 28 28 29 29 30 81 31 30 32 80 33
REMARK SMILES IDX 31 34 32 35 33 36 74 37 34 38 79 39 73 40 75 41 35 42 78 43
REMARK SMILES IDX 72 44 71 45 36 47 62 48 45 49 61 50 46 51 49 52 60 53 76 54
REMARK SMILES IDX 47 55 48 56 59 58 77 59 50 60 37 61 38 62 43 63 39 64 40 65
REMARK SMILES IDX 42 66 44 67 41 68 63 69 64 70 69 71 65 72 66 73 68 74 70 75
REMARK SMILES IDX 67 76 51 77 52 78 57 79 53 80 54 81 56 82 58 83 55 84
REMARK H PARENT 75 46 49 57
REMARK Flexibility Score: inf
ROOT
ATOM      1  C   UNL A   1      40.769  20.819  26.872  1.00  0.00     0.274 C 
ENDROOT
BRANCH   1   2
ATOM      2  O   UNL A   1      39.450  21.676  26.631  1.00  0.00    -0.462 OA
BRANCH   2   3
ATOM      3  C   UNL A   1      38.441  21.783  25.645  1.00  0.00     0.306 C 
ATOM      4  O   UNL A   1      37.959  20.771  25.134  1.00  0.00    -0.252 OA
BRANCH   3   5
ATOM      5  C   UNL A   1      37.582  23.263  25.493  1.00  0.00     0.132 C 
BRANCH   5   6
ATOM      6  C   UNL A   1      36.057  23.566  25.340  1.00  0.00     0.114 C 
BRANCH   6   7
ATOM      7  C   UNL A   1      35.769  23.550  23.906  1.00  0.00     0.243 C 
ATOM      8  O   UNL A   1      36.588  23.202  23.056  1.00  0.00    -0.273 OA
BRANCH   7   9
ATOM      9  N   UNL A   1      34.603  24.214  23.700  1.00  0.00    -0.222 N 
ATOM     10  C   UNL A   1      33.433  23.817  22.814  1.00  0.00     0.183 C 
ATOM     11  C   UNL A   1      32.699  25.231  22.960  1.00  0.00     0.095 C 
ATOM     12  C   UNL A   1      33.265  25.831  24.233  1.00  0.00     0.081 C 
ATOM     13  N   UNL A   1      34.415  25.326  24.523  1.00  0.00    -0.173 NA
BRANCH  10  14
ATOM     14  C   UNL A   1      32.675  22.152  22.966  1.00  0.00     0.129 A 
ATOM     15  C   UNL A   1      33.103  19.256  25.136  1.00  0.00     0.087 C 
ATOM     16  C   UNL A   1      32.561  20.166  24.108  1.00  0.00     0.101 A 
ATOM     17  C   UNL A   1      32.049  19.858  22.900  1.00  0.00     0.045 A 
ATOM     18  O   UNL A   1      32.712  21.532  24.212  1.00  0.00    -0.464 OA
ATOM     19  C   UNL A   1      32.102  21.079  22.205  1.00  0.00     0.048 A 
ENDBRANCH  10  14
BRANCH  12  20
ATOM     20  C   UNL A   1      32.622  26.814  25.104  1.00  0.00     0.050 A 
ATOM     21  C   UNL A   1      32.364  26.740  26.469  1.00  0.00     0.022 A 
ATOM     22  S   UNL A   1      32.253  28.384  24.522  1.00  0.00    -0.142 S 
ATOM     23  C   UNL A   1      31.824  27.947  27.018  1.00  0.00     0.012 A 
ATOM     24  C   UNL A   1      31.741  28.937  26.067  1.00  0.00     0.065 A 
ENDBRANCH  12  20
ENDBRANCH   7   9
ENDBRANCH   6   7
ENDBRANCH   5   6
ENDBRANCH   3   5
ENDBRANCH   2   3
ENDBRANCH   1   2
BRANCH   1  25
ATOM     25  C   UNL A   1      42.344  21.154  26.095  1.00  0.00     0.275 C 
BRANCH  25  26
ATOM     26  O   UNL A   1      42.717  22.181  25.001  1.00  0.00    -0.458 OA
BRANCH  26  27
ATOM     27  C   UNL A   1      43.397  23.403  24.948  1.00  0.00     0.338 C 
ATOM     28  O   UNL A   1      44.385  23.607  24.259  1.00  0.00    -0.246 OA
BRANCH  27  29
ATOM     29  C   UNL A   1      42.722  24.592  25.739  1.00  0.00     0.060 A 
ATOM     30  C   UNL A   1      41.521  24.457  26.493  1.00  0.00     0.016 A 
ATOM     31  C   UNL A   1      43.347  25.833  25.844  1.00  0.00     0.016 A 
ATOM     32  C   UNL A   1      41.164  25.362  27.540  1.00  0.00     0.010 A 
ATOM     33  C   UNL A   1      42.929  26.790  26.820  1.00  0.00     0.010 A 
ATOM     34  C   UNL A   1      41.893  26.534  27.749  1.00  0.00    -0.014 A 
BRANCH  34  35
ATOM     35  C   UNL A   1      41.509  27.575  28.780  1.00  0.00     0.031 A 
ATOM     36  C   UNL A   1      42.239  27.537  30.099  1.00  0.00     0.074 A 
ATOM     37  C   UNL A   1      40.523  28.499  28.644  1.00  0.00     0.049 A 
ATOM     38  N   UNL A   1      41.986  28.158  31.223  1.00  0.00    -0.248 NA
ATOM     39  C   UNL A   1      43.420  26.665  30.142  1.00  0.00     0.031 C 
ATOM     40  C   UNL A   1      39.769  28.795  27.430  1.00  0.00     0.029 A 
ATOM     41  N   UNL A   1      39.959  29.360  29.575  1.00  0.00    -0.354 N 
ATOM     42  C   UNL A   1      42.965  27.736  32.114  1.00  0.00     0.074 A 
ATOM     43  C   UNL A   1      43.797  26.787  31.404  1.00  0.00     0.031 C 
ATOM     44  C   UNL A   1      38.804  29.695  27.700  1.00  0.00     0.029 A 
ATOM     45  C   UNL A   1      38.858  30.056  29.113  1.00  0.00     0.049 A 
ATOM     46  H   UNL A   1      40.313  29.466  30.488  1.00  0.00     0.167 HD
ATOM     47  C   UNL A   1      43.166  28.096  33.405  1.00  0.00     0.037 A 
ATOM     48  C   UNL A   1      37.983  30.877  29.741  1.00  0.00     0.037 A 
ATOM     49  C   UNL A   1      42.349  29.027  34.137  1.00  0.00     0.049 A 
ATOM     50  C   UNL A   1      38.155  31.185  31.210  1.00  0.00     0.074 A 
ATOM     51  C   UNL A   1      42.490  29.444  35.450  1.00  0.00     0.029 A 
ATOM     52  N   UNL A   1      41.236  29.677  33.630  1.00  0.00    -0.354 N 
ATOM     53  N   UNL A   1      39.090  30.780  32.035  1.00  0.00    -0.248 NA
ATOM     54  C   UNL A   1      37.159  32.073  31.837  1.00  0.00     0.031 C 
ATOM     55  C   UNL A   1      41.430  30.304  35.755  1.00  0.00     0.029 A 
ATOM     56  C   UNL A   1      40.666  30.471  34.612  1.00  0.00     0.049 A 
ATOM     57  H   UNL A   1      40.901  29.588  32.708  1.00  0.00     0.167 HD
ATOM     58  C   UNL A   1      38.818  31.391  33.255  1.00  0.00     0.074 A 
ATOM     59  C   UNL A   1      37.636  32.202  33.066  1.00  0.00     0.031 C 
ATOM     60  C   UNL A   1      39.497  31.291  34.425  1.00  0.00     0.037 A 
BRANCH  47  61
ATOM     61  C   UNL A   1      44.309  27.438  34.120  1.00  0.00     0.057 A 
ATOM     62  C   UNL A   1      45.588  28.009  34.159  1.00  0.00     0.134 A 
ATOM     63  C   UNL A   1      44.126  26.216  34.779  1.00  0.00     0.134 A 
ATOM     64  F   UNL A   1      45.833  29.169  33.529  1.00  0.00    -0.206 F 
ATOM     65  C   UNL A   1      46.652  27.372  34.798  1.00  0.00     0.040 A 
ATOM     66  C   UNL A   1      45.174  25.585  35.449  1.00  0.00     0.040 A 
ATOM     67  F   UNL A   1      42.926  25.617  34.785  1.00  0.00    -0.206 F 
ATOM     68  C   UNL A   1      46.445  26.158  35.450  1.00  0.00     0.006 A 
ENDBRANCH  47  61
BRANCH  48  69
ATOM     69  C   UNL A   1      36.825  31.475  29.006  1.00  0.00     0.057 A 
ATOM     70  C   UNL A   1      36.817  32.825  28.627  1.00  0.00     0.134 A 
ATOM     71  C   UNL A   1      35.667  30.733  28.733  1.00  0.00     0.134 A 
ATOM     72  F   UNL A   1      37.872  33.607  28.895  1.00  0.00    -0.206 F 
ATOM     73  C   UNL A   1      35.702  33.417  28.022  1.00  0.00     0.040 A 
ATOM     74  C   UNL A   1      34.556  31.305  28.106  1.00  0.00     0.040 A 
ATOM     75  F   UNL A   1      35.594  29.441  29.083  1.00  0.00    -0.206 F 
ATOM     76  C   UNL A   1      34.568  32.653  27.755  1.00  0.00     0.006 A 
ENDBRANCH  48  69
BRANCH  60  77
ATOM     77  C   UNL A   1      39.020  32.114  35.590  1.00  0.00     0.057 A 
ATOM     78  C   UNL A   1      38.233  31.573  36.616  1.00  0.00     0.134 A 
ATOM     79  C   UNL A   1      39.404  33.457  35.716  1.00  0.00     0.134 A 
ATOM     80  F   UNL A   1      37.821  30.298  36.555  1.00  0.00    -0.206 F 
ATOM     81  C   UNL A   1      37.830  32.342  37.711  1.00  0.00     0.040 A 
ATOM     82  C   UNL A   1      39.032  34.227  36.819  1.00  0.00     0.040 A 
ATOM     83  F   UNL A   1      40.166  34.037  34.777  1.00  0.00    -0.206 F 
ATOM     84  C   UNL A   1      38.237  33.671  37.818  1.00  0.00     0.006 A 
ENDBRANCH  60  77
ENDBRANCH  34  35
ENDBRANCH  27  29
ENDBRANCH  26  27
ENDBRANCH  25  26
ENDBRANCH   1  25
TORSDOF 16
ENDMDL
MODEL 2
REMARK VINA RESULT:     -13.8      0.608      1.188
REMARK SMILES Cc1ccc([C@H]2CC(c3cccs3)=NN2C(=O)CCC(=O)OCCOC(=O)c2ccc(-c3c4nc(c(-c5c(F)cccc5F)c5ccc([nH]5)c(-c5c(F)cccc5F)c5nc(c(-c6c(F)cccc6F)c6ccc3[nH]6)C=C5)C=C4)cc2)o1
REMARK SMILES IDX 23 1 22 2 20 3 21 4 19 5 18 6 16 7 17 8 15 9 6 10 7 11 8 12
REMARK SMILES IDX 14 13 5 14 1 15 2 16 3 17 82 18 4 19 9 20 10 21 13 22 11 23
REMARK SMILES IDX 12 24 24 25 25 26 26 27 27 28 28 29 29 30 81 31 30 32 80 33
REMARK SMILES IDX 31 34 32 35 33 36 74 37 34 38 79 39 73 40 75 41 35 42 78 43
REMARK SMILES IDX 72 44 71 45 36 47 62 48 45 49 61 50 46 51 49 52 60 53 76 54
REMARK SMILES IDX 47 55 48 56 59 58 77 59 50 60 37 61 38 62 43 63 39 64 40 65
REMARK SMILES IDX 42 66 44 67 41 68 63 69 64 70 69 71 65 72 66 73 68 74 70 75
REMARK SMILES IDX 67 76 51 77 52 78 57 79 53 80 54 81 56 82 58 83 55 84
REMARK H PARENT 75 46 49 57
REMARK Flexibility Score: inf
ROOT
ATOM      1  C   UNL A   1      40.765  20.639  26.802  1.00  0.00     0.274 C 
ENDROOT
BRANCH   1   2
ATOM      2  O   UNL A   1      39.407  21.425  26.536  1.00  0.00    -0.462 OA
BRANCH   2   3
ATOM      3  C   UNL A   1      38.459  21.547  25.493  1.00  0.00     0.306 C 
ATOM      4  O   UNL A   1      37.889  20.549  25.049  1.00  0.00    -0.252 OA
BRANCH   3   5
ATOM      5  C   UNL A   1      37.780  23.090  25.164  1.00  0.00     0.132 C 
BRANCH   5   6
ATOM      6  C   UNL A   1      36.297  23.563  25.037  1.00  0.00     0.114 C 
BRANCH   6   7
ATOM      7  C   UNL A   1      35.870  23.245  23.675  1.00  0.00     0.243 C 
ATOM      8  O   UNL A   1      36.656  23.002  22.760  1.00  0.00    -0.273 OA
BRANCH   7   9
ATOM      9  N   UNL A   1      34.546  23.526  23.568  1.00  0.00    -0.222 N 
ATOM     10  C   UNL A   1      33.399  22.576  23.262  1.00  0.00     0.183 C 
ATOM     11  C   UNL A   1      32.333  23.752  23.062  1.00  0.00     0.095 C 
ATOM     12  C   UNL A   1      32.921  24.939  23.800  1.00  0.00     0.081 C 
ATOM     13  N   UNL A   1      34.199  24.831  23.926  1.00  0.00    -0.173 NA
BRANCH  10  14
ATOM     14  C   UNL A   1      33.184  21.036  24.237  1.00  0.00     0.129 A 
ATOM     15  C   UNL A   1      34.659  17.704  24.251  1.00  0.00     0.087 C 
ATOM     16  C   UNL A   1      33.860  18.881  24.642  1.00  0.00     0.101 A 
ATOM     17  C   UNL A   1      32.616  18.918  25.159  1.00  0.00     0.045 A 
ATOM     18  O   UNL A   1      34.262  20.158  24.314  1.00  0.00    -0.464 OA
ATOM     19  C   UNL A   1      32.208  20.243  24.928  1.00  0.00     0.048 A 
ENDBRANCH  10  14
BRANCH  12  20
ATOM     20  C   UNL A   1      32.191  26.066  24.377  1.00  0.00     0.050 A 
ATOM     21  C   UNL A   1      31.550  26.159  25.609  1.00  0.00     0.022 A 
ATOM     22  S   UNL A   1      32.208  27.599  23.608  1.00  0.00    -0.142 S 
ATOM     23  C   UNL A   1      31.037  27.465  25.892  1.00  0.00     0.012 A 
ATOM     24  C   UNL A   1      31.356  28.356  24.895  1.00  0.00     0.065 A 
ENDBRANCH  12  20
ENDBRANCH   7   9
ENDBRANCH   6   7
ENDBRANCH   5   6
ENDBRANCH   3   5
ENDBRANCH   2   3
ENDBRANCH   1   2
BRANCH   1  25
ATOM     25  C   UNL A   1      42.349  21.104  26.118  1.00  0.00     0.275 C 
BRANCH  25  26
ATOM     26  O   UNL A   1      42.697  22.144  25.027  1.00  0.00    -0.458 OA
BRANCH  26  27
ATOM     27  C   UNL A   1      43.375  23.367  24.972  1.00  0.00     0.338 C 
ATOM     28  O   UNL A   1      44.354  23.576  24.272  1.00  0.00    -0.246 OA
BRANCH  27  29
ATOM     29  C   UNL A   1      42.709  24.551  25.777  1.00  0.00     0.060 A 
ATOM     30  C   UNL A   1      41.538  24.401  26.576  1.00  0.00     0.016 A 
ATOM     31  C   UNL A   1      43.315  25.803  25.850  1.00  0.00     0.016 A 
ATOM     32  C   UNL A   1      41.204  25.308  27.628  1.00  0.00     0.010 A 
ATOM     33  C   UNL A   1      42.916  26.761  26.833  1.00  0.00     0.010 A 
ATOM     34  C   UNL A   1      41.919  26.495  27.802  1.00  0.00    -0.014 A 
BRANCH  34  35
ATOM     35  C   UNL A   1      41.554  27.537  28.838  1.00  0.00     0.031 A 
ATOM     36  C   UNL A   1      42.290  27.485  30.153  1.00  0.00     0.074 A 
ATOM     37  C   UNL A   1      40.580  28.475  28.710  1.00  0.00     0.049 A 
ATOM     38  N   UNL A   1      42.051  28.106  31.281  1.00  0.00    -0.248 NA
ATOM     39  C   UNL A   1      43.459  26.596  30.188  1.00  0.00     0.031 C 
ATOM     40  C   UNL A   1      39.825  28.786  27.500  1.00  0.00     0.029 A 
ATOM     41  N   UNL A   1      40.033  29.341  29.646  1.00  0.00    -0.354 N 
ATOM     42  C   UNL A   1      43.029  27.667  32.165  1.00  0.00     0.074 A 
ATOM     43  C   UNL A   1      43.843  26.709  31.449  1.00  0.00     0.031 C 
ATOM     44  C   UNL A   1      38.874  29.698  27.778  1.00  0.00     0.029 A 
ATOM     45  C   UNL A   1      38.940  30.055  29.192  1.00  0.00     0.049 A 
ATOM     46  H   UNL A   1      40.394  29.439  30.557  1.00  0.00     0.167 HD
ATOM     47  C   UNL A   1      43.241  28.020  33.456  1.00  0.00     0.037 A 
ATOM     48  C   UNL A   1      38.079  30.885  29.827  1.00  0.00     0.037 A 
ATOM     49  C   UNL A   1      42.440  28.960  34.196  1.00  0.00     0.049 A 
ATOM     50  C   UNL A   1      38.263  31.186  31.296  1.00  0.00     0.074 A 
ATOM     51  C   UNL A   1      42.594  29.371  35.509  1.00  0.00     0.029 A 
ATOM     52  N   UNL A   1      41.335  29.627  33.696  1.00  0.00    -0.354 N 
ATOM     53  N   UNL A   1      39.196  30.765  32.115  1.00  0.00    -0.248 NA
ATOM     54  C   UNL A   1      37.282  32.086  31.930  1.00  0.00     0.031 C 
ATOM     55  C   UNL A   1      41.547  30.244  35.822  1.00  0.00     0.029 A 
ATOM     56  C   UNL A   1      40.780  30.426  34.683  1.00  0.00     0.049 A 
ATOM     57  H   UNL A   1      40.994  29.546  32.776  1.00  0.00     0.167 HD
ATOM     58  C   UNL A   1      38.938  31.376  33.339  1.00  0.00     0.074 A 
ATOM     59  C   UNL A   1      37.766  32.204  33.158  1.00  0.00     0.031 C 
ATOM     60  C   UNL A   1      39.621  31.263  34.505  1.00  0.00     0.037 A 
BRANCH  47  61
ATOM     61  C   UNL A   1      44.378  27.343  34.164  1.00  0.00     0.057 A 
ATOM     62  C   UNL A   1      45.665  27.897  34.198  1.00  0.00     0.134 A 
ATOM     63  C   UNL A   1      44.181  26.122  34.820  1.00  0.00     0.134 A 
ATOM     64  F   UNL A   1      45.923  29.054  33.570  1.00  0.00    -0.206 F 
ATOM     65  C   UNL A   1      46.723  27.243  34.829  1.00  0.00     0.040 A 
ATOM     66  C   UNL A   1      45.224  25.475  35.483  1.00  0.00     0.040 A 
ATOM     67  F   UNL A   1      42.972  25.540  34.830  1.00  0.00    -0.206 F 
ATOM     68  C   UNL A   1      46.502  26.030  35.479  1.00  0.00     0.006 A 
ENDBRANCH  47  61
BRANCH  48  69
ATOM     69  C   UNL A   1      36.927  31.502  29.100  1.00  0.00     0.057 A 
ATOM     70  C   UNL A   1      36.944  32.848  28.706  1.00  0.00     0.134 A 
ATOM     71  C   UNL A   1      35.749  30.784  28.848  1.00  0.00     0.134 A 
ATOM     72  F   UNL A   1      38.020  33.608  28.954  1.00  0.00    -0.206 F 
ATOM     73  C   UNL A   1      35.836  33.458  28.108  1.00  0.00     0.040 A 
ATOM     74  C   UNL A   1      34.643  31.374  28.228  1.00  0.00     0.040 A 
ATOM     75  F   UNL A   1      35.651  29.497  29.212  1.00  0.00    -0.206 F 
ATOM     76  C   UNL A   1      34.682  32.717  27.862  1.00  0.00     0.006 A 
ENDBRANCH  48  69
BRANCH  60  77
ATOM     77  C   UNL A   1      39.162  32.088  35.675  1.00  0.00     0.057 A 
ATOM     78  C   UNL A   1      39.581  33.411  35.869  1.00  0.00     0.134 A 
ATOM     79  C   UNL A   1      38.237  31.566  36.592  1.00  0.00     0.134 A 
ATOM     80  F   UNL A   1      40.471  33.970  35.035  1.00  0.00    -0.206 F 
ATOM     81  C   UNL A   1      39.114  34.176  36.940  1.00  0.00     0.040 A 
ATOM     82  C   UNL A   1      37.742  32.331  37.650  1.00  0.00     0.040 A 
ATOM     83  F   UNL A   1      37.783  30.311  36.462  1.00  0.00    -0.206 F 
ATOM     84  C   UNL A   1      38.185  33.639  37.829  1.00  0.00     0.006 A 
ENDBRANCH  60  77
ENDBRANCH  34  35
ENDBRANCH  27  29
ENDBRANCH  26  27
ENDBRANCH  25  26
ENDBRANCH   1  25
TORSDOF 16
ENDMDL
MODEL 3
REMARK VINA RESULT:     -13.7      1.692      3.384
REMARK SMILES Cc1ccc([C@H]2CC(c3cccs3)=NN2C(=O)CCC(=O)OCCOC(=O)c2ccc(-c3c4nc(c(-c5c(F)cccc5F)c5ccc([nH]5)c(-c5c(F)cccc5F)c5nc(c(-c6c(F)cccc6F)c6ccc3[nH]6)C=C5)C=C4)cc2)o1
REMARK SMILES IDX 23 1 22 2 20 3 21 4 19 5 18 6 16 7 17 8 15 9 6 10 7 11 8 12
REMARK SMILES IDX 14 13 5 14 1 15 2 16 3 17 82 18 4 19 9 20 10 21 13 22 11 23
REMARK SMILES IDX 12 24 24 25 25 26 26 27 27 28 28 29 29 30 81 31 30 32 80 33
REMARK SMILES IDX 31 34 32 35 33 36 74 37 34 38 79 39 73 40 75 41 35 42 78 43
REMARK SMILES IDX 72 44 71 45 36 47 62 48 45 49 61 50 46 51 49 52 60 53 76 54
REMARK SMILES IDX 47 55 48 56 59 58 77 59 50 60 37 61 38 62 43 63 39 64 40 65
REMARK SMILES IDX 42 66 44 67 41 68 63 69 64 70 69 71 65 72 66 73 68 74 70 75
REMARK SMILES IDX 67 76 51 77 52 78 57 79 53 80 54 81 56 82 58 83 55 84
REMARK H PARENT 75 46 49 57
REMARK Flexibility Score: inf
ROOT
ATOM      1  C   UNL A   1      42.577  19.420  25.790  1.00  0.00     0.274 C 
ENDROOT
BRANCH   1   2
ATOM      2  O   UNL A   1      41.073  19.757  26.190  1.00  0.00    -0.462 OA
BRANCH   2   3
ATOM      3  C   UNL A   1      40.383  20.777  26.886  1.00  0.00     0.306 C 
ATOM      4  O   UNL A   1      40.745  21.119  28.012  1.00  0.00    -0.252 OA
BRANCH   3   5
ATOM      5  C   UNL A   1      39.351  21.830  26.005  1.00  0.00     0.132 C 
BRANCH   5   6
ATOM      6  C   UNL A   1      38.018  21.570  25.233  1.00  0.00     0.114 C 
BRANCH   6   7
ATOM      7  C   UNL A   1      37.062  22.575  25.695  1.00  0.00     0.243 C 
ATOM      8  O   UNL A   1      37.399  23.648  26.195  1.00  0.00    -0.273 OA
BRANCH   7   9
ATOM      9  N   UNL A   1      35.829  22.009  25.719  1.00  0.00    -0.222 N 
ATOM     10  C   UNL A   1      34.510  22.633  26.149  1.00  0.00     0.183 C 
ATOM     11  C   UNL A   1      33.717  21.243  26.123  1.00  0.00     0.095 C 
ATOM     12  C   UNL A   1      34.535  20.348  25.212  1.00  0.00     0.081 C 
ATOM     13  N   UNL A   1      35.761  20.740  25.140  1.00  0.00    -0.173 NA
BRANCH  10  14
ATOM     14  C   UNL A   1      33.966  24.235  25.439  1.00  0.00     0.129 A 
ATOM     15  C   UNL A   1      33.236  25.524  22.109  1.00  0.00     0.087 C 
ATOM     16  C   UNL A   1      33.354  25.428  23.577  1.00  0.00     0.101 A 
ATOM     17  C   UNL A   1      33.713  26.386  24.455  1.00  0.00     0.045 A 
ATOM     18  O   UNL A   1      33.290  24.211  24.221  1.00  0.00    -0.464 OA
ATOM     19  C   UNL A   1      34.070  25.657  25.602  1.00  0.00     0.048 A 
ENDBRANCH  10  14
BRANCH  12  20
ATOM     20  C   UNL A   1      34.054  19.206  24.437  1.00  0.00     0.050 A 
ATOM     21  C   UNL A   1      34.578  17.920  24.351  1.00  0.00     0.022 A 
ATOM     22  S   UNL A   1      32.546  19.281  23.621  1.00  0.00    -0.142 S 
ATOM     23  C   UNL A   1      33.771  17.021  23.582  1.00  0.00     0.012 A 
ATOM     24  C   UNL A   1      32.615  17.629  23.152  1.00  0.00     0.065 A 
ENDBRANCH  12  20
ENDBRANCH   7   9
ENDBRANCH   6   7
ENDBRANCH   5   6
ENDBRANCH   3   5
ENDBRANCH   2   3
ENDBRANCH   1   2
BRANCH   1  25
ATOM     25  C   UNL A   1      43.867  20.642  25.601  1.00  0.00     0.275 C 
BRANCH  25  26
ATOM     26  O   UNL A   1      43.893  22.135  26.004  1.00  0.00    -0.458 OA
BRANCH  26  27
ATOM     27  C   UNL A   1      43.814  23.365  25.342  1.00  0.00     0.338 C 
ATOM     28  O   UNL A   1      44.175  23.545  24.188  1.00  0.00    -0.246 OA
BRANCH  27  29
ATOM     29  C   UNL A   1      43.078  24.517  26.132  1.00  0.00     0.060 A 
ATOM     30  C   UNL A   1      41.950  24.300  26.976  1.00  0.00     0.016 A 
ATOM     31  C   UNL A   1      43.580  25.817  26.144  1.00  0.00     0.016 A 
ATOM     32  C   UNL A   1      41.576  25.212  28.010  1.00  0.00     0.010 A 
ATOM     33  C   UNL A   1      43.135  26.771  27.109  1.00  0.00     0.010 A 
ATOM     34  C   UNL A   1      42.196  26.458  28.120  1.00  0.00    -0.014 A 
BRANCH  34  35
ATOM     35  C   UNL A   1      41.780  27.503  29.135  1.00  0.00     0.031 A 
ATOM     36  C   UNL A   1      42.494  27.493  30.463  1.00  0.00     0.074 A 
ATOM     37  C   UNL A   1      40.778  28.406  28.978  1.00  0.00     0.049 A 
ATOM     38  N   UNL A   1      42.216  28.121  31.578  1.00  0.00    -0.248 NA
ATOM     39  C   UNL A   1      43.691  26.643  30.530  1.00  0.00     0.031 C 
ATOM     40  C   UNL A   1      40.034  28.676  27.752  1.00  0.00     0.029 A 
ATOM     41  N   UNL A   1      40.187  29.267  29.893  1.00  0.00    -0.354 N 
ATOM     42  C   UNL A   1      43.193  27.726  32.485  1.00  0.00     0.074 A 
ATOM     43  C   UNL A   1      44.050  26.786  31.795  1.00  0.00     0.031 C 
ATOM     44  C   UNL A   1      39.049  29.560  28.001  1.00  0.00     0.029 A 
ATOM     45  C   UNL A   1      39.079  29.937  29.410  1.00  0.00     0.049 A 
ATOM     46  H   UNL A   1      40.529  29.389  30.808  1.00  0.00     0.167 HD
ATOM     47  C   UNL A   1      43.371  28.104  33.773  1.00  0.00     0.037 A 
ATOM     48  C   UNL A   1      38.182  30.748  30.019  1.00  0.00     0.037 A 
ATOM     49  C   UNL A   1      42.528  29.027  34.486  1.00  0.00     0.049 A 
ATOM     50  C   UNL A   1      38.331  31.075  31.486  1.00  0.00     0.074 A 
ATOM     51  C   UNL A   1      42.646  29.461  35.796  1.00  0.00     0.029 A 
ATOM     52  N   UNL A   1      41.410  29.651  33.958  1.00  0.00    -0.354 N 
ATOM     53  N   UNL A   1      39.262  30.696  32.327  1.00  0.00    -0.248 NA
ATOM     54  C   UNL A   1      37.310  31.951  32.091  1.00  0.00     0.031 C 
ATOM     55  C   UNL A   1      41.566  30.304  36.079  1.00  0.00     0.029 A 
ATOM     56  C   UNL A   1      40.813  30.445  34.925  1.00  0.00     0.049 A 
ATOM     57  H   UNL A   1      41.088  29.546  33.034  1.00  0.00     0.167 HD
ATOM     58  C   UNL A   1      38.964  31.315  33.537  1.00  0.00     0.074 A 
ATOM     59  C   UNL A   1      37.769  32.102  33.325  1.00  0.00     0.031 C 
ATOM     60  C   UNL A   1      39.631  31.241  34.716  1.00  0.00     0.037 A 
BRANCH  47  61
ATOM     61  C   UNL A   1      44.518  27.475  34.509  1.00  0.00     0.057 A 
ATOM     62  C   UNL A   1      45.787  28.067  34.550  1.00  0.00     0.134 A 
ATOM     63  C   UNL A   1      44.348  26.261  35.187  1.00  0.00     0.134 A 
ATOM     64  F   UNL A   1      46.020  29.220  33.904  1.00  0.00    -0.206 F 
ATOM     65  C   UNL A   1      46.855  27.457  35.209  1.00  0.00     0.040 A 
ATOM     66  C   UNL A   1      45.399  25.658  35.876  1.00  0.00     0.040 A 
ATOM     67  F   UNL A   1      43.156  25.644  35.191  1.00  0.00    -0.206 F 
ATOM     68  C   UNL A   1      46.660  26.250  35.879  1.00  0.00     0.006 A 
ENDBRANCH  47  61
BRANCH  48  69
ATOM     69  C   UNL A   1      37.022  31.316  29.264  1.00  0.00     0.057 A 
ATOM     70  C   UNL A   1      35.895  30.540  28.958  1.00  0.00     0.134 A 
ATOM     71  C   UNL A   1      37.044  32.625  28.762  1.00  0.00     0.134 A 
ATOM     72  F   UNL A   1      35.824  29.265  29.367  1.00  0.00    -0.206 F 
ATOM     73  C   UNL A   1      34.847  31.034  28.174  1.00  0.00     0.040 A 
ATOM     74  C   UNL A   1      35.992  33.140  27.998  1.00  0.00     0.040 A 
ATOM     75  F   UNL A   1      38.097  33.422  28.997  1.00  0.00    -0.206 F 
ATOM     76  C   UNL A   1      34.892  32.342  27.696  1.00  0.00     0.006 A 
ENDBRANCH  48  69
BRANCH  60  77
ATOM     77  C   UNL A   1      39.125  32.066  35.866  1.00  0.00     0.057 A 
ATOM     78  C   UNL A   1      38.233  31.556  36.818  1.00  0.00     0.134 A 
ATOM     79  C   UNL A   1      39.584  33.378  36.054  1.00  0.00     0.134 A 
ATOM     80  F   UNL A   1      37.746  30.312  36.694  1.00  0.00    -0.206 F 
ATOM     81  C   UNL A   1      37.802  32.325  37.902  1.00  0.00     0.040 A 
ATOM     82  C   UNL A   1      39.183  34.146  37.149  1.00  0.00     0.040 A 
ATOM     83  F   UNL A   1      40.448  33.928  35.188  1.00  0.00    -0.206 F 
ATOM     84  C   UNL A   1      38.284  33.621  38.075  1.00  0.00     0.006 A 
ENDBRANCH  60  77
ENDBRANCH  34  35
ENDBRANCH  27  29
ENDBRANCH  26  27
ENDBRANCH  25  26
ENDBRANCH   1  25
TORSDOF 16
ENDMDL
