MODEL 1
REMARK VINA RESULT:     -11.6      0.000      0.000
REMARK SMILES COC(=O)c1ccc(Cl)c(-c2ccc(C(=O)OCCOC(=O)c3ccc(-c4c5nc(c(-c6c(F)cccc6F)c6ccc([nH]6)c(-c6c(F)cccc6F)c6nc(c(-c7c(F)cccc7F)c7ccc4[nH]7)C=C6)C=C5)cc3)nc2)c1
REMARK SMILES IDX 18 1 17 2 15 3 16 4 14 5 11 6 12 7 78 8 13 9 77 10 10 11
REMARK SMILES IDX 5 12 6 13 79 14 7 15 8 16 9 17 3 18 4 19 2 20 1 21 19 22
REMARK SMILES IDX 20 23 21 24 22 25 23 26 24 27 76 28 25 29 75 30 26 31 27 32
REMARK SMILES IDX 28 33 69 34 29 35 74 36 68 37 70 38 30 39 73 40 67 41 66 42
REMARK SMILES IDX 31 44 57 45 40 46 56 47 41 48 44 49 55 50 71 51 42 52 43 53
REMARK SMILES IDX 54 55 72 56 45 57 32 58 33 59 38 60 34 61 35 62 37 63 39 64
REMARK SMILES IDX 36 65 58 66 59 67 64 68 60 69 61 70 63 71 65 72 62 73 46 74
REMARK SMILES IDX 47 75 52 76 48 77 49 78 51 79 53 80 50 81
REMARK H PARENT 70 43 44 54
REMARK Flexibility Score: inf
ROOT
ATOM      1  C   UNL A   1      42.506  21.168  25.792  1.00  0.00     0.275 C 
ENDROOT
BRANCH   1   2
ATOM      2  O   UNL A   1      41.174  21.643  25.509  1.00  0.00    -0.457 OA
BRANCH   2   3
ATOM      3  C   UNL A   1      40.300  21.569  26.548  1.00  0.00     0.357 C 
ATOM      4  O   UNL A   1      40.584  21.210  27.682  1.00  0.00    -0.244 OA
BRANCH   3   5
ATOM      5  C   UNL A   1      38.940  22.070  26.158  1.00  0.00     0.148 A 
ATOM      6  C   UNL A   1      36.485  23.185  25.528  1.00  0.00     0.002 A 
ATOM      7  C   UNL A   1      36.780  21.872  25.138  1.00  0.00     0.013 A 
ATOM      8  C   UNL A   1      37.481  23.870  26.218  1.00  0.00     0.120 A 
ATOM      9  C   UNL A   1      38.023  21.305  25.448  1.00  0.00     0.037 A 
ATOM     10  N   UNL A   1      38.677  23.344  26.554  1.00  0.00    -0.249 NA
BRANCH   6  11
ATOM     11  C   UNL A   1      35.171  23.807  25.322  1.00  0.00     0.003 A 
ATOM     12  C   UNL A   1      33.727  25.319  24.047  1.00  0.00     0.060 A 
ATOM     13  C   UNL A   1      32.720  25.171  25.008  1.00  0.00     0.017 A 
ATOM     14  C   UNL A   1      34.941  24.629  24.201  1.00  0.00     0.026 A 
ATOM     15  C   UNL A   1      32.926  24.348  26.115  1.00  0.00     0.022 A 
ATOM     16  C   UNL A   1      34.139  23.675  26.274  1.00  0.00     0.048 A 
ATOM     17  Cl  UNL A   1      34.329  22.706  27.696  1.00  0.00    -0.084 Cl
BRANCH  12  18
ATOM     18  C   UNL A   1      33.544  26.200  22.861  1.00  0.00     0.337 C 
ATOM     19  O   UNL A   1      33.906  25.902  21.736  1.00  0.00    -0.246 OA
BRANCH  18  20
ATOM     20  O   UNL A   1      32.958  27.365  23.237  1.00  0.00    -0.465 OA
ATOM     21  C   UNL A   1      33.738  28.536  22.991  1.00  0.00     0.282 C 
ENDBRANCH  18  20
ENDBRANCH  12  18
ENDBRANCH   6  11
ENDBRANCH   3   5
ENDBRANCH   2   3
ENDBRANCH   1   2
BRANCH   1  22
ATOM     22  C   UNL A   1      43.575  22.005  25.081  1.00  0.00     0.275 C 
BRANCH  22  23
ATOM     23  O   UNL A   1      43.104  23.326  24.748  1.00  0.00    -0.458 OA
BRANCH  23  24
ATOM     24  C   UNL A   1      43.922  24.337  25.126  1.00  0.00     0.338 C 
ATOM     25  O   UNL A   1      45.009  24.623  24.651  1.00  0.00    -0.246 OA
BRANCH  24  26
ATOM     26  C   UNL A   1      43.264  25.163  26.150  1.00  0.00     0.060 A 
ATOM     27  C   UNL A   1      43.718  26.472  26.308  1.00  0.00     0.016 A 
ATOM     28  C   UNL A   1      42.302  24.645  27.018  1.00  0.00     0.016 A 
ATOM     29  C   UNL A   1      43.236  27.269  27.340  1.00  0.00     0.010 A 
ATOM     30  C   UNL A   1      41.801  25.454  28.048  1.00  0.00     0.010 A 
ATOM     31  C   UNL A   1      42.276  26.767  28.226  1.00  0.00    -0.014 A 
BRANCH  31  32
ATOM     32  C   UNL A   1      41.818  27.619  29.351  1.00  0.00     0.031 A 
ATOM     33  C   UNL A   1      42.565  27.617  30.654  1.00  0.00     0.074 A 
ATOM     34  C   UNL A   1      40.760  28.436  29.187  1.00  0.00     0.049 A 
ATOM     35  N   UNL A   1      42.287  28.245  31.770  1.00  0.00    -0.248 NA
ATOM     36  C   UNL A   1      43.786  26.800  30.712  1.00  0.00     0.031 C 
ATOM     37  C   UNL A   1      39.983  28.571  27.954  1.00  0.00     0.029 A 
ATOM     38  N   UNL A   1      40.164  29.314  30.057  1.00  0.00    -0.354 N 
ATOM     39  C   UNL A   1      43.279  27.876  32.669  1.00  0.00     0.074 A 
ATOM     40  C   UNL A   1      44.160  26.961  31.973  1.00  0.00     0.031 C 
ATOM     41  C   UNL A   1      39.022  29.489  28.142  1.00  0.00     0.029 A 
ATOM     42  C   UNL A   1      39.082  29.967  29.521  1.00  0.00     0.049 A 
ATOM     43  H   UNL A   1      40.482  29.461  30.977  1.00  0.00     0.167 HD
ATOM     44  C   UNL A   1      43.440  28.267  33.956  1.00  0.00     0.037 A 
ATOM     45  C   UNL A   1      38.217  30.832  30.083  1.00  0.00     0.037 A 
ATOM     46  C   UNL A   1      42.581  29.200  34.637  1.00  0.00     0.049 A 
ATOM     47  C   UNL A   1      38.391  31.215  31.525  1.00  0.00     0.074 A 
ATOM     48  C   UNL A   1      42.675  29.670  35.936  1.00  0.00     0.029 A 
ATOM     49  N   UNL A   1      41.470  29.807  34.072  1.00  0.00    -0.354 N 
ATOM     50  N   UNL A   1      39.320  30.846  32.372  1.00  0.00    -0.248 NA
ATOM     51  C   UNL A   1      37.388  32.128  32.093  1.00  0.00     0.031 C 
ATOM     52  C   UNL A   1      41.599  30.534  36.168  1.00  0.00     0.029 A 
ATOM     53  C   UNL A   1      40.857  30.633  35.002  1.00  0.00     0.049 A 
ATOM     54  H   UNL A   1      41.162  29.672  33.146  1.00  0.00     0.167 HD
ATOM     55  C   UNL A   1      39.024  31.486  33.566  1.00  0.00     0.074 A 
ATOM     56  C   UNL A   1      37.838  32.285  33.331  1.00  0.00     0.031 C 
ATOM     57  C   UNL A   1      39.676  31.419  34.753  1.00  0.00     0.037 A 
BRANCH  44  58
ATOM     58  C   UNL A   1      44.575  27.653  34.723  1.00  0.00     0.057 A 
ATOM     59  C   UNL A   1      45.842  28.246  34.781  1.00  0.00     0.134 A 
ATOM     60  C   UNL A   1      44.387  26.458  35.431  1.00  0.00     0.134 A 
ATOM     61  F   UNL A   1      46.091  29.385  34.116  1.00  0.00    -0.206 F 
ATOM     62  C   UNL A   1      46.889  27.660  35.495  1.00  0.00     0.040 A 
ATOM     63  C   UNL A   1      45.419  25.875  36.167  1.00  0.00     0.040 A 
ATOM     64  F   UNL A   1      43.195  25.841  35.422  1.00  0.00    -0.206 F 
ATOM     65  C   UNL A   1      46.677  26.473  36.195  1.00  0.00     0.006 A 
ENDBRANCH  44  58
BRANCH  45  66
ATOM     66  C   UNL A   1      37.093  31.373  29.280  1.00  0.00     0.057 A 
ATOM     67  C   UNL A   1      35.944  30.613  29.033  1.00  0.00     0.134 A 
ATOM     68  C   UNL A   1      37.138  32.669  28.751  1.00  0.00     0.134 A 
ATOM     69  F   UNL A   1      35.854  29.357  29.493  1.00  0.00    -0.206 F 
ATOM     70  C   UNL A   1      34.881  31.121  28.285  1.00  0.00     0.040 A 
ATOM     71  C   UNL A   1      36.072  33.197  28.022  1.00  0.00     0.040 A 
ATOM     72  F   UNL A   1      38.212  33.446  28.951  1.00  0.00    -0.206 F 
ATOM     73  C   UNL A   1      34.940  32.420  27.784  1.00  0.00     0.006 A 
ENDBRANCH  45  66
BRANCH  57  74
ATOM     74  C   UNL A   1      39.130  32.244  35.880  1.00  0.00     0.057 A 
ATOM     75  C   UNL A   1      38.232  31.712  36.814  1.00  0.00     0.134 A 
ATOM     76  C   UNL A   1      39.531  33.575  36.050  1.00  0.00     0.134 A 
ATOM     77  F   UNL A   1      37.799  30.448  36.697  1.00  0.00    -0.206 F 
ATOM     78  C   UNL A   1      37.738  32.483  37.867  1.00  0.00     0.040 A 
ATOM     79  C   UNL A   1      39.060  34.348  37.112  1.00  0.00     0.040 A 
ATOM     80  F   UNL A   1      40.393  34.142  35.192  1.00  0.00    -0.206 F 
ATOM     81  C   UNL A   1      38.157  33.803  38.022  1.00  0.00     0.006 A 
ENDBRANCH  57  74
ENDBRANCH  31  32
ENDBRANCH  24  26
ENDBRANCH  23  24
ENDBRANCH  22  23
ENDBRANCH   1  22
TORSDOF 14
ENDMDL
MODEL 2
REMARK VINA RESULT:     -11.4      4.753      9.954
REMARK SMILES COC(=O)c1ccc(Cl)c(-c2ccc(C(=O)OCCOC(=O)c3ccc(-c4c5nc(c(-c6c(F)cccc6F)c6ccc([nH]6)c(-c6c(F)cccc6F)c6nc(c(-c7c(F)cccc7F)c7ccc4[nH]7)C=C6)C=C5)cc3)nc2)c1
REMARK SMILES IDX 18 1 17 2 15 3 16 4 14 5 11 6 12 7 78 8 13 9 77 10 10 11
REMARK SMILES IDX 5 12 6 13 79 14 7 15 8 16 9 17 3 18 4 19 2 20 1 21 19 22
REMARK SMILES IDX 20 23 21 24 22 25 23 26 24 27 76 28 25 29 75 30 26 31 27 32
REMARK SMILES IDX 28 33 69 34 29 35 74 36 68 37 70 38 30 39 73 40 67 41 66 42
REMARK SMILES IDX 31 44 57 45 40 46 56 47 41 48 44 49 55 50 71 51 42 52 43 53
REMARK SMILES IDX 54 55 72 56 45 57 32 58 33 59 38 60 34 61 35 62 37 63 39 64
REMARK SMILES IDX 36 65 58 66 59 67 64 68 60 69 61 70 63 71 65 72 62 73 46 74
REMARK SMILES IDX 47 75 52 76 48 77 49 78 51 79 53 80 50 81
REMARK H PARENT 70 43 44 54
REMARK Flexibility Score: inf
ROOT
ATOM      1  C   UNL A   1      34.371  33.675  30.364  1.00  0.00     0.275 C 
ENDROOT
BRANCH   1   2
ATOM      2  O   UNL A   1      34.091  32.494  29.585  1.00  0.00    -0.457 OA
BRANCH   2   3
ATOM      3  C   UNL A   1      34.438  32.571  28.272  1.00  0.00     0.357 C 
ATOM      4  O   UNL A   1      34.890  33.564  27.721  1.00  0.00    -0.244 OA
BRANCH   3   5
ATOM      5  C   UNL A   1      34.280  31.246  27.585  1.00  0.00     0.148 A 
ATOM      6  C   UNL A   1      33.797  28.874  26.239  1.00  0.00     0.002 A 
ATOM      7  C   UNL A   1      34.990  29.046  26.952  1.00  0.00     0.013 A 
ATOM      8  C   UNL A   1      32.908  29.945  26.243  1.00  0.00     0.120 A 
ATOM      9  C   UNL A   1      35.244  30.246  27.629  1.00  0.00     0.037 A 
ATOM     10  N   UNL A   1      33.110  31.103  26.905  1.00  0.00    -0.249 NA
BRANCH   6  11
ATOM     11  C   UNL A   1      33.425  27.612  25.590  1.00  0.00     0.003 A 
ATOM     12  C   UNL A   1      32.628  25.302  25.764  1.00  0.00     0.060 A 
ATOM     13  C   UNL A   1      32.888  25.107  24.402  1.00  0.00     0.017 A 
ATOM     14  C   UNL A   1      32.885  26.554  26.349  1.00  0.00     0.026 A 
ATOM     15  C   UNL A   1      33.408  26.149  23.634  1.00  0.00     0.022 A 
ATOM     16  C   UNL A   1      33.677  27.388  24.221  1.00  0.00     0.048 A 
ATOM     17  Cl  UNL A   1      34.358  28.615  23.207  1.00  0.00    -0.084 Cl
BRANCH  12  18
ATOM     18  C   UNL A   1      32.086  24.207  26.615  1.00  0.00     0.337 C 
ATOM     19  O   UNL A   1      31.049  24.294  27.249  1.00  0.00    -0.246 OA
BRANCH  18  20
ATOM     20  O   UNL A   1      32.930  23.145  26.593  1.00  0.00    -0.465 OA
ATOM     21  C   UNL A   1      33.162  22.535  27.864  1.00  0.00     0.282 C 
ENDBRANCH  18  20
ENDBRANCH  12  18
ENDBRANCH   6  11
ENDBRANCH   3   5
ENDBRANCH   2   3
ENDBRANCH   1   2
BRANCH   1  22
ATOM     22  C   UNL A   1      34.419  33.371  31.865  1.00  0.00     0.275 C 
BRANCH  22  23
ATOM     23  O   UNL A   1      34.922  32.049  32.141  1.00  0.00    -0.458 OA
BRANCH  23  24
ATOM     24  C   UNL A   1      36.087  32.012  32.829  1.00  0.00     0.338 C 
ATOM     25  O   UNL A   1      36.269  32.345  33.989  1.00  0.00    -0.246 OA
BRANCH  24  26
ATOM     26  C   UNL A   1      37.138  31.386  32.012  1.00  0.00     0.060 A 
ATOM     27  C   UNL A   1      38.211  30.802  32.683  1.00  0.00     0.016 A 
ATOM     28  C   UNL A   1      37.139  31.462  30.619  1.00  0.00     0.016 A 
ATOM     29  C   UNL A   1      39.303  30.307  31.979  1.00  0.00     0.010 A 
ATOM     30  C   UNL A   1      38.231  30.947  29.905  1.00  0.00     0.010 A 
ATOM     31  C   UNL A   1      39.328  30.380  30.582  1.00  0.00    -0.014 A 
BRANCH  31  32
ATOM     32  C   UNL A   1      40.528  29.894  29.856  1.00  0.00     0.031 A 
ATOM     33  C   UNL A   1      41.707  30.802  29.651  1.00  0.00     0.074 A 
ATOM     34  C   UNL A   1      40.582  28.619  29.426  1.00  0.00     0.049 A 
ATOM     35  N   UNL A   1      42.818  30.582  28.994  1.00  0.00    -0.248 NA
ATOM     36  C   UNL A   1      41.625  32.135  30.265  1.00  0.00     0.031 C 
ATOM     37  C   UNL A   1      39.527  27.621  29.611  1.00  0.00     0.029 A 
ATOM     38  N   UNL A   1      41.570  27.941  28.755  1.00  0.00    -0.354 N 
ATOM     39  C   UNL A   1      43.553  31.756  29.090  1.00  0.00     0.074 A 
ATOM     40  C   UNL A   1      42.758  32.690  29.859  1.00  0.00     0.031 C 
ATOM     41  C   UNL A   1      39.929  26.456  29.080  1.00  0.00     0.029 A 
ATOM     42  C   UNL A   1      41.245  26.638  28.472  1.00  0.00     0.049 A 
ATOM     43  H   UNL A   1      42.428  28.351  28.502  1.00  0.00     0.167 HD
ATOM     44  C   UNL A   1      44.780  32.028  28.583  1.00  0.00     0.037 A 
ATOM     45  C   UNL A   1      41.917  25.702  27.777  1.00  0.00     0.037 A 
ATOM     46  C   UNL A   1      45.583  31.088  27.844  1.00  0.00     0.049 A 
ATOM     47  C   UNL A   1      43.256  26.042  27.187  1.00  0.00     0.074 A 
ATOM     48  C   UNL A   1      46.846  31.266  27.307  1.00  0.00     0.029 A 
ATOM     49  N   UNL A   1      45.200  29.790  27.542  1.00  0.00    -0.354 N 
ATOM     50  N   UNL A   1      43.933  27.161  27.266  1.00  0.00    -0.248 NA
ATOM     51  C   UNL A   1      43.920  24.992  26.401  1.00  0.00     0.031 C 
ATOM     52  C   UNL A   1      47.213  30.088  26.647  1.00  0.00     0.029 A 
ATOM     53  C   UNL A   1      46.194  29.162  26.807  1.00  0.00     0.049 A 
ATOM     54  H   UNL A   1      44.348  29.375  27.809  1.00  0.00     0.167 HD
ATOM     55  C   UNL A   1      45.105  26.948  26.554  1.00  0.00     0.074 A 
ATOM     56  C   UNL A   1      45.056  25.586  26.063  1.00  0.00     0.031 C 
ATOM     57  C   UNL A   1      46.129  27.806  26.325  1.00  0.00     0.037 A 
BRANCH  44  58
ATOM     58  C   UNL A   1      45.314  33.416  28.783  1.00  0.00     0.057 A 
ATOM     59  C   UNL A   1      45.039  34.456  27.887  1.00  0.00     0.134 A 
ATOM     60  C   UNL A   1      46.101  33.718  29.903  1.00  0.00     0.134 A 
ATOM     61  F   UNL A   1      44.303  34.230  26.789  1.00  0.00    -0.206 F 
ATOM     62  C   UNL A   1      45.548  35.741  28.084  1.00  0.00     0.040 A 
ATOM     63  C   UNL A   1      46.596  35.004  30.123  1.00  0.00     0.040 A 
ATOM     64  F   UNL A   1      46.396  32.768  30.804  1.00  0.00    -0.206 F 
ATOM     65  C   UNL A   1      46.325  36.019  29.208  1.00  0.00     0.006 A 
ENDBRANCH  44  58
BRANCH  45  66
ATOM     66  C   UNL A   1      41.317  24.360  27.582  1.00  0.00     0.057 A 
ATOM     67  C   UNL A   1      41.766  23.250  28.306  1.00  0.00     0.134 A 
ATOM     68  C   UNL A   1      40.270  24.158  26.672  1.00  0.00     0.134 A 
ATOM     69  F   UNL A   1      42.781  23.376  29.172  1.00  0.00    -0.206 F 
ATOM     70  C   UNL A   1      41.199  21.987  28.131  1.00  0.00     0.040 A 
ATOM     71  C   UNL A   1      39.678  22.906  26.506  1.00  0.00     0.040 A 
ATOM     72  F   UNL A   1      39.797  25.181  25.946  1.00  0.00    -0.206 F 
ATOM     73  C   UNL A   1      40.146  21.814  27.235  1.00  0.00     0.006 A 
ENDBRANCH  45  66
BRANCH  57  74
ATOM     74  C   UNL A   1      47.287  27.288  25.524  1.00  0.00     0.057 A 
ATOM     75  C   UNL A   1      47.395  27.525  24.148  1.00  0.00     0.134 A 
ATOM     76  C   UNL A   1      48.320  26.574  26.143  1.00  0.00     0.134 A 
ATOM     77  F   UNL A   1      46.431  28.191  23.495  1.00  0.00    -0.206 F 
ATOM     78  C   UNL A   1      48.482  27.050  23.412  1.00  0.00     0.040 A 
ATOM     79  C   UNL A   1      49.423  26.114  25.421  1.00  0.00     0.040 A 
ATOM     80  F   UNL A   1      48.280  26.319  27.459  1.00  0.00    -0.206 F 
ATOM     81  C   UNL A   1      49.503  26.348  24.050  1.00  0.00     0.006 A 
ENDBRANCH  57  74
ENDBRANCH  31  32
ENDBRANCH  24  26
ENDBRANCH  23  24
ENDBRANCH  22  23
ENDBRANCH   1  22
TORSDOF 14
ENDMDL
MODEL 3
REMARK VINA RESULT:     -11.3      1.965      3.012
REMARK SMILES COC(=O)c1ccc(Cl)c(-c2ccc(C(=O)OCCOC(=O)c3ccc(-c4c5nc(c(-c6c(F)cccc6F)c6ccc([nH]6)c(-c6c(F)cccc6F)c6nc(c(-c7c(F)cccc7F)c7ccc4[nH]7)C=C6)C=C5)cc3)nc2)c1
REMARK SMILES IDX 18 1 17 2 15 3 16 4 14 5 11 6 12 7 78 8 13 9 77 10 10 11
REMARK SMILES IDX 5 12 6 13 79 14 7 15 8 16 9 17 3 18 4 19 2 20 1 21 19 22
REMARK SMILES IDX 20 23 21 24 22 25 23 26 24 27 76 28 25 29 75 30 26 31 27 32
REMARK SMILES IDX 28 33 69 34 29 35 74 36 68 37 70 38 30 39 73 40 67 41 66 42
REMARK SMILES IDX 31 44 57 45 40 46 56 47 41 48 44 49 55 50 71 51 42 52 43 53
REMARK SMILES IDX 54 55 72 56 45 57 32 58 33 59 38 60 34 61 35 62 37 63 39 64
REMARK SMILES IDX 36 65 58 66 59 67 64 68 60 69 61 70 63 71 65 72 62 73 46 74
REMARK SMILES IDX 47 75 52 76 48 77 49 78 51 79 53 80 50 81
REMARK H PARENT 70 43 44 54
REMARK Flexibility Score: inf
ROOT
ATOM      1  C   UNL A   1      43.236  20.942  26.172  1.00  0.00     0.275 C 
ENDROOT
BRANCH   1   2
ATOM      2  O   UNL A   1      41.810  21.086  26.326  1.00  0.00    -0.457 OA
BRANCH   2   3
ATOM      3  C   UNL A   1      41.076  19.996  25.972  1.00  0.00     0.357 C 
ATOM      4  O   UNL A   1      41.499  18.851  25.920  1.00  0.00    -0.244 OA
BRANCH   3   5
ATOM      5  C   UNL A   1      39.639  20.357  25.734  1.00  0.00     0.148 A 
ATOM      6  C   UNL A   1      36.955  20.816  25.228  1.00  0.00     0.002 A 
ATOM      7  C   UNL A   1      37.756  21.840  25.750  1.00  0.00     0.013 A 
ATOM      8  C   UNL A   1      37.577  19.592  25.001  1.00  0.00     0.120 A 
ATOM      9  C   UNL A   1      39.113  21.612  26.015  1.00  0.00     0.037 A 
ATOM     10  N   UNL A   1      38.885  19.348  25.221  1.00  0.00    -0.249 NA
BRANCH   6  11
ATOM     11  C   UNL A   1      35.554  21.014  24.837  1.00  0.00     0.003 A 
ATOM     12  C   UNL A   1      33.373  20.070  24.245  1.00  0.00     0.060 A 
ATOM     13  C   UNL A   1      32.913  21.346  23.898  1.00  0.00     0.017 A 
ATOM     14  C   UNL A   1      34.685  19.911  24.724  1.00  0.00     0.026 A 
ATOM     15  C   UNL A   1      33.756  22.450  24.020  1.00  0.00     0.022 A 
ATOM     16  C   UNL A   1      35.064  22.288  24.481  1.00  0.00     0.048 A 
ATOM     17  Cl  UNL A   1      36.058  23.703  24.565  1.00  0.00    -0.084 Cl
BRANCH  12  18
ATOM     18  C   UNL A   1      32.503  18.869  24.113  1.00  0.00     0.337 C 
ATOM     19  O   UNL A   1      32.152  18.404  23.043  1.00  0.00    -0.246 OA
BRANCH  18  20
ATOM     20  O   UNL A   1      32.154  18.415  25.343  1.00  0.00    -0.465 OA
ATOM     21  C   UNL A   1      32.532  17.063  25.614  1.00  0.00     0.282 C 
ENDBRANCH  18  20
ENDBRANCH  12  18
ENDBRANCH   6  11
ENDBRANCH   3   5
ENDBRANCH   2   3
ENDBRANCH   1   2
BRANCH   1  22
ATOM     22  C   UNL A   1      43.779  21.813  25.033  1.00  0.00     0.275 C 
BRANCH  22  23
ATOM     23  O   UNL A   1      43.031  23.034  24.874  1.00  0.00    -0.458 OA
BRANCH  23  24
ATOM     24  C   UNL A   1      43.746  24.171  25.052  1.00  0.00     0.338 C 
ATOM     25  O   UNL A   1      44.719  24.536  24.414  1.00  0.00    -0.246 OA
BRANCH  24  26
ATOM     26  C   UNL A   1      43.112  25.011  26.080  1.00  0.00     0.060 A 
ATOM     27  C   UNL A   1      43.608  26.303  26.248  1.00  0.00     0.016 A 
ATOM     28  C   UNL A   1      42.132  24.519  26.942  1.00  0.00     0.016 A 
ATOM     29  C   UNL A   1      43.150  27.109  27.283  1.00  0.00     0.010 A 
ATOM     30  C   UNL A   1      41.655  25.337  27.976  1.00  0.00     0.010 A 
ATOM     31  C   UNL A   1      42.172  26.633  28.163  1.00  0.00    -0.014 A 
BRANCH  31  32
ATOM     32  C   UNL A   1      41.738  27.492  29.293  1.00  0.00     0.031 A 
ATOM     33  C   UNL A   1      42.493  27.472  30.592  1.00  0.00     0.074 A 
ATOM     34  C   UNL A   1      40.697  28.331  29.137  1.00  0.00     0.049 A 
ATOM     35  N   UNL A   1      42.236  28.103  31.710  1.00  0.00    -0.248 NA
ATOM     36  C   UNL A   1      43.698  26.630  30.640  1.00  0.00     0.031 C 
ATOM     37  C   UNL A   1      39.914  28.484  27.909  1.00  0.00     0.029 A 
ATOM     38  N   UNL A   1      40.124  29.219  30.013  1.00  0.00    -0.354 N 
ATOM     39  C   UNL A   1      43.226  27.712  32.602  1.00  0.00     0.074 A 
ATOM     40  C   UNL A   1      44.083  26.781  31.899  1.00  0.00     0.031 C 
ATOM     41  C   UNL A   1      38.973  29.421  28.105  1.00  0.00     0.029 A 
ATOM     42  C   UNL A   1      39.052  29.895  29.485  1.00  0.00     0.049 A 
ATOM     43  H   UNL A   1      40.451  29.358  30.931  1.00  0.00     0.167 HD
ATOM     44  C   UNL A   1      43.403  28.097  33.888  1.00  0.00     0.037 A 
ATOM     45  C   UNL A   1      38.209  30.776  30.054  1.00  0.00     0.037 A 
ATOM     46  C   UNL A   1      42.567  29.047  34.577  1.00  0.00     0.049 A 
ATOM     47  C   UNL A   1      38.400  31.153  31.495  1.00  0.00     0.074 A 
ATOM     48  C   UNL A   1      42.679  29.513  35.876  1.00  0.00     0.029 A 
ATOM     49  N   UNL A   1      41.466  29.678  34.020  1.00  0.00    -0.354 N 
ATOM     50  N   UNL A   1      39.326  30.763  32.335  1.00  0.00    -0.248 NA
ATOM     51  C   UNL A   1      37.420  32.086  32.072  1.00  0.00     0.031 C 
ATOM     52  C   UNL A   1      41.623  30.399  36.117  1.00  0.00     0.029 A 
ATOM     53  C   UNL A   1      40.876  30.514  34.955  1.00  0.00     0.049 A 
ATOM     54  H   UNL A   1      41.149  29.551  33.096  1.00  0.00     0.167 HD
ATOM     55  C   UNL A   1      39.051  31.408  33.533  1.00  0.00     0.074 A 
ATOM     56  C   UNL A   1      37.880  32.231  33.307  1.00  0.00     0.031 C 
ATOM     57  C   UNL A   1      39.709  31.325  34.715  1.00  0.00     0.037 A 
BRANCH  44  58
ATOM     58  C   UNL A   1      44.530  27.459  34.648  1.00  0.00     0.057 A 
ATOM     59  C   UNL A   1      44.370  26.258  35.348  1.00  0.00     0.134 A 
ATOM     60  C   UNL A   1      45.800  28.051  34.660  1.00  0.00     0.134 A 
ATOM     61  F   UNL A   1      43.175  25.647  35.386  1.00  0.00    -0.206 F 
ATOM     62  C   UNL A   1      45.426  25.680  36.055  1.00  0.00     0.040 A 
ATOM     63  C   UNL A   1      46.869  27.471  35.343  1.00  0.00     0.040 A 
ATOM     64  F   UNL A   1      46.023  29.200  34.004  1.00  0.00    -0.206 F 
ATOM     65  C   UNL A   1      46.682  26.284  36.049  1.00  0.00     0.006 A 
ENDBRANCH  44  58
BRANCH  45  66
ATOM     66  C   UNL A   1      37.091  31.342  29.259  1.00  0.00     0.057 A 
ATOM     67  C   UNL A   1      37.144  32.646  28.756  1.00  0.00     0.134 A 
ATOM     68  C   UNL A   1      35.946  30.586  28.977  1.00  0.00     0.134 A 
ATOM     69  F   UNL A   1      38.203  33.427  29.014  1.00  0.00    -0.206 F 
ATOM     70  C   UNL A   1      36.099  33.180  28.001  1.00  0.00     0.040 A 
ATOM     71  C   UNL A   1      34.904  31.098  28.203  1.00  0.00     0.040 A 
ATOM     72  F   UNL A   1      35.834  29.330  29.434  1.00  0.00    -0.206 F 
ATOM     73  C   UNL A   1      34.978  32.402  27.716  1.00  0.00     0.006 A 
ENDBRANCH  45  66
BRANCH  57  74
ATOM     74  C   UNL A   1      39.188  32.159  35.847  1.00  0.00     0.057 A 
ATOM     75  C   UNL A   1      39.610  33.480  36.044  1.00  0.00     0.134 A 
ATOM     76  C   UNL A   1      38.229  31.646  36.729  1.00  0.00     0.134 A 
ATOM     77  F   UNL A   1      40.537  34.024  35.241  1.00  0.00    -0.206 F 
ATOM     78  C   UNL A   1      39.111  34.254  37.093  1.00  0.00     0.040 A 
ATOM     79  C   UNL A   1      37.706  32.418  37.768  1.00  0.00     0.040 A 
ATOM     80  F   UNL A   1      37.779  30.390  36.591  1.00  0.00    -0.206 F 
ATOM     81  C   UNL A   1      38.151  33.724  37.955  1.00  0.00     0.006 A 
ENDBRANCH  57  74
ENDBRANCH  31  32
ENDBRANCH  24  26
ENDBRANCH  23  24
ENDBRANCH  22  23
ENDBRANCH   1  22
TORSDOF 14
ENDMDL
