MODEL 1
REMARK VINA RESULT:     -12.4      0.000      0.000
REMARK SMILES CCCCc1cc(S(F)(F)(F)(F)F)cc2c1O[C@@H](C(F)(F)F)C(C(=O)OCCOC(=O)c1ccc(-c3c4nc(c(-c5c(F)cccc5F)c5ccc([nH]5)c(-c5c(F)cccc5F)c5nc(c(-c6c(F)cccc6F)c6ccc3[nH]6)C=C5)C=C4)cc1)=C2
REMARK SMILES IDX 27 1 26 2 24 3 25 4 23 5 5 6 6 7 16 8 7 9 15 10 17 11 14 12
REMARK SMILES IDX 86 13 18 14 4 15 3 16 2 17 1 18 8 19 9 20 10 21 11 22 12 23
REMARK SMILES IDX 13 24 19 25 20 26 21 27 22 28 28 29 29 30 30 31 31 32 32 33
REMARK SMILES IDX 33 34 85 35 34 36 84 37 35 38 36 39 37 40 78 41 38 42 83 43
REMARK SMILES IDX 77 44 79 45 39 46 82 47 76 48 75 49 40 51 66 52 49 53 65 54
REMARK SMILES IDX 50 55 53 56 64 57 80 58 51 59 52 60 63 62 81 63 54 64 41 65
REMARK SMILES IDX 42 66 47 67 43 68 44 69 46 70 48 71 45 72 67 73 68 74 73 75
REMARK SMILES IDX 69 76 70 77 72 78 74 79 71 80 55 81 56 82 61 83 57 84 58 85
REMARK SMILES IDX 60 86 62 87 59 88
REMARK H PARENT 79 50 53 61
REMARK Flexibility Score: inf
ROOT
ATOM      1  C   UNL A   1      42.610  21.460  25.950  1.00  0.00     0.275 C 
ENDROOT
BRANCH   1   2
ATOM      2  O   UNL A   1      41.349  22.049  25.671  1.00  0.00    -0.459 OA
BRANCH   2   3
ATOM      3  C   UNL A   1      40.232  21.760  26.497  1.00  0.00     0.338 C 
ATOM      4  O   UNL A   1      40.401  21.179  27.615  1.00  0.00    -0.246 OA
BRANCH   3   5
ATOM      5  C   UNL A   1      38.832  22.145  26.045  1.00  0.00     0.087 C 
ATOM      6  C   UNL A   1      34.891  23.311  25.298  1.00  0.00    -0.004 A 
ATOM      7  C   UNL A   1      33.961  22.375  24.885  1.00  0.00     0.032 A 
ATOM      8  C   UNL A   1      36.166  22.890  25.589  1.00  0.00     0.131 A 
ATOM      9  C   UNL A   1      34.297  21.052  24.770  1.00  0.00     0.108 A 
ATOM     10  C   UNL A   1      36.546  21.567  25.466  1.00  0.00     0.019 A 
ATOM     11  O   UNL A   1      37.047  23.811  26.104  1.00  0.00    -0.475 OA
ATOM     12  C   UNL A   1      35.586  20.650  25.052  1.00  0.00     0.036 A 
ATOM     13  C   UNL A   1      37.908  21.216  25.834  1.00  0.00     0.027 C 
ATOM     14  C   UNL A   1      38.460  23.606  25.827  1.00  0.00     0.316 C 
BRANCH   6  15
ATOM     15  C   UNL A   1      34.510  24.777  25.429  1.00  0.00     0.039 C 
BRANCH  15  16
ATOM     16  C   UNL A   1      33.058  24.885  25.862  1.00  0.00     0.005 C 
BRANCH  16  17
ATOM     17  C   UNL A   1      32.721  26.340  26.147  1.00  0.00    -0.003 C 
ATOM     18  C   UNL A   1      33.022  27.181  24.918  1.00  0.00     0.004 C 
ENDBRANCH  16  17
ENDBRANCH  15  16
ENDBRANCH   6  15
BRANCH   9  19
ATOM     19  S   UNL A   1      33.058  19.838  24.250  1.00  0.00     0.310 S 
ATOM     20  F   UNL A   1      31.872  20.692  24.866  1.00  0.00    -0.094 F 
ATOM     21  F   UNL A   1      33.195  19.140  25.656  1.00  0.00    -0.094 F 
ATOM     22  F   UNL A   1      31.995  18.795  23.805  1.00  0.00    -0.094 F 
ATOM     23  F   UNL A   1      32.833  20.631  22.903  1.00  0.00    -0.094 F 
ATOM     24  F   UNL A   1      34.053  20.968  24.732  1.00  0.00    -0.094 F 
ENDBRANCH   9  19
BRANCH  14  25
ATOM     25  C   UNL A   1      39.281  24.473  26.767  1.00  0.00     0.430 C 
ATOM     26  F   UNL A   1      40.328  24.968  26.112  1.00  0.00    -0.167 F 
ATOM     27  F   UNL A   1      38.529  25.472  27.219  1.00  0.00    -0.167 F 
ATOM     28  F   UNL A   1      39.705  23.738  27.791  1.00  0.00    -0.167 F 
ENDBRANCH  14  25
ENDBRANCH   3   5
ENDBRANCH   2   3
ENDBRANCH   1   2
BRANCH   1  29
ATOM     29  C   UNL A   1      43.660  22.043  25.019  1.00  0.00     0.275 C 
BRANCH  29  30
ATOM     30  O   UNL A   1      43.304  23.375  24.680  1.00  0.00    -0.458 OA
BRANCH  30  31
ATOM     31  C   UNL A   1      44.069  24.464  25.177  1.00  0.00     0.338 C 
ATOM     32  O   UNL A   1      45.192  24.743  24.650  1.00  0.00    -0.246 OA
BRANCH  31  33
ATOM     33  C   UNL A   1      43.546  25.293  26.337  1.00  0.00     0.060 A 
ATOM     34  C   UNL A   1      43.043  24.653  27.457  1.00  0.00     0.016 A 
ATOM     35  C   UNL A   1      43.580  26.619  26.259  1.00  0.00     0.016 A 
ATOM     36  C   UNL A   1      42.327  25.504  28.332  1.00  0.00     0.010 A 
ATOM     37  C   UNL A   1      42.977  27.392  27.221  1.00  0.00     0.010 A 
ATOM     38  C   UNL A   1      42.408  26.822  28.326  1.00  0.00    -0.014 A 
BRANCH  38  39
ATOM     39  C   UNL A   1      41.895  27.661  29.486  1.00  0.00     0.031 A 
ATOM     40  C   UNL A   1      40.786  28.478  29.265  1.00  0.00     0.074 A 
ATOM     41  C   UNL A   1      42.560  27.569  30.697  1.00  0.00     0.049 A 
ATOM     42  N   UNL A   1      40.164  29.262  30.148  1.00  0.00    -0.248 NA
ATOM     43  C   UNL A   1      40.098  28.604  27.971  1.00  0.00     0.031 C 
ATOM     44  C   UNL A   1      43.676  26.741  30.930  1.00  0.00     0.029 A 
ATOM     45  N   UNL A   1      42.281  28.239  31.867  1.00  0.00    -0.354 N 
ATOM     46  C   UNL A   1      39.129  29.876  29.570  1.00  0.00     0.074 A 
ATOM     47  C   UNL A   1      39.077  29.466  28.160  1.00  0.00     0.031 C 
ATOM     48  C   UNL A   1      44.070  26.917  32.218  1.00  0.00     0.029 A 
ATOM     49  C   UNL A   1      43.208  27.858  32.813  1.00  0.00     0.049 A 
ATOM     50  H   UNL A   1      41.546  28.879  32.005  1.00  0.00     0.167 HD
ATOM     51  C   UNL A   1      38.227  30.761  30.164  1.00  0.00     0.037 A 
ATOM     52  C   UNL A   1      43.313  28.296  34.123  1.00  0.00     0.037 A 
ATOM     53  C   UNL A   1      38.306  31.166  31.487  1.00  0.00     0.049 A 
ATOM     54  C   UNL A   1      42.445  29.225  34.701  1.00  0.00     0.074 A 
ATOM     55  C   UNL A   1      37.401  32.050  32.103  1.00  0.00     0.029 A 
ATOM     56  N   UNL A   1      39.247  30.803  32.426  1.00  0.00    -0.354 N 
ATOM     57  N   UNL A   1      41.387  29.809  34.135  1.00  0.00    -0.248 NA
ATOM     58  C   UNL A   1      42.565  29.720  36.079  1.00  0.00     0.031 C 
ATOM     59  C   UNL A   1      37.795  32.226  33.393  1.00  0.00     0.029 A 
ATOM     60  C   UNL A   1      38.955  31.455  33.602  1.00  0.00     0.049 A 
ATOM     61  H   UNL A   1      40.000  30.185  32.280  1.00  0.00     0.167 HD
ATOM     62  C   UNL A   1      40.791  30.624  35.006  1.00  0.00     0.074 A 
ATOM     63  C   UNL A   1      41.544  30.585  36.268  1.00  0.00     0.031 C 
ATOM     64  C   UNL A   1      39.646  31.397  34.803  1.00  0.00     0.037 A 
BRANCH  51  65
ATOM     65  C   UNL A   1      37.095  31.310  29.312  1.00  0.00     0.057 A 
ATOM     66  C   UNL A   1      37.255  32.564  28.746  1.00  0.00     0.134 A 
ATOM     67  C   UNL A   1      36.024  30.570  29.052  1.00  0.00     0.134 A 
ATOM     68  F   UNL A   1      38.407  33.229  28.772  1.00  0.00    -0.206 F 
ATOM     69  C   UNL A   1      36.082  33.074  28.141  1.00  0.00     0.040 A 
ATOM     70  C   UNL A   1      34.971  31.088  28.337  1.00  0.00     0.040 A 
ATOM     71  F   UNL A   1      35.970  29.313  29.487  1.00  0.00    -0.206 F 
ATOM     72  C   UNL A   1      35.037  32.343  27.800  1.00  0.00     0.006 A 
ENDBRANCH  51  65
BRANCH  52  73
ATOM     73  C   UNL A   1      44.435  27.733  34.979  1.00  0.00     0.057 A 
ATOM     74  C   UNL A   1      45.663  28.374  34.999  1.00  0.00     0.134 A 
ATOM     75  C   UNL A   1      44.244  26.591  35.627  1.00  0.00     0.134 A 
ATOM     76  F   UNL A   1      45.836  29.626  34.587  1.00  0.00    -0.206 F 
ATOM     77  C   UNL A   1      46.719  27.574  35.498  1.00  0.00     0.040 A 
ATOM     78  C   UNL A   1      45.300  25.930  36.208  1.00  0.00     0.040 A 
ATOM     79  F   UNL A   1      43.019  26.079  35.714  1.00  0.00    -0.206 F 
ATOM     80  C   UNL A   1      46.553  26.476  36.213  1.00  0.00     0.006 A 
ENDBRANCH  52  73
BRANCH  64  81
ATOM     81  C   UNL A   1      39.126  32.224  35.966  1.00  0.00     0.057 A 
ATOM     82  C   UNL A   1      38.152  31.694  36.795  1.00  0.00     0.134 A 
ATOM     83  C   UNL A   1      39.615  33.442  36.171  1.00  0.00     0.134 A 
ATOM     84  F   UNL A   1      37.816  30.407  36.789  1.00  0.00    -0.206 F 
ATOM     85  C   UNL A   1      37.545  32.645  37.649  1.00  0.00     0.040 A 
ATOM     86  C   UNL A   1      39.060  34.270  37.116  1.00  0.00     0.040 A 
ATOM     87  F   UNL A   1      40.653  33.864  35.452  1.00  0.00    -0.206 F 
ATOM     88  C   UNL A   1      38.054  33.831  37.931  1.00  0.00     0.006 A 
ENDBRANCH  64  81
ENDBRANCH  38  39
ENDBRANCH  31  33
ENDBRANCH  30  31
ENDBRANCH  29  30
ENDBRANCH   1  29
TORSDOF 16
ENDMDL
MODEL 2
REMARK VINA RESULT:     -12.4      0.430      6.023
REMARK SMILES CCCCc1cc(S(F)(F)(F)(F)F)cc2c1O[C@@H](C(F)(F)F)C(C(=O)OCCOC(=O)c1ccc(-c3c4nc(c(-c5c(F)cccc5F)c5ccc([nH]5)c(-c5c(F)cccc5F)c5nc(c(-c6c(F)cccc6F)c6ccc3[nH]6)C=C5)C=C4)cc1)=C2
REMARK SMILES IDX 27 1 26 2 24 3 25 4 23 5 5 6 6 7 16 8 7 9 15 10 17 11 14 12
REMARK SMILES IDX 86 13 18 14 4 15 3 16 2 17 1 18 8 19 9 20 10 21 11 22 12 23
REMARK SMILES IDX 13 24 19 25 20 26 21 27 22 28 28 29 29 30 30 31 31 32 32 33
REMARK SMILES IDX 33 34 85 35 34 36 84 37 35 38 36 39 37 40 78 41 38 42 83 43
REMARK SMILES IDX 77 44 79 45 39 46 82 47 76 48 75 49 40 51 66 52 49 53 65 54
REMARK SMILES IDX 50 55 53 56 64 57 80 58 51 59 52 60 63 62 81 63 54 64 41 65
REMARK SMILES IDX 42 66 47 67 43 68 44 69 46 70 48 71 45 72 67 73 68 74 73 75
REMARK SMILES IDX 69 76 70 77 72 78 74 79 71 80 55 81 56 82 61 83 57 84 58 85
REMARK SMILES IDX 60 86 62 87 59 88
REMARK H PARENT 79 50 53 61
REMARK Flexibility Score: inf
ROOT
ATOM      1  C   UNL A   1      42.577  21.697  25.940  1.00  0.00     0.275 C 
ENDROOT
BRANCH   1   2
ATOM      2  O   UNL A   1      41.241  21.819  25.474  1.00  0.00    -0.459 OA
BRANCH   2   3
ATOM      3  C   UNL A   1      40.159  21.478  26.326  1.00  0.00     0.338 C 
ATOM      4  O   UNL A   1      40.376  20.851  27.410  1.00  0.00    -0.246 OA
BRANCH   3   5
ATOM      5  C   UNL A   1      38.739  21.863  25.943  1.00  0.00     0.087 C 
ATOM      6  C   UNL A   1      34.765  23.023  25.389  1.00  0.00    -0.004 A 
ATOM      7  C   UNL A   1      33.819  22.088  25.008  1.00  0.00     0.032 A 
ATOM      8  C   UNL A   1      36.053  22.604  25.616  1.00  0.00     0.131 A 
ATOM      9  C   UNL A   1      34.154  20.768  24.863  1.00  0.00     0.108 A 
ATOM     10  C   UNL A   1      36.431  21.283  25.462  1.00  0.00     0.019 A 
ATOM     11  O   UNL A   1      36.953  23.522  26.102  1.00  0.00    -0.475 OA
ATOM     12  C   UNL A   1      35.455  20.368  25.082  1.00  0.00     0.036 A 
ATOM     13  C   UNL A   1      37.809  20.933  25.764  1.00  0.00     0.027 C 
ATOM     14  C   UNL A   1      38.352  23.325  25.758  1.00  0.00     0.316 C 
BRANCH   6  15
ATOM     15  C   UNL A   1      34.385  24.486  25.554  1.00  0.00     0.039 C 
BRANCH  15  16
ATOM     16  C   UNL A   1      32.982  24.583  26.130  1.00  0.00     0.005 C 
BRANCH  16  17
ATOM     17  C   UNL A   1      32.529  26.034  26.117  1.00  0.00    -0.003 C 
ATOM     18  C   UNL A   1      33.607  26.898  25.484  1.00  0.00     0.004 C 
ENDBRANCH  16  17
ENDBRANCH  15  16
ENDBRANCH   6  15
BRANCH   9  19
ATOM     19  S   UNL A   1      32.896  19.555  24.387  1.00  0.00     0.310 S 
ATOM     20  F   UNL A   1      33.991  18.524  23.884  1.00  0.00    -0.094 F 
ATOM     21  F   UNL A   1      32.901  20.165  22.934  1.00  0.00    -0.094 F 
ATOM     22  F   UNL A   1      31.816  18.516  23.977  1.00  0.00    -0.094 F 
ATOM     23  F   UNL A   1      33.007  18.870  25.806  1.00  0.00    -0.094 F 
ATOM     24  F   UNL A   1      34.074  20.533  24.784  1.00  0.00    -0.094 F 
ENDBRANCH   9  19
BRANCH  14  25
ATOM     25  C   UNL A   1      39.213  24.185  26.670  1.00  0.00     0.430 C 
ATOM     26  F   UNL A   1      38.505  25.229  27.092  1.00  0.00    -0.167 F 
ATOM     27  F   UNL A   1      39.607  23.465  27.715  1.00  0.00    -0.167 F 
ATOM     28  F   UNL A   1      40.278  24.613  25.999  1.00  0.00    -0.167 F 
ENDBRANCH  14  25
ENDBRANCH   3   5
ENDBRANCH   2   3
ENDBRANCH   1   2
BRANCH   1  29
ATOM     29  C   UNL A   1      43.530  22.265  24.901  1.00  0.00     0.275 C 
BRANCH  29  30
ATOM     30  O   UNL A   1      43.207  23.626  24.657  1.00  0.00    -0.458 OA
BRANCH  30  31
ATOM     31  C   UNL A   1      44.002  24.658  25.221  1.00  0.00     0.338 C 
ATOM     32  O   UNL A   1      45.157  24.900  24.747  1.00  0.00    -0.246 OA
BRANCH  31  33
ATOM     33  C   UNL A   1      43.474  25.471  26.390  1.00  0.00     0.060 A 
ATOM     34  C   UNL A   1      42.866  24.820  27.451  1.00  0.00     0.016 A 
ATOM     35  C   UNL A   1      43.604  26.793  26.378  1.00  0.00     0.016 A 
ATOM     36  C   UNL A   1      42.163  25.681  28.327  1.00  0.00     0.010 A 
ATOM     37  C   UNL A   1      43.003  27.564  27.343  1.00  0.00     0.010 A 
ATOM     38  C   UNL A   1      42.335  26.989  28.388  1.00  0.00    -0.014 A 
BRANCH  38  39
ATOM     39  C   UNL A   1      41.818  27.810  29.558  1.00  0.00     0.031 A 
ATOM     40  C   UNL A   1      42.489  27.708  30.778  1.00  0.00     0.074 A 
ATOM     41  C   UNL A   1      40.709  28.611  29.349  1.00  0.00     0.049 A 
ATOM     42  N   UNL A   1      42.220  28.361  31.910  1.00  0.00    -0.248 NA
ATOM     43  C   UNL A   1      43.647  26.832  31.013  1.00  0.00     0.031 C 
ATOM     44  C   UNL A   1      40.032  28.725  28.119  1.00  0.00     0.029 A 
ATOM     45  N   UNL A   1      40.069  29.422  30.259  1.00  0.00    -0.354 N 
ATOM     46  C   UNL A   1      43.094  28.015  32.859  1.00  0.00     0.074 A 
ATOM     47  C   UNL A   1      44.019  27.022  32.297  1.00  0.00     0.031 C 
ATOM     48  C   UNL A   1      38.993  29.584  28.288  1.00  0.00     0.029 A 
ATOM     49  C   UNL A   1      39.002  30.022  29.626  1.00  0.00     0.049 A 
ATOM     50  H   UNL A   1      40.329  29.553  31.200  1.00  0.00     0.167 HD
ATOM     51  C   UNL A   1      43.156  28.490  34.171  1.00  0.00     0.037 A 
ATOM     52  C   UNL A   1      38.078  30.901  30.167  1.00  0.00     0.037 A 
ATOM     53  C   UNL A   1      42.257  29.403  34.700  1.00  0.00     0.049 A 
ATOM     54  C   UNL A   1      38.105  31.331  31.496  1.00  0.00     0.074 A 
ATOM     55  C   UNL A   1      42.309  29.897  36.017  1.00  0.00     0.029 A 
ATOM     56  N   UNL A   1      41.176  29.983  34.074  1.00  0.00    -0.354 N 
ATOM     57  N   UNL A   1      39.001  31.016  32.433  1.00  0.00    -0.248 NA
ATOM     58  C   UNL A   1      37.113  32.237  32.090  1.00  0.00     0.031 C 
ATOM     59  C   UNL A   1      41.269  30.757  36.186  1.00  0.00     0.029 A 
ATOM     60  C   UNL A   1      40.549  30.812  34.977  1.00  0.00     0.049 A 
ATOM     61  H   UNL A   1      40.898  29.831  33.142  1.00  0.00     0.167 HD
ATOM     62  C   UNL A   1      38.707  31.637  33.577  1.00  0.00     0.074 A 
ATOM     63  C   UNL A   1      37.484  32.426  33.375  1.00  0.00     0.031 C 
ATOM     64  C   UNL A   1      39.413  31.581  34.781  1.00  0.00     0.037 A 
BRANCH  51  65
ATOM     65  C   UNL A   1      44.270  27.978  35.067  1.00  0.00     0.057 A 
ATOM     66  C   UNL A   1      44.049  26.811  35.780  1.00  0.00     0.134 A 
ATOM     67  C   UNL A   1      45.449  28.588  35.097  1.00  0.00     0.134 A 
ATOM     68  F   UNL A   1      42.985  26.034  35.587  1.00  0.00    -0.206 F 
ATOM     69  C   UNL A   1      45.054  26.520  36.732  1.00  0.00     0.040 A 
ATOM     70  C   UNL A   1      46.435  28.166  35.955  1.00  0.00     0.040 A 
ATOM     71  F   UNL A   1      45.677  29.618  34.286  1.00  0.00    -0.206 F 
ATOM     72  C   UNL A   1      46.262  27.056  36.732  1.00  0.00     0.006 A 
ENDBRANCH  51  65
BRANCH  52  73
ATOM     73  C   UNL A   1      36.973  31.425  29.266  1.00  0.00     0.057 A 
ATOM     74  C   UNL A   1      37.062  32.711  28.757  1.00  0.00     0.134 A 
ATOM     75  C   UNL A   1      35.902  30.672  29.050  1.00  0.00     0.134 A 
ATOM     76  F   UNL A   1      38.197  33.402  28.726  1.00  0.00    -0.206 F 
ATOM     77  C   UNL A   1      35.835  33.222  28.271  1.00  0.00     0.040 A 
ATOM     78  C   UNL A   1      34.785  31.200  28.449  1.00  0.00     0.040 A 
ATOM     79  F   UNL A   1      35.908  29.395  29.423  1.00  0.00    -0.206 F 
ATOM     80  C   UNL A   1      34.781  32.482  27.975  1.00  0.00     0.006 A 
ENDBRANCH  52  73
BRANCH  64  81
ATOM     81  C   UNL A   1      38.903  32.413  35.946  1.00  0.00     0.057 A 
ATOM     82  C   UNL A   1      39.213  33.762  36.004  1.00  0.00     0.134 A 
ATOM     83  C   UNL A   1      38.170  31.834  36.890  1.00  0.00     0.134 A 
ATOM     84  F   UNL A   1      39.719  34.435  34.975  1.00  0.00    -0.206 F 
ATOM     85  C   UNL A   1      38.941  34.359  37.258  1.00  0.00     0.040 A 
ATOM     86  C   UNL A   1      37.825  32.520  38.028  1.00  0.00     0.040 A 
ATOM     87  F   UNL A   1      37.765  30.576  36.729  1.00  0.00    -0.206 F 
ATOM     88  C   UNL A   1      38.149  33.840  38.178  1.00  0.00     0.006 A 
ENDBRANCH  64  81
ENDBRANCH  38  39
ENDBRANCH  31  33
ENDBRANCH  30  31
ENDBRANCH  29  30
ENDBRANCH   1  29
TORSDOF 16
ENDMDL
MODEL 3
REMARK VINA RESULT:     -12.3      4.841      9.934
REMARK SMILES CCCCc1cc(S(F)(F)(F)(F)F)cc2c1O[C@@H](C(F)(F)F)C(C(=O)OCCOC(=O)c1ccc(-c3c4nc(c(-c5c(F)cccc5F)c5ccc([nH]5)c(-c5c(F)cccc5F)c5nc(c(-c6c(F)cccc6F)c6ccc3[nH]6)C=C5)C=C4)cc1)=C2
REMARK SMILES IDX 27 1 26 2 24 3 25 4 23 5 5 6 6 7 16 8 7 9 15 10 17 11 14 12
REMARK SMILES IDX 86 13 18 14 4 15 3 16 2 17 1 18 8 19 9 20 10 21 11 22 12 23
REMARK SMILES IDX 13 24 19 25 20 26 21 27 22 28 28 29 29 30 30 31 31 32 32 33
REMARK SMILES IDX 33 34 85 35 34 36 84 37 35 38 36 39 37 40 78 41 38 42 83 43
REMARK SMILES IDX 77 44 79 45 39 46 82 47 76 48 75 49 40 51 66 52 49 53 65 54
REMARK SMILES IDX 50 55 53 56 64 57 80 58 51 59 52 60 63 62 81 63 54 64 41 65
REMARK SMILES IDX 42 66 47 67 43 68 44 69 46 70 48 71 45 72 67 73 68 74 73 75
REMARK SMILES IDX 69 76 70 77 72 78 74 79 71 80 55 81 56 82 61 83 57 84 58 85
REMARK SMILES IDX 60 86 62 87 59 88
REMARK H PARENT 79 50 53 61
REMARK Flexibility Score: inf
ROOT
ATOM      1  C   UNL A   1      34.406  33.497  30.280  1.00  0.00     0.275 C 
ENDROOT
BRANCH   1   2
ATOM      2  O   UNL A   1      34.281  32.236  29.639  1.00  0.00    -0.459 OA
BRANCH   2   3
ATOM      3  C   UNL A   1      34.514  32.123  28.244  1.00  0.00     0.338 C 
ATOM      4  O   UNL A   1      35.131  33.046  27.626  1.00  0.00    -0.246 OA
BRANCH   3   5
ATOM      5  C   UNL A   1      34.027  30.896  27.488  1.00  0.00     0.087 C 
ATOM      6  C   UNL A   1      33.104  27.586  25.115  1.00  0.00    -0.004 A 
ATOM      7  C   UNL A   1      31.991  27.614  24.294  1.00  0.00     0.032 A 
ATOM      8  C   UNL A   1      33.414  28.708  25.844  1.00  0.00     0.131 A 
ATOM      9  C   UNL A   1      31.213  28.737  24.202  1.00  0.00     0.108 A 
ATOM     10  C   UNL A   1      32.641  29.853  25.790  1.00  0.00     0.019 A 
ATOM     11  O   UNL A   1      34.582  28.704  26.567  1.00  0.00    -0.475 OA
ATOM     12  C   UNL A   1      31.532  29.849  24.952  1.00  0.00     0.036 A 
ATOM     13  C   UNL A   1      33.074  31.000  26.570  1.00  0.00     0.027 C 
ATOM     14  C   UNL A   1      34.622  29.523  27.768  1.00  0.00     0.316 C 
BRANCH   6  15
ATOM     15  C   UNL A   1      33.967  26.337  25.209  1.00  0.00     0.039 C 
BRANCH  15  16
ATOM     16  C   UNL A   1      33.116  25.169  25.677  1.00  0.00     0.005 C 
BRANCH  16  17
ATOM     17  C   UNL A   1      34.020  24.033  26.128  1.00  0.00    -0.003 C 
ATOM     18  C   UNL A   1      35.315  24.068  25.333  1.00  0.00     0.004 C 
ENDBRANCH  16  17
ENDBRANCH  15  16
ENDBRANCH   6  15
BRANCH   9  19
ATOM     19  S   UNL A   1      29.774  28.761  23.102  1.00  0.00     0.310 S 
ATOM     20  F   UNL A   1      30.289  27.496  22.297  1.00  0.00    -0.094 F 
ATOM     21  F   UNL A   1      30.596  29.651  22.095  1.00  0.00    -0.094 F 
ATOM     22  F   UNL A   1      28.539  28.784  22.158  1.00  0.00    -0.094 F 
ATOM     23  F   UNL A   1      29.017  27.756  24.057  1.00  0.00    -0.094 F 
ATOM     24  F   UNL A   1      31.058  28.638  24.016  1.00  0.00    -0.094 F 
ENDBRANCH   9  19
BRANCH  14  25
ATOM     25  C   UNL A   1      36.068  29.689  28.208  1.00  0.00     0.430 C 
ATOM     26  F   UNL A   1      36.767  28.616  27.846  1.00  0.00    -0.167 F 
ATOM     27  F   UNL A   1      36.585  30.769  27.631  1.00  0.00    -0.167 F 
ATOM     28  F   UNL A   1      36.117  29.825  29.530  1.00  0.00    -0.167 F 
ENDBRANCH  14  25
ENDBRANCH   3   5
ENDBRANCH   2   3
ENDBRANCH   1   2
BRANCH   1  29
ATOM     29  C   UNL A   1      34.392  33.303  31.787  1.00  0.00     0.275 C 
BRANCH  29  30
ATOM     30  O   UNL A   1      35.040  32.083  32.114  1.00  0.00    -0.458 OA
BRANCH  30  31
ATOM     31  C   UNL A   1      36.327  32.100  32.713  1.00  0.00     0.338 C 
ATOM     32  O   UNL A   1      36.472  32.552  33.893  1.00  0.00    -0.246 OA
BRANCH  31  33
ATOM     33  C   UNL A   1      37.530  31.580  31.945  1.00  0.00     0.060 A 
ATOM     34  C   UNL A   1      37.805  32.091  30.687  1.00  0.00     0.016 A 
ATOM     35  C   UNL A   1      38.298  30.644  32.491  1.00  0.00     0.016 A 
ATOM     36  C   UNL A   1      38.756  31.339  29.957  1.00  0.00     0.010 A 
ATOM     37  C   UNL A   1      39.297  30.046  31.761  1.00  0.00     0.010 A 
ATOM     38  C   UNL A   1      39.586  30.462  30.491  1.00  0.00    -0.014 A 
BRANCH  38  39
ATOM     39  C   UNL A   1      40.797  29.942  29.734  1.00  0.00     0.031 A 
ATOM     40  C   UNL A   1      40.791  28.608  29.323  1.00  0.00     0.074 A 
ATOM     41  C   UNL A   1      41.840  30.820  29.496  1.00  0.00     0.049 A 
ATOM     42  N   UNL A   1      41.731  27.967  28.626  1.00  0.00    -0.248 NA
ATOM     43  C   UNL A   1      39.700  27.663  29.604  1.00  0.00     0.031 C 
ATOM     44  C   UNL A   1      41.850  32.170  29.900  1.00  0.00     0.029 A 
ATOM     45  N   UNL A   1      43.027  30.566  28.847  1.00  0.00    -0.354 N 
ATOM     46  C   UNL A   1      41.361  26.704  28.406  1.00  0.00     0.074 A 
ATOM     47  C   UNL A   1      40.052  26.489  29.038  1.00  0.00     0.031 C 
ATOM     48  C   UNL A   1      43.030  32.718  29.509  1.00  0.00     0.029 A 
ATOM     49  C   UNL A   1      43.778  31.721  28.855  1.00  0.00     0.049 A 
ATOM     50  H   UNL A   1      43.294  29.708  28.445  1.00  0.00     0.167 HD
ATOM     51  C   UNL A   1      42.063  25.723  27.702  1.00  0.00     0.037 A 
ATOM     52  C   UNL A   1      45.046  31.914  28.329  1.00  0.00     0.037 A 
ATOM     53  C   UNL A   1      43.312  25.928  27.138  1.00  0.00     0.049 A 
ATOM     54  C   UNL A   1      45.773  30.917  27.675  1.00  0.00     0.074 A 
ATOM     55  C   UNL A   1      44.030  24.953  26.419  1.00  0.00     0.029 A 
ATOM     56  N   UNL A   1      44.073  27.076  27.168  1.00  0.00    -0.354 N 
ATOM     57  N   UNL A   1      45.386  29.665  27.421  1.00  0.00    -0.248 NA
ATOM     58  C   UNL A   1      47.129  31.100  27.141  1.00  0.00     0.031 C 
ATOM     59  C   UNL A   1      45.211  25.503  26.029  1.00  0.00     0.029 A 
ATOM     60  C   UNL A   1      45.251  26.829  26.499  1.00  0.00     0.049 A 
ATOM     61  H   UNL A   1      43.819  27.926  27.594  1.00  0.00     0.167 HD
ATOM     62  C   UNL A   1      46.344  29.013  26.760  1.00  0.00     0.074 A 
ATOM     63  C   UNL A   1      47.483  29.924  26.576  1.00  0.00     0.031 C 
ATOM     64  C   UNL A   1      46.314  27.696  26.298  1.00  0.00     0.037 A 
BRANCH  51  65
ATOM     65  C   UNL A   1      41.421  24.355  27.546  1.00  0.00     0.057 A 
ATOM     66  C   UNL A   1      41.850  23.335  28.380  1.00  0.00     0.134 A 
ATOM     67  C   UNL A   1      40.421  24.170  26.693  1.00  0.00     0.134 A 
ATOM     68  F   UNL A   1      42.664  23.537  29.413  1.00  0.00    -0.206 F 
ATOM     69  C   UNL A   1      41.346  22.059  28.032  1.00  0.00     0.040 A 
ATOM     70  C   UNL A   1      39.884  22.920  26.503  1.00  0.00     0.040 A 
ATOM     71  F   UNL A   1      39.933  25.207  26.015  1.00  0.00    -0.206 F 
ATOM     72  C   UNL A   1      40.302  21.855  27.250  1.00  0.00     0.006 A 
ENDBRANCH  51  65
BRANCH  52  73
ATOM     73  C   UNL A   1      45.680  33.288  28.470  1.00  0.00     0.057 A 
ATOM     74  C   UNL A   1      45.470  34.240  27.486  1.00  0.00     0.134 A 
ATOM     75  C   UNL A   1      46.493  33.522  29.493  1.00  0.00     0.134 A 
ATOM     76  F   UNL A   1      44.488  34.157  26.594  1.00  0.00    -0.206 F 
ATOM     77  C   UNL A   1      46.395  35.310  27.518  1.00  0.00     0.040 A 
ATOM     78  C   UNL A   1      47.269  34.655  29.525  1.00  0.00     0.040 A 
ATOM     79  F   UNL A   1      46.558  32.651  30.496  1.00  0.00    -0.206 F 
ATOM     80  C   UNL A   1      47.157  35.611  28.554  1.00  0.00     0.006 A 
ENDBRANCH  52  73
BRANCH  64  81
ATOM     81  C   UNL A   1      47.519  27.181  25.529  1.00  0.00     0.057 A 
ATOM     82  C   UNL A   1      48.522  26.509  26.209  1.00  0.00     0.134 A 
ATOM     83  C   UNL A   1      47.592  27.383  24.218  1.00  0.00     0.134 A 
ATOM     84  F   UNL A   1      48.382  26.065  27.454  1.00  0.00    -0.206 F 
ATOM     85  C   UNL A   1      49.709  26.339  25.458  1.00  0.00     0.040 A 
ATOM     86  C   UNL A   1      48.735  27.067  23.524  1.00  0.00     0.040 A 
ATOM     87  F   UNL A   1      46.548  27.897  23.572  1.00  0.00    -0.206 F 
ATOM     88  C   UNL A   1      49.787  26.455  24.144  1.00  0.00     0.006 A 
ENDBRANCH  64  81
ENDBRANCH  38  39
ENDBRANCH  31  33
ENDBRANCH  30  31
ENDBRANCH  29  30
ENDBRANCH   1  29
TORSDOF 16
ENDMDL
