MODEL 1
REMARK VINA RESULT:     -10.6      0.000      0.000
REMARK SMILES CCCc1cc2c(cc1Cl)C=C(C(=O)OCCOC(=O)c1ccc(-c3c4nc(c(-c5c(F)cccc5F)c5ccc([nH]5)c(-c5c(F)cccc5F)c5nc(c(-c6c(F)cccc6F)c6ccc3[nH]6)C=C5)C=C4)cc1)[C@@H](C(F)(F)F)O2
REMARK SMILES IDX 16 1 15 2 13 3 14 4 12 5 4 6 5 7 9 8 6 9 8 10 10 11 7 12
REMARK SMILES IDX 80 13 11 14 75 15 3 16 2 17 1 18 76 19 77 20 78 21 79 22
REMARK SMILES IDX 17 23 18 24 19 25 20 26 21 27 22 28 74 29 23 30 73 31 24 32
REMARK SMILES IDX 25 33 26 34 67 35 27 36 72 37 66 38 68 39 28 40 71 41 65 42
REMARK SMILES IDX 64 43 29 45 55 46 38 47 54 48 39 49 42 50 53 51 69 52 40 53
REMARK SMILES IDX 41 54 52 56 70 57 43 58 30 59 31 60 36 61 32 62 33 63 35 64
REMARK SMILES IDX 37 65 34 66 56 67 57 68 62 69 58 70 59 71 61 72 63 73 60 74
REMARK SMILES IDX 44 75 45 76 50 77 46 78 47 79 49 80 51 81 48 82
REMARK H PARENT 68 44 42 55
REMARK Flexibility Score: inf
ROOT
ATOM      1  C   UNL A   1      41.013  19.004  26.311  1.00  0.00     0.275 C 
ENDROOT
BRANCH   1   2
ATOM      2  O   UNL A   1      42.027  19.257  25.312  1.00  0.00    -0.459 OA
BRANCH   2   3
ATOM      3  C   UNL A   1      43.310  19.134  25.725  1.00  0.00     0.338 C 
ATOM      4  O   UNL A   1      43.872  18.094  26.036  1.00  0.00    -0.246 OA
BRANCH   3   5
ATOM      5  C   UNL A   1      44.005  20.440  25.660  1.00  0.00     0.087 C 
ATOM      6  C   UNL A   1      45.145  25.331  25.237  1.00  0.00    -0.026 A 
ATOM      7  C   UNL A   1      45.876  24.170  25.553  1.00  0.00     0.052 A 
ATOM      8  C   UNL A   1      43.744  25.219  25.153  1.00  0.00     0.045 A 
ATOM      9  C   UNL A   1      45.254  22.923  25.634  1.00  0.00     0.128 A 
ATOM     10  C   UNL A   1      43.119  23.975  25.252  1.00  0.00     0.032 A 
ATOM     11  Cl  UNL A   1      42.726  26.595  24.909  1.00  0.00    -0.084 Cl
ATOM     12  C   UNL A   1      43.883  22.822  25.433  1.00  0.00     0.019 A 
ATOM     13  O   UNL A   1      46.053  21.852  25.923  1.00  0.00    -0.475 OA
ATOM     14  C   UNL A   1      43.252  21.521  25.421  1.00  0.00     0.027 C 
ATOM     15  C   UNL A   1      45.503  20.511  25.775  1.00  0.00     0.316 C 
BRANCH   6  16
ATOM     16  C   UNL A   1      45.811  26.665  24.962  1.00  0.00     0.037 C 
BRANCH  16  17
ATOM     17  C   UNL A   1      47.267  26.677  24.480  1.00  0.00     0.001 C 
ATOM     18  C   UNL A   1      47.580  27.795  23.493  1.00  0.00     0.004 C 
ENDBRANCH  16  17
ENDBRANCH   6  16
BRANCH  15  19
ATOM     19  C   UNL A   1      46.144  19.849  24.543  1.00  0.00     0.430 C 
ATOM     20  F   UNL A   1      47.265  20.497  24.152  1.00  0.00    -0.167 F 
ATOM     21  F   UNL A   1      46.502  18.567  24.795  1.00  0.00    -0.167 F 
ATOM     22  F   UNL A   1      45.300  19.826  23.484  1.00  0.00    -0.167 F 
ENDBRANCH  15  19
ENDBRANCH   3   5
ENDBRANCH   2   3
ENDBRANCH   1   2
BRANCH   1  23
ATOM     23  C   UNL A   1      39.855  20.006  26.221  1.00  0.00     0.275 C 
BRANCH  23  24
ATOM     24  O   UNL A   1      40.187  21.264  26.839  1.00  0.00    -0.458 OA
BRANCH  24  25
ATOM     25  C   UNL A   1      39.472  22.324  26.397  1.00  0.00     0.338 C 
ATOM     26  O   UNL A   1      38.502  22.306  25.658  1.00  0.00    -0.246 OA
BRANCH  25  27
ATOM     27  C   UNL A   1      39.905  23.543  27.098  1.00  0.00     0.060 A 
ATOM     28  C   UNL A   1      40.894  23.559  28.072  1.00  0.00     0.016 A 
ATOM     29  C   UNL A   1      39.360  24.739  26.647  1.00  0.00     0.016 A 
ATOM     30  C   UNL A   1      41.294  24.792  28.610  1.00  0.00     0.010 A 
ATOM     31  C   UNL A   1      39.801  25.966  27.125  1.00  0.00     0.010 A 
ATOM     32  C   UNL A   1      40.757  26.013  28.140  1.00  0.00    -0.014 A 
BRANCH  32  33
ATOM     33  C   UNL A   1      41.211  27.323  28.688  1.00  0.00     0.031 A 
ATOM     34  C   UNL A   1      42.662  27.741  28.635  1.00  0.00     0.074 A 
ATOM     35  C   UNL A   1      40.309  28.142  29.265  1.00  0.00     0.049 A 
ATOM     36  N   UNL A   1      43.200  28.896  28.946  1.00  0.00    -0.248 NA
ATOM     37  C   UNL A   1      43.644  26.726  28.221  1.00  0.00     0.031 C 
ATOM     38  C   UNL A   1      38.904  27.813  29.509  1.00  0.00     0.029 A 
ATOM     39  N   UNL A   1      40.431  29.430  29.724  1.00  0.00    -0.354 N 
ATOM     40  C   UNL A   1      44.570  28.742  28.761  1.00  0.00     0.074 A 
ATOM     41  C   UNL A   1      44.792  27.361  28.403  1.00  0.00     0.031 C 
ATOM     42  C   UNL A   1      38.273  28.898  29.984  1.00  0.00     0.029 A 
ATOM     43  C   UNL A   1      39.234  29.989  30.104  1.00  0.00     0.049 A 
ATOM     44  H   UNL A   1      41.291  29.906  29.776  1.00  0.00     0.167 HD
ATOM     45  C   UNL A   1      45.553  29.675  28.833  1.00  0.00     0.037 A 
ATOM     46  C   UNL A   1      38.938  31.251  30.472  1.00  0.00     0.037 A 
ATOM     47  C   UNL A   1      45.331  31.057  29.165  1.00  0.00     0.049 A 
ATOM     48  C   UNL A   1      40.032  32.282  30.493  1.00  0.00     0.074 A 
ATOM     49  C   UNL A   1      46.241  32.100  29.199  1.00  0.00     0.029 A 
ATOM     50  N   UNL A   1      44.100  31.588  29.524  1.00  0.00    -0.354 N 
ATOM     51  N   UNL A   1      41.302  32.152  30.194  1.00  0.00    -0.248 NA
ATOM     52  C   UNL A   1      39.644  33.643  30.889  1.00  0.00     0.031 C 
ATOM     53  C   UNL A   1      45.567  33.255  29.613  1.00  0.00     0.029 A 
ATOM     54  C   UNL A   1      44.229  32.941  29.792  1.00  0.00     0.049 A 
ATOM     55  H   UNL A   1      43.260  31.079  29.581  1.00  0.00     0.167 HD
ATOM     56  C   UNL A   1      41.858  33.416  30.340  1.00  0.00     0.074 A 
ATOM     57  C   UNL A   1      40.781  34.303  30.727  1.00  0.00     0.031 C 
ATOM     58  C   UNL A   1      43.145  33.809  30.172  1.00  0.00     0.037 A 
BRANCH  45  59
ATOM     59  C   UNL A   1      46.955  29.228  28.510  1.00  0.00     0.057 A 
ATOM     60  C   UNL A   1      47.797  28.709  29.500  1.00  0.00     0.134 A 
ATOM     61  C   UNL A   1      47.476  29.325  27.211  1.00  0.00     0.134 A 
ATOM     62  F   UNL A   1      47.373  28.598  30.768  1.00  0.00    -0.206 F 
ATOM     63  C   UNL A   1      49.098  28.292  29.209  1.00  0.00     0.040 A 
ATOM     64  C   UNL A   1      48.764  28.883  26.902  1.00  0.00     0.040 A 
ATOM     65  F   UNL A   1      46.723  29.809  26.211  1.00  0.00    -0.206 F 
ATOM     66  C   UNL A   1      49.581  28.367  27.904  1.00  0.00     0.006 A 
ENDBRANCH  45  59
BRANCH  46  67
ATOM     67  C   UNL A   1      37.535  31.632  30.777  1.00  0.00     0.057 A 
ATOM     68  C   UNL A   1      37.021  31.561  32.076  1.00  0.00     0.134 A 
ATOM     69  C   UNL A   1      36.681  32.102  29.771  1.00  0.00     0.134 A 
ATOM     70  F   UNL A   1      37.782  31.107  33.082  1.00  0.00    -0.206 F 
ATOM     71  C   UNL A   1      35.710  31.945  32.365  1.00  0.00     0.040 A 
ATOM     72  C   UNL A   1      35.378  32.517  30.051  1.00  0.00     0.040 A 
ATOM     73  F   UNL A   1      37.119  32.208  28.507  1.00  0.00    -0.206 F 
ATOM     74  C   UNL A   1      34.889  32.436  31.352  1.00  0.00     0.006 A 
ENDBRANCH  46  67
BRANCH  58  75
ATOM     75  C   UNL A   1      43.442  35.266  30.377  1.00  0.00     0.057 A 
ATOM     76  C   UNL A   1      43.839  35.740  31.635  1.00  0.00     0.134 A 
ATOM     77  C   UNL A   1      43.334  36.199  29.338  1.00  0.00     0.134 A 
ATOM     78  F   UNL A   1      43.953  34.902  32.676  1.00  0.00    -0.206 F 
ATOM     79  C   UNL A   1      44.123  37.090  31.847  1.00  0.00     0.040 A 
ATOM     80  C   UNL A   1      43.645  37.545  29.532  1.00  0.00     0.040 A 
ATOM     81  F   UNL A   1      42.973  35.806  28.106  1.00  0.00    -0.206 F 
ATOM     82  C   UNL A   1      44.037  37.995  30.792  1.00  0.00     0.006 A 
ENDBRANCH  58  75
ENDBRANCH  32  33
ENDBRANCH  25  27
ENDBRANCH  24  25
ENDBRANCH  23  24
ENDBRANCH   1  23
TORSDOF 14
ENDMDL
MODEL 2
REMARK VINA RESULT:     -10.4      5.234     12.310
REMARK SMILES CCCc1cc2c(cc1Cl)C=C(C(=O)OCCOC(=O)c1ccc(-c3c4nc(c(-c5c(F)cccc5F)c5ccc([nH]5)c(-c5c(F)cccc5F)c5nc(c(-c6c(F)cccc6F)c6ccc3[nH]6)C=C5)C=C4)cc1)[C@@H](C(F)(F)F)O2
REMARK SMILES IDX 16 1 15 2 13 3 14 4 12 5 4 6 5 7 9 8 6 9 8 10 10 11 7 12
REMARK SMILES IDX 80 13 11 14 75 15 3 16 2 17 1 18 76 19 77 20 78 21 79 22
REMARK SMILES IDX 17 23 18 24 19 25 20 26 21 27 22 28 74 29 23 30 73 31 24 32
REMARK SMILES IDX 25 33 26 34 67 35 27 36 72 37 66 38 68 39 28 40 71 41 65 42
REMARK SMILES IDX 64 43 29 45 55 46 38 47 54 48 39 49 42 50 53 51 69 52 40 53
REMARK SMILES IDX 41 54 52 56 70 57 43 58 30 59 31 60 36 61 32 62 33 63 35 64
REMARK SMILES IDX 37 65 34 66 56 67 57 68 62 69 58 70 59 71 61 72 63 73 60 74
REMARK SMILES IDX 44 75 45 76 50 77 46 78 47 79 49 80 51 81 48 82
REMARK H PARENT 68 44 42 55
REMARK Flexibility Score: inf
ROOT
ATOM      1  C   UNL A   1      32.882  34.704  27.976  1.00  0.00     0.275 C 
ENDROOT
BRANCH   1   2
ATOM      2  O   UNL A   1      32.586  34.825  29.385  1.00  0.00    -0.459 OA
BRANCH   2   3
ATOM      3  C   UNL A   1      33.198  35.841  30.036  1.00  0.00     0.338 C 
ATOM      4  O   UNL A   1      32.999  37.035  29.863  1.00  0.00    -0.246 OA
BRANCH   3   5
ATOM      5  C   UNL A   1      34.100  35.317  31.087  1.00  0.00     0.087 C 
ATOM      6  C   UNL A   1      36.985  32.399  34.014  1.00  0.00    -0.026 A 
ATOM      7  C   UNL A   1      36.708  33.778  33.961  1.00  0.00     0.052 A 
ATOM      8  C   UNL A   1      36.514  31.597  32.958  1.00  0.00     0.045 A 
ATOM      9  C   UNL A   1      35.871  34.311  32.978  1.00  0.00     0.128 A 
ATOM     10  C   UNL A   1      35.693  32.132  31.965  1.00  0.00     0.032 A 
ATOM     11  Cl  UNL A   1      36.905  29.917  32.836  1.00  0.00    -0.084 Cl
ATOM     12  C   UNL A   1      35.325  33.477  32.012  1.00  0.00     0.019 A 
ATOM     13  O   UNL A   1      35.645  35.658  33.025  1.00  0.00    -0.475 OA
ATOM     14  C   UNL A   1      34.383  34.009  31.052  1.00  0.00     0.027 C 
ATOM     15  C   UNL A   1      34.594  36.219  32.185  1.00  0.00     0.316 C 
BRANCH   6  16
ATOM     16  C   UNL A   1      37.736  31.762  35.166  1.00  0.00     0.037 C 
BRANCH  16  17
ATOM     17  C   UNL A   1      38.193  32.650  36.330  1.00  0.00     0.001 C 
ATOM     18  C   UNL A   1      37.776  32.130  37.701  1.00  0.00     0.004 C 
ENDBRANCH  16  17
ENDBRANCH   6  16
BRANCH  15  19
ATOM     19  C   UNL A   1      33.413  36.631  33.081  1.00  0.00     0.430 C 
ATOM     20  F   UNL A   1      32.400  35.737  33.018  1.00  0.00    -0.167 F 
ATOM     21  F   UNL A   1      33.780  36.715  34.382  1.00  0.00    -0.167 F 
ATOM     22  F   UNL A   1      32.909  37.838  32.730  1.00  0.00    -0.167 F 
ENDBRANCH  15  19
ENDBRANCH   3   5
ENDBRANCH   2   3
ENDBRANCH   1   2
BRANCH   1  23
ATOM     23  C   UNL A   1      33.062  33.242  27.549  1.00  0.00     0.275 C 
BRANCH  23  24
ATOM     24  O   UNL A   1      34.347  32.724  27.943  1.00  0.00    -0.458 OA
BRANCH  24  25
ATOM     25  C   UNL A   1      34.420  31.375  28.020  1.00  0.00     0.338 C 
ATOM     26  O   UNL A   1      33.558  30.569  27.717  1.00  0.00    -0.246 OA
BRANCH  25  27
ATOM     27  C   UNL A   1      35.797  30.971  28.347  1.00  0.00     0.060 A 
ATOM     28  C   UNL A   1      36.870  31.850  28.377  1.00  0.00     0.016 A 
ATOM     29  C   UNL A   1      35.968  29.656  28.764  1.00  0.00     0.016 A 
ATOM     30  C   UNL A   1      38.123  31.374  28.793  1.00  0.00     0.010 A 
ATOM     31  C   UNL A   1      37.189  29.198  29.243  1.00  0.00     0.010 A 
ATOM     32  C   UNL A   1      38.299  30.043  29.236  1.00  0.00    -0.014 A 
BRANCH  32  33
ATOM     33  C   UNL A   1      39.623  29.552  29.713  1.00  0.00     0.031 A 
ATOM     34  C   UNL A   1      40.254  30.082  30.980  1.00  0.00     0.074 A 
ATOM     35  C   UNL A   1      40.284  28.631  28.983  1.00  0.00     0.049 A 
ATOM     36  N   UNL A   1      41.333  29.668  31.601  1.00  0.00    -0.248 NA
ATOM     37  C   UNL A   1      39.621  31.250  31.613  1.00  0.00     0.031 C 
ATOM     38  C   UNL A   1      39.863  28.131  27.673  1.00  0.00     0.029 A 
ATOM     39  N   UNL A   1      41.433  27.928  29.251  1.00  0.00    -0.354 N 
ATOM     40  C   UNL A   1      41.498  30.519  32.688  1.00  0.00     0.074 A 
ATOM     41  C   UNL A   1      40.469  31.528  32.592  1.00  0.00     0.031 C 
ATOM     42  C   UNL A   1      40.684  27.139  27.295  1.00  0.00     0.029 A 
ATOM     43  C   UNL A   1      41.705  26.953  28.320  1.00  0.00     0.049 A 
ATOM     44  H   UNL A   1      42.005  28.106  30.032  1.00  0.00     0.167 HD
ATOM     45  C   UNL A   1      42.394  30.444  33.704  1.00  0.00     0.037 A 
ATOM     46  C   UNL A   1      42.649  25.992  28.315  1.00  0.00     0.037 A 
ATOM     47  C   UNL A   1      43.405  29.426  33.815  1.00  0.00     0.049 A 
ATOM     48  C   UNL A   1      43.598  25.893  29.476  1.00  0.00     0.074 A 
ATOM     49  C   UNL A   1      44.318  29.215  34.834  1.00  0.00     0.029 A 
ATOM     50  N   UNL A   1      43.636  28.445  32.862  1.00  0.00    -0.354 N 
ATOM     51  N   UNL A   1      43.664  26.627  30.560  1.00  0.00    -0.248 NA
ATOM     52  C   UNL A   1      44.596  24.815  29.419  1.00  0.00     0.031 C 
ATOM     53  C   UNL A   1      45.123  28.126  34.481  1.00  0.00     0.029 A 
ATOM     54  C   UNL A   1      44.682  27.631  33.264  1.00  0.00     0.049 A 
ATOM     55  H   UNL A   1      43.130  28.341  32.024  1.00  0.00     0.167 HD
ATOM     56  C   UNL A   1      44.690  26.087  31.324  1.00  0.00     0.074 A 
ATOM     57  C   UNL A   1      45.199  24.946  30.591  1.00  0.00     0.031 C 
ATOM     58  C   UNL A   1      45.172  26.498  32.523  1.00  0.00     0.037 A 
BRANCH  45  59
ATOM     59  C   UNL A   1      42.291  31.478  34.794  1.00  0.00     0.057 A 
ATOM     60  C   UNL A   1      41.590  31.219  35.977  1.00  0.00     0.134 A 
ATOM     61  C   UNL A   1      42.882  32.745  34.662  1.00  0.00     0.134 A 
ATOM     62  F   UNL A   1      40.988  30.036  36.168  1.00  0.00    -0.206 F 
ATOM     63  C   UNL A   1      41.490  32.174  36.993  1.00  0.00     0.040 A 
ATOM     64  C   UNL A   1      42.814  33.695  35.683  1.00  0.00     0.040 A 
ATOM     65  F   UNL A   1      43.573  33.061  33.557  1.00  0.00    -0.206 F 
ATOM     66  C   UNL A   1      42.113  33.412  36.853  1.00  0.00     0.006 A 
ENDBRANCH  45  59
BRANCH  46  67
ATOM     67  C   UNL A   1      42.699  24.999  27.212  1.00  0.00     0.057 A 
ATOM     68  C   UNL A   1      43.488  25.203  26.075  1.00  0.00     0.134 A 
ATOM     69  C   UNL A   1      41.972  23.803  27.284  1.00  0.00     0.134 A 
ATOM     70  F   UNL A   1      44.198  26.333  25.937  1.00  0.00    -0.206 F 
ATOM     71  C   UNL A   1      43.554  24.256  25.051  1.00  0.00     0.040 A 
ATOM     72  C   UNL A   1      42.052  22.835  26.282  1.00  0.00     0.040 A 
ATOM     73  F   UNL A   1      41.208  23.542  28.356  1.00  0.00    -0.206 F 
ATOM     74  C   UNL A   1      42.844  23.062  25.159  1.00  0.00     0.006 A 
ENDBRANCH  46  67
BRANCH  58  75
ATOM     75  C   UNL A   1      46.283  25.686  33.123  1.00  0.00     0.057 A 
ATOM     76  C   UNL A   1      45.998  24.619  33.985  1.00  0.00     0.134 A 
ATOM     77  C   UNL A   1      47.630  25.958  32.854  1.00  0.00     0.134 A 
ATOM     78  F   UNL A   1      44.729  24.310  34.292  1.00  0.00    -0.206 F 
ATOM     79  C   UNL A   1      47.014  23.849  34.551  1.00  0.00     0.040 A 
ATOM     80  C   UNL A   1      48.653  25.175  33.391  1.00  0.00     0.040 A 
ATOM     81  F   UNL A   1      47.970  26.958  32.025  1.00  0.00    -0.206 F 
ATOM     82  C   UNL A   1      48.346  24.119  34.247  1.00  0.00     0.006 A 
ENDBRANCH  58  75
ENDBRANCH  32  33
ENDBRANCH  25  27
ENDBRANCH  24  25
ENDBRANCH  23  24
ENDBRANCH   1  23
TORSDOF 14
ENDMDL
MODEL 3
REMARK VINA RESULT:     -10.3      4.687      7.575
REMARK SMILES CCCc1cc2c(cc1Cl)C=C(C(=O)OCCOC(=O)c1ccc(-c3c4nc(c(-c5c(F)cccc5F)c5ccc([nH]5)c(-c5c(F)cccc5F)c5nc(c(-c6c(F)cccc6F)c6ccc3[nH]6)C=C5)C=C4)cc1)[C@@H](C(F)(F)F)O2
REMARK SMILES IDX 16 1 15 2 13 3 14 4 12 5 4 6 5 7 9 8 6 9 8 10 10 11 7 12
REMARK SMILES IDX 80 13 11 14 75 15 3 16 2 17 1 18 76 19 77 20 78 21 79 22
REMARK SMILES IDX 17 23 18 24 19 25 20 26 21 27 22 28 74 29 23 30 73 31 24 32
REMARK SMILES IDX 25 33 26 34 67 35 27 36 72 37 66 38 68 39 28 40 71 41 65 42
REMARK SMILES IDX 64 43 29 45 55 46 38 47 54 48 39 49 42 50 53 51 69 52 40 53
REMARK SMILES IDX 41 54 52 56 70 57 43 58 30 59 31 60 36 61 32 62 33 63 35 64
REMARK SMILES IDX 37 65 34 66 56 67 57 68 62 69 58 70 59 71 61 72 63 73 60 74
REMARK SMILES IDX 44 75 45 76 50 77 46 78 47 79 49 80 51 81 48 82
REMARK H PARENT 68 44 42 55
REMARK Flexibility Score: inf
ROOT
ATOM      1  C   UNL A   1      34.749  21.187  24.838  1.00  0.00     0.275 C 
ENDROOT
BRANCH   1   2
ATOM      2  O   UNL A   1      34.686  22.617  24.646  1.00  0.00    -0.459 OA
BRANCH   2   3
ATOM      3  C   UNL A   1      34.089  23.324  25.634  1.00  0.00     0.338 C 
ATOM      4  O   UNL A   1      34.227  23.144  26.836  1.00  0.00    -0.246 OA
BRANCH   3   5
ATOM      5  C   UNL A   1      33.297  24.440  25.071  1.00  0.00     0.087 C 
ATOM      6  C   UNL A   1      31.013  28.857  24.246  1.00  0.00    -0.026 A 
ATOM      7  C   UNL A   1      31.157  27.667  23.508  1.00  0.00     0.052 A 
ATOM      8  C   UNL A   1      31.768  28.991  25.427  1.00  0.00     0.045 A 
ATOM      9  C   UNL A   1      31.906  26.596  24.001  1.00  0.00     0.128 A 
ATOM     10  C   UNL A   1      32.531  27.928  25.911  1.00  0.00     0.032 A 
ATOM     11  Cl  UNL A   1      31.784  30.455  26.345  1.00  0.00    -0.084 Cl
ATOM     12  C   UNL A   1      32.550  26.712  25.227  1.00  0.00     0.019 A 
ATOM     13  O   UNL A   1      31.967  25.476  23.221  1.00  0.00    -0.475 OA
ATOM     14  C   UNL A   1      33.245  25.573  25.783  1.00  0.00     0.027 C 
ATOM     15  C   UNL A   1      32.521  24.256  23.795  1.00  0.00     0.316 C 
BRANCH   6  16
ATOM     16  C   UNL A   1      30.065  29.965  23.830  1.00  0.00     0.037 C 
BRANCH  16  17
ATOM     17  C   UNL A   1      29.269  29.804  22.529  1.00  0.00     0.001 C 
ATOM     18  C   UNL A   1      27.797  29.473  22.745  1.00  0.00     0.004 C 
ENDBRANCH  16  17
ENDBRANCH   6  16
BRANCH  15  19
ATOM     19  C   UNL A   1      31.375  23.257  24.031  1.00  0.00     0.430 C 
ATOM     20  F   UNL A   1      31.753  21.987  23.762  1.00  0.00    -0.167 F 
ATOM     21  F   UNL A   1      30.954  23.276  25.319  1.00  0.00    -0.167 F 
ATOM     22  F   UNL A   1      30.298  23.531  23.256  1.00  0.00    -0.167 F 
ENDBRANCH  15  19
ENDBRANCH   3   5
ENDBRANCH   2   3
ENDBRANCH   1   2
BRANCH   1  23
ATOM     23  C   UNL A   1      36.193  20.691  24.992  1.00  0.00     0.275 C 
BRANCH  23  24
ATOM     24  O   UNL A   1      36.990  21.601  25.774  1.00  0.00    -0.458 OA
BRANCH  24  25
ATOM     25  C   UNL A   1      38.304  21.287  25.853  1.00  0.00     0.338 C 
ATOM     26  O   UNL A   1      38.861  20.313  25.377  1.00  0.00    -0.246 OA
BRANCH  25  27
ATOM     27  C   UNL A   1      39.048  22.409  26.446  1.00  0.00     0.060 A 
ATOM     28  C   UNL A   1      40.213  22.255  27.186  1.00  0.00     0.016 A 
ATOM     29  C   UNL A   1      38.598  23.684  26.122  1.00  0.00     0.016 A 
ATOM     30  C   UNL A   1      40.891  23.402  27.626  1.00  0.00     0.010 A 
ATOM     31  C   UNL A   1      39.304  24.821  26.495  1.00  0.00     0.010 A 
ATOM     32  C   UNL A   1      40.449  24.700  27.282  1.00  0.00    -0.014 A 
BRANCH  32  33
ATOM     33  C   UNL A   1      41.194  25.915  27.720  1.00  0.00     0.031 A 
ATOM     34  C   UNL A   1      42.617  26.171  27.281  1.00  0.00     0.074 A 
ATOM     35  C   UNL A   1      40.591  26.794  28.546  1.00  0.00     0.049 A 
ATOM     36  N   UNL A   1      43.358  27.238  27.463  1.00  0.00    -0.248 NA
ATOM     37  C   UNL A   1      43.316  25.080  26.583  1.00  0.00     0.031 C 
ATOM     38  C   UNL A   1      39.274  26.609  29.159  1.00  0.00     0.029 A 
ATOM     39  N   UNL A   1      40.991  28.030  28.989  1.00  0.00    -0.354 N 
ATOM     40  C   UNL A   1      44.597  26.944  26.903  1.00  0.00     0.074 A 
ATOM     41  C   UNL A   1      44.540  25.570  26.459  1.00  0.00     0.031 C 
ATOM     42  C   UNL A   1      38.935  27.727  29.820  1.00  0.00     0.029 A 
ATOM     43  C   UNL A   1      40.020  28.695  29.701  1.00  0.00     0.049 A 
ATOM     44  H   UNL A   1      41.885  28.402  28.815  1.00  0.00     0.167 HD
ATOM     45  C   UNL A   1      45.670  27.754  26.727  1.00  0.00     0.037 A 
ATOM     46  C   UNL A   1      39.994  29.956  30.171  1.00  0.00     0.037 A 
ATOM     47  C   UNL A   1      45.719  29.130  27.147  1.00  0.00     0.049 A 
ATOM     48  C   UNL A   1      41.172  30.856  29.920  1.00  0.00     0.074 A 
ATOM     49  C   UNL A   1      46.727  30.060  26.958  1.00  0.00     0.029 A 
ATOM     50  N   UNL A   1      44.708  29.772  27.847  1.00  0.00    -0.354 N 
ATOM     51  N   UNL A   1      42.287  30.603  29.278  1.00  0.00    -0.248 NA
ATOM     52  C   UNL A   1      41.078  32.225  30.446  1.00  0.00     0.031 C 
ATOM     53  C   UNL A   1      46.339  31.256  27.574  1.00  0.00     0.029 A 
ATOM     54  C   UNL A   1      45.071  31.084  28.106  1.00  0.00     0.049 A 
ATOM     55  H   UNL A   1      43.858  29.358  28.118  1.00  0.00     0.167 HD
ATOM     56  C   UNL A   1      43.015  31.786  29.301  1.00  0.00     0.074 A 
ATOM     57  C   UNL A   1      42.202  32.762  29.995  1.00  0.00     0.031 C 
ATOM     58  C   UNL A   1      44.247  32.042  28.795  1.00  0.00     0.037 A 
BRANCH  45  59
ATOM     59  C   UNL A   1      46.865  27.174  26.018  1.00  0.00     0.057 A 
ATOM     60  C   UNL A   1      47.897  26.550  26.728  1.00  0.00     0.134 A 
ATOM     61  C   UNL A   1      46.999  27.248  24.623  1.00  0.00     0.134 A 
ATOM     62  F   UNL A   1      47.846  26.454  28.065  1.00  0.00    -0.206 F 
ATOM     63  C   UNL A   1      49.010  26.009  26.077  1.00  0.00     0.040 A 
ATOM     64  C   UNL A   1      48.090  26.684  23.960  1.00  0.00     0.040 A 
ATOM     65  F   UNL A   1      46.045  27.828  23.879  1.00  0.00    -0.206 F 
ATOM     66  C   UNL A   1      49.103  26.064  24.688  1.00  0.00     0.006 A 
ENDBRANCH  45  59
BRANCH  46  67
ATOM     67  C   UNL A   1      38.785  30.473  30.863  1.00  0.00     0.057 A 
ATOM     68  C   UNL A   1      37.765  31.129  30.166  1.00  0.00     0.134 A 
ATOM     69  C   UNL A   1      38.612  30.298  32.242  1.00  0.00     0.134 A 
ATOM     70  F   UNL A   1      37.873  31.341  28.845  1.00  0.00    -0.206 F 
ATOM     71  C   UNL A   1      36.617  31.589  30.813  1.00  0.00     0.040 A 
ATOM     72  C   UNL A   1      37.457  30.727  32.897  1.00  0.00     0.040 A 
ATOM     73  F   UNL A   1      39.549  29.664  32.964  1.00  0.00    -0.206 F 
ATOM     74  C   UNL A   1      36.456  31.378  32.181  1.00  0.00     0.006 A 
ENDBRANCH  46  67
BRANCH  58  75
ATOM     75  C   UNL A   1      44.767  33.441  28.951  1.00  0.00     0.057 A 
ATOM     76  C   UNL A   1      45.533  33.794  30.070  1.00  0.00     0.134 A 
ATOM     77  C   UNL A   1      44.510  34.439  28.003  1.00  0.00     0.134 A 
ATOM     78  F   UNL A   1      45.808  32.890  31.022  1.00  0.00    -0.206 F 
ATOM     79  C   UNL A   1      46.029  35.088  30.234  1.00  0.00     0.040 A 
ATOM     80  C   UNL A   1      45.027  35.728  28.142  1.00  0.00     0.040 A 
ATOM     81  F   UNL A   1      43.795  34.161  26.901  1.00  0.00    -0.206 F 
ATOM     82  C   UNL A   1      45.786  36.056  29.263  1.00  0.00     0.006 A 
ENDBRANCH  58  75
ENDBRANCH  32  33
ENDBRANCH  25  27
ENDBRANCH  24  25
ENDBRANCH  23  24
ENDBRANCH   1  23
TORSDOF 14
ENDMDL
