MODEL 1
REMARK VINA RESULT:     -12.0      0.000      0.000
REMARK SMILES O=C(N[C@@H](Cc1ccc(O)cc1)C(=O)N[C@@H](CO)C(=O)OCCOC(=O)c1ccc(-c2c3nc(c(-c4c(F)cccc4F)c4ccc([nH]4)c(-c4c(F)cccc4F)c4nc(c(-c5c(F)cccc5F)c5ccc2[nH]5)C=C4)C=C3)cc1)c1ccc(F)cc1
REMARK SMILES IDX 21 1 19 2 20 3 16 4 15 5 13 6 14 7 4 9 3 10 1 11 2 12 81 14
REMARK SMILES IDX 82 15 87 16 83 17 86 18 84 19 85 20 5 21 6 22 7 23 12 24
REMARK SMILES IDX 8 25 11 26 9 27 10 28 17 30 18 31 22 33 23 34 24 35 25 36
REMARK SMILES IDX 26 37 27 38 28 39 80 40 29 41 79 42 30 43 31 44 32 45 73 46
REMARK SMILES IDX 33 47 78 48 72 49 74 50 34 51 77 52 71 53 70 54 35 56 61 57
REMARK SMILES IDX 44 58 60 59 45 60 48 61 59 62 75 63 46 64 47 65 58 67 76 68
REMARK SMILES IDX 49 69 36 70 37 71 42 72 38 73 39 74 41 75 43 76 40 77 62 78
REMARK SMILES IDX 63 79 68 80 64 81 65 82 67 83 69 84 66 85 50 86 51 87 56 88
REMARK SMILES IDX 52 89 53 90 55 91 57 92 54 93
REMARK H PARENT 15 8 3 13 10 29 18 32 74 55 48 66
REMARK Flexibility Score: inf
ROOT
ATOM      1  O   UNL A   1      34.060  20.792  24.638  1.00  0.00    -0.460 OA
ENDROOT
BRANCH   1   2
ATOM      2  C   UNL A   1      32.869  20.883  25.319  1.00  0.00     0.331 C 
ATOM      3  O   UNL A   1      31.940  20.099  25.158  1.00  0.00    -0.250 OA
BRANCH   2   4
ATOM      4  C   UNL A   1      32.934  21.936  26.453  1.00  0.00     0.218 C 
BRANCH   4   5
ATOM      5  N   UNL A   1      31.631  22.394  26.928  1.00  0.00    -0.339 N 
ATOM      6  C   UNL A   1      30.907  23.510  26.672  1.00  0.00     0.243 C 
ATOM      7  O   UNL A   1      29.852  23.614  27.313  1.00  0.00    -0.273 OA
ATOM      8  H   UNL A   1      31.194  21.773  27.555  1.00  0.00     0.164 HD
BRANCH   6   9
ATOM      9  C   UNL A   1      31.362  24.682  25.761  1.00  0.00     0.176 C 
BRANCH   9  10
ATOM     10  N   UNL A   1      32.807  24.786  25.607  1.00  0.00    -0.340 N 
ATOM     11  O   UNL A   1      34.725  25.809  25.064  1.00  0.00    -0.269 OA
ATOM     12  C   UNL A   1      33.587  25.917  25.513  1.00  0.00     0.251 C 
ATOM     13  H   UNL A   1      33.291  23.930  25.562  1.00  0.00     0.164 HD
BRANCH  12  14
ATOM     14  C   UNL A   1      33.097  27.258  25.930  1.00  0.00     0.040 A 
ATOM     15  C   UNL A   1      33.369  28.406  25.172  1.00  0.00     0.017 A 
ATOM     16  C   UNL A   1      32.232  27.350  27.031  1.00  0.00     0.017 A 
ATOM     17  C   UNL A   1      32.814  29.638  25.537  1.00  0.00     0.040 A 
ATOM     18  C   UNL A   1      31.673  28.582  27.389  1.00  0.00     0.040 A 
ATOM     19  C   UNL A   1      31.970  29.714  26.639  1.00  0.00     0.123 A 
ATOM     20  F   UNL A   1      31.420  30.890  26.967  1.00  0.00    -0.207 F 
ENDBRANCH  12  14
ENDBRANCH   9  10
BRANCH   9  21
ATOM     21  C   UNL A   1      30.558  24.985  24.483  1.00  0.00     0.070 C 
BRANCH  21  22
ATOM     22  C   UNL A   1      30.571  26.317  23.749  1.00  0.00    -0.045 A 
ATOM     23  C   UNL A   1      29.779  27.407  24.116  1.00  0.00     0.007 A 
ATOM     24  C   UNL A   1      31.405  26.476  22.624  1.00  0.00     0.007 A 
ATOM     25  C   UNL A   1      29.890  28.625  23.424  1.00  0.00     0.046 A 
ATOM     26  C   UNL A   1      31.510  27.674  21.923  1.00  0.00     0.046 A 
ATOM     27  C   UNL A   1      30.764  28.753  22.348  1.00  0.00     0.115 A 
BRANCH  27  28
ATOM     28  O   UNL A   1      30.880  29.963  21.734  1.00  0.00    -0.508 OA
ATOM     29  H   UNL A   1      30.134  30.526  21.663  1.00  0.00     0.293 HD
ENDBRANCH  27  28
ENDBRANCH  21  22
ENDBRANCH   9  21
ENDBRANCH   6   9
ENDBRANCH   4   5
BRANCH   4  30
ATOM     30  C   UNL A   1      33.845  21.504  27.600  1.00  0.00     0.193 C 
BRANCH  30  31
ATOM     31  O   UNL A   1      34.845  22.480  27.865  1.00  0.00    -0.394 OA
ATOM     32  H   UNL A   1      34.506  23.126  28.503  1.00  0.00     0.210 HD
ENDBRANCH  30  31
ENDBRANCH   4  30
ENDBRANCH   2   4
ENDBRANCH   1   2
BRANCH   1  33
ATOM     33  C   UNL A   1      34.475  22.013  23.974  1.00  0.00     0.274 C 
BRANCH  33  34
ATOM     34  C   UNL A   1      35.997  22.203  24.086  1.00  0.00     0.275 C 
BRANCH  34  35
ATOM     35  O   UNL A   1      36.465  21.799  25.394  1.00  0.00    -0.458 OA
BRANCH  35  36
ATOM     36  C   UNL A   1      37.786  21.494  25.487  1.00  0.00     0.338 C 
ATOM     37  O   UNL A   1      38.337  20.523  24.966  1.00  0.00    -0.246 OA
BRANCH  36  38
ATOM     38  C   UNL A   1      38.534  22.528  26.255  1.00  0.00     0.060 A 
ATOM     39  C   UNL A   1      37.998  23.800  26.383  1.00  0.00     0.016 A 
ATOM     40  C   UNL A   1      39.823  22.315  26.740  1.00  0.00     0.016 A 
ATOM     41  C   UNL A   1      38.747  24.882  26.822  1.00  0.00     0.010 A 
ATOM     42  C   UNL A   1      40.555  23.385  27.295  1.00  0.00     0.010 A 
ATOM     43  C   UNL A   1      40.046  24.699  27.282  1.00  0.00    -0.014 A 
BRANCH  43  44
ATOM     44  C   UNL A   1      40.881  25.906  27.558  1.00  0.00     0.031 A 
ATOM     45  C   UNL A   1      40.369  26.941  28.527  1.00  0.00     0.074 A 
ATOM     46  C   UNL A   1      42.151  26.013  27.108  1.00  0.00     0.049 A 
ATOM     47  N   UNL A   1      40.840  28.131  28.800  1.00  0.00    -0.248 NA
ATOM     48  C   UNL A   1      39.168  26.582  29.296  1.00  0.00     0.031 C 
ATOM     49  C   UNL A   1      42.856  25.017  26.299  1.00  0.00     0.029 A 
ATOM     50  N   UNL A   1      43.100  26.987  27.321  1.00  0.00    -0.354 N 
ATOM     51  C   UNL A   1      39.944  28.692  29.702  1.00  0.00     0.074 A 
ATOM     52  C   UNL A   1      38.920  27.703  29.954  1.00  0.00     0.031 C 
ATOM     53  C   UNL A   1      44.140  25.385  26.160  1.00  0.00     0.029 A 
ATOM     54  C   UNL A   1      44.323  26.703  26.757  1.00  0.00     0.049 A 
ATOM     55  H   UNL A   1      42.920  27.810  27.829  1.00  0.00     0.167 HD
ATOM     56  C   UNL A   1      39.964  29.928  30.254  1.00  0.00     0.037 A 
ATOM     57  C   UNL A   1      45.449  27.440  26.688  1.00  0.00     0.037 A 
ATOM     58  C   UNL A   1      41.022  30.880  30.050  1.00  0.00     0.049 A 
ATOM     59  C   UNL A   1      45.436  28.831  27.262  1.00  0.00     0.074 A 
ATOM     60  C   UNL A   1      41.102  32.197  30.462  1.00  0.00     0.029 A 
ATOM     61  N   UNL A   1      42.213  30.591  29.398  1.00  0.00    -0.354 N 
ATOM     62  N   UNL A   1      44.496  29.434  27.947  1.00  0.00    -0.248 NA
ATOM     63  C   UNL A   1      46.624  29.660  27.013  1.00  0.00     0.031 C 
ATOM     64  C   UNL A   1      42.335  32.712  30.042  1.00  0.00     0.029 A 
ATOM     65  C   UNL A   1      43.037  31.703  29.402  1.00  0.00     0.049 A 
ATOM     66  H   UNL A   1      42.438  29.723  28.993  1.00  0.00     0.167 HD
ATOM     67  C   UNL A   1      44.974  30.711  28.209  1.00  0.00     0.074 A 
ATOM     68  C   UNL A   1      46.305  30.782  27.641  1.00  0.00     0.031 C 
ATOM     69  C   UNL A   1      44.361  31.743  28.840  1.00  0.00     0.037 A 
BRANCH  56  70
ATOM     70  C   UNL A   1      38.756  30.334  31.045  1.00  0.00     0.057 A 
ATOM     71  C   UNL A   1      37.662  30.989  30.468  1.00  0.00     0.134 A 
ATOM     72  C   UNL A   1      38.720  30.109  32.427  1.00  0.00     0.134 A 
ATOM     73  F   UNL A   1      37.650  31.263  29.155  1.00  0.00    -0.206 F 
ATOM     74  C   UNL A   1      36.589  31.436  31.244  1.00  0.00     0.040 A 
ATOM     75  C   UNL A   1      37.643  30.527  33.209  1.00  0.00     0.040 A 
ATOM     76  F   UNL A   1      39.739  29.489  33.043  1.00  0.00    -0.206 F 
ATOM     77  C   UNL A   1      36.577  31.204  32.619  1.00  0.00     0.006 A 
ENDBRANCH  56  70
BRANCH  57  78
ATOM     78  C   UNL A   1      46.656  26.924  25.983  1.00  0.00     0.057 A 
ATOM     79  C   UNL A   1      47.615  26.152  26.651  1.00  0.00     0.134 A 
ATOM     80  C   UNL A   1      46.903  27.223  24.637  1.00  0.00     0.134 A 
ATOM     81  F   UNL A   1      47.460  25.857  27.950  1.00  0.00    -0.206 F 
ATOM     82  C   UNL A   1      48.777  25.709  26.013  1.00  0.00     0.040 A 
ATOM     83  C   UNL A   1      48.042  26.758  23.976  1.00  0.00     0.040 A 
ATOM     84  F   UNL A   1      46.034  27.966  23.937  1.00  0.00    -0.206 F 
ATOM     85  C   UNL A   1      48.988  26.006  24.668  1.00  0.00     0.006 A 
ENDBRANCH  57  78
BRANCH  69  86
ATOM     86  C   UNL A   1      45.140  33.017  28.967  1.00  0.00     0.057 A 
ATOM     87  C   UNL A   1      45.995  33.251  30.052  1.00  0.00     0.134 A 
ATOM     88  C   UNL A   1      45.044  34.011  27.986  1.00  0.00     0.134 A 
ATOM     89  F   UNL A   1      46.117  32.343  31.030  1.00  0.00    -0.206 F 
ATOM     90  C   UNL A   1      46.708  34.445  30.169  1.00  0.00     0.040 A 
ATOM     91  C   UNL A   1      45.770  35.198  28.082  1.00  0.00     0.040 A 
ATOM     92  F   UNL A   1      44.246  33.842  26.921  1.00  0.00    -0.206 F 
ATOM     93  C   UNL A   1      46.600  35.420  29.179  1.00  0.00     0.006 A 
ENDBRANCH  69  86
ENDBRANCH  43  44
ENDBRANCH  36  38
ENDBRANCH  35  36
ENDBRANCH  34  35
ENDBRANCH  33  34
ENDBRANCH   1  33
TORSDOF 20
ENDMDL
MODEL 2
REMARK VINA RESULT:     -12.0      1.344      2.405
REMARK SMILES O=C(N[C@@H](Cc1ccc(O)cc1)C(=O)N[C@@H](CO)C(=O)OCCOC(=O)c1ccc(-c2c3nc(c(-c4c(F)cccc4F)c4ccc([nH]4)c(-c4c(F)cccc4F)c4nc(c(-c5c(F)cccc5F)c5ccc2[nH]5)C=C4)C=C3)cc1)c1ccc(F)cc1
REMARK SMILES IDX 21 1 19 2 20 3 16 4 15 5 13 6 14 7 4 9 3 10 1 11 2 12 81 14
REMARK SMILES IDX 82 15 87 16 83 17 86 18 84 19 85 20 5 21 6 22 7 23 12 24
REMARK SMILES IDX 8 25 11 26 9 27 10 28 17 30 18 31 22 33 23 34 24 35 25 36
REMARK SMILES IDX 26 37 27 38 28 39 80 40 29 41 79 42 30 43 31 44 32 45 73 46
REMARK SMILES IDX 33 47 78 48 72 49 74 50 34 51 77 52 71 53 70 54 35 56 61 57
REMARK SMILES IDX 44 58 60 59 45 60 48 61 59 62 75 63 46 64 47 65 58 67 76 68
REMARK SMILES IDX 49 69 36 70 37 71 42 72 38 73 39 74 41 75 43 76 40 77 62 78
REMARK SMILES IDX 63 79 68 80 64 81 65 82 67 83 69 84 66 85 50 86 51 87 56 88
REMARK SMILES IDX 52 89 53 90 55 91 57 92 54 93
REMARK H PARENT 15 8 3 13 10 29 18 32 74 55 48 66
REMARK Flexibility Score: inf
ROOT
ATOM      1  O   UNL A   1      35.003  21.788  24.380  1.00  0.00    -0.460 OA
ENDROOT
BRANCH   1   2
ATOM      2  C   UNL A   1      33.679  22.157  24.326  1.00  0.00     0.331 C 
ATOM      3  O   UNL A   1      32.830  21.527  23.706  1.00  0.00    -0.250 OA
BRANCH   2   4
ATOM      4  C   UNL A   1      33.363  23.310  25.311  1.00  0.00     0.218 C 
BRANCH   4   5
ATOM      5  N   UNL A   1      32.196  23.078  26.159  1.00  0.00    -0.339 N 
ATOM      6  C   UNL A   1      31.140  23.859  26.490  1.00  0.00     0.243 C 
ATOM      7  O   UNL A   1      30.351  23.362  27.306  1.00  0.00    -0.273 OA
ATOM      8  H   UNL A   1      32.172  22.183  26.569  1.00  0.00     0.164 HD
BRANCH   6   9
ATOM      9  C   UNL A   1      30.933  25.328  26.031  1.00  0.00     0.176 C 
BRANCH   9  10
ATOM     10  N   UNL A   1      29.852  25.501  25.070  1.00  0.00    -0.340 N 
ATOM     11  O   UNL A   1      28.686  26.590  23.496  1.00  0.00    -0.269 OA
ATOM     12  C   UNL A   1      29.786  26.349  23.987  1.00  0.00     0.251 C 
ATOM     13  H   UNL A   1      29.060  24.936  25.216  1.00  0.00     0.164 HD
BRANCH  12  14
ATOM     14  C   UNL A   1      30.995  26.984  23.398  1.00  0.00     0.040 A 
ATOM     15  C   UNL A   1      31.230  28.361  23.514  1.00  0.00     0.017 A 
ATOM     16  C   UNL A   1      31.985  26.162  22.836  1.00  0.00     0.017 A 
ATOM     17  C   UNL A   1      32.423  28.914  23.033  1.00  0.00     0.040 A 
ATOM     18  C   UNL A   1      33.180  26.718  22.364  1.00  0.00     0.040 A 
ATOM     19  C   UNL A   1      33.387  28.088  22.467  1.00  0.00     0.123 A 
ATOM     20  F   UNL A   1      34.538  28.619  22.035  1.00  0.00    -0.207 F 
ENDBRANCH  12  14
ENDBRANCH   9  10
BRANCH   9  21
ATOM     21  C   UNL A   1      31.053  26.456  27.072  1.00  0.00     0.070 C 
BRANCH  21  22
ATOM     22  C   UNL A   1      32.016  27.627  26.970  1.00  0.00    -0.045 A 
ATOM     23  C   UNL A   1      31.673  28.940  27.302  1.00  0.00     0.007 A 
ATOM     24  C   UNL A   1      33.326  27.405  26.498  1.00  0.00     0.007 A 
ATOM     25  C   UNL A   1      32.637  29.961  27.237  1.00  0.00     0.046 A 
ATOM     26  C   UNL A   1      34.282  28.412  26.415  1.00  0.00     0.046 A 
ATOM     27  C   UNL A   1      33.933  29.686  26.812  1.00  0.00     0.115 A 
BRANCH  27  28
ATOM     28  O   UNL A   1      34.852  30.691  26.809  1.00  0.00    -0.508 OA
ATOM     29  H   UNL A   1      35.163  31.044  27.620  1.00  0.00     0.293 HD
ENDBRANCH  27  28
ENDBRANCH  21  22
ENDBRANCH   9  21
ENDBRANCH   6   9
ENDBRANCH   4   5
BRANCH   4  30
ATOM     30  C   UNL A   1      34.585  23.739  26.120  1.00  0.00     0.193 C 
BRANCH  30  31
ATOM     31  O   UNL A   1      34.868  22.817  27.165  1.00  0.00    -0.394 OA
ATOM     32  H   UNL A   1      35.829  22.741  27.278  1.00  0.00     0.210 HD
ENDBRANCH  30  31
ENDBRANCH   4  30
ENDBRANCH   2   4
ENDBRANCH   1   2
BRANCH   1  33
ATOM     33  C   UNL A   1      35.250  20.500  24.998  1.00  0.00     0.274 C 
BRANCH  33  34
ATOM     34  C   UNL A   1      36.743  20.139  24.926  1.00  0.00     0.275 C 
BRANCH  34  35
ATOM     35  O   UNL A   1      37.560  21.302  25.196  1.00  0.00    -0.458 OA
BRANCH  35  36
ATOM     36  C   UNL A   1      38.770  21.062  25.768  1.00  0.00     0.338 C 
ATOM     37  O   UNL A   1      39.410  20.013  25.677  1.00  0.00    -0.246 OA
BRANCH  36  38
ATOM     38  C   UNL A   1      39.287  22.261  26.481  1.00  0.00     0.060 A 
ATOM     39  C   UNL A   1      38.781  23.513  26.164  1.00  0.00     0.016 A 
ATOM     40  C   UNL A   1      40.363  22.202  27.366  1.00  0.00     0.016 A 
ATOM     41  C   UNL A   1      39.400  24.689  26.562  1.00  0.00     0.010 A 
ATOM     42  C   UNL A   1      40.930  23.391  27.870  1.00  0.00     0.010 A 
ATOM     43  C   UNL A   1      40.494  24.653  27.420  1.00  0.00    -0.014 A 
BRANCH  43  44
ATOM     44  C   UNL A   1      41.248  25.918  27.665  1.00  0.00     0.031 A 
ATOM     45  C   UNL A   1      40.670  26.940  28.611  1.00  0.00     0.074 A 
ATOM     46  C   UNL A   1      42.508  26.098  27.210  1.00  0.00     0.049 A 
ATOM     47  N   UNL A   1      41.062  28.164  28.856  1.00  0.00    -0.248 NA
ATOM     48  C   UNL A   1      39.495  26.521  29.391  1.00  0.00     0.031 C 
ATOM     49  C   UNL A   1      43.276  25.132  26.423  1.00  0.00     0.029 A 
ATOM     50  N   UNL A   1      43.391  27.136  27.398  1.00  0.00    -0.354 N 
ATOM     51  C   UNL A   1      40.132  28.686  29.746  1.00  0.00     0.074 A 
ATOM     52  C   UNL A   1      39.175  27.639  30.024  1.00  0.00     0.031 C 
ATOM     53  C   UNL A   1      44.533  25.579  26.273  1.00  0.00     0.029 A 
ATOM     54  C   UNL A   1      44.629  26.920  26.839  1.00  0.00     0.049 A 
ATOM     55  H   UNL A   1      43.158  27.958  27.887  1.00  0.00     0.167 HD
ATOM     56  C   UNL A   1      40.071  29.934  30.269  1.00  0.00     0.037 A 
ATOM     57  C   UNL A   1      45.705  27.728  26.750  1.00  0.00     0.037 A 
ATOM     58  C   UNL A   1      41.064  30.948  30.040  1.00  0.00     0.049 A 
ATOM     59  C   UNL A   1      45.601  29.128  27.291  1.00  0.00     0.074 A 
ATOM     60  C   UNL A   1      41.058  32.277  30.421  1.00  0.00     0.029 A 
ATOM     61  N   UNL A   1      42.271  30.722  29.393  1.00  0.00    -0.354 N 
ATOM     62  N   UNL A   1      44.624  29.684  27.964  1.00  0.00    -0.248 NA
ATOM     63  C   UNL A   1      46.732  30.027  27.020  1.00  0.00     0.031 C 
ATOM     64  C   UNL A   1      42.255  32.861  29.987  1.00  0.00     0.029 A 
ATOM     65  C   UNL A   1      43.020  31.886  29.368  1.00  0.00     0.049 A 
ATOM     66  H   UNL A   1      42.553  29.862  29.007  1.00  0.00     0.167 HD
ATOM     67  C   UNL A   1      45.018  30.995  28.194  1.00  0.00     0.074 A 
ATOM     68  C   UNL A   1      46.341  31.140  27.623  1.00  0.00     0.031 C 
ATOM     69  C   UNL A   1      44.339  31.999  28.803  1.00  0.00     0.037 A 
BRANCH  56  70
ATOM     70  C   UNL A   1      38.840  30.279  31.053  1.00  0.00     0.057 A 
ATOM     71  C   UNL A   1      37.713  30.868  30.467  1.00  0.00     0.134 A 
ATOM     72  C   UNL A   1      38.811  30.061  32.437  1.00  0.00     0.134 A 
ATOM     73  F   UNL A   1      37.691  31.131  29.152  1.00  0.00    -0.206 F 
ATOM     74  C   UNL A   1      36.615  31.260  31.237  1.00  0.00     0.040 A 
ATOM     75  C   UNL A   1      37.710  30.425  33.212  1.00  0.00     0.040 A 
ATOM     76  F   UNL A   1      39.861  29.503  33.060  1.00  0.00    -0.206 F 
ATOM     77  C   UNL A   1      36.611  31.038  32.613  1.00  0.00     0.006 A 
ENDBRANCH  56  70
BRANCH  57  78
ATOM     78  C   UNL A   1      46.943  27.275  26.055  1.00  0.00     0.057 A 
ATOM     79  C   UNL A   1      48.016  26.722  26.765  1.00  0.00     0.134 A 
ATOM     80  C   UNL A   1      47.102  27.422  24.671  1.00  0.00     0.134 A 
ATOM     81  F   UNL A   1      47.945  26.584  28.097  1.00  0.00    -0.206 F 
ATOM     82  C   UNL A   1      49.202  26.345  26.128  1.00  0.00     0.040 A 
ATOM     83  C   UNL A   1      48.267  27.018  24.016  1.00  0.00     0.040 A 
ATOM     84  F   UNL A   1      46.121  27.955  23.928  1.00  0.00    -0.206 F 
ATOM     85  C   UNL A   1      49.326  26.486  24.747  1.00  0.00     0.006 A 
ENDBRANCH  57  78
BRANCH  69  86
ATOM     86  C   UNL A   1      45.033  33.324  28.898  1.00  0.00     0.057 A 
ATOM     87  C   UNL A   1      44.874  34.309  27.915  1.00  0.00     0.134 A 
ATOM     88  C   UNL A   1      45.856  33.621  29.990  1.00  0.00     0.134 A 
ATOM     89  F   UNL A   1      44.110  34.078  26.837  1.00  0.00    -0.206 F 
ATOM     90  C   UNL A   1      45.532  35.536  28.003  1.00  0.00     0.040 A 
ATOM     91  C   UNL A   1      46.501  34.853  30.100  1.00  0.00     0.040 A 
ATOM     92  F   UNL A   1      46.043  32.720  30.967  1.00  0.00    -0.206 F 
ATOM     93  C   UNL A   1      46.345  35.812  29.101  1.00  0.00     0.006 A 
ENDBRANCH  69  86
ENDBRANCH  43  44
ENDBRANCH  36  38
ENDBRANCH  35  36
ENDBRANCH  34  35
ENDBRANCH  33  34
ENDBRANCH   1  33
TORSDOF 20
ENDMDL
MODEL 3
REMARK VINA RESULT:     -11.9      3.612      8.942
REMARK SMILES O=C(N[C@@H](Cc1ccc(O)cc1)C(=O)N[C@@H](CO)C(=O)OCCOC(=O)c1ccc(-c2c3nc(c(-c4c(F)cccc4F)c4ccc([nH]4)c(-c4c(F)cccc4F)c4nc(c(-c5c(F)cccc5F)c5ccc2[nH]5)C=C4)C=C3)cc1)c1ccc(F)cc1
REMARK SMILES IDX 21 1 19 2 20 3 16 4 15 5 13 6 14 7 4 9 3 10 1 11 2 12 81 14
REMARK SMILES IDX 82 15 87 16 83 17 86 18 84 19 85 20 5 21 6 22 7 23 12 24
REMARK SMILES IDX 8 25 11 26 9 27 10 28 17 30 18 31 22 33 23 34 24 35 25 36
REMARK SMILES IDX 26 37 27 38 28 39 80 40 29 41 79 42 30 43 31 44 32 45 73 46
REMARK SMILES IDX 33 47 78 48 72 49 74 50 34 51 77 52 71 53 70 54 35 56 61 57
REMARK SMILES IDX 44 58 60 59 45 60 48 61 59 62 75 63 46 64 47 65 58 67 76 68
REMARK SMILES IDX 49 69 36 70 37 71 42 72 38 73 39 74 41 75 43 76 40 77 62 78
REMARK SMILES IDX 63 79 68 80 64 81 65 82 67 83 69 84 66 85 50 86 51 87 56 88
REMARK SMILES IDX 52 89 53 90 55 91 57 92 54 93
REMARK H PARENT 15 8 3 13 10 29 18 32 74 55 48 66
REMARK Flexibility Score: inf
ROOT
ATOM      1  O   UNL A   1      32.326  27.735  25.169  1.00  0.00    -0.460 OA
ENDROOT
BRANCH   1   2
ATOM      2  C   UNL A   1      32.758  26.692  24.383  1.00  0.00     0.331 C 
ATOM      3  O   UNL A   1      33.602  26.819  23.502  1.00  0.00    -0.250 OA
BRANCH   2   4
ATOM      4  C   UNL A   1      32.226  25.330  24.892  1.00  0.00     0.218 C 
BRANCH   4   5
ATOM      5  N   UNL A   1      32.994  24.753  25.992  1.00  0.00    -0.339 N 
ATOM      6  C   UNL A   1      33.503  23.514  26.199  1.00  0.00     0.243 C 
ATOM      7  O   UNL A   1      34.053  23.346  27.296  1.00  0.00    -0.273 OA
ATOM      8  H   UNL A   1      33.179  25.385  26.724  1.00  0.00     0.164 HD
BRANCH   6   9
ATOM      9  C   UNL A   1      33.332  22.305  25.240  1.00  0.00     0.176 C 
BRANCH   9  10
ATOM     10  N   UNL A   1      33.907  22.512  23.918  1.00  0.00    -0.340 N 
ATOM     11  O   UNL A   1      35.424  23.282  22.459  1.00  0.00    -0.269 OA
ATOM     12  C   UNL A   1      35.203  22.832  23.581  1.00  0.00     0.251 C 
ATOM     13  H   UNL A   1      33.284  22.412  23.163  1.00  0.00     0.164 HD
BRANCH  12  14
ATOM     14  C   UNL A   1      36.339  22.656  24.525  1.00  0.00     0.040 A 
ATOM     15  C   UNL A   1      37.049  21.450  24.603  1.00  0.00     0.017 A 
ATOM     16  C   UNL A   1      36.790  23.768  25.253  1.00  0.00     0.017 A 
ATOM     17  C   UNL A   1      38.172  21.347  25.432  1.00  0.00     0.040 A 
ATOM     18  C   UNL A   1      37.918  23.664  26.075  1.00  0.00     0.040 A 
ATOM     19  C   UNL A   1      38.598  22.454  26.157  1.00  0.00     0.123 A 
ATOM     20  F   UNL A   1      39.689  22.357  26.926  1.00  0.00    -0.207 F 
ENDBRANCH  12  14
ENDBRANCH   9  10
BRANCH   9  21
ATOM     21  C   UNL A   1      33.509  20.882  25.800  1.00  0.00     0.070 C 
BRANCH  21  22
ATOM     22  C   UNL A   1      33.704  19.637  24.949  1.00  0.00    -0.045 A 
ATOM     23  C   UNL A   1      34.882  18.888  24.937  1.00  0.00     0.007 A 
ATOM     24  C   UNL A   1      32.660  19.208  24.104  1.00  0.00     0.007 A 
ATOM     25  C   UNL A   1      34.966  17.714  24.168  1.00  0.00     0.046 A 
ATOM     26  C   UNL A   1      32.740  18.056  23.328  1.00  0.00     0.046 A 
ATOM     27  C   UNL A   1      33.892  17.301  23.385  1.00  0.00     0.115 A 
BRANCH  27  28
ATOM     28  O   UNL A   1      33.993  16.133  22.692  1.00  0.00    -0.508 OA
ATOM     29  H   UNL A   1      34.762  15.953  22.188  1.00  0.00     0.293 HD
ENDBRANCH  27  28
ENDBRANCH  21  22
ENDBRANCH   9  21
ENDBRANCH   6   9
ENDBRANCH   4   5
BRANCH   4  30
ATOM     30  C   UNL A   1      30.729  25.362  25.190  1.00  0.00     0.193 C 
BRANCH  30  31
ATOM     31  O   UNL A   1      30.479  25.507  26.582  1.00  0.00    -0.394 OA
ATOM     32  H   UNL A   1      30.036  26.355  26.745  1.00  0.00     0.210 HD
ENDBRANCH  30  31
ENDBRANCH   4  30
ENDBRANCH   2   4
ENDBRANCH   1   2
BRANCH   1  33
ATOM     33  C   UNL A   1      32.523  29.051  24.594  1.00  0.00     0.274 C 
BRANCH  33  34
ATOM     34  C   UNL A   1      31.664  30.098  25.322  1.00  0.00     0.275 C 
BRANCH  34  35
ATOM     35  O   UNL A   1      32.068  30.213  26.707  1.00  0.00    -0.458 OA
BRANCH  35  36
ATOM     36  C   UNL A   1      32.681  31.374  27.055  1.00  0.00     0.338 C 
ATOM     37  O   UNL A   1      32.149  32.485  27.086  1.00  0.00    -0.246 OA
BRANCH  36  38
ATOM     38  C   UNL A   1      34.091  31.146  27.475  1.00  0.00     0.060 A 
ATOM     39  C   UNL A   1      34.556  29.847  27.621  1.00  0.00     0.016 A 
ATOM     40  C   UNL A   1      34.936  32.184  27.864  1.00  0.00     0.016 A 
ATOM     41  C   UNL A   1      35.742  29.550  28.277  1.00  0.00     0.010 A 
ATOM     42  C   UNL A   1      36.196  31.897  28.428  1.00  0.00     0.010 A 
ATOM     43  C   UNL A   1      36.586  30.571  28.701  1.00  0.00    -0.014 A 
BRANCH  43  44
ATOM     44  C   UNL A   1      37.748  30.218  29.571  1.00  0.00     0.031 A 
ATOM     45  C   UNL A   1      38.910  29.471  28.969  1.00  0.00     0.074 A 
ATOM     46  C   UNL A   1      37.871  30.701  30.827  1.00  0.00     0.049 A 
ATOM     47  N   UNL A   1      39.944  28.926  29.555  1.00  0.00    -0.248 NA
ATOM     48  C   UNL A   1      38.907  29.324  27.504  1.00  0.00     0.031 C 
ATOM     49  C   UNL A   1      36.913  31.580  31.501  1.00  0.00     0.029 A 
ATOM     50  N   UNL A   1      38.888  30.568  31.745  1.00  0.00    -0.354 N 
ATOM     51  C   UNL A   1      40.663  28.299  28.545  1.00  0.00     0.074 A 
ATOM     52  C   UNL A   1      39.966  28.556  27.305  1.00  0.00     0.031 C 
ATOM     53  C   UNL A   1      37.425  31.977  32.676  1.00  0.00     0.029 A 
ATOM     54  C   UNL A   1      38.686  31.282  32.904  1.00  0.00     0.049 A 
ATOM     55  H   UNL A   1      39.685  30.013  31.586  1.00  0.00     0.167 HD
ATOM     56  C   UNL A   1      41.793  27.559  28.647  1.00  0.00     0.037 A 
ATOM     57  C   UNL A   1      39.411  31.333  34.039  1.00  0.00     0.037 A 
ATOM     58  C   UNL A   1      42.516  27.365  29.875  1.00  0.00     0.049 A 
ATOM     59  C   UNL A   1      40.635  30.465  34.153  1.00  0.00     0.074 A 
ATOM     60  C   UNL A   1      43.604  26.551  30.126  1.00  0.00     0.029 A 
ATOM     61  N   UNL A   1      42.235  28.035  31.057  1.00  0.00    -0.354 N 
ATOM     62  N   UNL A   1      41.200  29.709  33.244  1.00  0.00    -0.248 NA
ATOM     63  C   UNL A   1      41.295  30.423  35.466  1.00  0.00     0.031 C 
ATOM     64  C   UNL A   1      43.970  26.714  31.469  1.00  0.00     0.029 A 
ATOM     65  C   UNL A   1      43.132  27.658  32.041  1.00  0.00     0.049 A 
ATOM     66  H   UNL A   1      41.504  28.683  31.178  1.00  0.00     0.167 HD
ATOM     67  C   UNL A   1      42.277  29.099  33.872  1.00  0.00     0.074 A 
ATOM     68  C   UNL A   1      42.310  29.604  35.229  1.00  0.00     0.031 C 
ATOM     69  C   UNL A   1      43.149  28.184  33.380  1.00  0.00     0.037 A 
BRANCH  56  70
ATOM     70  C   UNL A   1      42.241  26.837  27.412  1.00  0.00     0.057 A 
ATOM     71  C   UNL A   1      41.763  25.567  27.065  1.00  0.00     0.134 A 
ATOM     72  C   UNL A   1      43.215  27.410  26.583  1.00  0.00     0.134 A 
ATOM     73  F   UNL A   1      40.854  24.951  27.834  1.00  0.00    -0.206 F 
ATOM     74  C   UNL A   1      42.264  24.880  25.956  1.00  0.00     0.040 A 
ATOM     75  C   UNL A   1      43.704  26.745  25.459  1.00  0.00     0.040 A 
ATOM     76  F   UNL A   1      43.716  28.623  26.863  1.00  0.00    -0.206 F 
ATOM     77  C   UNL A   1      43.236  25.469  25.149  1.00  0.00     0.006 A 
ENDBRANCH  56  70
BRANCH  57  78
ATOM     78  C   UNL A   1      38.966  32.167  35.191  1.00  0.00     0.057 A 
ATOM     79  C   UNL A   1      39.319  33.519  35.292  1.00  0.00     0.134 A 
ATOM     80  C   UNL A   1      38.212  31.626  36.240  1.00  0.00     0.134 A 
ATOM     81  F   UNL A   1      40.070  34.094  34.340  1.00  0.00    -0.206 F 
ATOM     82  C   UNL A   1      38.952  34.295  36.395  1.00  0.00     0.040 A 
ATOM     83  C   UNL A   1      37.807  32.397  37.331  1.00  0.00     0.040 A 
ATOM     84  F   UNL A   1      37.846  30.336  36.216  1.00  0.00    -0.206 F 
ATOM     85  C   UNL A   1      38.186  33.734  37.415  1.00  0.00     0.006 A 
ENDBRANCH  57  78
BRANCH  69  86
ATOM     86  C   UNL A   1      44.218  27.700  34.312  1.00  0.00     0.057 A 
ATOM     87  C   UNL A   1      45.443  28.368  34.436  1.00  0.00     0.134 A 
ATOM     88  C   UNL A   1      44.013  26.563  35.101  1.00  0.00     0.134 A 
ATOM     89  F   UNL A   1      45.704  29.454  33.694  1.00  0.00    -0.206 F 
ATOM     90  C   UNL A   1      46.438  27.905  35.298  1.00  0.00     0.040 A 
ATOM     91  C   UNL A   1      44.992  26.104  35.983  1.00  0.00     0.040 A 
ATOM     92  F   UNL A   1      42.858  25.883  35.031  1.00  0.00    -0.206 F 
ATOM     93  C   UNL A   1      46.212  26.772  36.077  1.00  0.00     0.006 A 
ENDBRANCH  69  86
ENDBRANCH  43  44
ENDBRANCH  36  38
ENDBRANCH  35  36
ENDBRANCH  34  35
ENDBRANCH  33  34
ENDBRANCH   1  33
TORSDOF 20
ENDMDL
