MODEL 1
REMARK VINA RESULT:     -12.3      0.000      0.000
REMARK SMILES CS(=O)(=O)c1ccc(C(=O)N2C[C@@H](C(=O)OCCOC(=O)c3ccc(-c4c5nc(c(-c6c(F)cccc6F)c6ccc([nH]6)c(-c6c(F)cccc6F)c6nc(c(-c7c(F)cccc7F)c7ccc4[nH]7)C=C6)C=C5)cc3)[C@H](c3ccncc3)C2)cc1
REMARK SMILES IDX 17 1 16 2 14 3 15 4 13 5 11 6 12 7 83 8 76 9 9 10 10 11 8 12
REMARK SMILES IDX 5 13 6 14 85 15 7 16 84 17 2 18 1 19 3 20 4 21 77 22 78 23
REMARK SMILES IDX 82 24 79 25 81 26 80 27 18 28 19 29 20 30 21 31 22 32 23 33
REMARK SMILES IDX 75 34 24 35 74 36 25 37 26 38 27 39 68 40 28 41 73 42 67 43
REMARK SMILES IDX 69 44 29 45 72 46 66 47 65 48 30 50 56 51 39 52 55 53 40 54
REMARK SMILES IDX 43 55 54 56 70 57 41 58 42 59 53 61 71 62 44 63 31 64 32 65
REMARK SMILES IDX 37 66 33 67 34 68 36 69 38 70 35 71 57 72 58 73 63 74 59 75
REMARK SMILES IDX 60 76 62 77 64 78 61 79 45 80 46 81 51 82 47 83 48 84 50 85
REMARK SMILES IDX 52 86 49 87
REMARK H PARENT 69 49 43 60
REMARK Flexibility Score: inf
ROOT
ATOM      1  C   UNL A   1      33.007  31.079  27.156  1.00  0.00     0.274 C 
ENDROOT
BRANCH   1   2
ATOM      2  O   UNL A   1      32.399  30.284  26.116  1.00  0.00    -0.462 OA
BRANCH   2   3
ATOM      3  C   UNL A   1      31.873  29.087  26.500  1.00  0.00     0.311 C 
ATOM      4  O   UNL A   1      31.761  28.706  27.657  1.00  0.00    -0.252 OA
BRANCH   3   5
ATOM      5  C   UNL A   1      31.437  28.301  25.290  1.00  0.00     0.128 C 
ATOM      6  N   UNL A   1      32.513  27.110  23.563  1.00  0.00    -0.337 N 
ATOM      7  C   UNL A   1      32.409  27.169  25.005  1.00  0.00     0.135 C 
ATOM      8  C   UNL A   1      32.349  28.451  23.032  1.00  0.00     0.129 C 
ATOM      9  C   UNL A   1      31.390  29.166  23.999  1.00  0.00     0.055 C 
BRANCH   6  10
ATOM     10  C   UNL A   1      33.017  26.106  22.747  1.00  0.00     0.253 C 
ATOM     11  O   UNL A   1      33.594  26.372  21.692  1.00  0.00    -0.269 OA
BRANCH  10  12
ATOM     12  C   UNL A   1      32.890  24.666  23.111  1.00  0.00     0.040 A 
ATOM     13  C   UNL A   1      32.787  21.933  23.750  1.00  0.00     0.067 A 
ATOM     14  C   UNL A   1      34.024  22.570  23.656  1.00  0.00     0.021 A 
ATOM     15  C   UNL A   1      31.610  22.638  23.489  1.00  0.00     0.021 A 
ATOM     16  C   UNL A   1      34.069  23.931  23.331  1.00  0.00     0.015 A 
ATOM     17  C   UNL A   1      31.670  23.988  23.136  1.00  0.00     0.015 A 
BRANCH  13  18
ATOM     18  S   UNL A   1      32.667  20.200  24.127  1.00  0.00     0.175 S 
ATOM     19  C   UNL A   1      34.286  19.696  24.639  1.00  0.00     0.163 C 
ATOM     20  O   UNL A   1      32.390  19.516  22.878  1.00  0.00    -0.224 OA
ATOM     21  O   UNL A   1      31.773  20.086  25.262  1.00  0.00    -0.224 OA
ENDBRANCH  13  18
ENDBRANCH  10  12
ENDBRANCH   6  10
BRANCH   9  22
ATOM     22  C   UNL A   1      29.940  29.346  23.572  1.00  0.00    -0.039 A 
ATOM     23  C   UNL A   1      29.392  30.639  23.601  1.00  0.00     0.024 A 
ATOM     24  C   UNL A   1      29.107  28.303  23.165  1.00  0.00     0.024 A 
ATOM     25  C   UNL A   1      28.058  30.820  23.273  1.00  0.00     0.111 A 
ATOM     26  C   UNL A   1      27.788  28.588  22.835  1.00  0.00     0.111 A 
ATOM     27  N   UNL A   1      27.241  29.820  22.891  1.00  0.00    -0.265 NA
ENDBRANCH   9  22
ENDBRANCH   3   5
ENDBRANCH   2   3
ENDBRANCH   1   2
BRANCH   1  28
ATOM     28  C   UNL A   1      32.255  32.398  27.301  1.00  0.00     0.275 C 
BRANCH  28  29
ATOM     29  O   UNL A   1      33.206  33.480  27.334  1.00  0.00    -0.458 OA
BRANCH  29  30
ATOM     30  C   UNL A   1      33.295  34.161  28.499  1.00  0.00     0.338 C 
ATOM     31  O   UNL A   1      32.475  34.949  28.947  1.00  0.00    -0.246 OA
BRANCH  30  32
ATOM     32  C   UNL A   1      34.500  33.754  29.257  1.00  0.00     0.060 A 
ATOM     33  C   UNL A   1      35.753  34.277  28.938  1.00  0.00     0.016 A 
ATOM     34  C   UNL A   1      34.410  32.697  30.165  1.00  0.00     0.016 A 
ATOM     35  C   UNL A   1      36.907  33.639  29.394  1.00  0.00     0.010 A 
ATOM     36  C   UNL A   1      35.570  32.171  30.747  1.00  0.00     0.010 A 
ATOM     37  C   UNL A   1      36.844  32.600  30.338  1.00  0.00    -0.014 A 
BRANCH  37  38
ATOM     38  C   UNL A   1      38.090  31.981  30.894  1.00  0.00     0.031 A 
ATOM     39  C   UNL A   1      38.834  30.894  30.149  1.00  0.00     0.074 A 
ATOM     40  C   UNL A   1      38.573  32.381  32.091  1.00  0.00     0.049 A 
ATOM     41  N   UNL A   1      39.809  30.118  30.561  1.00  0.00    -0.248 NA
ATOM     42  C   UNL A   1      38.423  30.636  28.762  1.00  0.00     0.031 C 
ATOM     43  C   UNL A   1      38.004  33.437  32.930  1.00  0.00     0.029 A 
ATOM     44  N   UNL A   1      39.654  31.938  32.816  1.00  0.00    -0.354 N 
ATOM     45  C   UNL A   1      40.105  29.270  29.498  1.00  0.00     0.074 A 
ATOM     46  C   UNL A   1      39.193  29.611  28.427  1.00  0.00     0.031 C 
ATOM     47  C   UNL A   1      38.761  33.592  34.023  1.00  0.00     0.029 A 
ATOM     48  C   UNL A   1      39.788  32.561  34.033  1.00  0.00     0.049 A 
ATOM     49  H   UNL A   1      40.272  31.241  32.494  1.00  0.00     0.167 HD
ATOM     50  C   UNL A   1      41.045  28.297  29.416  1.00  0.00     0.037 A 
ATOM     51  C   UNL A   1      40.585  32.298  35.085  1.00  0.00     0.037 A 
ATOM     52  C   UNL A   1      41.960  27.953  30.475  1.00  0.00     0.049 A 
ATOM     53  C   UNL A   1      41.529  31.137  35.025  1.00  0.00     0.074 A 
ATOM     54  C   UNL A   1      42.945  26.978  30.484  1.00  0.00     0.029 A 
ATOM     55  N   UNL A   1      41.999  28.569  31.717  1.00  0.00    -0.354 N 
ATOM     56  N   UNL A   1      41.762  30.314  34.034  1.00  0.00    -0.248 NA
ATOM     57  C   UNL A   1      42.295  30.848  36.244  1.00  0.00     0.031 C 
ATOM     58  C   UNL A   1      43.543  26.970  31.750  1.00  0.00     0.029 A 
ATOM     59  C   UNL A   1      42.965  27.970  32.511  1.00  0.00     0.049 A 
ATOM     60  H   UNL A   1      41.426  29.320  31.992  1.00  0.00     0.167 HD
ATOM     61  C   UNL A   1      42.705  29.412  34.506  1.00  0.00     0.074 A 
ATOM     62  C   UNL A   1      43.015  29.802  35.865  1.00  0.00     0.031 C 
ATOM     63  C   UNL A   1      43.259  28.353  33.867  1.00  0.00     0.037 A 
BRANCH  50  64
ATOM     64  C   UNL A   1      41.117  27.496  28.146  1.00  0.00     0.057 A 
ATOM     65  C   UNL A   1      40.366  26.328  27.958  1.00  0.00     0.134 A 
ATOM     66  C   UNL A   1      41.899  27.938  27.071  1.00  0.00     0.134 A 
ATOM     67  F   UNL A   1      39.610  25.838  28.952  1.00  0.00    -0.206 F 
ATOM     68  C   UNL A   1      40.397  25.627  26.751  1.00  0.00     0.040 A 
ATOM     69  C   UNL A   1      41.925  27.256  25.854  1.00  0.00     0.040 A 
ATOM     70  F   UNL A   1      42.639  29.052  27.182  1.00  0.00    -0.206 F 
ATOM     71  C   UNL A   1      41.172  26.095  25.691  1.00  0.00     0.006 A 
ENDBRANCH  50  64
BRANCH  51  72
ATOM     72  C   UNL A   1      40.447  33.109  36.322  1.00  0.00     0.057 A 
ATOM     73  C   UNL A   1      39.501  32.788  37.299  1.00  0.00     0.134 A 
ATOM     74  C   UNL A   1      41.287  34.204  36.568  1.00  0.00     0.134 A 
ATOM     75  F   UNL A   1      38.651  31.769  37.107  1.00  0.00    -0.206 F 
ATOM     76  C   UNL A   1      39.398  33.522  38.482  1.00  0.00     0.040 A 
ATOM     77  C   UNL A   1      41.219  34.925  37.759  1.00  0.00     0.040 A 
ATOM     78  F   UNL A   1      42.216  34.561  35.669  1.00  0.00    -0.206 F 
ATOM     79  C   UNL A   1      40.269  34.586  38.719  1.00  0.00     0.006 A 
ENDBRANCH  51  72
BRANCH  63  80
ATOM     80  C   UNL A   1      44.269  27.554  34.633  1.00  0.00     0.057 A 
ATOM     81  C   UNL A   1      43.913  26.394  35.332  1.00  0.00     0.134 A 
ATOM     82  C   UNL A   1      45.613  27.946  34.670  1.00  0.00     0.134 A 
ATOM     83  F   UNL A   1      42.639  25.975  35.350  1.00  0.00    -0.206 F 
ATOM     84  C   UNL A   1      44.855  25.666  36.063  1.00  0.00     0.040 A 
ATOM     85  C   UNL A   1      46.567  27.215  35.377  1.00  0.00     0.040 A 
ATOM     86  F   UNL A   1      46.020  29.046  34.017  1.00  0.00    -0.206 F 
ATOM     87  C   UNL A   1      46.186  26.075  36.083  1.00  0.00     0.006 A 
ENDBRANCH  63  80
ENDBRANCH  37  38
ENDBRANCH  30  32
ENDBRANCH  29  30
ENDBRANCH  28  29
ENDBRANCH   1  28
TORSDOF 15
ENDMDL
MODEL 2
REMARK VINA RESULT:     -12.3      4.475      9.609
REMARK SMILES CS(=O)(=O)c1ccc(C(=O)N2C[C@@H](C(=O)OCCOC(=O)c3ccc(-c4c5nc(c(-c6c(F)cccc6F)c6ccc([nH]6)c(-c6c(F)cccc6F)c6nc(c(-c7c(F)cccc7F)c7ccc4[nH]7)C=C6)C=C5)cc3)[C@H](c3ccncc3)C2)cc1
REMARK SMILES IDX 17 1 16 2 14 3 15 4 13 5 11 6 12 7 83 8 76 9 9 10 10 11 8 12
REMARK SMILES IDX 5 13 6 14 85 15 7 16 84 17 2 18 1 19 3 20 4 21 77 22 78 23
REMARK SMILES IDX 82 24 79 25 81 26 80 27 18 28 19 29 20 30 21 31 22 32 23 33
REMARK SMILES IDX 75 34 24 35 74 36 25 37 26 38 27 39 68 40 28 41 73 42 67 43
REMARK SMILES IDX 69 44 29 45 72 46 66 47 65 48 30 50 56 51 39 52 55 53 40 54
REMARK SMILES IDX 43 55 54 56 70 57 41 58 42 59 53 61 71 62 44 63 31 64 32 65
REMARK SMILES IDX 37 66 33 67 34 68 36 69 38 70 35 71 57 72 58 73 63 74 59 75
REMARK SMILES IDX 60 76 62 77 64 78 61 79 45 80 46 81 51 82 47 83 48 84 50 85
REMARK SMILES IDX 52 86 49 87
REMARK H PARENT 69 49 43 60
REMARK Flexibility Score: inf
ROOT
ATOM      1  C   UNL A   1      38.064  20.290  24.978  1.00  0.00     0.274 C 
ENDROOT
BRANCH   1   2
ATOM      2  O   UNL A   1      36.898  21.032  25.394  1.00  0.00    -0.462 OA
BRANCH   2   3
ATOM      3  C   UNL A   1      36.372  21.893  24.478  1.00  0.00     0.311 C 
ATOM      4  O   UNL A   1      37.019  22.659  23.778  1.00  0.00    -0.252 OA
BRANCH   3   5
ATOM      5  C   UNL A   1      34.871  21.758  24.443  1.00  0.00     0.128 C 
ATOM      6  N   UNL A   1      33.062  22.602  25.699  1.00  0.00    -0.337 N 
ATOM      7  C   UNL A   1      34.204  23.036  24.923  1.00  0.00     0.135 C 
ATOM      8  C   UNL A   1      33.388  21.339  26.336  1.00  0.00     0.129 C 
ATOM      9  C   UNL A   1      34.350  20.625  25.371  1.00  0.00     0.055 C 
BRANCH   6  10
ATOM     10  C   UNL A   1      31.952  23.319  26.124  1.00  0.00     0.253 C 
ATOM     11  O   UNL A   1      31.339  22.998  27.143  1.00  0.00    -0.269 OA
BRANCH  10  12
ATOM     12  C   UNL A   1      31.454  24.507  25.373  1.00  0.00     0.040 A 
ATOM     13  C   UNL A   1      30.503  26.815  24.087  1.00  0.00     0.067 A 
ATOM     14  C   UNL A   1      31.082  26.923  25.350  1.00  0.00     0.021 A 
ATOM     15  C   UNL A   1      30.361  25.565  23.481  1.00  0.00     0.021 A 
ATOM     16  C   UNL A   1      31.548  25.767  25.990  1.00  0.00     0.015 A 
ATOM     17  C   UNL A   1      30.803  24.416  24.142  1.00  0.00     0.015 A 
BRANCH  13  18
ATOM     18  S   UNL A   1      29.864  28.240  23.239  1.00  0.00     0.175 S 
ATOM     19  C   UNL A   1      28.100  28.080  23.270  1.00  0.00     0.163 C 
ATOM     20  O   UNL A   1      30.271  28.122  21.851  1.00  0.00    -0.224 OA
ATOM     21  O   UNL A   1      30.233  29.394  24.034  1.00  0.00    -0.224 OA
ENDBRANCH  13  18
ENDBRANCH  10  12
ENDBRANCH   6  10
BRANCH   9  22
ATOM     22  C   UNL A   1      33.800  19.492  24.516  1.00  0.00    -0.039 A 
ATOM     23  C   UNL A   1      34.535  18.298  24.437  1.00  0.00     0.024 A 
ATOM     24  C   UNL A   1      32.613  19.567  23.785  1.00  0.00     0.024 A 
ATOM     25  C   UNL A   1      34.086  17.275  23.619  1.00  0.00     0.111 A 
ATOM     26  C   UNL A   1      32.234  18.478  23.009  1.00  0.00     0.111 A 
ATOM     27  N   UNL A   1      32.949  17.340  22.899  1.00  0.00    -0.265 NA
ENDBRANCH   9  22
ENDBRANCH   3   5
ENDBRANCH   2   3
ENDBRANCH   1   2
BRANCH   1  28
ATOM     28  C   UNL A   1      39.297  20.817  25.706  1.00  0.00     0.275 C 
BRANCH  28  29
ATOM     29  O   UNL A   1      40.086  19.701  26.161  1.00  0.00    -0.458 OA
BRANCH  29  30
ATOM     30  C   UNL A   1      41.413  19.767  25.907  1.00  0.00     0.338 C 
ATOM     31  O   UNL A   1      42.062  18.998  25.213  1.00  0.00    -0.246 OA
BRANCH  30  32
ATOM     32  C   UNL A   1      42.005  20.986  26.505  1.00  0.00     0.060 A 
ATOM     33  C   UNL A   1      42.058  21.146  27.890  1.00  0.00     0.016 A 
ATOM     34  C   UNL A   1      42.333  22.062  25.678  1.00  0.00     0.016 A 
ATOM     35  C   UNL A   1      42.273  22.414  28.433  1.00  0.00     0.010 A 
ATOM     36  C   UNL A   1      42.711  23.288  26.239  1.00  0.00     0.010 A 
ATOM     37  C   UNL A   1      42.643  23.502  27.626  1.00  0.00    -0.014 A 
BRANCH  37  38
ATOM     38  C   UNL A   1      42.963  24.838  28.225  1.00  0.00     0.031 A 
ATOM     39  C   UNL A   1      41.883  25.862  28.497  1.00  0.00     0.074 A 
ATOM     40  C   UNL A   1      44.240  25.159  28.527  1.00  0.00     0.049 A 
ATOM     41  N   UNL A   1      41.998  27.127  28.827  1.00  0.00    -0.248 NA
ATOM     42  C   UNL A   1      40.490  25.411  28.370  1.00  0.00     0.031 C 
ATOM     43  C   UNL A   1      45.402  24.284  28.362  1.00  0.00     0.029 A 
ATOM     44  N   UNL A   1      44.777  26.320  29.033  1.00  0.00    -0.354 N 
ATOM     45  C   UNL A   1      40.701  27.622  28.922  1.00  0.00     0.074 A 
ATOM     46  C   UNL A   1      39.812  26.529  28.593  1.00  0.00     0.031 C 
ATOM     47  C   UNL A   1      46.499  24.914  28.800  1.00  0.00     0.029 A 
ATOM     48  C   UNL A   1      46.146  26.282  29.149  1.00  0.00     0.049 A 
ATOM     49  H   UNL A   1      44.234  27.101  29.286  1.00  0.00     0.167 HD
ATOM     50  C   UNL A   1      40.283  28.869  29.249  1.00  0.00     0.037 A 
ATOM     51  C   UNL A   1      47.043  27.247  29.425  1.00  0.00     0.037 A 
ATOM     52  C   UNL A   1      41.159  29.964  29.581  1.00  0.00     0.049 A 
ATOM     53  C   UNL A   1      46.571  28.650  29.657  1.00  0.00     0.074 A 
ATOM     54  C   UNL A   1      40.827  31.265  29.923  1.00  0.00     0.029 A 
ATOM     55  N   UNL A   1      42.543  29.888  29.609  1.00  0.00    -0.354 N 
ATOM     56  N   UNL A   1      45.348  29.113  29.694  1.00  0.00    -0.248 NA
ATOM     57  C   UNL A   1      47.611  29.669  29.853  1.00  0.00     0.031 C 
ATOM     58  C   UNL A   1      42.011  31.989  30.105  1.00  0.00     0.029 A 
ATOM     59  C   UNL A   1      43.079  31.127  29.924  1.00  0.00     0.049 A 
ATOM     60  H   UNL A   1      43.068  29.074  29.431  1.00  0.00     0.167 HD
ATOM     61  C   UNL A   1      45.467  30.477  29.921  1.00  0.00     0.074 A 
ATOM     62  C   UNL A   1      46.882  30.762  30.034  1.00  0.00     0.031 C 
ATOM     63  C   UNL A   1      44.487  31.408  30.021  1.00  0.00     0.037 A 
BRANCH  50  64
ATOM     64  C   UNL A   1      38.805  29.142  29.230  1.00  0.00     0.057 A 
ATOM     65  C   UNL A   1      38.016  29.049  30.384  1.00  0.00     0.134 A 
ATOM     66  C   UNL A   1      38.177  29.569  28.053  1.00  0.00     0.134 A 
ATOM     67  F   UNL A   1      38.549  28.627  31.540  1.00  0.00    -0.206 F 
ATOM     68  C   UNL A   1      36.655  29.363  30.365  1.00  0.00     0.040 A 
ATOM     69  C   UNL A   1      36.822  29.903  28.025  1.00  0.00     0.040 A 
ATOM     70  F   UNL A   1      38.875  29.686  26.913  1.00  0.00    -0.206 F 
ATOM     71  C   UNL A   1      36.056  29.800  29.184  1.00  0.00     0.006 A 
ENDBRANCH  50  64
BRANCH  51  72
ATOM     72  C   UNL A   1      48.491  26.921  29.401  1.00  0.00     0.057 A 
ATOM     73  C   UNL A   1      49.140  26.412  30.530  1.00  0.00     0.134 A 
ATOM     74  C   UNL A   1      49.251  27.080  28.233  1.00  0.00     0.134 A 
ATOM     75  F   UNL A   1      48.473  26.265  31.683  1.00  0.00    -0.206 F 
ATOM     76  C   UNL A   1      50.492  26.064  30.497  1.00  0.00     0.040 A 
ATOM     77  C   UNL A   1      50.593  26.705  28.177  1.00  0.00     0.040 A 
ATOM     78  F   UNL A   1      48.686  27.563  27.117  1.00  0.00    -0.206 F 
ATOM     79  C   UNL A   1      51.217  26.197  29.314  1.00  0.00     0.006 A 
ENDBRANCH  51  72
BRANCH  63  80
ATOM     80  C   UNL A   1      44.919  32.819  30.283  1.00  0.00     0.057 A 
ATOM     81  C   UNL A   1      45.122  33.297  31.584  1.00  0.00     0.134 A 
ATOM     82  C   UNL A   1      45.137  33.709  29.224  1.00  0.00     0.134 A 
ATOM     83  F   UNL A   1      44.913  32.499  32.642  1.00  0.00    -0.206 F 
ATOM     84  C   UNL A   1      45.502  34.619  31.823  1.00  0.00     0.040 A 
ATOM     85  C   UNL A   1      45.539  35.025  29.449  1.00  0.00     0.040 A 
ATOM     86  F   UNL A   1      44.964  33.312  27.954  1.00  0.00    -0.206 F 
ATOM     87  C   UNL A   1      45.715  35.485  30.753  1.00  0.00     0.006 A 
ENDBRANCH  63  80
ENDBRANCH  37  38
ENDBRANCH  30  32
ENDBRANCH  29  30
ENDBRANCH  28  29
ENDBRANCH   1  28
TORSDOF 15
ENDMDL
MODEL 3
REMARK VINA RESULT:     -12.1      4.330      7.811
REMARK SMILES CS(=O)(=O)c1ccc(C(=O)N2C[C@@H](C(=O)OCCOC(=O)c3ccc(-c4c5nc(c(-c6c(F)cccc6F)c6ccc([nH]6)c(-c6c(F)cccc6F)c6nc(c(-c7c(F)cccc7F)c7ccc4[nH]7)C=C6)C=C5)cc3)[C@H](c3ccncc3)C2)cc1
REMARK SMILES IDX 17 1 16 2 14 3 15 4 13 5 11 6 12 7 83 8 76 9 9 10 10 11 8 12
REMARK SMILES IDX 5 13 6 14 85 15 7 16 84 17 2 18 1 19 3 20 4 21 77 22 78 23
REMARK SMILES IDX 82 24 79 25 81 26 80 27 18 28 19 29 20 30 21 31 22 32 23 33
REMARK SMILES IDX 75 34 24 35 74 36 25 37 26 38 27 39 68 40 28 41 73 42 67 43
REMARK SMILES IDX 69 44 29 45 72 46 66 47 65 48 30 50 56 51 39 52 55 53 40 54
REMARK SMILES IDX 43 55 54 56 70 57 41 58 42 59 53 61 71 62 44 63 31 64 32 65
REMARK SMILES IDX 37 66 33 67 34 68 36 69 38 70 35 71 57 72 58 73 63 74 59 75
REMARK SMILES IDX 60 76 62 77 64 78 61 79 45 80 46 81 51 82 47 83 48 84 50 85
REMARK SMILES IDX 52 86 49 87
REMARK H PARENT 69 49 43 60
REMARK Flexibility Score: inf
ROOT
ATOM      1  C   UNL A   1      32.573  31.017  27.298  1.00  0.00     0.274 C 
ENDROOT
BRANCH   1   2
ATOM      2  O   UNL A   1      32.170  30.194  26.184  1.00  0.00    -0.462 OA
BRANCH   2   3
ATOM      3  C   UNL A   1      31.909  28.886  26.461  1.00  0.00     0.311 C 
ATOM      4  O   UNL A   1      32.049  28.357  27.554  1.00  0.00    -0.252 OA
BRANCH   3   5
ATOM      5  C   UNL A   1      31.410  28.183  25.224  1.00  0.00     0.128 C 
ATOM      6  N   UNL A   1      32.391  27.041  23.410  1.00  0.00    -0.337 N 
ATOM      7  C   UNL A   1      32.324  27.028  24.856  1.00  0.00     0.135 C 
ATOM      8  C   UNL A   1      32.274  28.414  22.953  1.00  0.00     0.129 C 
ATOM      9  C   UNL A   1      31.370  29.116  23.981  1.00  0.00     0.055 C 
BRANCH   6  10
ATOM     10  C   UNL A   1      32.832  26.061  22.531  1.00  0.00     0.253 C 
ATOM     11  O   UNL A   1      33.200  26.346  21.391  1.00  0.00    -0.269 OA
BRANCH  10  12
ATOM     12  C   UNL A   1      32.885  24.624  22.926  1.00  0.00     0.040 A 
ATOM     13  C   UNL A   1      32.848  21.928  23.712  1.00  0.00     0.067 A 
ATOM     14  C   UNL A   1      31.649  22.570  23.406  1.00  0.00     0.021 A 
ATOM     15  C   UNL A   1      34.055  22.629  23.666  1.00  0.00     0.021 A 
ATOM     16  C   UNL A   1      31.674  23.917  23.022  1.00  0.00     0.015 A 
ATOM     17  C   UNL A   1      34.063  23.980  23.310  1.00  0.00     0.015 A 
BRANCH  13  18
ATOM     18  S   UNL A   1      32.879  20.230  24.237  1.00  0.00     0.175 S 
ATOM     19  C   UNL A   1      32.327  19.278  22.849  1.00  0.00     0.163 C 
ATOM     20  O   UNL A   1      31.868  20.090  25.269  1.00  0.00    -0.224 OA
ATOM     21  O   UNL A   1      34.266  19.902  24.494  1.00  0.00    -0.224 OA
ENDBRANCH  13  18
ENDBRANCH  10  12
ENDBRANCH   6  10
BRANCH   9  22
ATOM     22  C   UNL A   1      29.920  29.380  23.601  1.00  0.00    -0.039 A 
ATOM     23  C   UNL A   1      29.114  28.286  23.243  1.00  0.00     0.024 A 
ATOM     24  C   UNL A   1      29.335  30.647  23.568  1.00  0.00     0.024 A 
ATOM     25  C   UNL A   1      27.809  28.507  22.837  1.00  0.00     0.111 A 
ATOM     26  C   UNL A   1      28.011  30.765  23.167  1.00  0.00     0.111 A 
ATOM     27  N   UNL A   1      27.238  29.725  22.789  1.00  0.00    -0.265 NA
ENDBRANCH   9  22
ENDBRANCH   3   5
ENDBRANCH   2   3
ENDBRANCH   1   2
BRANCH   1  28
ATOM     28  C   UNL A   1      34.083  31.233  27.259  1.00  0.00     0.275 C 
BRANCH  28  29
ATOM     29  O   UNL A   1      34.722  30.240  28.084  1.00  0.00    -0.458 OA
BRANCH  29  30
ATOM     30  C   UNL A   1      35.608  30.702  28.995  1.00  0.00     0.338 C 
ATOM     31  O   UNL A   1      35.394  31.537  29.863  1.00  0.00    -0.246 OA
BRANCH  30  32
ATOM     32  C   UNL A   1      36.898  29.982  28.889  1.00  0.00     0.060 A 
ATOM     33  C   UNL A   1      37.524  29.472  30.026  1.00  0.00     0.016 A 
ATOM     34  C   UNL A   1      37.583  29.986  27.672  1.00  0.00     0.016 A 
ATOM     35  C   UNL A   1      38.876  29.127  29.977  1.00  0.00     0.010 A 
ATOM     36  C   UNL A   1      38.887  29.480  27.600  1.00  0.00     0.010 A 
ATOM     37  C   UNL A   1      39.576  29.085  28.760  1.00  0.00    -0.014 A 
BRANCH  37  38
ATOM     38  C   UNL A   1      41.001  28.624  28.701  1.00  0.00     0.031 A 
ATOM     39  C   UNL A   1      42.151  29.581  28.921  1.00  0.00     0.074 A 
ATOM     40  C   UNL A   1      41.287  27.330  28.436  1.00  0.00     0.049 A 
ATOM     41  N   UNL A   1      43.436  29.402  28.719  1.00  0.00    -0.248 NA
ATOM     42  C   UNL A   1      41.816  30.921  29.423  1.00  0.00     0.031 C 
ATOM     43  C   UNL A   1      40.304  26.264  28.230  1.00  0.00     0.029 A 
ATOM     44  N   UNL A   1      42.495  26.691  28.288  1.00  0.00    -0.354 N 
ATOM     45  C   UNL A   1      44.051  30.607  29.044  1.00  0.00     0.074 A 
ATOM     46  C   UNL A   1      42.999  31.519  29.437  1.00  0.00     0.031 C 
ATOM     47  C   UNL A   1      40.943  25.104  28.032  1.00  0.00     0.029 A 
ATOM     48  C   UNL A   1      42.373  25.362  27.960  1.00  0.00     0.049 A 
ATOM     49  H   UNL A   1      43.363  27.141  28.405  1.00  0.00     0.167 HD
ATOM     50  C   UNL A   1      45.367  30.929  29.017  1.00  0.00     0.037 A 
ATOM     51  C   UNL A   1      43.286  24.455  27.564  1.00  0.00     0.037 A 
ATOM     52  C   UNL A   1      46.423  30.027  28.632  1.00  0.00     0.049 A 
ATOM     53  C   UNL A   1      44.719  24.865  27.416  1.00  0.00     0.074 A 
ATOM     54  C   UNL A   1      47.786  30.266  28.571  1.00  0.00     0.029 A 
ATOM     55  N   UNL A   1      46.233  28.712  28.235  1.00  0.00    -0.354 N 
ATOM     56  N   UNL A   1      45.277  26.019  27.679  1.00  0.00    -0.248 NA
ATOM     57  C   UNL A   1      45.641  23.853  26.886  1.00  0.00     0.031 C 
ATOM     58  C   UNL A   1      48.414  29.113  28.087  1.00  0.00     0.029 A 
ATOM     59  C   UNL A   1      47.448  28.141  27.893  1.00  0.00     0.049 A 
ATOM     60  H   UNL A   1      45.362  28.253  28.201  1.00  0.00     0.167 HD
ATOM     61  C   UNL A   1      46.618  25.874  27.350  1.00  0.00     0.074 A 
ATOM     62  C   UNL A   1      46.791  24.512  26.888  1.00  0.00     0.031 C 
ATOM     63  C   UNL A   1      47.613  26.791  27.420  1.00  0.00     0.037 A 
BRANCH  50  64
ATOM     64  C   UNL A   1      45.753  32.336  29.382  1.00  0.00     0.057 A 
ATOM     65  C   UNL A   1      45.808  33.363  28.432  1.00  0.00     0.134 A 
ATOM     66  C   UNL A   1      46.006  32.678  30.717  1.00  0.00     0.134 A 
ATOM     67  F   UNL A   1      45.595  33.102  27.134  1.00  0.00    -0.206 F 
ATOM     68  C   UNL A   1      46.109  34.678  28.795  1.00  0.00     0.040 A 
ATOM     69  C   UNL A   1      46.291  33.991  31.095  1.00  0.00     0.040 A 
ATOM     70  F   UNL A   1      45.965  31.744  31.679  1.00  0.00    -0.206 F 
ATOM     71  C   UNL A   1      46.344  34.997  30.132  1.00  0.00     0.006 A 
ENDBRANCH  50  64
BRANCH  51  72
ATOM     72  C   UNL A   1      42.839  23.089  27.191  1.00  0.00     0.057 A 
ATOM     73  C   UNL A   1      42.699  22.710  25.853  1.00  0.00     0.134 A 
ATOM     74  C   UNL A   1      42.575  22.120  28.170  1.00  0.00     0.134 A 
ATOM     75  F   UNL A   1      42.910  23.601  24.874  1.00  0.00    -0.206 F 
ATOM     76  C   UNL A   1      42.321  21.414  25.499  1.00  0.00     0.040 A 
ATOM     77  C   UNL A   1      42.228  20.813  27.831  1.00  0.00     0.040 A 
ATOM     78  F   UNL A   1      42.691  22.423  29.472  1.00  0.00    -0.206 F 
ATOM     79  C   UNL A   1      42.098  20.458  26.490  1.00  0.00     0.006 A 
ENDBRANCH  51  72
BRANCH  63  80
ATOM     80  C   UNL A   1      48.980  26.341  27.003  1.00  0.00     0.057 A 
ATOM     81  C   UNL A   1      49.843  25.688  27.892  1.00  0.00     0.134 A 
ATOM     82  C   UNL A   1      49.438  26.560  25.698  1.00  0.00     0.134 A 
ATOM     83  F   UNL A   1      49.469  25.464  29.162  1.00  0.00    -0.206 F 
ATOM     84  C   UNL A   1      51.124  25.291  27.505  1.00  0.00     0.040 A 
ATOM     85  C   UNL A   1      50.706  26.148  25.292  1.00  0.00     0.040 A 
ATOM     86  F   UNL A   1      48.658  27.176  24.797  1.00  0.00    -0.206 F 
ATOM     87  C   UNL A   1      51.557  25.518  26.200  1.00  0.00     0.006 A 
ENDBRANCH  63  80
ENDBRANCH  37  38
ENDBRANCH  30  32
ENDBRANCH  29  30
ENDBRANCH  28  29
ENDBRANCH   1  28
TORSDOF 15
ENDMDL
