MODEL 1
REMARK VINA RESULT:     -12.7      0.000      0.000
REMARK SMILES COc1cc([C@H]2CC(c3ccc(S(C)(=O)=O)cc3)=NN2c2ccc(C(=O)OCCOC(=O)c3ccc(-c4c5nc(c(-c6c(F)cccc6F)c6ccc([nH]6)c(-c6c(F)cccc6F)c6nc(c(-c7c(F)cccc7F)c7ccc4[nH]7)C=C6)C=C5)cc3)cc2)cc(OC)c1OC
REMARK SMILES IDX 28 1 27 2 25 3 26 4 24 5 21 6 22 7 88 8 23 9 87 10 20 11
REMARK SMILES IDX 6 12 7 13 8 14 19 15 5 16 3 17 4 18 93 19 90 20 89 21 2 22
REMARK SMILES IDX 1 23 94 24 95 25 91 26 92 27 9 28 10 29 18 30 11 31 17 32
REMARK SMILES IDX 12 33 13 34 14 35 15 36 16 37 29 38 30 39 31 40 32 41 33 42
REMARK SMILES IDX 34 43 86 44 35 45 85 46 36 47 37 48 38 49 79 50 39 51 84 52
REMARK SMILES IDX 78 53 80 54 40 55 83 56 77 57 76 58 41 60 67 61 50 62 66 63
REMARK SMILES IDX 51 64 54 65 65 66 81 67 52 68 53 69 64 71 82 72 55 73 42 74
REMARK SMILES IDX 43 75 48 76 44 77 45 78 47 79 49 80 46 81 68 82 69 83 74 84
REMARK SMILES IDX 70 85 71 86 73 87 75 88 72 89 56 90 57 91 62 92 58 93 59 94
REMARK SMILES IDX 61 95 63 96 60 97
REMARK H PARENT 80 59 54 70
REMARK Flexibility Score: inf
ROOT
ATOM      1  C   UNL A   1      34.156  33.145  28.831  1.00  0.00     0.275 C 
ENDROOT
BRANCH   1   2
ATOM      2  O   UNL A   1      33.773  31.759  28.705  1.00  0.00    -0.458 OA
BRANCH   2   3
ATOM      3  C   UNL A   1      34.429  31.073  27.737  1.00  0.00     0.338 C 
ATOM      4  O   UNL A   1      35.469  31.398  27.192  1.00  0.00    -0.246 OA
BRANCH   3   5
ATOM      5  C   UNL A   1      33.749  29.796  27.433  1.00  0.00     0.060 A 
ATOM      6  C   UNL A   1      32.479  27.449  26.511  1.00  0.00     0.060 A 
ATOM      7  C   UNL A   1      33.861  27.620  26.386  1.00  0.00     0.029 A 
ATOM      8  C   UNL A   1      31.752  28.462  27.155  1.00  0.00     0.029 A 
ATOM      9  C   UNL A   1      34.483  28.788  26.810  1.00  0.00     0.018 A 
ATOM     10  C   UNL A   1      32.380  29.625  27.632  1.00  0.00     0.018 A 
BRANCH   6  11
ATOM     11  N   UNL A   1      31.895  26.303  25.995  1.00  0.00    -0.257 N 
ATOM     12  C   UNL A   1      30.536  26.186  25.463  1.00  0.00     0.144 C 
ATOM     13  C   UNL A   1      30.475  24.711  25.026  1.00  0.00     0.091 C 
ATOM     14  C   UNL A   1      31.877  24.274  25.342  1.00  0.00     0.071 C 
ATOM     15  N   UNL A   1      32.641  25.170  25.877  1.00  0.00    -0.176 NA
BRANCH  12  16
ATOM     16  C   UNL A   1      30.263  27.175  24.333  1.00  0.00    -0.015 A 
ATOM     17  C   UNL A   1      28.680  28.394  22.921  1.00  0.00     0.164 A 
ATOM     18  C   UNL A   1      28.948  27.476  23.952  1.00  0.00     0.056 A 
ATOM     19  C   UNL A   1      29.721  29.056  22.242  1.00  0.00     0.203 A 
ATOM     20  C   UNL A   1      31.047  28.766  22.625  1.00  0.00     0.164 A 
ATOM     21  C   UNL A   1      31.295  27.849  23.666  1.00  0.00     0.056 A 
BRANCH  17  22
ATOM     22  O   UNL A   1      27.367  28.724  22.683  1.00  0.00    -0.493 OA
ATOM     23  C   UNL A   1      26.479  28.110  23.617  1.00  0.00     0.278 C 
ENDBRANCH  17  22
BRANCH  19  24
ATOM     24  O   UNL A   1      29.546  30.011  21.276  1.00  0.00    -0.490 OA
ATOM     25  C   UNL A   1      29.001  31.272  21.629  1.00  0.00     0.278 C 
ENDBRANCH  19  24
BRANCH  20  26
ATOM     26  O   UNL A   1      32.217  29.268  22.110  1.00  0.00    -0.493 OA
ATOM     27  C   UNL A   1      33.450  28.939  22.729  1.00  0.00     0.278 C 
ENDBRANCH  20  26
ENDBRANCH  12  16
BRANCH  14  28
ATOM     28  C   UNL A   1      32.315  22.889  25.133  1.00  0.00    -0.002 A 
ATOM     29  C   UNL A   1      32.907  22.210  26.205  1.00  0.00     0.011 A 
ATOM     30  C   UNL A   1      32.142  22.263  23.898  1.00  0.00     0.011 A 
ATOM     31  C   UNL A   1      33.290  20.876  26.056  1.00  0.00     0.021 A 
ATOM     32  C   UNL A   1      32.549  20.935  23.738  1.00  0.00     0.021 A 
ATOM     33  C   UNL A   1      33.110  20.246  24.819  1.00  0.00     0.067 A 
BRANCH  33  34
ATOM     34  S   UNL A   1      33.529  18.523  24.662  1.00  0.00     0.175 S 
ATOM     35  C   UNL A   1      32.770  18.010  23.145  1.00  0.00     0.163 C 
ATOM     36  O   UNL A   1      34.964  18.459  24.500  1.00  0.00    -0.224 OA
ATOM     37  O   UNL A   1      32.866  17.812  25.745  1.00  0.00    -0.224 OA
ENDBRANCH  33  34
ENDBRANCH  14  28
ENDBRANCH   6  11
ENDBRANCH   3   5
ENDBRANCH   2   3
ENDBRANCH   1   2
BRANCH   1  38
ATOM     38  C   UNL A   1      34.438  33.534  30.282  1.00  0.00     0.275 C 
BRANCH  38  39
ATOM     39  O   UNL A   1      34.479  32.365  31.123  1.00  0.00    -0.458 OA
BRANCH  39  40
ATOM     40  C   UNL A   1      35.573  32.252  31.907  1.00  0.00     0.338 C 
ATOM     41  O   UNL A   1      35.748  32.740  33.013  1.00  0.00    -0.246 OA
BRANCH  40  42
ATOM     42  C   UNL A   1      36.593  31.411  31.261  1.00  0.00     0.060 A 
ATOM     43  C   UNL A   1      37.292  30.482  32.024  1.00  0.00     0.016 A 
ATOM     44  C   UNL A   1      37.002  31.686  29.958  1.00  0.00     0.016 A 
ATOM     45  C   UNL A   1      38.497  29.961  31.558  1.00  0.00     0.010 A 
ATOM     46  C   UNL A   1      38.134  31.047  29.439  1.00  0.00     0.010 A 
ATOM     47  C   UNL A   1      38.937  30.226  30.253  1.00  0.00    -0.014 A 
BRANCH  47  48
ATOM     48  C   UNL A   1      40.246  29.696  29.760  1.00  0.00     0.031 A 
ATOM     49  C   UNL A   1      41.470  30.581  29.738  1.00  0.00     0.074 A 
ATOM     50  C   UNL A   1      40.361  28.419  29.341  1.00  0.00     0.049 A 
ATOM     51  N   UNL A   1      42.632  30.381  29.165  1.00  0.00    -0.248 NA
ATOM     52  C   UNL A   1      41.367  31.873  30.436  1.00  0.00     0.031 C 
ATOM     53  C   UNL A   1      39.288  27.421  29.341  1.00  0.00     0.029 A 
ATOM     54  N   UNL A   1      41.442  27.734  28.837  1.00  0.00    -0.354 N 
ATOM     55  C   UNL A   1      43.366  31.544  29.371  1.00  0.00     0.074 A 
ATOM     56  C   UNL A   1      42.520  32.447  30.121  1.00  0.00     0.031 C 
ATOM     57  C   UNL A   1      39.775  26.247  28.913  1.00  0.00     0.029 A 
ATOM     58  C   UNL A   1      41.164  26.429  28.508  1.00  0.00     0.049 A 
ATOM     59  H   UNL A   1      42.331  28.141  28.723  1.00  0.00     0.167 HD
ATOM     60  C   UNL A   1      44.629  31.834  28.970  1.00  0.00     0.037 A 
ATOM     61  C   UNL A   1      41.918  25.490  27.905  1.00  0.00     0.037 A 
ATOM     62  C   UNL A   1      45.499  30.909  28.290  1.00  0.00     0.049 A 
ATOM     63  C   UNL A   1      43.310  25.835  27.464  1.00  0.00     0.074 A 
ATOM     64  C   UNL A   1      46.800  31.105  27.858  1.00  0.00     0.029 A 
ATOM     65  N   UNL A   1      45.165  29.601  27.966  1.00  0.00    -0.354 N 
ATOM     66  N   UNL A   1      43.964  26.962  27.599  1.00  0.00    -0.248 NA
ATOM     67  C   UNL A   1      44.062  24.782  26.766  1.00  0.00     0.031 C 
ATOM     68  C   UNL A   1      47.244  29.926  27.248  1.00  0.00     0.029 A 
ATOM     69  C   UNL A   1      46.233  28.984  27.337  1.00  0.00     0.049 A 
ATOM     70  H   UNL A   1      44.297  29.177  28.157  1.00  0.00     0.167 HD
ATOM     71  C   UNL A   1      45.207  26.750  27.018  1.00  0.00     0.074 A 
ATOM     72  C   UNL A   1      45.223  25.382  26.546  1.00  0.00     0.031 C 
ATOM     73  C   UNL A   1      46.240  27.617  26.883  1.00  0.00     0.037 A 
BRANCH  60  74
ATOM     74  C   UNL A   1      45.141  33.222  29.229  1.00  0.00     0.057 A 
ATOM     75  C   UNL A   1      44.903  34.285  28.350  1.00  0.00     0.134 A 
ATOM     76  C   UNL A   1      45.853  33.503  30.404  1.00  0.00     0.134 A 
ATOM     77  F   UNL A   1      44.237  34.085  27.204  1.00  0.00    -0.206 F 
ATOM     78  C   UNL A   1      45.376  35.573  28.619  1.00  0.00     0.040 A 
ATOM     79  C   UNL A   1      46.308  34.790  30.695  1.00  0.00     0.040 A 
ATOM     80  F   UNL A   1      46.108  32.532  31.295  1.00  0.00    -0.206 F 
ATOM     81  C   UNL A   1      46.075  35.829  29.797  1.00  0.00     0.006 A 
ENDBRANCH  60  74
BRANCH  61  82
ATOM     82  C   UNL A   1      41.352  24.142  27.647  1.00  0.00     0.057 A 
ATOM     83  C   UNL A   1      40.412  23.934  26.633  1.00  0.00     0.134 A 
ATOM     84  C   UNL A   1      41.743  23.028  28.402  1.00  0.00     0.134 A 
ATOM     85  F   UNL A   1      39.977  24.964  25.892  1.00  0.00    -0.206 F 
ATOM     86  C   UNL A   1      39.876  22.669  26.381  1.00  0.00     0.040 A 
ATOM     87  C   UNL A   1      41.238  21.755  28.142  1.00  0.00     0.040 A 
ATOM     88  F   UNL A   1      42.642  23.162  29.389  1.00  0.00    -0.206 F 
ATOM     89  C   UNL A   1      40.297  21.574  27.132  1.00  0.00     0.006 A 
ENDBRANCH  61  82
BRANCH  73  90
ATOM     90  C   UNL A   1      47.488  27.094  26.236  1.00  0.00     0.057 A 
ATOM     91  C   UNL A   1      48.506  26.485  26.981  1.00  0.00     0.134 A 
ATOM     92  C   UNL A   1      47.661  27.185  24.850  1.00  0.00     0.134 A 
ATOM     93  F   UNL A   1      48.405  26.382  28.315  1.00  0.00    -0.206 F 
ATOM     94  C   UNL A   1      49.665  26.006  26.370  1.00  0.00     0.040 A 
ATOM     95  C   UNL A   1      48.807  26.689  24.226  1.00  0.00     0.040 A 
ATOM     96  F   UNL A   1      46.720  27.751  24.081  1.00  0.00    -0.206 F 
ATOM     97  C   UNL A   1      49.816  26.104  24.987  1.00  0.00     0.006 A 
ENDBRANCH  73  90
ENDBRANCH  47  48
ENDBRANCH  40  42
ENDBRANCH  39  40
ENDBRANCH  38  39
ENDBRANCH   1  38
TORSDOF 18
ENDMDL
MODEL 2
REMARK VINA RESULT:     -12.3      1.202      5.917
REMARK SMILES COc1cc([C@H]2CC(c3ccc(S(C)(=O)=O)cc3)=NN2c2ccc(C(=O)OCCOC(=O)c3ccc(-c4c5nc(c(-c6c(F)cccc6F)c6ccc([nH]6)c(-c6c(F)cccc6F)c6nc(c(-c7c(F)cccc7F)c7ccc4[nH]7)C=C6)C=C5)cc3)cc2)cc(OC)c1OC
REMARK SMILES IDX 28 1 27 2 25 3 26 4 24 5 21 6 22 7 88 8 23 9 87 10 20 11
REMARK SMILES IDX 6 12 7 13 8 14 19 15 5 16 3 17 4 18 93 19 90 20 89 21 2 22
REMARK SMILES IDX 1 23 94 24 95 25 91 26 92 27 9 28 10 29 18 30 11 31 17 32
REMARK SMILES IDX 12 33 13 34 14 35 15 36 16 37 29 38 30 39 31 40 32 41 33 42
REMARK SMILES IDX 34 43 86 44 35 45 85 46 36 47 37 48 38 49 79 50 39 51 84 52
REMARK SMILES IDX 78 53 80 54 40 55 83 56 77 57 76 58 41 60 67 61 50 62 66 63
REMARK SMILES IDX 51 64 54 65 65 66 81 67 52 68 53 69 64 71 82 72 55 73 42 74
REMARK SMILES IDX 43 75 48 76 44 77 45 78 47 79 49 80 46 81 68 82 69 83 74 84
REMARK SMILES IDX 70 85 71 86 73 87 75 88 72 89 56 90 57 91 62 92 58 93 59 94
REMARK SMILES IDX 61 95 63 96 60 97
REMARK H PARENT 80 59 54 70
REMARK Flexibility Score: inf
ROOT
ATOM      1  C   UNL A   1      34.733  32.576  29.066  1.00  0.00     0.275 C 
ENDROOT
BRANCH   1   2
ATOM      2  O   UNL A   1      34.001  31.480  28.474  1.00  0.00    -0.458 OA
BRANCH   2   3
ATOM      3  C   UNL A   1      34.721  30.712  27.620  1.00  0.00     0.338 C 
ATOM      4  O   UNL A   1      35.830  30.956  27.178  1.00  0.00    -0.246 OA
BRANCH   3   5
ATOM      5  C   UNL A   1      34.011  29.454  27.305  1.00  0.00     0.060 A 
ATOM      6  C   UNL A   1      32.651  27.164  26.368  1.00  0.00     0.060 A 
ATOM      7  C   UNL A   1      34.015  27.346  26.122  1.00  0.00     0.029 A 
ATOM      8  C   UNL A   1      31.992  28.134  27.139  1.00  0.00     0.029 A 
ATOM      9  C   UNL A   1      34.679  28.488  26.555  1.00  0.00     0.018 A 
ATOM     10  C   UNL A   1      32.666  29.268  27.623  1.00  0.00     0.018 A 
BRANCH   6  11
ATOM     11  N   UNL A   1      32.016  26.050  25.842  1.00  0.00    -0.257 N 
ATOM     12  C   UNL A   1      30.634  25.985  25.364  1.00  0.00     0.144 C 
ATOM     13  C   UNL A   1      30.516  24.525  24.884  1.00  0.00     0.091 C 
ATOM     14  C   UNL A   1      31.918  24.044  25.128  1.00  0.00     0.071 C 
ATOM     15  N   UNL A   1      32.727  24.903  25.658  1.00  0.00    -0.176 NA
BRANCH  12  16
ATOM     16  C   UNL A   1      30.341  27.015  24.276  1.00  0.00    -0.015 A 
ATOM     17  C   UNL A   1      28.735  28.250  22.905  1.00  0.00     0.164 A 
ATOM     18  C   UNL A   1      29.022  27.294  23.896  1.00  0.00     0.056 A 
ATOM     19  C   UNL A   1      29.762  28.972  22.267  1.00  0.00     0.203 A 
ATOM     20  C   UNL A   1      31.092  28.705  22.650  1.00  0.00     0.164 A 
ATOM     21  C   UNL A   1      31.359  27.749  23.651  1.00  0.00     0.056 A 
BRANCH  17  22
ATOM     22  O   UNL A   1      27.415  28.552  22.670  1.00  0.00    -0.493 OA
ATOM     23  C   UNL A   1      26.566  28.130  23.737  1.00  0.00     0.278 C 
ENDBRANCH  17  22
BRANCH  19  24
ATOM     24  O   UNL A   1      29.567  29.965  21.344  1.00  0.00    -0.490 OA
ATOM     25  C   UNL A   1      28.994  31.197  21.751  1.00  0.00     0.278 C 
ENDBRANCH  19  24
BRANCH  20  26
ATOM     26  O   UNL A   1      32.251  29.264  22.170  1.00  0.00    -0.493 OA
ATOM     27  C   UNL A   1      33.492  28.626  22.425  1.00  0.00     0.278 C 
ENDBRANCH  20  26
ENDBRANCH  12  16
BRANCH  14  28
ATOM     28  C   UNL A   1      32.310  22.656  24.859  1.00  0.00    -0.002 A 
ATOM     29  C   UNL A   1      32.862  21.906  25.905  1.00  0.00     0.011 A 
ATOM     30  C   UNL A   1      32.136  22.096  23.592  1.00  0.00     0.011 A 
ATOM     31  C   UNL A   1      33.200  20.568  25.697  1.00  0.00     0.021 A 
ATOM     32  C   UNL A   1      32.498  20.764  23.374  1.00  0.00     0.021 A 
ATOM     33  C   UNL A   1      33.017  20.004  24.429  1.00  0.00     0.067 A 
BRANCH  33  34
ATOM     34  S   UNL A   1      33.378  18.277  24.195  1.00  0.00     0.175 S 
ATOM     35  C   UNL A   1      32.474  17.448  25.473  1.00  0.00     0.163 C 
ATOM     36  O   UNL A   1      32.812  17.904  22.918  1.00  0.00    -0.224 OA
ATOM     37  O   UNL A   1      34.795  18.086  24.467  1.00  0.00    -0.224 OA
ENDBRANCH  33  34
ENDBRANCH  14  28
ENDBRANCH   6  11
ENDBRANCH   3   5
ENDBRANCH   2   3
ENDBRANCH   1   2
BRANCH   1  38
ATOM     38  C   UNL A   1      35.065  32.317  30.535  1.00  0.00     0.275 C 
BRANCH  38  39
ATOM     39  O   UNL A   1      35.514  30.961  30.725  1.00  0.00    -0.458 OA
BRANCH  39  40
ATOM     40  C   UNL A   1      36.579  30.812  31.540  1.00  0.00     0.338 C 
ATOM     41  O   UNL A   1      36.687  31.185  32.699  1.00  0.00    -0.246 OA
BRANCH  40  42
ATOM     42  C   UNL A   1      37.663  30.088  30.856  1.00  0.00     0.060 A 
ATOM     43  C   UNL A   1      38.551  29.325  31.605  1.00  0.00     0.016 A 
ATOM     44  C   UNL A   1      37.924  30.333  29.510  1.00  0.00     0.016 A 
ATOM     45  C   UNL A   1      39.782  28.956  31.067  1.00  0.00     0.010 A 
ATOM     46  C   UNL A   1      39.097  29.833  28.931  1.00  0.00     0.010 A 
ATOM     47  C   UNL A   1      40.076  29.195  29.717  1.00  0.00    -0.014 A 
BRANCH  47  48
ATOM     48  C   UNL A   1      41.407  28.831  29.143  1.00  0.00     0.031 A 
ATOM     49  C   UNL A   1      41.645  27.448  28.581  1.00  0.00     0.074 A 
ATOM     50  C   UNL A   1      42.413  29.729  29.103  1.00  0.00     0.049 A 
ATOM     51  N   UNL A   1      42.770  26.874  28.231  1.00  0.00    -0.248 NA
ATOM     52  C   UNL A   1      40.462  26.589  28.409  1.00  0.00     0.031 C 
ATOM     53  C   UNL A   1      42.334  31.119  29.560  1.00  0.00     0.029 A 
ATOM     54  N   UNL A   1      43.705  29.609  28.646  1.00  0.00    -0.354 N 
ATOM     55  C   UNL A   1      42.439  25.573  27.869  1.00  0.00     0.074 A 
ATOM     56  C   UNL A   1      41.009  25.439  28.042  1.00  0.00     0.031 C 
ATOM     57  C   UNL A   1      43.501  31.732  29.315  1.00  0.00     0.029 A 
ATOM     58  C   UNL A   1      44.446  30.759  28.780  1.00  0.00     0.049 A 
ATOM     59  H   UNL A   1      44.064  28.778  28.259  1.00  0.00     0.167 HD
ATOM     60  C   UNL A   1      43.254  24.579  27.435  1.00  0.00     0.037 A 
ATOM     61  C   UNL A   1      45.750  31.001  28.548  1.00  0.00     0.037 A 
ATOM     62  C   UNL A   1      44.665  24.732  27.190  1.00  0.00     0.049 A 
ATOM     63  C   UNL A   1      46.634  29.885  28.074  1.00  0.00     0.074 A 
ATOM     64  C   UNL A   1      45.570  23.788  26.734  1.00  0.00     0.029 A 
ATOM     65  N   UNL A   1      45.372  25.914  27.355  1.00  0.00    -0.354 N 
ATOM     66  N   UNL A   1      46.322  28.641  27.808  1.00  0.00    -0.248 NA
ATOM     67  C   UNL A   1      48.057  30.202  27.889  1.00  0.00     0.031 C 
ATOM     68  C   UNL A   1      46.830  24.390  26.651  1.00  0.00     0.029 A 
ATOM     69  C   UNL A   1      46.701  25.720  27.015  1.00  0.00     0.049 A 
ATOM     70  H   UNL A   1      44.986  26.764  27.668  1.00  0.00     0.167 HD
ATOM     71  C   UNL A   1      47.504  28.031  27.411  1.00  0.00     0.074 A 
ATOM     72  C   UNL A   1      48.535  29.046  27.453  1.00  0.00     0.031 C 
ATOM     73  C   UNL A   1      47.715  26.742  27.050  1.00  0.00     0.037 A 
BRANCH  60  74
ATOM     74  C   UNL A   1      42.645  23.222  27.223  1.00  0.00     0.057 A 
ATOM     75  C   UNL A   1      42.420  22.691  25.948  1.00  0.00     0.134 A 
ATOM     76  C   UNL A   1      42.317  22.417  28.324  1.00  0.00     0.134 A 
ATOM     77  F   UNL A   1      42.702  23.410  24.851  1.00  0.00    -0.206 F 
ATOM     78  C   UNL A   1      41.867  21.419  25.774  1.00  0.00     0.040 A 
ATOM     79  C   UNL A   1      41.787  21.136  28.163  1.00  0.00     0.040 A 
ATOM     80  F   UNL A   1      42.516  22.860  29.575  1.00  0.00    -0.206 F 
ATOM     81  C   UNL A   1      41.555  20.636  26.884  1.00  0.00     0.006 A 
ENDBRANCH  60  74
BRANCH  61  82
ATOM     82  C   UNL A   1      46.306  32.355  28.802  1.00  0.00     0.057 A 
ATOM     83  C   UNL A   1      46.815  32.704  30.057  1.00  0.00     0.134 A 
ATOM     84  C   UNL A   1      46.351  33.327  27.795  1.00  0.00     0.134 A 
ATOM     85  F   UNL A   1      46.777  31.826  31.071  1.00  0.00    -0.206 F 
ATOM     86  C   UNL A   1      47.342  33.973  30.305  1.00  0.00     0.040 A 
ATOM     87  C   UNL A   1      46.901  34.589  28.020  1.00  0.00     0.040 A 
ATOM     88  F   UNL A   1      45.879  33.054  26.569  1.00  0.00    -0.206 F 
ATOM     89  C   UNL A   1      47.394  34.916  29.280  1.00  0.00     0.006 A 
ENDBRANCH  61  82
BRANCH  73  90
ATOM     90  C   UNL A   1      49.106  26.372  26.630  1.00  0.00     0.057 A 
ATOM     91  C   UNL A   1      49.580  26.628  25.337  1.00  0.00     0.134 A 
ATOM     92  C   UNL A   1      49.985  25.769  27.537  1.00  0.00     0.134 A 
ATOM     93  F   UNL A   1      48.780  27.188  24.417  1.00  0.00    -0.206 F 
ATOM     94  C   UNL A   1      50.875  26.274  24.954  1.00  0.00     0.040 A 
ATOM     95  C   UNL A   1      51.290  25.433  27.173  1.00  0.00     0.040 A 
ATOM     96  F   UNL A   1      49.594  25.504  28.792  1.00  0.00    -0.206 F 
ATOM     97  C   UNL A   1      51.735  25.678  25.877  1.00  0.00     0.006 A 
ENDBRANCH  73  90
ENDBRANCH  47  48
ENDBRANCH  40  42
ENDBRANCH  39  40
ENDBRANCH  38  39
ENDBRANCH   1  38
TORSDOF 18
ENDMDL
MODEL 3
REMARK VINA RESULT:     -12.1      4.458      9.777
REMARK SMILES COc1cc([C@H]2CC(c3ccc(S(C)(=O)=O)cc3)=NN2c2ccc(C(=O)OCCOC(=O)c3ccc(-c4c5nc(c(-c6c(F)cccc6F)c6ccc([nH]6)c(-c6c(F)cccc6F)c6nc(c(-c7c(F)cccc7F)c7ccc4[nH]7)C=C6)C=C5)cc3)cc2)cc(OC)c1OC
REMARK SMILES IDX 28 1 27 2 25 3 26 4 24 5 21 6 22 7 88 8 23 9 87 10 20 11
REMARK SMILES IDX 6 12 7 13 8 14 19 15 5 16 3 17 4 18 93 19 90 20 89 21 2 22
REMARK SMILES IDX 1 23 94 24 95 25 91 26 92 27 9 28 10 29 18 30 11 31 17 32
REMARK SMILES IDX 12 33 13 34 14 35 15 36 16 37 29 38 30 39 31 40 32 41 33 42
REMARK SMILES IDX 34 43 86 44 35 45 85 46 36 47 37 48 38 49 79 50 39 51 84 52
REMARK SMILES IDX 78 53 80 54 40 55 83 56 77 57 76 58 41 60 67 61 50 62 66 63
REMARK SMILES IDX 51 64 54 65 65 66 81 67 52 68 53 69 64 71 82 72 55 73 42 74
REMARK SMILES IDX 43 75 48 76 44 77 45 78 47 79 49 80 46 81 68 82 69 83 74 84
REMARK SMILES IDX 70 85 71 86 73 87 75 88 72 89 56 90 57 91 62 92 58 93 59 94
REMARK SMILES IDX 61 95 63 96 60 97
REMARK H PARENT 80 59 54 70
REMARK Flexibility Score: inf
ROOT
ATOM      1  C   UNL A   1      41.044  21.828  26.732  1.00  0.00     0.275 C 
ENDROOT
BRANCH   1   2
ATOM      2  O   UNL A   1      39.761  22.055  26.108  1.00  0.00    -0.458 OA
BRANCH   2   3
ATOM      3  C   UNL A   1      39.150  23.210  26.469  1.00  0.00     0.338 C 
ATOM      4  O   UNL A   1      39.627  24.107  27.143  1.00  0.00    -0.246 OA
BRANCH   3   5
ATOM      5  C   UNL A   1      37.794  23.302  25.888  1.00  0.00     0.060 A 
ATOM      6  C   UNL A   1      35.347  23.693  24.535  1.00  0.00     0.060 A 
ATOM      7  C   UNL A   1      36.348  22.879  23.997  1.00  0.00     0.029 A 
ATOM      8  C   UNL A   1      35.580  24.269  25.793  1.00  0.00     0.029 A 
ATOM      9  C   UNL A   1      37.566  22.711  24.646  1.00  0.00     0.018 A 
ATOM     10  C   UNL A   1      36.789  24.065  26.480  1.00  0.00     0.018 A 
BRANCH   6  11
ATOM     11  N   UNL A   1      34.185  23.896  23.808  1.00  0.00    -0.257 N 
ATOM     12  C   UNL A   1      33.520  22.919  22.944  1.00  0.00     0.144 C 
ATOM     13  C   UNL A   1      32.291  23.699  22.442  1.00  0.00     0.091 C 
ATOM     14  C   UNL A   1      32.462  24.990  23.192  1.00  0.00     0.071 C 
ATOM     15  N   UNL A   1      33.515  25.075  23.938  1.00  0.00    -0.176 NA
BRANCH  12  16
ATOM     16  C   UNL A   1      33.170  21.629  23.681  1.00  0.00    -0.015 A 
ATOM     17  C   UNL A   1      32.333  19.329  23.648  1.00  0.00     0.164 A 
ATOM     18  C   UNL A   1      32.649  20.530  22.985  1.00  0.00     0.056 A 
ATOM     19  C   UNL A   1      32.541  19.183  25.033  1.00  0.00     0.203 A 
ATOM     20  C   UNL A   1      33.074  20.280  25.740  1.00  0.00     0.164 A 
ATOM     21  C   UNL A   1      33.392  21.471  25.056  1.00  0.00     0.056 A 
BRANCH  17  22
ATOM     22  O   UNL A   1      31.937  18.260  22.881  1.00  0.00    -0.493 OA
ATOM     23  C   UNL A   1      32.188  18.470  21.491  1.00  0.00     0.278 C 
ENDBRANCH  17  22
BRANCH  19  24
ATOM     24  O   UNL A   1      32.326  18.031  25.741  1.00  0.00    -0.490 OA
ATOM     25  C   UNL A   1      33.279  16.982  25.680  1.00  0.00     0.278 C 
ENDBRANCH  19  24
BRANCH  20  26
ATOM     26  O   UNL A   1      33.352  20.382  27.081  1.00  0.00    -0.493 OA
ATOM     27  C   UNL A   1      33.767  21.630  27.614  1.00  0.00     0.278 C 
ENDBRANCH  20  26
ENDBRANCH  12  16
BRANCH  14  28
ATOM     28  C   UNL A   1      31.532  26.110  23.012  1.00  0.00    -0.002 A 
ATOM     29  C   UNL A   1      30.278  26.038  23.631  1.00  0.00     0.011 A 
ATOM     30  C   UNL A   1      31.889  27.221  22.247  1.00  0.00     0.011 A 
ATOM     31  C   UNL A   1      29.387  27.107  23.522  1.00  0.00     0.021 A 
ATOM     32  C   UNL A   1      30.989  28.282  22.114  1.00  0.00     0.021 A 
ATOM     33  C   UNL A   1      29.748  28.226  22.761  1.00  0.00     0.067 A 
BRANCH  33  34
ATOM     34  S   UNL A   1      28.639  29.616  22.692  1.00  0.00     0.175 S 
ATOM     35  C   UNL A   1      27.062  28.959  23.163  1.00  0.00     0.163 C 
ATOM     36  O   UNL A   1      29.073  30.543  23.713  1.00  0.00    -0.224 OA
ATOM     37  O   UNL A   1      28.543  30.029  21.300  1.00  0.00    -0.224 OA
ENDBRANCH  33  34
ENDBRANCH  14  28
ENDBRANCH   6  11
ENDBRANCH   3   5
ENDBRANCH   2   3
ENDBRANCH   1   2
BRANCH   1  38
ATOM     38  C   UNL A   1      42.199  21.984  25.743  1.00  0.00     0.275 C 
BRANCH  38  39
ATOM     39  O   UNL A   1      42.328  23.356  25.323  1.00  0.00    -0.458 OA
BRANCH  39  40
ATOM     40  C   UNL A   1      43.540  23.914  25.529  1.00  0.00     0.338 C 
ATOM     41  O   UNL A   1      44.562  23.730  24.885  1.00  0.00    -0.246 OA
BRANCH  40  42
ATOM     42  C   UNL A   1      43.499  24.843  26.669  1.00  0.00     0.060 A 
ATOM     43  C   UNL A   1      43.119  24.370  27.919  1.00  0.00     0.016 A 
ATOM     44  C   UNL A   1      43.631  26.214  26.457  1.00  0.00     0.016 A 
ATOM     45  C   UNL A   1      42.699  25.261  28.905  1.00  0.00     0.010 A 
ATOM     46  C   UNL A   1      43.348  27.106  27.499  1.00  0.00     0.010 A 
ATOM     47  C   UNL A   1      42.814  26.646  28.717  1.00  0.00    -0.014 A 
BRANCH  47  48
ATOM     48  C   UNL A   1      42.334  27.606  29.759  1.00  0.00     0.031 A 
ATOM     49  C   UNL A   1      43.083  27.757  31.062  1.00  0.00     0.074 A 
ATOM     50  C   UNL A   1      41.237  28.363  29.550  1.00  0.00     0.049 A 
ATOM     51  N   UNL A   1      42.724  28.372  32.162  1.00  0.00    -0.248 NA
ATOM     52  C   UNL A   1      44.404  27.113  31.147  1.00  0.00     0.031 C 
ATOM     53  C   UNL A   1      40.428  28.373  28.329  1.00  0.00     0.029 A 
ATOM     54  N   UNL A   1      40.614  29.282  30.361  1.00  0.00    -0.354 N 
ATOM     55  C   UNL A   1      43.735  28.128  33.085  1.00  0.00     0.074 A 
ATOM     56  C   UNL A   1      44.723  27.308  32.418  1.00  0.00     0.031 C 
ATOM     57  C   UNL A   1      39.453  29.286  28.451  1.00  0.00     0.029 A 
ATOM     58  C   UNL A   1      39.500  29.853  29.793  1.00  0.00     0.049 A 
ATOM     59  H   UNL A   1      40.936  29.510  31.263  1.00  0.00     0.167 HD
ATOM     60  C   UNL A   1      43.831  28.547  34.372  1.00  0.00     0.037 A 
ATOM     61  C   UNL A   1      38.585  30.700  30.302  1.00  0.00     0.037 A 
ATOM     62  C   UNL A   1      42.886  29.425  35.014  1.00  0.00     0.049 A 
ATOM     63  C   UNL A   1      38.706  31.146  31.730  1.00  0.00     0.074 A 
ATOM     64  C   UNL A   1      42.906  29.917  36.308  1.00  0.00     0.029 A 
ATOM     65  N   UNL A   1      41.765  29.964  34.400  1.00  0.00    -0.354 N 
ATOM     66  N   UNL A   1      39.627  30.847  32.612  1.00  0.00    -0.248 NA
ATOM     67  C   UNL A   1      37.649  32.030  32.239  1.00  0.00     0.031 C 
ATOM     68  C   UNL A   1      41.783  30.732  36.486  1.00  0.00     0.029 A 
ATOM     69  C   UNL A   1      41.086  30.779  35.291  1.00  0.00     0.049 A 
ATOM     70  H   UNL A   1      41.494  29.793  33.469  1.00  0.00     0.167 HD
ATOM     71  C   UNL A   1      39.269  31.516  33.774  1.00  0.00     0.074 A 
ATOM     72  C   UNL A   1      38.057  32.251  33.479  1.00  0.00     0.031 C 
ATOM     73  C   UNL A   1      39.887  31.515  34.980  1.00  0.00     0.037 A 
BRANCH  60  74
ATOM     74  C   UNL A   1      44.984  28.036  35.187  1.00  0.00     0.057 A 
ATOM     75  C   UNL A   1      46.160  28.773  35.369  1.00  0.00     0.134 A 
ATOM     76  C   UNL A   1      44.894  26.795  35.835  1.00  0.00     0.134 A 
ATOM     77  F   UNL A   1      46.316  29.963  34.770  1.00  0.00    -0.206 F 
ATOM     78  C   UNL A   1      47.215  28.285  36.145  1.00  0.00     0.040 A 
ATOM     79  C   UNL A   1      45.931  26.309  36.633  1.00  0.00     0.040 A 
ATOM     80  F   UNL A   1      43.792  26.040  35.712  1.00  0.00    -0.206 F 
ATOM     81  C   UNL A   1      47.099  27.053  36.784  1.00  0.00     0.006 A 
ENDBRANCH  60  74
BRANCH  61  82
ATOM     82  C   UNL A   1      37.448  31.151  29.460  1.00  0.00     0.057 A 
ATOM     83  C   UNL A   1      37.455  32.408  28.847  1.00  0.00     0.134 A 
ATOM     84  C   UNL A   1      36.331  30.333  29.242  1.00  0.00     0.134 A 
ATOM     85  F   UNL A   1      38.483  33.248  29.038  1.00  0.00    -0.206 F 
ATOM     86  C   UNL A   1      36.391  32.840  28.052  1.00  0.00     0.040 A 
ATOM     87  C   UNL A   1      35.275  30.740  28.427  1.00  0.00     0.040 A 
ATOM     88  F   UNL A   1      36.264  29.116  29.802  1.00  0.00    -0.206 F 
ATOM     89  C   UNL A   1      35.301  31.999  27.833  1.00  0.00     0.006 A 
ENDBRANCH  61  82
BRANCH  73  90
ATOM     90  C   UNL A   1      39.284  32.369  36.055  1.00  0.00     0.057 A 
ATOM     91  C   UNL A   1      39.682  33.698  36.252  1.00  0.00     0.134 A 
ATOM     92  C   UNL A   1      38.283  31.860  36.889  1.00  0.00     0.134 A 
ATOM     93  F   UNL A   1      40.650  34.238  35.495  1.00  0.00    -0.206 F 
ATOM     94  C   UNL A   1      39.120  34.484  37.258  1.00  0.00     0.040 A 
ATOM     95  C   UNL A   1      37.696  32.644  37.884  1.00  0.00     0.040 A 
ATOM     96  F   UNL A   1      37.853  30.598  36.748  1.00  0.00    -0.206 F 
ATOM     97  C   UNL A   1      38.119  33.957  38.076  1.00  0.00     0.006 A 
ENDBRANCH  73  90
ENDBRANCH  47  48
ENDBRANCH  40  42
ENDBRANCH  39  40
ENDBRANCH  38  39
ENDBRANCH   1  38
TORSDOF 18
ENDMDL
