MODEL 1
REMARK VINA RESULT:     -11.8      0.000      0.000
REMARK SMILES O=C(OCCOC(=O)c1cc(-c2cccc(OC(F)(F)F)c2)cnc1Cl)c1ccc(-c2c3nc(c(-c4c(F)cccc4F)c4ccc([nH]4)c(-c4c(F)cccc4F)c4nc(c(-c5c(F)cccc5F)c5ccc2[nH]5)C=C4)C=C3)cc1
REMARK SMILES IDX 5 1 4 2 3 3 2 4 1 5 27 6 28 7 80 8 29 9 79 10 30 11 31 12
REMARK SMILES IDX 32 13 73 14 33 15 78 16 72 17 74 18 34 19 77 20 71 21 70 22
REMARK SMILES IDX 35 24 61 25 44 26 60 27 45 28 48 29 59 30 75 31 46 32 47 33
REMARK SMILES IDX 58 35 76 36 49 37 36 38 37 39 42 40 38 41 39 42 41 43 43 44
REMARK SMILES IDX 40 45 62 46 63 47 68 48 64 49 65 50 67 51 69 52 66 53 50 54
REMARK SMILES IDX 51 55 56 56 52 57 53 58 55 59 57 60 54 61 6 62 7 63 8 64
REMARK SMILES IDX 9 65 10 66 25 67 11 68 24 69 26 70 23 71 12 72 13 73 22 74
REMARK SMILES IDX 14 75 16 76 15 77 17 78 18 79 19 80 20 81 21 82
REMARK H PARENT 74 23 48 34
REMARK Flexibility Score: inf
ROOT
ATOM      1  C   UNL A   1      32.290  30.901  26.790  1.00  0.00     0.275 C 
ENDROOT
BRANCH   1   2
ATOM      2  C   UNL A   1      31.421  32.159  26.875  1.00  0.00     0.275 C 
BRANCH   2   3
ATOM      3  O   UNL A   1      32.168  33.380  26.972  1.00  0.00    -0.458 OA
BRANCH   3   4
ATOM      4  C   UNL A   1      32.900  33.874  27.993  1.00  0.00     0.338 C 
ATOM      5  O   UNL A   1      32.528  34.928  28.510  1.00  0.00    -0.246 OA
BRANCH   4   6
ATOM      6  C   UNL A   1      34.204  33.299  28.472  1.00  0.00     0.060 A 
ATOM      7  C   UNL A   1      35.493  33.636  28.056  1.00  0.00     0.016 A 
ATOM      8  C   UNL A   1      34.095  32.335  29.486  1.00  0.00     0.016 A 
ATOM      9  C   UNL A   1      36.623  33.094  28.681  1.00  0.00     0.010 A 
ATOM     10  C   UNL A   1      35.215  31.822  30.148  1.00  0.00     0.010 A 
ATOM     11  C   UNL A   1      36.494  32.198  29.741  1.00  0.00    -0.014 A 
BRANCH  11  12
ATOM     12  C   UNL A   1      37.696  31.556  30.319  1.00  0.00     0.031 A 
ATOM     13  C   UNL A   1      38.105  31.922  31.714  1.00  0.00     0.074 A 
ATOM     14  C   UNL A   1      38.377  30.624  29.624  1.00  0.00     0.049 A 
ATOM     15  N   UNL A   1      39.071  31.433  32.446  1.00  0.00    -0.248 NA
ATOM     16  C   UNL A   1      37.312  32.968  32.383  1.00  0.00     0.031 C 
ATOM     17  C   UNL A   1      38.045  30.181  28.272  1.00  0.00     0.029 A 
ATOM     18  N   UNL A   1      39.479  29.879  29.951  1.00  0.00    -0.354 N 
ATOM     19  C   UNL A   1      38.980  32.089  33.665  1.00  0.00     0.074 A 
ATOM     20  C   UNL A   1      37.924  33.067  33.552  1.00  0.00     0.031 C 
ATOM     21  C   UNL A   1      38.933  29.256  27.872  1.00  0.00     0.029 A 
ATOM     22  C   UNL A   1      39.895  29.036  28.945  1.00  0.00     0.049 A 
ATOM     23  H   UNL A   1      39.933  29.940  30.823  1.00  0.00     0.167 HD
ATOM     24  C   UNL A   1      39.688  31.864  34.795  1.00  0.00     0.037 A 
ATOM     25  C   UNL A   1      40.933  28.179  28.903  1.00  0.00     0.037 A 
ATOM     26  C   UNL A   1      40.748  30.900  34.889  1.00  0.00     0.049 A 
ATOM     27  C   UNL A   1      41.769  28.018  30.144  1.00  0.00     0.074 A 
ATOM     28  C   UNL A   1      41.544  30.594  35.976  1.00  0.00     0.029 A 
ATOM     29  N   UNL A   1      41.165  30.091  33.840  1.00  0.00    -0.354 N 
ATOM     30  N   UNL A   1      41.635  28.605  31.310  1.00  0.00    -0.248 NA
ATOM     31  C   UNL A   1      42.880  27.060  30.076  1.00  0.00     0.031 C 
ATOM     32  C   UNL A   1      42.475  29.631  35.572  1.00  0.00     0.029 A 
ATOM     33  C   UNL A   1      42.225  29.302  34.247  1.00  0.00     0.049 A 
ATOM     34  H   UNL A   1      40.767  30.082  32.940  1.00  0.00     0.167 HD
ATOM     35  C   UNL A   1      42.619  28.061  32.125  1.00  0.00     0.074 A 
ATOM     36  C   UNL A   1      43.332  27.089  31.321  1.00  0.00     0.031 C 
ATOM     37  C   UNL A   1      42.909  28.338  33.421  1.00  0.00     0.037 A 
BRANCH  24  38
ATOM     38  C   UNL A   1      39.325  32.686  35.994  1.00  0.00     0.057 A 
ATOM     39  C   UNL A   1      39.931  33.926  36.247  1.00  0.00     0.134 A 
ATOM     40  C   UNL A   1      38.388  32.224  36.924  1.00  0.00     0.134 A 
ATOM     41  F   UNL A   1      40.859  34.412  35.408  1.00  0.00    -0.206 F 
ATOM     42  C   UNL A   1      39.639  34.661  37.396  1.00  0.00     0.040 A 
ATOM     43  C   UNL A   1      38.069  32.963  38.065  1.00  0.00     0.040 A 
ATOM     44  F   UNL A   1      37.777  31.043  36.747  1.00  0.00    -0.206 F 
ATOM     45  C   UNL A   1      38.701  34.180  38.308  1.00  0.00     0.006 A 
ENDBRANCH  24  38
BRANCH  25  46
ATOM     46  C   UNL A   1      41.230  27.400  27.672  1.00  0.00     0.057 A 
ATOM     47  C   UNL A   1      40.738  26.101  27.489  1.00  0.00     0.134 A 
ATOM     48  C   UNL A   1      42.048  27.921  26.661  1.00  0.00     0.134 A 
ATOM     49  F   UNL A   1      39.963  25.535  28.426  1.00  0.00    -0.206 F 
ATOM     50  C   UNL A   1      41.072  25.340  26.366  1.00  0.00     0.040 A 
ATOM     51  C   UNL A   1      42.369  27.181  25.521  1.00  0.00     0.040 A 
ATOM     52  F   UNL A   1      42.553  29.158  26.771  1.00  0.00    -0.206 F 
ATOM     53  C   UNL A   1      41.889  25.881  25.376  1.00  0.00     0.006 A 
ENDBRANCH  25  46
BRANCH  37  54
ATOM     54  C   UNL A   1      44.020  27.552  34.048  1.00  0.00     0.057 A 
ATOM     55  C   UNL A   1      43.793  26.314  34.662  1.00  0.00     0.134 A 
ATOM     56  C   UNL A   1      45.337  28.024  34.003  1.00  0.00     0.134 A 
ATOM     57  F   UNL A   1      42.550  25.814  34.748  1.00  0.00    -0.206 F 
ATOM     58  C   UNL A   1      44.835  25.585  35.233  1.00  0.00     0.040 A 
ATOM     59  C   UNL A   1      46.392  27.290  34.543  1.00  0.00     0.040 A 
ATOM     60  F   UNL A   1      45.621  29.199  33.421  1.00  0.00    -0.206 F 
ATOM     61  C   UNL A   1      46.141  26.069  35.166  1.00  0.00     0.006 A 
ENDBRANCH  37  54
ENDBRANCH  11  12
ENDBRANCH   4   6
ENDBRANCH   3   4
ENDBRANCH   2   3
ENDBRANCH   1   2
BRANCH   1  62
ATOM     62  O   UNL A   1      31.609  29.775  26.210  1.00  0.00    -0.458 OA
BRANCH  62  63
ATOM     63  C   UNL A   1      32.220  29.179  25.154  1.00  0.00     0.341 C 
ATOM     64  O   UNL A   1      33.100  29.650  24.454  1.00  0.00    -0.246 OA
BRANCH  63  65
ATOM     65  C   UNL A   1      31.751  27.794  25.035  1.00  0.00     0.098 A 
ATOM     66  C   UNL A   1      32.499  26.749  25.602  1.00  0.00     0.029 A 
ATOM     67  C   UNL A   1      30.589  27.476  24.355  1.00  0.00     0.143 A 
ATOM     68  C   UNL A   1      32.034  25.426  25.529  1.00  0.00     0.001 A 
ATOM     69  N   UNL A   1      30.102  26.218  24.262  1.00  0.00    -0.243 NA
ATOM     70  Cl  UNL A   1      29.626  28.620  23.501  1.00  0.00    -0.061 Cl
ATOM     71  C   UNL A   1      30.818  25.237  24.864  1.00  0.00     0.121 A 
BRANCH  68  72
ATOM     72  C   UNL A   1      32.770  24.279  26.092  1.00  0.00    -0.013 A 
ATOM     73  C   UNL A   1      32.204  23.514  27.122  1.00  0.00     0.009 A 
ATOM     74  C   UNL A   1      34.063  23.933  25.656  1.00  0.00     0.055 A 
ATOM     75  C   UNL A   1      32.902  22.446  27.689  1.00  0.00     0.004 A 
ATOM     76  C   UNL A   1      34.780  22.877  26.228  1.00  0.00     0.130 A 
ATOM     77  C   UNL A   1      34.183  22.132  27.243  1.00  0.00     0.047 A 
BRANCH  76  78
ATOM     78  O   UNL A   1      36.043  22.475  25.897  1.00  0.00    -0.406 OA
BRANCH  78  79
ATOM     79  C   UNL A   1      36.198  21.536  24.845  1.00  0.00     0.573 C 
ATOM     80  F   UNL A   1      35.073  21.444  24.105  1.00  0.00    -0.132 F 
ATOM     81  F   UNL A   1      37.231  21.868  24.041  1.00  0.00    -0.132 F 
ATOM     82  F   UNL A   1      36.453  20.321  25.377  1.00  0.00    -0.132 F 
ENDBRANCH  78  79
ENDBRANCH  76  78
ENDBRANCH  68  72
ENDBRANCH  63  65
ENDBRANCH  62  63
ENDBRANCH   1  62
TORSDOF 14
ENDMDL
MODEL 2
REMARK VINA RESULT:     -11.5      4.481      9.613
REMARK SMILES O=C(OCCOC(=O)c1cc(-c2cccc(OC(F)(F)F)c2)cnc1Cl)c1ccc(-c2c3nc(c(-c4c(F)cccc4F)c4ccc([nH]4)c(-c4c(F)cccc4F)c4nc(c(-c5c(F)cccc5F)c5ccc2[nH]5)C=C4)C=C3)cc1
REMARK SMILES IDX 5 1 4 2 3 3 2 4 1 5 27 6 28 7 80 8 29 9 79 10 30 11 31 12
REMARK SMILES IDX 32 13 73 14 33 15 78 16 72 17 74 18 34 19 77 20 71 21 70 22
REMARK SMILES IDX 35 24 61 25 44 26 60 27 45 28 48 29 59 30 75 31 46 32 47 33
REMARK SMILES IDX 58 35 76 36 49 37 36 38 37 39 42 40 38 41 39 42 41 43 43 44
REMARK SMILES IDX 40 45 62 46 63 47 68 48 64 49 65 50 67 51 69 52 66 53 50 54
REMARK SMILES IDX 51 55 56 56 52 57 53 58 55 59 57 60 54 61 6 62 7 63 8 64
REMARK SMILES IDX 9 65 10 66 25 67 11 68 24 69 26 70 23 71 12 72 13 73 22 74
REMARK SMILES IDX 14 75 16 76 15 77 17 78 18 79 19 80 20 81 21 82
REMARK H PARENT 74 23 48 34
REMARK Flexibility Score: inf
ROOT
ATOM      1  C   UNL A   1      37.726  21.116  25.003  1.00  0.00     0.275 C 
ENDROOT
BRANCH   1   2
ATOM      2  C   UNL A   1      38.220  19.682  24.793  1.00  0.00     0.275 C 
BRANCH   2   3
ATOM      3  O   UNL A   1      39.149  19.232  25.789  1.00  0.00    -0.458 OA
BRANCH   3   4
ATOM      4  C   UNL A   1      40.434  19.587  26.005  1.00  0.00     0.338 C 
ATOM      5  O   UNL A   1      41.309  18.755  25.763  1.00  0.00    -0.246 OA
BRANCH   4   6
ATOM      6  C   UNL A   1      40.874  20.881  26.633  1.00  0.00     0.060 A 
ATOM      7  C   UNL A   1      41.143  21.132  27.979  1.00  0.00     0.016 A 
ATOM      8  C   UNL A   1      41.066  21.944  25.737  1.00  0.00     0.016 A 
ATOM      9  C   UNL A   1      41.660  22.364  28.399  1.00  0.00     0.010 A 
ATOM     10  C   UNL A   1      41.625  23.162  26.137  1.00  0.00     0.010 A 
ATOM     11  C   UNL A   1      41.921  23.381  27.481  1.00  0.00    -0.014 A 
BRANCH  11  12
ATOM     12  C   UNL A   1      42.367  24.710  27.956  1.00  0.00     0.031 A 
ATOM     13  C   UNL A   1      43.835  25.014  27.963  1.00  0.00     0.074 A 
ATOM     14  C   UNL A   1      41.468  25.644  28.323  1.00  0.00     0.049 A 
ATOM     15  N   UNL A   1      44.445  26.131  28.263  1.00  0.00    -0.248 NA
ATOM     16  C   UNL A   1      44.739  23.921  27.567  1.00  0.00     0.031 C 
ATOM     17  C   UNL A   1      40.020  25.455  28.327  1.00  0.00     0.029 A 
ATOM     18  N   UNL A   1      41.630  26.934  28.757  1.00  0.00    -0.354 N 
ATOM     19  C   UNL A   1      45.795  25.881  28.061  1.00  0.00     0.074 A 
ATOM     20  C   UNL A   1      45.927  24.490  27.696  1.00  0.00     0.031 C 
ATOM     21  C   UNL A   1      39.422  26.577  28.761  1.00  0.00     0.029 A 
ATOM     22  C   UNL A   1      40.447  27.568  29.061  1.00  0.00     0.049 A 
ATOM     23  H   UNL A   1      42.511  27.366  28.845  1.00  0.00     0.167 HD
ATOM     24  C   UNL A   1      46.829  26.748  28.131  1.00  0.00     0.037 A 
ATOM     25  C   UNL A   1      40.222  28.814  29.521  1.00  0.00     0.037 A 
ATOM     26  C   UNL A   1      46.686  28.126  28.513  1.00  0.00     0.049 A 
ATOM     27  C   UNL A   1      41.404  29.731  29.686  1.00  0.00     0.074 A 
ATOM     28  C   UNL A   1      47.662  29.095  28.633  1.00  0.00     0.029 A 
ATOM     29  N   UNL A   1      45.478  28.723  28.849  1.00  0.00    -0.354 N 
ATOM     30  N   UNL A   1      42.671  29.498  29.437  1.00  0.00    -0.248 NA
ATOM     31  C   UNL A   1      41.125  31.090  30.170  1.00  0.00     0.031 C 
ATOM     32  C   UNL A   1      47.052  30.269  29.086  1.00  0.00     0.029 A 
ATOM     33  C   UNL A   1      45.688  30.044  29.200  1.00  0.00     0.049 A 
ATOM     34  H   UNL A   1      44.603  28.273  28.839  1.00  0.00     0.167 HD
ATOM     35  C   UNL A   1      43.335  30.689  29.696  1.00  0.00     0.074 A 
ATOM     36  C   UNL A   1      42.327  31.645  30.109  1.00  0.00     0.031 C 
ATOM     37  C   UNL A   1      44.658  30.971  29.601  1.00  0.00     0.037 A 
BRANCH  24  38
ATOM     38  C   UNL A   1      48.186  26.210  27.793  1.00  0.00     0.057 A 
ATOM     39  C   UNL A   1      49.005  25.616  28.765  1.00  0.00     0.134 A 
ATOM     40  C   UNL A   1      48.696  26.314  26.494  1.00  0.00     0.134 A 
ATOM     41  F   UNL A   1      48.586  25.512  30.036  1.00  0.00    -0.206 F 
ATOM     42  C   UNL A   1      50.293  25.173  28.463  1.00  0.00     0.040 A 
ATOM     43  C   UNL A   1      49.974  25.851  26.174  1.00  0.00     0.040 A 
ATOM     44  F   UNL A   1      47.968  26.877  25.520  1.00  0.00    -0.206 F 
ATOM     45  C   UNL A   1      50.779  25.286  27.162  1.00  0.00     0.006 A 
ENDBRANCH  24  38
BRANCH  25  46
ATOM     46  C   UNL A   1      38.844  29.273  29.838  1.00  0.00     0.057 A 
ATOM     47  C   UNL A   1      38.030  29.873  28.869  1.00  0.00     0.134 A 
ATOM     48  C   UNL A   1      38.317  29.157  31.131  1.00  0.00     0.134 A 
ATOM     49  F   UNL A   1      38.479  30.031  27.615  1.00  0.00    -0.206 F 
ATOM     50  C   UNL A   1      36.762  30.370  29.179  1.00  0.00     0.040 A 
ATOM     51  C   UNL A   1      37.040  29.625  31.449  1.00  0.00     0.040 A 
ATOM     52  F   UNL A   1      39.041  28.592  32.108  1.00  0.00    -0.206 F 
ATOM     53  C   UNL A   1      36.262  30.244  30.473  1.00  0.00     0.006 A 
ENDBRANCH  25  46
BRANCH  37  54
ATOM     54  C   UNL A   1      45.076  32.375  29.917  1.00  0.00     0.057 A 
ATOM     55  C   UNL A   1      45.488  32.750  31.202  1.00  0.00     0.134 A 
ATOM     56  C   UNL A   1      45.101  33.351  28.913  1.00  0.00     0.134 A 
ATOM     57  F   UNL A   1      45.473  31.863  32.208  1.00  0.00    -0.206 F 
ATOM     58  C   UNL A   1      45.886  34.057  31.483  1.00  0.00     0.040 A 
ATOM     59  C   UNL A   1      45.527  34.653  29.176  1.00  0.00     0.040 A 
ATOM     60  F   UNL A   1      44.727  33.051  27.661  1.00  0.00    -0.206 F 
ATOM     61  C   UNL A   1      45.914  35.010  30.466  1.00  0.00     0.006 A 
ENDBRANCH  37  54
ENDBRANCH  11  12
ENDBRANCH   4   6
ENDBRANCH   3   4
ENDBRANCH   2   3
ENDBRANCH   1   2
BRANCH   1  62
ATOM     62  O   UNL A   1      36.467  21.386  24.362  1.00  0.00    -0.458 OA
BRANCH  62  63
ATOM     63  C   UNL A   1      35.400  21.567  25.182  1.00  0.00     0.341 C 
ATOM     64  O   UNL A   1      35.306  21.233  26.350  1.00  0.00    -0.246 OA
BRANCH  63  65
ATOM     65  C   UNL A   1      34.376  22.354  24.485  1.00  0.00     0.098 A 
ATOM     66  C   UNL A   1      34.471  23.756  24.454  1.00  0.00     0.029 A 
ATOM     67  C   UNL A   1      33.293  21.756  23.865  1.00  0.00     0.143 A 
ATOM     68  C   UNL A   1      33.519  24.513  23.753  1.00  0.00     0.001 A 
ATOM     69  N   UNL A   1      32.356  22.444  23.177  1.00  0.00    -0.243 NA
ATOM     70  Cl  UNL A   1      32.966  20.066  23.916  1.00  0.00    -0.061 Cl
ATOM     71  C   UNL A   1      32.503  23.791  23.120  1.00  0.00     0.121 A 
BRANCH  68  72
ATOM     72  C   UNL A   1      33.550  25.986  23.685  1.00  0.00    -0.013 A 
ATOM     73  C   UNL A   1      33.595  26.635  22.443  1.00  0.00     0.009 A 
ATOM     74  C   UNL A   1      33.575  26.788  24.843  1.00  0.00     0.055 A 
ATOM     75  C   UNL A   1      33.658  28.027  22.363  1.00  0.00     0.004 A 
ATOM     76  C   UNL A   1      33.656  28.183  24.777  1.00  0.00     0.130 A 
ATOM     77  C   UNL A   1      33.690  28.794  23.525  1.00  0.00     0.047 A 
BRANCH  76  78
ATOM     78  O   UNL A   1      33.709  29.047  25.833  1.00  0.00    -0.406 OA
BRANCH  78  79
ATOM     79  C   UNL A   1      32.576  29.150  26.678  1.00  0.00     0.573 C 
ATOM     80  F   UNL A   1      31.433  28.964  25.984  1.00  0.00    -0.132 F 
ATOM     81  F   UNL A   1      32.633  28.252  27.685  1.00  0.00    -0.132 F 
ATOM     82  F   UNL A   1      32.544  30.388  27.219  1.00  0.00    -0.132 F 
ENDBRANCH  78  79
ENDBRANCH  76  78
ENDBRANCH  68  72
ENDBRANCH  63  65
ENDBRANCH  62  63
ENDBRANCH   1  62
TORSDOF 14
ENDMDL
MODEL 3
REMARK VINA RESULT:     -11.5      0.240      1.396
REMARK SMILES O=C(OCCOC(=O)c1cc(-c2cccc(OC(F)(F)F)c2)cnc1Cl)c1ccc(-c2c3nc(c(-c4c(F)cccc4F)c4ccc([nH]4)c(-c4c(F)cccc4F)c4nc(c(-c5c(F)cccc5F)c5ccc2[nH]5)C=C4)C=C3)cc1
REMARK SMILES IDX 5 1 4 2 3 3 2 4 1 5 27 6 28 7 80 8 29 9 79 10 30 11 31 12
REMARK SMILES IDX 32 13 73 14 33 15 78 16 72 17 74 18 34 19 77 20 71 21 70 22
REMARK SMILES IDX 35 24 61 25 44 26 60 27 45 28 48 29 59 30 75 31 46 32 47 33
REMARK SMILES IDX 58 35 76 36 49 37 36 38 37 39 42 40 38 41 39 42 41 43 43 44
REMARK SMILES IDX 40 45 62 46 63 47 68 48 64 49 65 50 67 51 69 52 66 53 50 54
REMARK SMILES IDX 51 55 56 56 52 57 53 58 55 59 57 60 54 61 6 62 7 63 8 64
REMARK SMILES IDX 9 65 10 66 25 67 11 68 24 69 26 70 23 71 12 72 13 73 22 74
REMARK SMILES IDX 14 75 16 76 15 77 17 78 18 79 19 80 20 81 21 82
REMARK H PARENT 74 23 48 34
REMARK Flexibility Score: inf
ROOT
ATOM      1  C   UNL A   1      31.426  31.375  25.876  1.00  0.00     0.275 C 
ENDROOT
BRANCH   1   2
ATOM      2  C   UNL A   1      31.546  32.061  27.239  1.00  0.00     0.275 C 
BRANCH   2   3
ATOM      3  O   UNL A   1      32.107  33.380  27.182  1.00  0.00    -0.458 OA
BRANCH   3   4
ATOM      4  C   UNL A   1      32.925  34.018  28.047  1.00  0.00     0.338 C 
ATOM      5  O   UNL A   1      32.633  35.168  28.373  1.00  0.00    -0.246 OA
BRANCH   4   6
ATOM      6  C   UNL A   1      34.232  33.473  28.551  1.00  0.00     0.060 A 
ATOM      7  C   UNL A   1      35.509  34.008  28.372  1.00  0.00     0.016 A 
ATOM      8  C   UNL A   1      34.135  32.305  29.322  1.00  0.00     0.016 A 
ATOM      9  C   UNL A   1      36.626  33.448  29.004  1.00  0.00     0.010 A 
ATOM     10  C   UNL A   1      35.235  31.764  29.996  1.00  0.00     0.010 A 
ATOM     11  C   UNL A   1      36.496  32.334  29.833  1.00  0.00    -0.014 A 
BRANCH  11  12
ATOM     12  C   UNL A   1      37.701  31.694  30.407  1.00  0.00     0.031 A 
ATOM     13  C   UNL A   1      38.109  32.054  31.804  1.00  0.00     0.074 A 
ATOM     14  C   UNL A   1      38.385  30.768  29.707  1.00  0.00     0.049 A 
ATOM     15  N   UNL A   1      39.077  31.565  32.533  1.00  0.00    -0.248 NA
ATOM     16  C   UNL A   1      37.313  33.094  32.479  1.00  0.00     0.031 C 
ATOM     17  C   UNL A   1      38.055  30.331  28.353  1.00  0.00     0.029 A 
ATOM     18  N   UNL A   1      39.491  30.025  30.030  1.00  0.00    -0.354 N 
ATOM     19  C   UNL A   1      38.984  32.215  33.756  1.00  0.00     0.074 A 
ATOM     20  C   UNL A   1      37.924  33.189  33.648  1.00  0.00     0.031 C 
ATOM     21  C   UNL A   1      38.947  29.412  27.948  1.00  0.00     0.029 A 
ATOM     22  C   UNL A   1      39.909  29.189  29.019  1.00  0.00     0.049 A 
ATOM     23  H   UNL A   1      39.944  30.084  30.902  1.00  0.00     0.167 HD
ATOM     24  C   UNL A   1      39.693  31.986  34.885  1.00  0.00     0.037 A 
ATOM     25  C   UNL A   1      40.951  28.336  28.973  1.00  0.00     0.037 A 
ATOM     26  C   UNL A   1      40.757  31.026  34.973  1.00  0.00     0.049 A 
ATOM     27  C   UNL A   1      41.787  28.172  30.213  1.00  0.00     0.074 A 
ATOM     28  C   UNL A   1      41.554  30.717  36.058  1.00  0.00     0.029 A 
ATOM     29  N   UNL A   1      41.177  30.224  33.920  1.00  0.00    -0.354 N 
ATOM     30  N   UNL A   1      41.652  28.752  31.382  1.00  0.00    -0.248 NA
ATOM     31  C   UNL A   1      42.903  27.220  30.139  1.00  0.00     0.031 C 
ATOM     32  C   UNL A   1      42.489  29.760  35.649  1.00  0.00     0.029 A 
ATOM     33  C   UNL A   1      42.240  29.437  34.322  1.00  0.00     0.049 A 
ATOM     34  H   UNL A   1      40.778  30.218  33.020  1.00  0.00     0.167 HD
ATOM     35  C   UNL A   1      42.638  28.209  32.194  1.00  0.00     0.074 A 
ATOM     36  C   UNL A   1      43.354  27.243  31.385  1.00  0.00     0.031 C 
ATOM     37  C   UNL A   1      42.927  28.479  33.491  1.00  0.00     0.037 A 
BRANCH  24  38
ATOM     38  C   UNL A   1      39.327  32.801  36.088  1.00  0.00     0.057 A 
ATOM     39  C   UNL A   1      39.909  34.053  36.333  1.00  0.00     0.134 A 
ATOM     40  C   UNL A   1      38.412  32.318  37.030  1.00  0.00     0.134 A 
ATOM     41  F   UNL A   1      40.816  34.560  35.483  1.00  0.00    -0.206 F 
ATOM     42  C   UNL A   1      39.616  34.782  37.486  1.00  0.00     0.040 A 
ATOM     43  C   UNL A   1      38.091  33.050  38.175  1.00  0.00     0.040 A 
ATOM     44  F   UNL A   1      37.825  31.125  36.860  1.00  0.00    -0.206 F 
ATOM     45  C   UNL A   1      38.700  34.282  38.409  1.00  0.00     0.006 A 
ENDBRANCH  24  38
BRANCH  25  46
ATOM     46  C   UNL A   1      41.250  27.565  27.738  1.00  0.00     0.057 A 
ATOM     47  C   UNL A   1      42.050  28.095  26.718  1.00  0.00     0.134 A 
ATOM     48  C   UNL A   1      40.710  26.289  27.528  1.00  0.00     0.134 A 
ATOM     49  F   UNL A   1      42.584  29.319  26.846  1.00  0.00    -0.206 F 
ATOM     50  C   UNL A   1      42.275  27.403  25.525  1.00  0.00     0.040 A 
ATOM     51  C   UNL A   1      40.949  25.575  26.352  1.00  0.00     0.040 A 
ATOM     52  F   UNL A   1      39.935  25.721  28.463  1.00  0.00    -0.206 F 
ATOM     53  C   UNL A   1      41.725  26.137  25.341  1.00  0.00     0.006 A 
ENDBRANCH  25  46
BRANCH  37  54
ATOM     54  C   UNL A   1      44.041  27.695  34.114  1.00  0.00     0.057 A 
ATOM     55  C   UNL A   1      45.358  28.171  34.135  1.00  0.00     0.134 A 
ATOM     56  C   UNL A   1      43.784  26.466  34.734  1.00  0.00     0.134 A 
ATOM     57  F   UNL A   1      45.669  29.336  33.546  1.00  0.00    -0.206 F 
ATOM     58  C   UNL A   1      46.385  27.439  34.728  1.00  0.00     0.040 A 
ATOM     59  C   UNL A   1      44.797  25.739  35.357  1.00  0.00     0.040 A 
ATOM     60  F   UNL A   1      42.542  25.960  34.756  1.00  0.00    -0.206 F 
ATOM     61  C   UNL A   1      46.104  26.223  35.349  1.00  0.00     0.006 A 
ENDBRANCH  37  54
ENDBRANCH  11  12
ENDBRANCH   4   6
ENDBRANCH   3   4
ENDBRANCH   2   3
ENDBRANCH   1   2
BRANCH   1  62
ATOM     62  O   UNL A   1      31.395  29.939  25.960  1.00  0.00    -0.458 OA
BRANCH  62  63
ATOM     63  C   UNL A   1      32.227  29.268  25.123  1.00  0.00     0.341 C 
ATOM     64  O   UNL A   1      33.260  29.684  24.625  1.00  0.00    -0.246 OA
BRANCH  63  65
ATOM     65  C   UNL A   1      31.767  27.882  24.982  1.00  0.00     0.098 A 
ATOM     66  C   UNL A   1      32.503  26.837  25.565  1.00  0.00     0.029 A 
ATOM     67  C   UNL A   1      30.626  27.563  24.269  1.00  0.00     0.143 A 
ATOM     68  C   UNL A   1      32.046  25.513  25.472  1.00  0.00     0.001 A 
ATOM     69  N   UNL A   1      30.147  26.304  24.155  1.00  0.00    -0.243 NA
ATOM     70  Cl  UNL A   1      29.682  28.708  23.395  1.00  0.00    -0.061 Cl
ATOM     71  C   UNL A   1      30.850  25.323  24.773  1.00  0.00     0.121 A 
BRANCH  68  72
ATOM     72  C   UNL A   1      32.771  24.366  26.049  1.00  0.00    -0.013 A 
ATOM     73  C   UNL A   1      32.189  23.606  27.074  1.00  0.00     0.009 A 
ATOM     74  C   UNL A   1      34.070  24.014  25.632  1.00  0.00     0.055 A 
ATOM     75  C   UNL A   1      32.876  22.539  27.654  1.00  0.00     0.004 A 
ATOM     76  C   UNL A   1      34.776  22.958  26.217  1.00  0.00     0.130 A 
ATOM     77  C   UNL A   1      34.162  22.219  27.227  1.00  0.00     0.047 A 
BRANCH  76  78
ATOM     78  O   UNL A   1      36.041  22.551  25.905  1.00  0.00    -0.406 OA
BRANCH  78  79
ATOM     79  C   UNL A   1      36.204  21.574  24.891  1.00  0.00     0.573 C 
ATOM     80  F   UNL A   1      37.262  21.862  24.103  1.00  0.00    -0.132 F 
ATOM     81  F   UNL A   1      36.369  20.342  25.420  1.00  0.00    -0.132 F 
ATOM     82  F   UNL A   1      35.095  21.556  24.119  1.00  0.00    -0.132 F 
ENDBRANCH  78  79
ENDBRANCH  76  78
ENDBRANCH  68  72
ENDBRANCH  63  65
ENDBRANCH  62  63
ENDBRANCH   1  62
TORSDOF 14
ENDMDL
