MODEL 1
REMARK VINA RESULT:     -10.5      0.000      0.000
REMARK SMILES CC(C)(O)CCOc1ccc(C(=O)OCCOC(=O)c2ccc(-c3c4nc(c(-c5c(F)cccc5F)c5ccc([nH]5)c(-c5c(F)cccc5F)c5nc(c(-c6c(F)cccc6F)c6ccc3[nH]6)C=C5)C=C4)cc2)cc1
REMARK SMILES IDX 14 1 12 2 13 3 11 4 8 5 9 6 75 7 10 8 74 9 7 10 6 11 5 12
REMARK SMILES IDX 2 13 1 14 3 15 4 16 15 18 16 19 17 20 18 21 19 22 20 23
REMARK SMILES IDX 21 24 73 25 22 26 72 27 23 28 24 29 25 30 66 31 26 32 71 33
REMARK SMILES IDX 65 34 67 35 27 36 70 37 64 38 63 39 28 41 54 42 37 43 53 44
REMARK SMILES IDX 38 45 41 46 52 47 68 48 39 49 40 50 51 52 69 53 42 54 29 55
REMARK SMILES IDX 30 56 35 57 31 58 32 59 34 60 36 61 33 62 55 63 56 64 61 65
REMARK SMILES IDX 57 66 58 67 60 68 62 69 59 70 43 71 44 72 49 73 45 74 46 75
REMARK SMILES IDX 48 76 50 77 47 78
REMARK H PARENT 4 17 67 40 41 51
REMARK Flexibility Score: inf
ROOT
ATOM      1  O   UNL A   1      41.022  21.148  26.415  1.00  0.00    -0.458 OA
ENDROOT
BRANCH   1   2
ATOM      2  C   UNL A   1      39.998  20.406  25.938  1.00  0.00     0.338 C 
ATOM      3  O   UNL A   1      40.018  19.221  25.634  1.00  0.00    -0.246 OA
BRANCH   2   4
ATOM      4  C   UNL A   1      38.797  21.232  25.750  1.00  0.00     0.060 A 
ATOM      5  C   UNL A   1      36.459  22.691  25.358  1.00  0.00     0.119 A 
ATOM      6  C   UNL A   1      37.531  23.267  26.044  1.00  0.00     0.047 A 
ATOM      7  C   UNL A   1      36.504  21.339  25.022  1.00  0.00     0.047 A 
ATOM      8  C   UNL A   1      38.723  22.557  26.190  1.00  0.00     0.019 A 
ATOM      9  C   UNL A   1      37.676  20.609  25.208  1.00  0.00     0.019 A 
BRANCH   5  10
ATOM     10  O   UNL A   1      35.484  23.568  24.972  1.00  0.00    -0.493 OA
BRANCH  10  11
ATOM     11  C   UNL A   1      34.671  24.141  26.003  1.00  0.00     0.232 C 
BRANCH  11  12
ATOM     12  C   UNL A   1      33.144  24.114  25.758  1.00  0.00     0.076 C 
BRANCH  12  13
ATOM     13  C   UNL A   1      32.262  23.191  26.635  1.00  0.00     0.062 C 
ATOM     14  C   UNL A   1      33.075  22.433  27.694  1.00  0.00     0.042 C 
ATOM     15  C   UNL A   1      31.545  22.139  25.778  1.00  0.00     0.042 C 
BRANCH  13  16
ATOM     16  O   UNL A   1      31.218  23.961  27.227  1.00  0.00    -0.390 OA
ATOM     17  H   UNL A   1      31.497  24.887  27.296  1.00  0.00     0.211 HD
ENDBRANCH  13  16
ENDBRANCH  12  13
ENDBRANCH  11  12
ENDBRANCH  10  11
ENDBRANCH   5  10
ENDBRANCH   2   4
ENDBRANCH   1   2
BRANCH   1  18
ATOM     18  C   UNL A   1      42.325  20.555  26.244  1.00  0.00     0.275 C 
BRANCH  18  19
ATOM     19  C   UNL A   1      43.321  21.533  25.620  1.00  0.00     0.275 C 
BRANCH  19  20
ATOM     20  O   UNL A   1      42.647  22.662  25.038  1.00  0.00    -0.458 OA
BRANCH  20  21
ATOM     21  C   UNL A   1      43.342  23.818  25.117  1.00  0.00     0.338 C 
ATOM     22  O   UNL A   1      44.376  24.105  24.538  1.00  0.00    -0.246 OA
BRANCH  21  23
ATOM     23  C   UNL A   1      42.635  24.807  25.937  1.00  0.00     0.060 A 
ATOM     24  C   UNL A   1      43.163  26.093  25.993  1.00  0.00     0.016 A 
ATOM     25  C   UNL A   1      41.663  24.409  26.849  1.00  0.00     0.016 A 
ATOM     26  C   UNL A   1      42.858  26.925  27.055  1.00  0.00     0.010 A 
ATOM     27  C   UNL A   1      41.240  25.312  27.832  1.00  0.00     0.010 A 
ATOM     28  C   UNL A   1      41.871  26.562  27.977  1.00  0.00    -0.014 A 
BRANCH  28  29
ATOM     29  C   UNL A   1      41.539  27.487  29.094  1.00  0.00     0.031 A 
ATOM     30  C   UNL A   1      42.360  27.482  30.355  1.00  0.00     0.074 A 
ATOM     31  C   UNL A   1      40.516  28.357  28.963  1.00  0.00     0.049 A 
ATOM     32  N   UNL A   1      42.126  28.076  31.499  1.00  0.00    -0.248 NA
ATOM     33  C   UNL A   1      43.602  26.692  30.338  1.00  0.00     0.031 C 
ATOM     34  C   UNL A   1      39.679  28.511  27.771  1.00  0.00     0.029 A 
ATOM     35  N   UNL A   1      40.012  29.287  29.838  1.00  0.00    -0.354 N 
ATOM     36  C   UNL A   1      43.153  27.684  32.349  1.00  0.00     0.074 A 
ATOM     37  C   UNL A   1      44.008  26.794  31.595  1.00  0.00     0.031 C 
ATOM     38  C   UNL A   1      38.801  29.502  27.969  1.00  0.00     0.029 A 
ATOM     39  C   UNL A   1      38.931  29.974  29.340  1.00  0.00     0.049 A 
ATOM     40  H   UNL A   1      40.387  29.446  30.733  1.00  0.00     0.167 HD
ATOM     41  C   UNL A   1      43.356  28.036  33.642  1.00  0.00     0.037 A 
ATOM     42  C   UNL A   1      38.094  30.843  29.934  1.00  0.00     0.037 A 
ATOM     43  C   UNL A   1      42.520  28.963  34.364  1.00  0.00     0.049 A 
ATOM     44  C   UNL A   1      38.307  31.172  31.382  1.00  0.00     0.074 A 
ATOM     45  C   UNL A   1      42.643  29.398  35.672  1.00  0.00     0.029 A 
ATOM     46  N   UNL A   1      41.411  29.606  33.831  1.00  0.00    -0.354 N 
ATOM     47  N   UNL A   1      39.246  30.753  32.195  1.00  0.00    -0.248 NA
ATOM     48  C   UNL A   1      37.333  32.080  32.001  1.00  0.00     0.031 C 
ATOM     49  C   UNL A   1      41.578  30.263  35.946  1.00  0.00     0.029 A 
ATOM     50  C   UNL A   1      40.828  30.417  34.792  1.00  0.00     0.049 A 
ATOM     51  H   UNL A   1      41.086  29.501  32.908  1.00  0.00     0.167 HD
ATOM     52  C   UNL A   1      38.992  31.364  33.415  1.00  0.00     0.074 A 
ATOM     53  C   UNL A   1      37.820  32.195  33.228  1.00  0.00     0.031 C 
ATOM     54  C   UNL A   1      39.667  31.245  34.584  1.00  0.00     0.037 A 
BRANCH  41  55
ATOM     55  C   UNL A   1      44.497  27.386  34.373  1.00  0.00     0.057 A 
ATOM     56  C   UNL A   1      44.386  26.129  34.981  1.00  0.00     0.134 A 
ATOM     57  C   UNL A   1      45.744  28.023  34.443  1.00  0.00     0.134 A 
ATOM     58  F   UNL A   1      43.219  25.467  34.965  1.00  0.00    -0.206 F 
ATOM     59  C   UNL A   1      45.461  25.543  35.652  1.00  0.00     0.040 A 
ATOM     60  C   UNL A   1      46.836  27.434  35.084  1.00  0.00     0.040 A 
ATOM     61  F   UNL A   1      45.927  29.226  33.878  1.00  0.00    -0.206 F 
ATOM     62  C   UNL A   1      46.693  26.193  35.699  1.00  0.00     0.006 A 
ENDBRANCH  41  55
BRANCH  42  63
ATOM     63  C   UNL A   1      36.952  31.414  29.174  1.00  0.00     0.057 A 
ATOM     64  C   UNL A   1      36.970  32.737  28.721  1.00  0.00     0.134 A 
ATOM     65  C   UNL A   1      35.817  30.647  28.876  1.00  0.00     0.134 A 
ATOM     66  F   UNL A   1      38.018  33.529  28.990  1.00  0.00    -0.206 F 
ATOM     67  C   UNL A   1      35.897  33.282  28.012  1.00  0.00     0.040 A 
ATOM     68  C   UNL A   1      34.752  31.168  28.139  1.00  0.00     0.040 A 
ATOM     69  F   UNL A   1      35.737  29.369  29.276  1.00  0.00    -0.206 F 
ATOM     70  C   UNL A   1      34.788  32.493  27.713  1.00  0.00     0.006 A 
ENDBRANCH  42  63
BRANCH  54  71
ATOM     71  C   UNL A   1      39.182  32.077  35.734  1.00  0.00     0.057 A 
ATOM     72  C   UNL A   1      38.307  31.571  36.703  1.00  0.00     0.134 A 
ATOM     73  C   UNL A   1      39.617  33.401  35.883  1.00  0.00     0.134 A 
ATOM     74  F   UNL A   1      37.840  30.316  36.610  1.00  0.00    -0.206 F 
ATOM     75  C   UNL A   1      37.860  32.359  37.764  1.00  0.00     0.040 A 
ATOM     76  C   UNL A   1      39.202  34.188  36.955  1.00  0.00     0.040 A 
ATOM     77  F   UNL A   1      40.461  33.944  34.994  1.00  0.00    -0.206 F 
ATOM     78  C   UNL A   1      38.313  33.671  37.895  1.00  0.00     0.006 A 
ENDBRANCH  54  71
ENDBRANCH  28  29
ENDBRANCH  21  23
ENDBRANCH  20  21
ENDBRANCH  19  20
ENDBRANCH  18  19
ENDBRANCH   1  18
TORSDOF 16
ENDMDL
MODEL 2
REMARK VINA RESULT:     -10.5      1.286      2.020
REMARK SMILES CC(C)(O)CCOc1ccc(C(=O)OCCOC(=O)c2ccc(-c3c4nc(c(-c5c(F)cccc5F)c5ccc([nH]5)c(-c5c(F)cccc5F)c5nc(c(-c6c(F)cccc6F)c6ccc3[nH]6)C=C5)C=C4)cc2)cc1
REMARK SMILES IDX 14 1 12 2 13 3 11 4 8 5 9 6 75 7 10 8 74 9 7 10 6 11 5 12
REMARK SMILES IDX 2 13 1 14 3 15 4 16 15 18 16 19 17 20 18 21 19 22 20 23
REMARK SMILES IDX 21 24 73 25 22 26 72 27 23 28 24 29 25 30 66 31 26 32 71 33
REMARK SMILES IDX 65 34 67 35 27 36 70 37 64 38 63 39 28 41 54 42 37 43 53 44
REMARK SMILES IDX 38 45 41 46 52 47 68 48 39 49 40 50 51 52 69 53 42 54 29 55
REMARK SMILES IDX 30 56 35 57 31 58 32 59 34 60 36 61 33 62 55 63 56 64 61 65
REMARK SMILES IDX 57 66 58 67 60 68 62 69 59 70 43 71 44 72 49 73 45 74 46 75
REMARK SMILES IDX 48 76 50 77 47 78
REMARK H PARENT 4 17 67 40 41 51
REMARK Flexibility Score: inf
ROOT
ATOM      1  O   UNL A   1      41.145  21.121  26.332  1.00  0.00    -0.458 OA
ENDROOT
BRANCH   1   2
ATOM      2  C   UNL A   1      40.419  20.066  25.899  1.00  0.00     0.338 C 
ATOM      3  O   UNL A   1      40.814  18.927  25.693  1.00  0.00    -0.246 OA
BRANCH   2   4
ATOM      4  C   UNL A   1      39.033  20.465  25.620  1.00  0.00     0.060 A 
ATOM      5  C   UNL A   1      36.376  21.098  25.077  1.00  0.00     0.119 A 
ATOM      6  C   UNL A   1      37.223  22.064  25.627  1.00  0.00     0.047 A 
ATOM      7  C   UNL A   1      36.820  19.782  24.959  1.00  0.00     0.047 A 
ATOM      8  C   UNL A   1      38.568  21.765  25.846  1.00  0.00     0.019 A 
ATOM      9  C   UNL A   1      38.151  19.464  25.221  1.00  0.00     0.019 A 
BRANCH   5  10
ATOM     10  O   UNL A   1      35.194  21.579  24.589  1.00  0.00    -0.493 OA
BRANCH  10  11
ATOM     11  C   UNL A   1      33.993  20.928  25.018  1.00  0.00     0.232 C 
BRANCH  11  12
ATOM     12  C   UNL A   1      33.154  20.248  23.911  1.00  0.00     0.076 C 
BRANCH  12  13
ATOM     13  C   UNL A   1      32.941  18.716  23.968  1.00  0.00     0.062 C 
ATOM     14  C   UNL A   1      34.245  17.950  24.235  1.00  0.00     0.042 C 
ATOM     15  C   UNL A   1      32.371  18.189  22.644  1.00  0.00     0.042 C 
BRANCH  13  16
ATOM     16  O   UNL A   1      31.947  18.414  24.945  1.00  0.00    -0.390 OA
ATOM     17  H   UNL A   1      32.337  18.465  25.831  1.00  0.00     0.211 HD
ENDBRANCH  13  16
ENDBRANCH  12  13
ENDBRANCH  11  12
ENDBRANCH  10  11
ENDBRANCH   5  10
ENDBRANCH   2   4
ENDBRANCH   1   2
BRANCH   1  18
ATOM     18  C   UNL A   1      42.545  20.842  26.540  1.00  0.00     0.275 C 
BRANCH  18  19
ATOM     19  C   UNL A   1      43.429  21.569  25.527  1.00  0.00     0.275 C 
BRANCH  19  20
ATOM     20  O   UNL A   1      42.746  22.698  24.954  1.00  0.00    -0.458 OA
BRANCH  20  21
ATOM     21  C   UNL A   1      43.431  23.859  25.047  1.00  0.00     0.338 C 
ATOM     22  O   UNL A   1      44.462  24.163  24.471  1.00  0.00    -0.246 OA
BRANCH  21  23
ATOM     23  C   UNL A   1      42.715  24.832  25.880  1.00  0.00     0.060 A 
ATOM     24  C   UNL A   1      43.212  26.130  25.925  1.00  0.00     0.016 A 
ATOM     25  C   UNL A   1      41.772  24.411  26.811  1.00  0.00     0.016 A 
ATOM     26  C   UNL A   1      42.908  26.956  26.992  1.00  0.00     0.010 A 
ATOM     27  C   UNL A   1      41.346  25.304  27.802  1.00  0.00     0.010 A 
ATOM     28  C   UNL A   1      41.948  26.569  27.933  1.00  0.00    -0.014 A 
BRANCH  28  29
ATOM     29  C   UNL A   1      41.615  27.487  29.056  1.00  0.00     0.031 A 
ATOM     30  C   UNL A   1      42.437  27.477  30.316  1.00  0.00     0.074 A 
ATOM     31  C   UNL A   1      40.590  28.355  28.931  1.00  0.00     0.049 A 
ATOM     32  N   UNL A   1      42.203  28.064  31.463  1.00  0.00    -0.248 NA
ATOM     33  C   UNL A   1      43.681  26.691  30.293  1.00  0.00     0.031 C 
ATOM     34  C   UNL A   1      39.750  28.514  27.740  1.00  0.00     0.029 A 
ATOM     35  N   UNL A   1      40.084  29.279  29.811  1.00  0.00    -0.354 N 
ATOM     36  C   UNL A   1      43.232  27.670  32.310  1.00  0.00     0.074 A 
ATOM     37  C   UNL A   1      44.089  26.786  31.550  1.00  0.00     0.031 C 
ATOM     38  C   UNL A   1      38.871  29.502  27.945  1.00  0.00     0.029 A 
ATOM     39  C   UNL A   1      39.001  29.967  29.319  1.00  0.00     0.049 A 
ATOM     40  H   UNL A   1      40.460  29.434  30.707  1.00  0.00     0.167 HD
ATOM     41  C   UNL A   1      43.435  28.015  33.605  1.00  0.00     0.037 A 
ATOM     42  C   UNL A   1      38.162  30.830  29.918  1.00  0.00     0.037 A 
ATOM     43  C   UNL A   1      42.598  28.936  34.333  1.00  0.00     0.049 A 
ATOM     44  C   UNL A   1      38.376  31.151  31.368  1.00  0.00     0.074 A 
ATOM     45  C   UNL A   1      42.720  29.363  35.643  1.00  0.00     0.029 A 
ATOM     46  N   UNL A   1      41.486  29.579  33.805  1.00  0.00    -0.354 N 
ATOM     47  N   UNL A   1      39.316  30.730  32.178  1.00  0.00    -0.248 NA
ATOM     48  C   UNL A   1      37.400  32.053  31.993  1.00  0.00     0.031 C 
ATOM     49  C   UNL A   1      41.654  30.224  35.924  1.00  0.00     0.029 A 
ATOM     50  C   UNL A   1      40.903  30.383  34.771  1.00  0.00     0.049 A 
ATOM     51  H   UNL A   1      41.161  29.479  32.881  1.00  0.00     0.167 HD
ATOM     52  C   UNL A   1      39.063  31.333  33.401  1.00  0.00     0.074 A 
ATOM     53  C   UNL A   1      37.889  32.162  33.220  1.00  0.00     0.031 C 
ATOM     54  C   UNL A   1      39.739  31.209  34.569  1.00  0.00     0.037 A 
BRANCH  41  55
ATOM     55  C   UNL A   1      44.578  27.364  34.331  1.00  0.00     0.057 A 
ATOM     56  C   UNL A   1      45.848  27.951  34.421  1.00  0.00     0.134 A 
ATOM     57  C   UNL A   1      44.394  26.135  34.980  1.00  0.00     0.134 A 
ATOM     58  F   UNL A   1      46.100  29.121  33.814  1.00  0.00    -0.206 F 
ATOM     59  C   UNL A   1      46.895  27.329  35.104  1.00  0.00     0.040 A 
ATOM     60  C   UNL A   1      45.424  25.517  35.692  1.00  0.00     0.040 A 
ATOM     61  F   UNL A   1      43.204  25.516  34.942  1.00  0.00    -0.206 F 
ATOM     62  C   UNL A   1      46.683  26.111  35.748  1.00  0.00     0.006 A 
ENDBRANCH  41  55
BRANCH  42  63
ATOM     63  C   UNL A   1      37.018  31.402  29.163  1.00  0.00     0.057 A 
ATOM     64  C   UNL A   1      35.869  30.647  28.904  1.00  0.00     0.134 A 
ATOM     65  C   UNL A   1      37.042  32.720  28.687  1.00  0.00     0.134 A 
ATOM     66  F   UNL A   1      35.791  29.373  29.316  1.00  0.00    -0.206 F 
ATOM     67  C   UNL A   1      34.793  31.176  28.189  1.00  0.00     0.040 A 
ATOM     68  C   UNL A   1      35.961  33.273  28.000  1.00  0.00     0.040 A 
ATOM     69  F   UNL A   1      38.112  33.501  28.905  1.00  0.00    -0.206 F 
ATOM     70  C   UNL A   1      34.835  32.495  27.742  1.00  0.00     0.006 A 
ENDBRANCH  42  63
BRANCH  54  71
ATOM     71  C   UNL A   1      39.253  32.034  35.724  1.00  0.00     0.057 A 
ATOM     72  C   UNL A   1      38.328  31.542  36.653  1.00  0.00     0.134 A 
ATOM     73  C   UNL A   1      39.738  33.334  35.919  1.00  0.00     0.134 A 
ATOM     74  F   UNL A   1      37.812  30.310  36.514  1.00  0.00    -0.206 F 
ATOM     75  C   UNL A   1      37.880  32.323  37.719  1.00  0.00     0.040 A 
ATOM     76  C   UNL A   1      39.323  34.113  36.998  1.00  0.00     0.040 A 
ATOM     77  F   UNL A   1      40.632  33.862  35.070  1.00  0.00    -0.206 F 
ATOM     78  C   UNL A   1      38.384  33.611  37.897  1.00  0.00     0.006 A 
ENDBRANCH  54  71
ENDBRANCH  28  29
ENDBRANCH  21  23
ENDBRANCH  20  21
ENDBRANCH  19  20
ENDBRANCH  18  19
ENDBRANCH   1  18
TORSDOF 16
ENDMDL
MODEL 3
REMARK VINA RESULT:     -10.3      4.936     10.168
REMARK SMILES CC(C)(O)CCOc1ccc(C(=O)OCCOC(=O)c2ccc(-c3c4nc(c(-c5c(F)cccc5F)c5ccc([nH]5)c(-c5c(F)cccc5F)c5nc(c(-c6c(F)cccc6F)c6ccc3[nH]6)C=C5)C=C4)cc2)cc1
REMARK SMILES IDX 14 1 12 2 13 3 11 4 8 5 9 6 75 7 10 8 74 9 7 10 6 11 5 12
REMARK SMILES IDX 2 13 1 14 3 15 4 16 15 18 16 19 17 20 18 21 19 22 20 23
REMARK SMILES IDX 21 24 73 25 22 26 72 27 23 28 24 29 25 30 66 31 26 32 71 33
REMARK SMILES IDX 65 34 67 35 27 36 70 37 64 38 63 39 28 41 54 42 37 43 53 44
REMARK SMILES IDX 38 45 41 46 52 47 68 48 39 49 40 50 51 52 69 53 42 54 29 55
REMARK SMILES IDX 30 56 35 57 31 58 32 59 34 60 36 61 33 62 55 63 56 64 61 65
REMARK SMILES IDX 57 66 58 67 60 68 62 69 59 70 43 71 44 72 49 73 45 74 46 75
REMARK SMILES IDX 48 76 50 77 47 78
REMARK H PARENT 4 17 67 40 41 51
REMARK Flexibility Score: inf
ROOT
ATOM      1  O   UNL A   1      33.700  33.144  29.122  1.00  0.00    -0.458 OA
ENDROOT
BRANCH   1   2
ATOM      2  C   UNL A   1      34.447  32.681  28.095  1.00  0.00     0.338 C 
ATOM      3  O   UNL A   1      35.375  33.250  27.536  1.00  0.00    -0.246 OA
BRANCH   2   4
ATOM      4  C   UNL A   1      33.963  31.368  27.646  1.00  0.00     0.060 A 
ATOM      5  C   UNL A   1      33.154  28.830  26.837  1.00  0.00     0.119 A 
ATOM      6  C   UNL A   1      32.220  29.866  26.911  1.00  0.00     0.047 A 
ATOM      7  C   UNL A   1      34.444  29.030  27.327  1.00  0.00     0.047 A 
ATOM      8  C   UNL A   1      32.636  31.151  27.261  1.00  0.00     0.019 A 
ATOM      9  C   UNL A   1      34.855  30.301  27.723  1.00  0.00     0.019 A 
BRANCH   5  10
ATOM     10  O   UNL A   1      32.728  27.718  26.168  1.00  0.00    -0.493 OA
BRANCH  10  11
ATOM     11  C   UNL A   1      31.688  27.893  25.198  1.00  0.00     0.232 C 
BRANCH  11  12
ATOM     12  C   UNL A   1      31.402  26.681  24.281  1.00  0.00     0.076 C 
BRANCH  12  13
ATOM     13  C   UNL A   1      30.053  25.935  24.426  1.00  0.00     0.062 C 
ATOM     14  C   UNL A   1      28.871  26.746  23.877  1.00  0.00     0.042 C 
ATOM     15  C   UNL A   1      29.748  25.631  25.899  1.00  0.00     0.042 C 
BRANCH  13  16
ATOM     16  O   UNL A   1      30.151  24.659  23.796  1.00  0.00    -0.390 OA
ATOM     17  H   UNL A   1      31.053  24.528  23.467  1.00  0.00     0.211 HD
ENDBRANCH  13  16
ENDBRANCH  12  13
ENDBRANCH  11  12
ENDBRANCH  10  11
ENDBRANCH   5  10
ENDBRANCH   2   4
ENDBRANCH   1   2
BRANCH   1  18
ATOM     18  C   UNL A   1      34.350  34.141  29.937  1.00  0.00     0.275 C 
BRANCH  18  19
ATOM     19  C   UNL A   1      34.321  33.773  31.420  1.00  0.00     0.275 C 
BRANCH  19  20
ATOM     20  O   UNL A   1      34.568  32.369  31.615  1.00  0.00    -0.458 OA
BRANCH  20  21
ATOM     21  C   UNL A   1      35.673  32.102  32.345  1.00  0.00     0.338 C 
ATOM     22  O   UNL A   1      35.874  32.374  33.517  1.00  0.00    -0.246 OA
BRANCH  21  23
ATOM     23  C   UNL A   1      36.635  31.303  31.579  1.00  0.00     0.060 A 
ATOM     24  C   UNL A   1      37.479  30.456  32.289  1.00  0.00     0.016 A 
ATOM     25  C   UNL A   1      36.899  31.597  30.245  1.00  0.00     0.016 A 
ATOM     26  C   UNL A   1      38.676  30.039  31.734  1.00  0.00     0.010 A 
ATOM     27  C   UNL A   1      38.032  31.044  29.637  1.00  0.00     0.010 A 
ATOM     28  C   UNL A   1      38.960  30.301  30.390  1.00  0.00    -0.014 A 
BRANCH  28  29
ATOM     29  C   UNL A   1      40.240  29.817  29.806  1.00  0.00     0.031 A 
ATOM     30  C   UNL A   1      41.425  30.739  29.700  1.00  0.00     0.074 A 
ATOM     31  C   UNL A   1      40.350  28.535  29.400  1.00  0.00     0.049 A 
ATOM     32  N   UNL A   1      42.557  30.563  29.066  1.00  0.00    -0.248 NA
ATOM     33  C   UNL A   1      41.320  32.039  30.382  1.00  0.00     0.031 C 
ATOM     34  C   UNL A   1      39.300  27.518  29.504  1.00  0.00     0.029 A 
ATOM     35  N   UNL A   1      41.400  27.862  28.828  1.00  0.00    -0.354 N 
ATOM     36  C   UNL A   1      43.269  31.747  29.221  1.00  0.00     0.074 A 
ATOM     37  C   UNL A   1      42.439  32.638  30.002  1.00  0.00     0.031 C 
ATOM     38  C   UNL A   1      39.771  26.346  29.058  1.00  0.00     0.029 A 
ATOM     39  C   UNL A   1      41.111  26.553  28.527  1.00  0.00     0.049 A 
ATOM     40  H   UNL A   1      42.275  28.276  28.649  1.00  0.00     0.167 HD
ATOM     41  C   UNL A   1      44.501  32.057  28.750  1.00  0.00     0.037 A 
ATOM     42  C   UNL A   1      41.814  25.632  27.845  1.00  0.00     0.037 A 
ATOM     43  C   UNL A   1      45.335  31.139  28.015  1.00  0.00     0.049 A 
ATOM     44  C   UNL A   1      43.152  26.018  27.285  1.00  0.00     0.074 A 
ATOM     45  C   UNL A   1      46.603  31.346  27.502  1.00  0.00     0.029 A 
ATOM     46  N   UNL A   1      44.984  29.833  27.699  1.00  0.00    -0.354 N 
ATOM     47  N   UNL A   1      43.792  27.157  27.387  1.00  0.00    -0.248 NA
ATOM     48  C   UNL A   1      43.855  24.997  26.498  1.00  0.00     0.031 C 
ATOM     49  C   UNL A   1      46.998  30.184  26.831  1.00  0.00     0.029 A 
ATOM     50  C   UNL A   1      46.004  29.232  26.979  1.00  0.00     0.049 A 
ATOM     51  H   UNL A   1      44.137  29.399  27.949  1.00  0.00     0.167 HD
ATOM     52  C   UNL A   1      44.985  26.984  26.700  1.00  0.00     0.074 A 
ATOM     53  C   UNL A   1      44.984  25.624  26.201  1.00  0.00     0.031 C 
ATOM     54  C   UNL A   1      45.989  27.872  26.498  1.00  0.00     0.037 A 
BRANCH  41  55
ATOM     55  C   UNL A   1      45.005  33.455  28.975  1.00  0.00     0.057 A 
ATOM     56  C   UNL A   1      44.717  34.510  28.099  1.00  0.00     0.134 A 
ATOM     57  C   UNL A   1      45.770  33.755  30.111  1.00  0.00     0.134 A 
ATOM     58  F   UNL A   1      44.001  34.294  26.986  1.00  0.00    -0.206 F 
ATOM     59  C   UNL A   1      45.194  35.803  28.330  1.00  0.00     0.040 A 
ATOM     60  C   UNL A   1      46.227  35.049  30.369  1.00  0.00     0.040 A 
ATOM     61  F   UNL A   1      46.079  32.796  30.997  1.00  0.00    -0.206 F 
ATOM     62  C   UNL A   1      45.946  36.076  29.472  1.00  0.00     0.006 A 
ENDBRANCH  41  55
BRANCH  42  63
ATOM     63  C   UNL A   1      41.242  24.282  27.610  1.00  0.00     0.057 A 
ATOM     64  C   UNL A   1      41.696  23.166  28.321  1.00  0.00     0.134 A 
ATOM     65  C   UNL A   1      40.220  24.074  26.673  1.00  0.00     0.134 A 
ATOM     66  F   UNL A   1      42.685  23.294  29.218  1.00  0.00    -0.206 F 
ATOM     67  C   UNL A   1      41.167  21.893  28.100  1.00  0.00     0.040 A 
ATOM     68  C   UNL A   1      39.658  22.813  26.467  1.00  0.00     0.040 A 
ATOM     69  F   UNL A   1      39.734  25.101  25.961  1.00  0.00    -0.206 F 
ATOM     70  C   UNL A   1      40.139  21.717  27.176  1.00  0.00     0.006 A 
ENDBRANCH  42  63
BRANCH  54  71
ATOM     71  C   UNL A   1      47.191  27.378  25.750  1.00  0.00     0.057 A 
ATOM     72  C   UNL A   1      47.347  27.580  24.374  1.00  0.00     0.134 A 
ATOM     73  C   UNL A   1      48.219  26.708  26.427  1.00  0.00     0.134 A 
ATOM     74  F   UNL A   1      46.392  28.200  23.664  1.00  0.00    -0.206 F 
ATOM     75  C   UNL A   1      48.469  27.108  23.691  1.00  0.00     0.040 A 
ATOM     76  C   UNL A   1      49.359  26.259  25.762  1.00  0.00     0.040 A 
ATOM     77  F   UNL A   1      48.135  26.488  27.748  1.00  0.00    -0.206 F 
ATOM     78  C   UNL A   1      49.482  26.451  24.387  1.00  0.00     0.006 A 
ENDBRANCH  54  71
ENDBRANCH  28  29
ENDBRANCH  21  23
ENDBRANCH  20  21
ENDBRANCH  19  20
ENDBRANCH  18  19
ENDBRANCH   1  18
TORSDOF 16
ENDMDL
