MODEL 1
REMARK VINA RESULT:     -11.0      0.000      0.000
REMARK SMILES CSCC[C@H](NC(=O)N[C@@H]1CCCCC1(C)C)C(=O)OCCOC(=O)c1ccc(-c2c3nc(c(-c4c(F)cccc4F)c4ccc([nH]4)c(-c4c(F)cccc4F)c4nc(c(-c5c(F)cccc5F)c5ccc2[nH]5)C=C4)C=C3)cc1
REMARK SMILES IDX 21 1 20 2 18 3 19 4 5 5 4 6 3 7 2 8 1 9 6 10 7 11 8 13 9 14
REMARK SMILES IDX 10 16 11 17 15 18 12 19 14 20 16 21 17 22 13 23 22 24 23 25
REMARK SMILES IDX 24 26 25 27 26 28 27 29 79 30 28 31 78 32 29 33 30 34 31 35
REMARK SMILES IDX 72 36 32 37 77 38 71 39 73 40 33 41 76 42 70 43 69 44 34 46
REMARK SMILES IDX 60 47 43 48 59 49 44 50 47 51 58 52 74 53 45 54 46 55 57 57
REMARK SMILES IDX 75 58 48 59 35 60 36 61 41 62 37 63 38 64 40 65 42 66 39 67
REMARK SMILES IDX 61 68 62 69 67 70 63 71 64 72 66 73 68 74 65 75 49 76 50 77
REMARK SMILES IDX 55 78 51 79 52 80 54 81 56 82 53 83
REMARK H PARENT 6 12 9 15 73 45 47 56
REMARK Flexibility Score: inf
ROOT
ATOM      1  C   UNL A   1      32.236  27.653  26.660  1.00  0.00     0.274 C 
ENDROOT
BRANCH   1   2
ATOM      2  O   UNL A   1      31.183  26.668  26.972  1.00  0.00    -0.461 OA
BRANCH   2   3
ATOM      3  C   UNL A   1      30.912  25.675  26.056  1.00  0.00     0.328 C 
ATOM      4  O   UNL A   1      30.371  24.627  26.412  1.00  0.00    -0.250 OA
BRANCH   3   5
ATOM      5  C   UNL A   1      31.034  26.072  24.446  1.00  0.00     0.194 C 
BRANCH   5   6
ATOM      6  C   UNL A   1      29.590  26.123  23.873  1.00  0.00     0.048 C 
BRANCH   6   7
ATOM      7  C   UNL A   1      29.045  27.506  23.501  1.00  0.00     0.072 C 
BRANCH   7   8
ATOM      8  S   UNL A   1      30.381  28.695  23.140  1.00  0.00    -0.165 SA
ATOM      9  C   UNL A   1      29.527  29.814  22.002  1.00  0.00     0.085 C 
ENDBRANCH   7   8
ENDBRANCH   6   7
ENDBRANCH   5   6
BRANCH   5  10
ATOM     10  N   UNL A   1      32.054  25.641  23.331  1.00  0.00    -0.325 N 
ATOM     11  C   UNL A   1      33.188  24.950  23.018  1.00  0.00     0.315 C 
ATOM     12  H   UNL A   1      31.736  26.047  22.493  1.00  0.00     0.166 HD
ATOM     13  O   UNL A   1      33.653  25.220  21.900  1.00  0.00    -0.249 OA
ATOM     14  N   UNL A   1      33.913  24.008  23.683  1.00  0.00    -0.335 N 
ATOM     15  H   UNL A   1      34.755  23.842  23.201  1.00  0.00     0.165 HD
BRANCH  14  16
ATOM     16  C   UNL A   1      33.857  23.117  24.937  1.00  0.00     0.089 C 
ATOM     17  C   UNL A   1      34.725  23.610  26.117  1.00  0.00     0.025 C 
ATOM     18  C   UNL A   1      34.212  21.757  24.426  1.00  0.00    -0.015 C 
ATOM     19  C   UNL A   1      36.141  23.997  25.751  1.00  0.00     0.002 C 
ATOM     20  C   UNL A   1      35.754  22.053  24.114  1.00  0.00     0.008 C 
ATOM     21  C   UNL A   1      34.267  20.352  25.001  1.00  0.00     0.013 C 
ATOM     22  C   UNL A   1      32.854  21.475  23.626  1.00  0.00     0.013 C 
ATOM     23  C   UNL A   1      36.558  23.329  24.476  1.00  0.00     0.001 C 
ENDBRANCH  14  16
ENDBRANCH   5  10
ENDBRANCH   3   5
ENDBRANCH   2   3
ENDBRANCH   1   2
BRANCH   1  24
ATOM     24  C   UNL A   1      31.747  29.158  26.627  1.00  0.00     0.275 C 
BRANCH  24  25
ATOM     25  O   UNL A   1      32.753  30.112  26.131  1.00  0.00    -0.458 OA
BRANCH  25  26
ATOM     26  C   UNL A   1      33.069  31.198  26.935  1.00  0.00     0.338 C 
ATOM     27  O   UNL A   1      32.313  32.093  27.215  1.00  0.00    -0.246 OA
BRANCH  26  28
ATOM     28  C   UNL A   1      34.453  31.069  27.562  1.00  0.00     0.060 A 
ATOM     29  C   UNL A   1      34.922  29.835  27.960  1.00  0.00     0.016 A 
ATOM     30  C   UNL A   1      35.265  32.171  27.880  1.00  0.00     0.016 A 
ATOM     31  C   UNL A   1      35.942  29.736  28.912  1.00  0.00     0.010 A 
ATOM     32  C   UNL A   1      36.482  32.014  28.615  1.00  0.00     0.010 A 
ATOM     33  C   UNL A   1      36.841  30.773  29.159  1.00  0.00    -0.014 A 
BRANCH  33  34
ATOM     34  C   UNL A   1      38.162  30.425  29.811  1.00  0.00     0.031 A 
ATOM     35  C   UNL A   1      39.217  29.554  29.164  1.00  0.00     0.074 A 
ATOM     36  C   UNL A   1      38.449  30.940  31.035  1.00  0.00     0.049 A 
ATOM     37  N   UNL A   1      40.253  28.968  29.721  1.00  0.00    -0.248 NA
ATOM     38  C   UNL A   1      39.121  29.327  27.715  1.00  0.00     0.031 C 
ATOM     39  C   UNL A   1      37.605  31.877  31.791  1.00  0.00     0.029 A 
ATOM     40  N   UNL A   1      39.535  30.772  31.869  1.00  0.00    -0.354 N 
ATOM     41  C   UNL A   1      40.894  28.254  28.713  1.00  0.00     0.074 A 
ATOM     42  C   UNL A   1      40.154  28.517  27.494  1.00  0.00     0.031 C 
ATOM     43  C   UNL A   1      38.230  32.267  32.901  1.00  0.00     0.029 A 
ATOM     44  C   UNL A   1      39.403  31.438  33.068  1.00  0.00     0.049 A 
ATOM     45  H   UNL A   1      40.323  30.230  31.632  1.00  0.00     0.167 HD
ATOM     46  C   UNL A   1      41.979  27.439  28.809  1.00  0.00     0.037 A 
ATOM     47  C   UNL A   1      40.044  31.324  34.245  1.00  0.00     0.037 A 
ATOM     48  C   UNL A   1      42.725  27.206  30.027  1.00  0.00     0.049 A 
ATOM     49  C   UNL A   1      41.134  30.318  34.375  1.00  0.00     0.074 A 
ATOM     50  C   UNL A   1      43.805  26.359  30.237  1.00  0.00     0.029 A 
ATOM     51  N   UNL A   1      42.477  27.829  31.242  1.00  0.00    -0.354 N 
ATOM     52  N   UNL A   1      41.633  29.532  33.456  1.00  0.00    -0.248 NA
ATOM     53  C   UNL A   1      41.723  30.153  35.708  1.00  0.00     0.031 C 
ATOM     54  C   UNL A   1      44.176  26.436  31.585  1.00  0.00     0.029 A 
ATOM     55  C   UNL A   1      43.362  27.367  32.206  1.00  0.00     0.049 A 
ATOM     56  H   UNL A   1      41.775  28.501  31.398  1.00  0.00     0.167 HD
ATOM     57  C   UNL A   1      42.598  28.775  34.096  1.00  0.00     0.074 A 
ATOM     58  C   UNL A   1      42.629  29.214  35.478  1.00  0.00     0.031 C 
ATOM     59  C   UNL A   1      43.383  27.799  33.580  1.00  0.00     0.037 A 
BRANCH  46  60
ATOM     60  C   UNL A   1      42.389  26.660  27.587  1.00  0.00     0.057 A 
ATOM     61  C   UNL A   1      43.331  27.133  26.666  1.00  0.00     0.134 A 
ATOM     62  C   UNL A   1      41.875  25.372  27.372  1.00  0.00     0.134 A 
ATOM     63  F   UNL A   1      43.867  28.354  26.809  1.00  0.00    -0.206 F 
ATOM     64  C   UNL A   1      43.728  26.365  25.567  1.00  0.00     0.040 A 
ATOM     65  C   UNL A   1      42.279  24.588  26.290  1.00  0.00     0.040 A 
ATOM     66  F   UNL A   1      40.984  24.845  28.226  1.00  0.00    -0.206 F 
ATOM     67  C   UNL A   1      43.205  25.086  25.378  1.00  0.00     0.006 A 
ENDBRANCH  46  60
BRANCH  47  68
ATOM     68  C   UNL A   1      39.550  32.094  35.418  1.00  0.00     0.057 A 
ATOM     69  C   UNL A   1      38.553  31.586  36.253  1.00  0.00     0.134 A 
ATOM     70  C   UNL A   1      40.124  33.327  35.771  1.00  0.00     0.134 A 
ATOM     71  F   UNL A   1      37.950  30.426  35.956  1.00  0.00    -0.206 F 
ATOM     72  C   UNL A   1      38.153  32.267  37.405  1.00  0.00     0.040 A 
ATOM     73  C   UNL A   1      39.761  33.998  36.938  1.00  0.00     0.040 A 
ATOM     74  F   UNL A   1      41.096  33.863  35.017  1.00  0.00    -0.206 F 
ATOM     75  C   UNL A   1      38.770  33.468  37.758  1.00  0.00     0.006 A 
ENDBRANCH  47  68
BRANCH  59  76
ATOM     76  C   UNL A   1      44.362  27.171  34.521  1.00  0.00     0.057 A 
ATOM     77  C   UNL A   1      45.637  27.714  34.727  1.00  0.00     0.134 A 
ATOM     78  C   UNL A   1      44.036  25.997  35.211  1.00  0.00     0.134 A 
ATOM     79  F   UNL A   1      46.018  28.821  34.071  1.00  0.00    -0.206 F 
ATOM     80  C   UNL A   1      46.563  27.096  35.569  1.00  0.00     0.040 A 
ATOM     81  C   UNL A   1      44.944  25.383  36.071  1.00  0.00     0.040 A 
ATOM     82  F   UNL A   1      42.833  25.426  35.050  1.00  0.00    -0.206 F 
ATOM     83  C   UNL A   1      46.216  25.929  36.247  1.00  0.00     0.006 A 
ENDBRANCH  59  76
ENDBRANCH  33  34
ENDBRANCH  26  28
ENDBRANCH  25  26
ENDBRANCH  24  25
ENDBRANCH   1  24
TORSDOF 16
ENDMDL
MODEL 2
REMARK VINA RESULT:     -11.0      4.005      8.935
REMARK SMILES CSCC[C@H](NC(=O)N[C@@H]1CCCCC1(C)C)C(=O)OCCOC(=O)c1ccc(-c2c3nc(c(-c4c(F)cccc4F)c4ccc([nH]4)c(-c4c(F)cccc4F)c4nc(c(-c5c(F)cccc5F)c5ccc2[nH]5)C=C4)C=C3)cc1
REMARK SMILES IDX 21 1 20 2 18 3 19 4 5 5 4 6 3 7 2 8 1 9 6 10 7 11 8 13 9 14
REMARK SMILES IDX 10 16 11 17 15 18 12 19 14 20 16 21 17 22 13 23 22 24 23 25
REMARK SMILES IDX 24 26 25 27 26 28 27 29 79 30 28 31 78 32 29 33 30 34 31 35
REMARK SMILES IDX 72 36 32 37 77 38 71 39 73 40 33 41 76 42 70 43 69 44 34 46
REMARK SMILES IDX 60 47 43 48 59 49 44 50 47 51 58 52 74 53 45 54 46 55 57 57
REMARK SMILES IDX 75 58 48 59 35 60 36 61 41 62 37 63 38 64 40 65 42 66 39 67
REMARK SMILES IDX 61 68 62 69 67 70 63 71 64 72 66 73 68 74 65 75 49 76 50 77
REMARK SMILES IDX 55 78 51 79 52 80 54 81 56 82 53 83
REMARK H PARENT 6 12 9 15 73 45 47 56
REMARK Flexibility Score: inf
ROOT
ATOM      1  C   UNL A   1      36.627  22.831  23.459  1.00  0.00     0.274 C 
ENDROOT
BRANCH   1   2
ATOM      2  O   UNL A   1      35.504  23.724  23.801  1.00  0.00    -0.461 OA
BRANCH   2   3
ATOM      3  C   UNL A   1      34.230  23.365  23.417  1.00  0.00     0.328 C 
ATOM      4  O   UNL A   1      33.909  23.376  22.228  1.00  0.00    -0.250 OA
BRANCH   3   5
ATOM      5  C   UNL A   1      33.275  22.618  24.555  1.00  0.00     0.194 C 
BRANCH   5   6
ATOM      6  C   UNL A   1      32.758  21.295  23.925  1.00  0.00     0.048 C 
BRANCH   6   7
ATOM      7  C   UNL A   1      32.553  20.112  24.877  1.00  0.00     0.072 C 
BRANCH   7   8
ATOM      8  S   UNL A   1      33.512  18.646  24.366  1.00  0.00    -0.165 SA
ATOM      9  C   UNL A   1      32.537  18.096  22.943  1.00  0.00     0.085 C 
ENDBRANCH   7   8
ENDBRANCH   6   7
ENDBRANCH   5   6
BRANCH   5  10
ATOM     10  N   UNL A   1      32.233  23.181  25.587  1.00  0.00    -0.325 N 
ATOM     11  C   UNL A   1      31.656  24.281  26.150  1.00  0.00     0.315 C 
ATOM     12  H   UNL A   1      31.815  22.399  26.013  1.00  0.00     0.166 HD
ATOM     13  O   UNL A   1      31.004  24.040  27.179  1.00  0.00    -0.249 OA
ATOM     14  N   UNL A   1      31.638  25.599  25.805  1.00  0.00    -0.335 N 
ATOM     15  H   UNL A   1      31.235  26.123  26.534  1.00  0.00     0.165 HD
BRANCH  14  16
ATOM     16  C   UNL A   1      32.037  26.542  24.656  1.00  0.00     0.089 C 
ATOM     17  C   UNL A   1      33.506  27.024  24.700  1.00  0.00     0.025 C 
ATOM     18  C   UNL A   1      31.019  27.636  24.720  1.00  0.00    -0.015 C 
ATOM     19  C   UNL A   1      33.973  27.529  26.047  1.00  0.00     0.002 C 
ATOM     20  C   UNL A   1      31.521  28.301  26.087  1.00  0.00     0.008 C 
ATOM     21  C   UNL A   1      30.668  28.853  23.883  1.00  0.00     0.013 C 
ATOM     22  C   UNL A   1      29.772  26.789  24.179  1.00  0.00     0.013 C 
ATOM     23  C   UNL A   1      32.806  27.956  26.885  1.00  0.00     0.001 C 
ENDBRANCH  14  16
ENDBRANCH   5  10
ENDBRANCH   3   5
ENDBRANCH   2   3
ENDBRANCH   1   2
BRANCH   1  24
ATOM     24  C   UNL A   1      36.658  21.467  24.263  1.00  0.00     0.275 C 
BRANCH  24  25
ATOM     25  O   UNL A   1      37.148  21.590  25.645  1.00  0.00    -0.458 OA
BRANCH  25  26
ATOM     26  C   UNL A   1      38.472  21.256  25.896  1.00  0.00     0.338 C 
ATOM     27  O   UNL A   1      39.003  20.233  25.547  1.00  0.00    -0.246 OA
BRANCH  26  28
ATOM     28  C   UNL A   1      39.243  22.400  26.543  1.00  0.00     0.060 A 
ATOM     29  C   UNL A   1      38.905  23.708  26.268  1.00  0.00     0.016 A 
ATOM     30  C   UNL A   1      40.389  22.212  27.337  1.00  0.00     0.016 A 
ATOM     31  C   UNL A   1      39.831  24.738  26.466  1.00  0.00     0.010 A 
ATOM     32  C   UNL A   1      41.175  23.319  27.787  1.00  0.00     0.010 A 
ATOM     33  C   UNL A   1      40.908  24.621  27.344  1.00  0.00    -0.014 A 
BRANCH  33  34
ATOM     34  C   UNL A   1      41.544  25.894  27.857  1.00  0.00     0.031 A 
ATOM     35  C   UNL A   1      40.821  26.913  28.711  1.00  0.00     0.074 A 
ATOM     36  C   UNL A   1      42.850  26.140  27.573  1.00  0.00     0.049 A 
ATOM     37  N   UNL A   1      41.165  28.152  28.980  1.00  0.00    -0.248 NA
ATOM     38  C   UNL A   1      39.574  26.493  29.366  1.00  0.00     0.031 C 
ATOM     39  C   UNL A   1      43.752  25.239  26.841  1.00  0.00     0.029 A 
ATOM     40  N   UNL A   1      43.668  27.209  27.871  1.00  0.00    -0.354 N 
ATOM     41  C   UNL A   1      40.154  28.681  29.777  1.00  0.00     0.074 A 
ATOM     42  C   UNL A   1      39.199  27.609  29.987  1.00  0.00     0.031 C 
ATOM     43  C   UNL A   1      44.989  25.734  26.831  1.00  0.00     0.029 A 
ATOM     44  C   UNL A   1      44.932  27.088  27.336  1.00  0.00     0.049 A 
ATOM     45  H   UNL A   1      43.377  27.981  28.409  1.00  0.00     0.167 HD
ATOM     46  C   UNL A   1      40.029  29.946  30.259  1.00  0.00     0.037 A 
ATOM     47  C   UNL A   1      45.919  27.979  27.126  1.00  0.00     0.037 A 
ATOM     48  C   UNL A   1      41.001  30.999  30.065  1.00  0.00     0.049 A 
ATOM     49  C   UNL A   1      45.703  29.396  27.527  1.00  0.00     0.074 A 
ATOM     50  C   UNL A   1      40.940  32.326  30.469  1.00  0.00     0.029 A 
ATOM     51  N   UNL A   1      42.220  30.845  29.419  1.00  0.00    -0.354 N 
ATOM     52  N   UNL A   1      44.676  29.924  28.142  1.00  0.00    -0.248 NA
ATOM     53  C   UNL A   1      46.761  30.348  27.173  1.00  0.00     0.031 C 
ATOM     54  C   UNL A   1      42.096  32.981  30.027  1.00  0.00     0.029 A 
ATOM     55  C   UNL A   1      42.903  32.053  29.390  1.00  0.00     0.049 A 
ATOM     56  H   UNL A   1      42.551  30.002  29.035  1.00  0.00     0.167 HD
ATOM     57  C   UNL A   1      44.960  31.273  28.252  1.00  0.00     0.074 A 
ATOM     58  C   UNL A   1      46.268  31.479  27.660  1.00  0.00     0.031 C 
ATOM     59  C   UNL A   1      44.198  32.253  28.792  1.00  0.00     0.037 A 
BRANCH  46  60
ATOM     60  C   UNL A   1      38.754  30.306  30.977  1.00  0.00     0.057 A 
ATOM     61  C   UNL A   1      38.616  30.218  32.368  1.00  0.00     0.134 A 
ATOM     62  C   UNL A   1      37.666  30.822  30.258  1.00  0.00     0.134 A 
ATOM     63  F   UNL A   1      39.616  29.738  33.121  1.00  0.00    -0.206 F 
ATOM     64  C   UNL A   1      37.436  30.606  33.011  1.00  0.00     0.040 A 
ATOM     65  C   UNL A   1      36.490  31.231  30.891  1.00  0.00     0.040 A 
ATOM     66  F   UNL A   1      37.735  30.954  28.925  1.00  0.00    -0.206 F 
ATOM     67  C   UNL A   1      36.370  31.119  32.273  1.00  0.00     0.006 A 
ENDBRANCH  46  60
BRANCH  47  68
ATOM     68  C   UNL A   1      47.127  27.557  26.368  1.00  0.00     0.057 A 
ATOM     69  C   UNL A   1      48.274  27.102  27.022  1.00  0.00     0.134 A 
ATOM     70  C   UNL A   1      47.130  27.532  24.964  1.00  0.00     0.134 A 
ATOM     71  F   UNL A   1      48.341  27.124  28.360  1.00  0.00    -0.206 F 
ATOM     72  C   UNL A   1      49.374  26.621  26.309  1.00  0.00     0.040 A 
ATOM     73  C   UNL A   1      48.207  27.019  24.241  1.00  0.00     0.040 A 
ATOM     74  F   UNL A   1      46.054  27.945  24.275  1.00  0.00    -0.206 F 
ATOM     75  C   UNL A   1      49.335  26.563  24.916  1.00  0.00     0.006 A 
ENDBRANCH  47  68
BRANCH  59  76
ATOM     76  C   UNL A   1      44.788  33.629  28.790  1.00  0.00     0.057 A 
ATOM     77  C   UNL A   1      45.599  34.082  29.838  1.00  0.00     0.134 A 
ATOM     78  C   UNL A   1      44.523  34.517  27.741  1.00  0.00     0.134 A 
ATOM     79  F   UNL A   1      45.865  33.287  30.886  1.00  0.00    -0.206 F 
ATOM     80  C   UNL A   1      46.107  35.382  29.853  1.00  0.00     0.040 A 
ATOM     81  C   UNL A   1      45.043  35.810  27.734  1.00  0.00     0.040 A 
ATOM     82  F   UNL A   1      43.747  34.143  26.712  1.00  0.00    -0.206 F 
ATOM     83  C   UNL A   1      45.833  36.249  28.797  1.00  0.00     0.006 A 
ENDBRANCH  59  76
ENDBRANCH  33  34
ENDBRANCH  26  28
ENDBRANCH  25  26
ENDBRANCH  24  25
ENDBRANCH   1  24
TORSDOF 16
ENDMDL
MODEL 3
REMARK VINA RESULT:     -10.8      4.188      7.491
REMARK SMILES CSCC[C@H](NC(=O)N[C@@H]1CCCCC1(C)C)C(=O)OCCOC(=O)c1ccc(-c2c3nc(c(-c4c(F)cccc4F)c4ccc([nH]4)c(-c4c(F)cccc4F)c4nc(c(-c5c(F)cccc5F)c5ccc2[nH]5)C=C4)C=C3)cc1
REMARK SMILES IDX 21 1 20 2 18 3 19 4 5 5 4 6 3 7 2 8 1 9 6 10 7 11 8 13 9 14
REMARK SMILES IDX 10 16 11 17 15 18 12 19 14 20 16 21 17 22 13 23 22 24 23 25
REMARK SMILES IDX 24 26 25 27 26 28 27 29 79 30 28 31 78 32 29 33 30 34 31 35
REMARK SMILES IDX 72 36 32 37 77 38 71 39 73 40 33 41 76 42 70 43 69 44 34 46
REMARK SMILES IDX 60 47 43 48 59 49 44 50 47 51 58 52 74 53 45 54 46 55 57 57
REMARK SMILES IDX 75 58 48 59 35 60 36 61 41 62 37 63 38 64 40 65 42 66 39 67
REMARK SMILES IDX 61 68 62 69 67 70 63 71 64 72 66 73 68 74 65 75 49 76 50 77
REMARK SMILES IDX 55 78 51 79 52 80 54 81 56 82 53 83
REMARK H PARENT 6 12 9 15 73 45 47 56
REMARK Flexibility Score: inf
ROOT
ATOM      1  C   UNL A   1      32.439  28.384  27.352  1.00  0.00     0.274 C 
ENDROOT
BRANCH   1   2
ATOM      2  O   UNL A   1      31.519  28.471  26.202  1.00  0.00    -0.461 OA
BRANCH   2   3
ATOM      3  C   UNL A   1      31.311  27.346  25.433  1.00  0.00     0.328 C 
ATOM      4  O   UNL A   1      30.849  26.321  25.938  1.00  0.00    -0.250 OA
BRANCH   3   5
ATOM      5  C   UNL A   1      31.389  27.528  23.783  1.00  0.00     0.194 C 
BRANCH   5   6
ATOM      6  C   UNL A   1      29.940  27.775  23.277  1.00  0.00     0.048 C 
BRANCH   6   7
ATOM      7  C   UNL A   1      29.600  29.200  22.831  1.00  0.00     0.072 C 
BRANCH   7   8
ATOM      8  S   UNL A   1      27.799  29.486  22.766  1.00  0.00    -0.165 SA
ATOM      9  C   UNL A   1      27.707  31.162  23.443  1.00  0.00     0.085 C 
ENDBRANCH   7   8
ENDBRANCH   6   7
ENDBRANCH   5   6
BRANCH   5  10
ATOM     10  N   UNL A   1      32.239  26.795  22.684  1.00  0.00    -0.325 N 
ATOM     11  C   UNL A   1      33.071  25.758  22.378  1.00  0.00     0.315 C 
ATOM     12  H   UNL A   1      32.120  27.309  21.853  1.00  0.00     0.166 HD
ATOM     13  O   UNL A   1      33.648  25.876  21.286  1.00  0.00    -0.249 OA
ATOM     14  N   UNL A   1      33.390  24.603  23.027  1.00  0.00    -0.335 N 
ATOM     15  H   UNL A   1      34.140  24.164  22.564  1.00  0.00     0.165 HD
BRANCH  14  16
ATOM     16  C   UNL A   1      32.971  23.756  24.242  1.00  0.00     0.089 C 
ATOM     17  C   UNL A   1      33.580  24.214  25.587  1.00  0.00     0.025 C 
ATOM     18  C   UNL A   1      33.320  22.358  23.841  1.00  0.00    -0.015 C 
ATOM     19  C   UNL A   1      35.070  24.477  25.557  1.00  0.00     0.002 C 
ATOM     20  C   UNL A   1      34.912  22.523  23.895  1.00  0.00     0.008 C 
ATOM     21  C   UNL A   1      33.123  20.971  24.428  1.00  0.00     0.013 C 
ATOM     22  C   UNL A   1      32.165  22.160  22.749  1.00  0.00     0.013 C 
ATOM     23  C   UNL A   1      35.714  23.742  24.422  1.00  0.00     0.001 C 
ENDBRANCH  14  16
ENDBRANCH   5  10
ENDBRANCH   3   5
ENDBRANCH   2   3
ENDBRANCH   1   2
BRANCH   1  24
ATOM     24  C   UNL A   1      33.976  28.386  26.973  1.00  0.00     0.275 C 
BRANCH  24  25
ATOM     25  O   UNL A   1      34.549  29.727  26.772  1.00  0.00    -0.458 OA
BRANCH  25  26
ATOM     26  C   UNL A   1      35.075  30.380  27.878  1.00  0.00     0.338 C 
ATOM     27  O   UNL A   1      34.454  31.107  28.611  1.00  0.00    -0.246 OA
BRANCH  26  28
ATOM     28  C   UNL A   1      36.512  29.961  28.166  1.00  0.00     0.060 A 
ATOM     29  C   UNL A   1      37.481  30.092  27.193  1.00  0.00     0.016 A 
ATOM     30  C   UNL A   1      36.911  29.321  29.353  1.00  0.00     0.016 A 
ATOM     31  C   UNL A   1      38.654  29.332  27.251  1.00  0.00     0.010 A 
ATOM     32  C   UNL A   1      38.234  28.800  29.511  1.00  0.00     0.010 A 
ATOM     33  C   UNL A   1      39.138  28.790  28.441  1.00  0.00    -0.014 A 
BRANCH  33  34
ATOM     34  C   UNL A   1      40.605  28.425  28.506  1.00  0.00     0.031 A 
ATOM     35  C   UNL A   1      41.707  29.415  28.818  1.00  0.00     0.074 A 
ATOM     36  C   UNL A   1      40.973  27.132  28.309  1.00  0.00     0.049 A 
ATOM     37  N   UNL A   1      43.002  29.287  28.636  1.00  0.00    -0.248 NA
ATOM     38  C   UNL A   1      41.322  30.696  29.428  1.00  0.00     0.031 C 
ATOM     39  C   UNL A   1      40.056  26.004  28.086  1.00  0.00     0.029 A 
ATOM     40  N   UNL A   1      42.211  26.525  28.275  1.00  0.00    -0.354 N 
ATOM     41  C   UNL A   1      43.581  30.484  29.046  1.00  0.00     0.074 A 
ATOM     42  C   UNL A   1      42.495  31.316  29.530  1.00  0.00     0.031 C 
ATOM     43  C   UNL A   1      40.736  24.860  28.038  1.00  0.00     0.029 A 
ATOM     44  C   UNL A   1      42.146  25.180  27.982  1.00  0.00     0.049 A 
ATOM     45  H   UNL A   1      43.055  27.004  28.442  1.00  0.00     0.167 HD
ATOM     46  C   UNL A   1      44.888  30.855  28.995  1.00  0.00     0.037 A 
ATOM     47  C   UNL A   1      43.071  24.294  27.570  1.00  0.00     0.037 A 
ATOM     48  C   UNL A   1      45.965  30.007  28.534  1.00  0.00     0.049 A 
ATOM     49  C   UNL A   1      44.472  24.758  27.375  1.00  0.00     0.074 A 
ATOM     50  C   UNL A   1      47.313  30.310  28.396  1.00  0.00     0.029 A 
ATOM     51  N   UNL A   1      45.822  28.683  28.145  1.00  0.00    -0.354 N 
ATOM     52  N   UNL A   1      44.982  25.939  27.617  1.00  0.00    -0.248 NA
ATOM     53  C   UNL A   1      45.416  23.785  26.817  1.00  0.00     0.031 C 
ATOM     54  C   UNL A   1      47.972  29.186  27.880  1.00  0.00     0.029 A 
ATOM     55  C   UNL A   1      47.046  28.166  27.744  1.00  0.00     0.049 A 
ATOM     56  H   UNL A   1      44.975  28.182  28.153  1.00  0.00     0.167 HD
ATOM     57  C   UNL A   1      46.311  25.855  27.240  1.00  0.00     0.074 A 
ATOM     58  C   UNL A   1      46.533  24.499  26.776  1.00  0.00     0.031 C 
ATOM     59  C   UNL A   1      47.259  26.821  27.274  1.00  0.00     0.037 A 
BRANCH  46  60
ATOM     60  C   UNL A   1      45.235  32.274  29.365  1.00  0.00     0.057 A 
ATOM     61  C   UNL A   1      45.171  33.333  28.451  1.00  0.00     0.134 A 
ATOM     62  C   UNL A   1      45.574  32.591  30.689  1.00  0.00     0.134 A 
ATOM     63  F   UNL A   1      44.850  33.106  27.169  1.00  0.00    -0.206 F 
ATOM     64  C   UNL A   1      45.452  34.648  28.836  1.00  0.00     0.040 A 
ATOM     65  C   UNL A   1      45.838  33.902  31.090  1.00  0.00     0.040 A 
ATOM     66  F   UNL A   1      45.636  31.629  31.622  1.00  0.00    -0.206 F 
ATOM     67  C   UNL A   1      45.783  34.937  30.160  1.00  0.00     0.006 A 
ENDBRANCH  46  60
BRANCH  47  68
ATOM     68  C   UNL A   1      42.641  22.925  27.179  1.00  0.00     0.057 A 
ATOM     69  C   UNL A   1      42.356  21.950  28.137  1.00  0.00     0.134 A 
ATOM     70  C   UNL A   1      42.434  22.588  25.831  1.00  0.00     0.134 A 
ATOM     71  F   UNL A   1      42.556  22.205  29.438  1.00  0.00    -0.206 F 
ATOM     72  C   UNL A   1      41.865  20.695  27.773  1.00  0.00     0.040 A 
ATOM     73  C   UNL A   1      41.909  21.351  25.456  1.00  0.00     0.040 A 
ATOM     74  F   UNL A   1      42.678  23.484  24.862  1.00  0.00    -0.206 F 
ATOM     75  C   UNL A   1      41.625  20.399  26.430  1.00  0.00     0.006 A 
ENDBRANCH  47  68
BRANCH  59  76
ATOM     76  C   UNL A   1      48.629  26.421  26.822  1.00  0.00     0.057 A 
ATOM     77  C   UNL A   1      49.547  25.825  27.696  1.00  0.00     0.134 A 
ATOM     78  C   UNL A   1      49.042  26.657  25.505  1.00  0.00     0.134 A 
ATOM     79  F   UNL A   1      49.218  25.602  28.978  1.00  0.00    -0.206 F 
ATOM     80  C   UNL A   1      50.838  25.499  27.281  1.00  0.00     0.040 A 
ATOM     81  C   UNL A   1      50.322  26.315  25.073  1.00  0.00     0.040 A 
ATOM     82  F   UNL A   1      48.210  27.230  24.623  1.00  0.00    -0.206 F 
ATOM     83  C   UNL A   1      51.228  25.740  25.965  1.00  0.00     0.006 A 
ENDBRANCH  59  76
ENDBRANCH  33  34
ENDBRANCH  26  28
ENDBRANCH  25  26
ENDBRANCH  24  25
ENDBRANCH   1  24
TORSDOF 16
ENDMDL
