MODEL 1
REMARK VINA RESULT:     -12.2      0.000      0.000
REMARK SMILES Cc1c(CCC(=O)N[C@@H](C)C(=O)OCCOC(=O)c2ccc(-c3c4nc(c(-c5c(F)cccc5F)c5ccc([nH]5)c(-c5c(F)cccc5F)c5nc(c(-c6c(F)cccc6F)c6ccc3[nH]6)C=C5)C=C4)cc2)c(=O)oc2cc3oc4c(c3cc12)CCCC4
REMARK SMILES IDX 14 1 13 2 11 3 12 4 9 5 10 6 8 7 6 8 7 9 5 11 4 12 3 13 1 14
REMARK SMILES IDX 2 15 84 16 73 17 76 18 83 19 74 20 75 21 77 22 82 23 78 24
REMARK SMILES IDX 81 25 79 26 80 27 85 28 88 29 86 30 87 31 15 32 16 33 17 34
REMARK SMILES IDX 18 35 19 36 20 37 72 38 21 39 71 40 22 41 23 42 24 43 65 44
REMARK SMILES IDX 25 45 70 46 64 47 66 48 26 49 69 50 63 51 62 52 27 54 53 55
REMARK SMILES IDX 36 56 52 57 37 58 40 59 51 60 67 61 38 62 39 63 50 65 68 66
REMARK SMILES IDX 41 67 28 68 29 69 34 70 30 71 31 72 33 73 35 74 32 75 54 76
REMARK SMILES IDX 55 77 60 78 56 79 57 80 59 81 61 82 58 83 42 84 43 85 48 86
REMARK SMILES IDX 44 87 45 88 47 89 49 90 46 91
REMARK H PARENT 8 10 66 53 40 64
REMARK Flexibility Score: inf
ROOT
ATOM      1  C   UNL A   1      37.093  21.103  25.366  1.00  0.00     0.274 C 
ENDROOT
BRANCH   1   2
ATOM      2  O   UNL A   1      35.942  21.533  24.614  1.00  0.00    -0.461 OA
BRANCH   2   3
ATOM      3  C   UNL A   1      34.756  20.979  24.979  1.00  0.00     0.328 C 
ATOM      4  O   UNL A   1      34.428  19.823  24.744  1.00  0.00    -0.250 OA
BRANCH   3   5
ATOM      5  C   UNL A   1      33.870  21.954  25.751  1.00  0.00     0.189 C 
ATOM      6  C   UNL A   1      34.043  21.843  27.270  1.00  0.00     0.043 C 
BRANCH   5   7
ATOM      7  N   UNL A   1      32.463  22.053  25.376  1.00  0.00    -0.343 N 
ATOM      8  C   UNL A   1      31.916  23.074  24.643  1.00  0.00     0.221 C 
ATOM      9  O   UNL A   1      31.002  23.737  25.134  1.00  0.00    -0.275 OA
ATOM     10  H   UNL A   1      31.860  21.333  25.673  1.00  0.00     0.164 HD
BRANCH   8  11
ATOM     11  C   UNL A   1      32.357  23.269  23.200  1.00  0.00     0.105 C 
BRANCH  11  12
ATOM     12  C   UNL A   1      33.624  24.113  22.990  1.00  0.00     0.053 C 
BRANCH  12  13
ATOM     13  C   UNL A   1      33.356  25.551  23.361  1.00  0.00     0.042 A 
ATOM     14  C   UNL A   1      32.263  26.099  21.153  1.00  0.00     0.046 C 
ATOM     15  C   UNL A   1      32.620  26.363  22.589  1.00  0.00    -0.030 A 
ATOM     16  C   UNL A   1      31.970  27.454  23.305  1.00  0.00     0.022 A 
ATOM     17  C   UNL A   1      33.894  26.040  24.669  1.00  0.00     0.339 A 
ATOM     18  C   UNL A   1      32.590  28.038  24.406  1.00  0.00     0.142 A 
ATOM     19  C   UNL A   1      30.670  27.827  22.983  1.00  0.00     0.024 A 
ATOM     20  O   UNL A   1      34.558  25.305  25.392  1.00  0.00    -0.246 OA
ATOM     21  O   UNL A   1      33.707  27.393  24.965  1.00  0.00    -0.422 OA
ATOM     22  C   UNL A   1      32.119  29.221  24.997  1.00  0.00     0.095 A 
ATOM     23  C   UNL A   1      30.101  28.907  23.650  1.00  0.00     0.025 A 
ATOM     24  C   UNL A   1      30.903  29.672  24.488  1.00  0.00     0.138 A 
ATOM     25  C   UNL A   1      28.876  29.580  23.513  1.00  0.00     0.001 A 
ATOM     26  O   UNL A   1      30.359  30.934  24.563  1.00  0.00    -0.461 OA
ATOM     27  C   UNL A   1      29.247  30.880  23.773  1.00  0.00     0.108 A 
ATOM     28  C   UNL A   1      27.742  29.286  22.607  1.00  0.00     0.040 C 
ATOM     29  C   UNL A   1      28.930  31.959  22.789  1.00  0.00     0.076 C 
ATOM     30  C   UNL A   1      27.986  30.009  21.274  1.00  0.00     0.005 C 
ATOM     31  C   UNL A   1      28.904  31.266  21.383  1.00  0.00     0.008 C 
ENDBRANCH  12  13
ENDBRANCH  11  12
ENDBRANCH   8  11
ENDBRANCH   5   7
ENDBRANCH   3   5
ENDBRANCH   2   3
ENDBRANCH   1   2
BRANCH   1  32
ATOM     32  C   UNL A   1      38.139  22.213  25.390  1.00  0.00     0.275 C 
BRANCH  32  33
ATOM     33  O   UNL A   1      38.802  22.244  26.659  1.00  0.00    -0.458 OA
BRANCH  33  34
ATOM     34  C   UNL A   1      40.142  22.004  26.661  1.00  0.00     0.338 C 
ATOM     35  O   UNL A   1      40.726  20.999  26.363  1.00  0.00    -0.246 OA
BRANCH  34  36
ATOM     36  C   UNL A   1      40.745  23.265  27.119  1.00  0.00     0.060 A 
ATOM     37  C   UNL A   1      39.968  24.126  27.886  1.00  0.00     0.016 A 
ATOM     38  C   UNL A   1      42.005  23.644  26.651  1.00  0.00     0.016 A 
ATOM     39  C   UNL A   1      40.438  25.411  28.127  1.00  0.00     0.010 A 
ATOM     40  C   UNL A   1      42.476  24.927  26.895  1.00  0.00     0.010 A 
ATOM     41  C   UNL A   1      41.677  25.822  27.605  1.00  0.00    -0.014 A 
BRANCH  41  42
ATOM     42  C   UNL A   1      42.060  27.228  27.776  1.00  0.00     0.031 A 
ATOM     43  C   UNL A   1      40.974  28.249  27.690  1.00  0.00     0.074 A 
ATOM     44  C   UNL A   1      43.147  27.509  28.523  1.00  0.00     0.049 A 
ATOM     45  N   UNL A   1      40.255  28.637  28.704  1.00  0.00    -0.248 NA
ATOM     46  C   UNL A   1      40.484  28.730  26.399  1.00  0.00     0.031 C 
ATOM     47  C   UNL A   1      43.571  26.717  29.688  1.00  0.00     0.029 A 
ATOM     48  N   UNL A   1      43.951  28.619  28.552  1.00  0.00    -0.354 N 
ATOM     49  C   UNL A   1      39.188  29.358  28.194  1.00  0.00     0.074 A 
ATOM     50  C   UNL A   1      39.389  29.415  26.763  1.00  0.00     0.031 C 
ATOM     51  C   UNL A   1      44.440  27.448  30.412  1.00  0.00     0.029 A 
ATOM     52  C   UNL A   1      44.749  28.677  29.690  1.00  0.00     0.049 A 
ATOM     53  H   UNL A   1      43.963  29.302  27.844  1.00  0.00     0.167 HD
ATOM     54  C   UNL A   1      38.181  29.855  28.958  1.00  0.00     0.037 A 
ATOM     55  C   UNL A   1      45.196  29.823  30.267  1.00  0.00     0.037 A 
ATOM     56  C   UNL A   1      38.248  29.569  30.358  1.00  0.00     0.049 A 
ATOM     57  C   UNL A   1      43.909  30.372  30.832  1.00  0.00     0.074 A 
ATOM     58  C   UNL A   1      37.732  28.621  31.214  1.00  0.00     0.029 A 
ATOM     59  N   UNL A   1      39.054  30.356  31.145  1.00  0.00    -0.354 N 
ATOM     60  N   UNL A   1      43.336  29.997  31.946  1.00  0.00    -0.248 NA
ATOM     61  C   UNL A   1      43.041  31.130  29.927  1.00  0.00     0.031 C 
ATOM     62  C   UNL A   1      38.597  28.621  32.351  1.00  0.00     0.029 A 
ATOM     63  C   UNL A   1      39.619  29.530  32.083  1.00  0.00     0.049 A 
ATOM     64  H   UNL A   1      39.198  31.325  31.053  1.00  0.00     0.167 HD
ATOM     65  C   UNL A   1      41.970  30.223  31.752  1.00  0.00     0.074 A 
ATOM     66  C   UNL A   1      41.862  30.946  30.502  1.00  0.00     0.031 C 
ATOM     67  C   UNL A   1      40.993  29.652  32.512  1.00  0.00     0.037 A 
BRANCH  54  68
ATOM     68  C   UNL A   1      37.113  30.742  28.462  1.00  0.00     0.057 A 
ATOM     69  C   UNL A   1      37.235  32.120  28.689  1.00  0.00     0.134 A 
ATOM     70  C   UNL A   1      35.902  30.267  27.961  1.00  0.00     0.134 A 
ATOM     71  F   UNL A   1      38.378  32.624  29.183  1.00  0.00    -0.206 F 
ATOM     72  C   UNL A   1      36.174  32.995  28.465  1.00  0.00     0.040 A 
ATOM     73  C   UNL A   1      34.831  31.134  27.725  1.00  0.00     0.040 A 
ATOM     74  F   UNL A   1      35.721  28.957  27.736  1.00  0.00    -0.206 F 
ATOM     75  C   UNL A   1      34.961  32.498  27.992  1.00  0.00     0.006 A 
ENDBRANCH  54  68
BRANCH  55  76
ATOM     76  C   UNL A   1      46.140  30.615  29.418  1.00  0.00     0.057 A 
ATOM     77  C   UNL A   1      47.078  29.923  28.621  1.00  0.00     0.134 A 
ATOM     78  C   UNL A   1      46.195  32.010  29.341  1.00  0.00     0.134 A 
ATOM     79  F   UNL A   1      47.191  28.587  28.705  1.00  0.00    -0.206 F 
ATOM     80  C   UNL A   1      47.921  30.571  27.716  1.00  0.00     0.040 A 
ATOM     81  C   UNL A   1      47.021  32.673  28.423  1.00  0.00     0.040 A 
ATOM     82  F   UNL A   1      45.448  32.782  30.140  1.00  0.00    -0.206 F 
ATOM     83  C   UNL A   1      47.873  31.953  27.593  1.00  0.00     0.006 A 
ENDBRANCH  55  76
BRANCH  67  84
ATOM     84  C   UNL A   1      41.452  28.904  33.714  1.00  0.00     0.057 A 
ATOM     85  C   UNL A   1      41.323  29.467  34.987  1.00  0.00     0.134 A 
ATOM     86  C   UNL A   1      41.961  27.602  33.626  1.00  0.00     0.134 A 
ATOM     87  F   UNL A   1      40.829  30.706  35.139  1.00  0.00    -0.206 F 
ATOM     88  C   UNL A   1      41.664  28.749  36.135  1.00  0.00     0.040 A 
ATOM     89  C   UNL A   1      42.284  26.867  34.767  1.00  0.00     0.040 A 
ATOM     90  F   UNL A   1      42.124  27.003  32.436  1.00  0.00    -0.206 F 
ATOM     91  C   UNL A   1      42.133  27.441  36.027  1.00  0.00     0.006 A 
ENDBRANCH  67  84
ENDBRANCH  41  42
ENDBRANCH  34  36
ENDBRANCH  33  34
ENDBRANCH  32  33
ENDBRANCH   1  32
TORSDOF 15
ENDMDL
MODEL 2
REMARK VINA RESULT:     -12.0      3.297      7.703
REMARK SMILES Cc1c(CCC(=O)N[C@@H](C)C(=O)OCCOC(=O)c2ccc(-c3c4nc(c(-c5c(F)cccc5F)c5ccc([nH]5)c(-c5c(F)cccc5F)c5nc(c(-c6c(F)cccc6F)c6ccc3[nH]6)C=C5)C=C4)cc2)c(=O)oc2cc3oc4c(c3cc12)CCCC4
REMARK SMILES IDX 14 1 13 2 11 3 12 4 9 5 10 6 8 7 6 8 7 9 5 11 4 12 3 13 1 14
REMARK SMILES IDX 2 15 84 16 73 17 76 18 83 19 74 20 75 21 77 22 82 23 78 24
REMARK SMILES IDX 81 25 79 26 80 27 85 28 88 29 86 30 87 31 15 32 16 33 17 34
REMARK SMILES IDX 18 35 19 36 20 37 72 38 21 39 71 40 22 41 23 42 24 43 65 44
REMARK SMILES IDX 25 45 70 46 64 47 66 48 26 49 69 50 63 51 62 52 27 54 53 55
REMARK SMILES IDX 36 56 52 57 37 58 40 59 51 60 67 61 38 62 39 63 50 65 68 66
REMARK SMILES IDX 41 67 28 68 29 69 34 70 30 71 31 72 33 73 35 74 32 75 54 76
REMARK SMILES IDX 55 77 60 78 56 79 57 80 59 81 61 82 58 83 42 84 43 85 48 86
REMARK SMILES IDX 44 87 45 88 47 89 49 90 46 91
REMARK H PARENT 8 10 66 53 40 64
REMARK Flexibility Score: inf
ROOT
ATOM      1  C   UNL A   1      42.717  24.424  26.651  1.00  0.00     0.274 C 
ENDROOT
BRANCH   1   2
ATOM      2  O   UNL A   1      41.875  23.318  26.269  1.00  0.00    -0.461 OA
BRANCH   2   3
ATOM      3  C   UNL A   1      42.495  22.114  26.160  1.00  0.00     0.328 C 
ATOM      4  O   UNL A   1      43.667  21.961  25.841  1.00  0.00    -0.250 OA
BRANCH   3   5
ATOM      5  C   UNL A   1      41.570  20.949  26.512  1.00  0.00     0.189 C 
ATOM      6  C   UNL A   1      42.272  19.854  27.321  1.00  0.00     0.043 C 
BRANCH   5   7
ATOM      7  N   UNL A   1      40.738  20.386  25.453  1.00  0.00    -0.343 N 
ATOM      8  C   UNL A   1      39.416  20.052  25.589  1.00  0.00     0.221 C 
ATOM      9  O   UNL A   1      39.070  18.890  25.376  1.00  0.00    -0.275 OA
ATOM     10  H   UNL A   1      41.158  20.233  24.576  1.00  0.00     0.164 HD
BRANCH   8  11
ATOM     11  C   UNL A   1      38.398  21.150  25.862  1.00  0.00     0.105 C 
BRANCH  11  12
ATOM     12  C   UNL A   1      37.331  21.365  24.778  1.00  0.00     0.053 C 
BRANCH  12  13
ATOM     13  C   UNL A   1      36.080  21.945  25.390  1.00  0.00     0.042 A 
ATOM     14  C   UNL A   1      37.215  24.076  26.124  1.00  0.00     0.046 C 
ATOM     15  C   UNL A   1      36.022  23.205  25.843  1.00  0.00    -0.030 A 
ATOM     16  C   UNL A   1      34.686  23.790  25.840  1.00  0.00     0.022 A 
ATOM     17  C   UNL A   1      34.861  21.077  25.424  1.00  0.00     0.339 A 
ATOM     18  C   UNL A   1      33.572  22.992  26.081  1.00  0.00     0.142 A 
ATOM     19  C   UNL A   1      34.503  25.115  25.460  1.00  0.00     0.024 A 
ATOM     20  O   UNL A   1      34.893  19.927  25.001  1.00  0.00    -0.246 OA
ATOM     21  O   UNL A   1      33.731  21.596  26.063  1.00  0.00    -0.422 OA
ATOM     22  C   UNL A   1      32.294  23.530  26.303  1.00  0.00     0.095 A 
ATOM     23  C   UNL A   1      33.223  25.654  25.521  1.00  0.00     0.025 A 
ATOM     24  C   UNL A   1      32.211  24.908  26.112  1.00  0.00     0.138 A 
ATOM     25  C   UNL A   1      32.715  26.945  25.298  1.00  0.00     0.001 A 
ATOM     26  O   UNL A   1      31.256  25.780  26.581  1.00  0.00    -0.461 OA
ATOM     27  C   UNL A   1      31.725  27.019  26.250  1.00  0.00     0.108 A 
ATOM     28  C   UNL A   1      33.425  28.165  24.850  1.00  0.00     0.040 C 
ATOM     29  C   UNL A   1      31.710  28.150  27.226  1.00  0.00     0.076 C 
ATOM     30  C   UNL A   1      33.980  28.885  26.089  1.00  0.00     0.005 C 
ATOM     31  C   UNL A   1      33.206  28.583  27.409  1.00  0.00     0.008 C 
ENDBRANCH  12  13
ENDBRANCH  11  12
ENDBRANCH   8  11
ENDBRANCH   5   7
ENDBRANCH   3   5
ENDBRANCH   2   3
ENDBRANCH   1   2
BRANCH   1  32
ATOM     32  C   UNL A   1      42.657  25.511  25.582  1.00  0.00     0.275 C 
BRANCH  32  33
ATOM     33  O   UNL A   1      41.652  26.477  25.913  1.00  0.00    -0.458 OA
BRANCH  33  34
ATOM     34  C   UNL A   1      41.907  27.772  25.580  1.00  0.00     0.338 C 
ATOM     35  O   UNL A   1      42.493  28.202  24.626  1.00  0.00    -0.246 OA
BRANCH  34  36
ATOM     36  C   UNL A   1      41.301  28.561  26.664  1.00  0.00     0.060 A 
ATOM     37  C   UNL A   1      42.105  28.936  27.735  1.00  0.00     0.016 A 
ATOM     38  C   UNL A   1      39.922  28.778  26.680  1.00  0.00     0.016 A 
ATOM     39  C   UNL A   1      41.503  29.473  28.865  1.00  0.00     0.010 A 
ATOM     40  C   UNL A   1      39.320  29.317  27.808  1.00  0.00     0.010 A 
ATOM     41  C   UNL A   1      40.107  29.635  28.915  1.00  0.00    -0.014 A 
BRANCH  41  42
ATOM     42  C   UNL A   1      39.513  30.079  30.181  1.00  0.00     0.031 A 
ATOM     43  C   UNL A   1      39.882  29.322  31.414  1.00  0.00     0.074 A 
ATOM     44  C   UNL A   1      39.168  31.377  30.305  1.00  0.00     0.049 A 
ATOM     45  N   UNL A   1      40.918  29.593  32.155  1.00  0.00    -0.248 NA
ATOM     46  C   UNL A   1      39.220  28.064  31.757  1.00  0.00     0.031 C 
ATOM     47  C   UNL A   1      39.889  32.485  29.659  1.00  0.00     0.029 A 
ATOM     48  N   UNL A   1      38.285  31.992  31.154  1.00  0.00    -0.354 N 
ATOM     49  C   UNL A   1      41.089  28.525  33.019  1.00  0.00     0.074 A 
ATOM     50  C   UNL A   1      39.995  27.615  32.757  1.00  0.00     0.031 C 
ATOM     51  C   UNL A   1      39.537  33.637  30.262  1.00  0.00     0.029 A 
ATOM     52  C   UNL A   1      38.465  33.370  31.214  1.00  0.00     0.049 A 
ATOM     53  H   UNL A   1      37.598  31.510  31.669  1.00  0.00     0.167 HD
ATOM     54  C   UNL A   1      42.125  28.421  33.892  1.00  0.00     0.037 A 
ATOM     55  C   UNL A   1      38.175  34.145  32.291  1.00  0.00     0.037 A 
ATOM     56  C   UNL A   1      43.086  29.480  33.862  1.00  0.00     0.049 A 
ATOM     57  C   UNL A   1      39.256  33.708  33.250  1.00  0.00     0.074 A 
ATOM     58  C   UNL A   1      44.300  29.716  33.255  1.00  0.00     0.029 A 
ATOM     59  N   UNL A   1      42.801  30.637  34.546  1.00  0.00    -0.354 N 
ATOM     60  N   UNL A   1      40.498  34.119  33.248  1.00  0.00    -0.248 NA
ATOM     61  C   UNL A   1      39.020  32.487  34.025  1.00  0.00     0.031 C 
ATOM     62  C   UNL A   1      44.450  31.137  33.241  1.00  0.00     0.029 A 
ATOM     63  C   UNL A   1      43.287  31.673  33.790  1.00  0.00     0.049 A 
ATOM     64  H   UNL A   1      42.336  30.708  35.410  1.00  0.00     0.167 HD
ATOM     65  C   UNL A   1      41.237  33.058  33.779  1.00  0.00     0.074 A 
ATOM     66  C   UNL A   1      40.265  32.099  34.262  1.00  0.00     0.031 C 
ATOM     67  C   UNL A   1      42.586  32.926  33.630  1.00  0.00     0.037 A 
BRANCH  54  68
ATOM     68  C   UNL A   1      42.253  27.369  34.917  1.00  0.00     0.057 A 
ATOM     69  C   UNL A   1      42.857  26.158  34.555  1.00  0.00     0.134 A 
ATOM     70  C   UNL A   1      41.626  27.442  36.161  1.00  0.00     0.134 A 
ATOM     71  F   UNL A   1      43.462  26.035  33.362  1.00  0.00    -0.206 F 
ATOM     72  C   UNL A   1      42.807  25.039  35.385  1.00  0.00     0.040 A 
ATOM     73  C   UNL A   1      41.575  26.329  37.006  1.00  0.00     0.040 A 
ATOM     74  F   UNL A   1      41.019  28.569  36.557  1.00  0.00    -0.206 F 
ATOM     75  C   UNL A   1      42.153  25.121  36.612  1.00  0.00     0.006 A 
ENDBRANCH  54  68
BRANCH  55  76
ATOM     76  C   UNL A   1      36.721  34.199  32.642  1.00  0.00     0.057 A 
ATOM     77  C   UNL A   1      35.771  34.170  31.598  1.00  0.00     0.134 A 
ATOM     78  C   UNL A   1      36.195  34.286  33.935  1.00  0.00     0.134 A 
ATOM     79  F   UNL A   1      36.167  34.203  30.315  1.00  0.00    -0.206 F 
ATOM     80  C   UNL A   1      34.396  34.103  31.832  1.00  0.00     0.040 A 
ATOM     81  C   UNL A   1      34.819  34.199  34.186  1.00  0.00     0.040 A 
ATOM     82  F   UNL A   1      36.989  34.447  35.001  1.00  0.00    -0.206 F 
ATOM     83  C   UNL A   1      33.915  34.088  33.135  1.00  0.00     0.006 A 
ENDBRANCH  55  76
BRANCH  67  84
ATOM     84  C   UNL A   1      43.294  34.087  33.025  1.00  0.00     0.057 A 
ATOM     85  C   UNL A   1      43.392  34.208  31.636  1.00  0.00     0.134 A 
ATOM     86  C   UNL A   1      43.825  35.120  33.808  1.00  0.00     0.134 A 
ATOM     87  F   UNL A   1      42.892  33.257  30.831  1.00  0.00    -0.206 F 
ATOM     88  C   UNL A   1      43.974  35.331  31.045  1.00  0.00     0.040 A 
ATOM     89  C   UNL A   1      44.388  36.258  33.228  1.00  0.00     0.040 A 
ATOM     90  F   UNL A   1      43.778  35.066  35.148  1.00  0.00    -0.206 F 
ATOM     91  C   UNL A   1      44.460  36.366  31.841  1.00  0.00     0.006 A 
ENDBRANCH  67  84
ENDBRANCH  41  42
ENDBRANCH  34  36
ENDBRANCH  33  34
ENDBRANCH  32  33
ENDBRANCH   1  32
TORSDOF 15
ENDMDL
MODEL 3
REMARK VINA RESULT:     -12.0      2.700      5.199
REMARK SMILES Cc1c(CCC(=O)N[C@@H](C)C(=O)OCCOC(=O)c2ccc(-c3c4nc(c(-c5c(F)cccc5F)c5ccc([nH]5)c(-c5c(F)cccc5F)c5nc(c(-c6c(F)cccc6F)c6ccc3[nH]6)C=C5)C=C4)cc2)c(=O)oc2cc3oc4c(c3cc12)CCCC4
REMARK SMILES IDX 14 1 13 2 11 3 12 4 9 5 10 6 8 7 6 8 7 9 5 11 4 12 3 13 1 14
REMARK SMILES IDX 2 15 84 16 73 17 76 18 83 19 74 20 75 21 77 22 82 23 78 24
REMARK SMILES IDX 81 25 79 26 80 27 85 28 88 29 86 30 87 31 15 32 16 33 17 34
REMARK SMILES IDX 18 35 19 36 20 37 72 38 21 39 71 40 22 41 23 42 24 43 65 44
REMARK SMILES IDX 25 45 70 46 64 47 66 48 26 49 69 50 63 51 62 52 27 54 53 55
REMARK SMILES IDX 36 56 52 57 37 58 40 59 51 60 67 61 38 62 39 63 50 65 68 66
REMARK SMILES IDX 41 67 28 68 29 69 34 70 30 71 31 72 33 73 35 74 32 75 54 76
REMARK SMILES IDX 55 77 60 78 56 79 57 80 59 81 61 82 58 83 42 84 43 85 48 86
REMARK SMILES IDX 44 87 45 88 47 89 49 90 46 91
REMARK H PARENT 8 10 66 53 40 64
REMARK Flexibility Score: inf
ROOT
ATOM      1  C   UNL A   1      35.914  21.031  25.085  1.00  0.00     0.274 C 
ENDROOT
BRANCH   1   2
ATOM      2  O   UNL A   1      34.730  21.451  24.380  1.00  0.00    -0.461 OA
BRANCH   2   3
ATOM      3  C   UNL A   1      33.902  22.285  25.061  1.00  0.00     0.328 C 
ATOM      4  O   UNL A   1      33.789  22.311  26.280  1.00  0.00    -0.250 OA
BRANCH   3   5
ATOM      5  C   UNL A   1      33.133  23.227  24.135  1.00  0.00     0.189 C 
ATOM      6  C   UNL A   1      31.776  22.661  23.702  1.00  0.00     0.043 C 
BRANCH   5   7
ATOM      7  N   UNL A   1      33.848  23.826  23.013  1.00  0.00    -0.343 N 
ATOM      8  C   UNL A   1      33.406  24.900  22.284  1.00  0.00     0.221 C 
ATOM      9  O   UNL A   1      33.244  24.771  21.071  1.00  0.00    -0.275 OA
ATOM     10  H   UNL A   1      34.713  23.429  22.758  1.00  0.00     0.164 HD
BRANCH   8  11
ATOM     11  C   UNL A   1      33.263  26.251  22.969  1.00  0.00     0.105 C 
BRANCH  11  12
ATOM     12  C   UNL A   1      31.901  26.535  23.622  1.00  0.00     0.053 C 
BRANCH  12  13
ATOM     13  C   UNL A   1      32.050  27.583  24.697  1.00  0.00     0.042 A 
ATOM     14  C   UNL A   1      33.543  26.143  26.137  1.00  0.00     0.046 C 
ATOM     15  C   UNL A   1      32.901  27.439  25.723  1.00  0.00    -0.030 A 
ATOM     16  C   UNL A   1      33.366  28.692  26.305  1.00  0.00     0.022 A 
ATOM     17  C   UNL A   1      31.250  28.839  24.555  1.00  0.00     0.339 A 
ATOM     18  C   UNL A   1      32.524  29.800  26.348  1.00  0.00     0.142 A 
ATOM     19  C   UNL A   1      34.693  28.834  26.694  1.00  0.00     0.024 A 
ATOM     20  O   UNL A   1      30.477  28.992  23.615  1.00  0.00    -0.246 OA
ATOM     21  O   UNL A   1      31.337  29.768  25.596  1.00  0.00    -0.422 OA
ATOM     22  C   UNL A   1      32.835  30.955  27.082  1.00  0.00     0.095 A 
ATOM     23  C   UNL A   1      35.089  30.025  27.295  1.00  0.00     0.025 A 
ATOM     24  C   UNL A   1      34.115  30.957  27.634  1.00  0.00     0.138 A 
ATOM     25  C   UNL A   1      36.297  30.454  27.868  1.00  0.00     0.001 A 
ATOM     26  O   UNL A   1      34.598  31.719  28.673  1.00  0.00    -0.461 OA
ATOM     27  C   UNL A   1      35.846  31.222  28.917  1.00  0.00     0.108 A 
ATOM     28  C   UNL A   1      37.595  29.747  27.953  1.00  0.00     0.040 C 
ATOM     29  C   UNL A   1      36.321  30.942  30.306  1.00  0.00     0.076 C 
ATOM     30  C   UNL A   1      37.601  28.894  29.230  1.00  0.00     0.005 C 
ATOM     31  C   UNL A   1      36.645  29.408  30.351  1.00  0.00     0.008 C 
ENDBRANCH  12  13
ENDBRANCH  11  12
ENDBRANCH   8  11
ENDBRANCH   5   7
ENDBRANCH   3   5
ENDBRANCH   2   3
ENDBRANCH   1   2
BRANCH   1  32
ATOM     32  C   UNL A   1      37.110  21.863  24.630  1.00  0.00     0.275 C 
BRANCH  32  33
ATOM     33  O   UNL A   1      37.865  22.308  25.762  1.00  0.00    -0.458 OA
BRANCH  33  34
ATOM     34  C   UNL A   1      37.584  23.550  26.242  1.00  0.00     0.338 C 
ATOM     35  O   UNL A   1      36.521  24.098  26.335  1.00  0.00    -0.246 OA
BRANCH  34  36
ATOM     36  C   UNL A   1      38.891  24.102  26.634  1.00  0.00     0.060 A 
ATOM     37  C   UNL A   1      38.923  25.362  27.223  1.00  0.00     0.016 A 
ATOM     38  C   UNL A   1      40.064  23.439  26.269  1.00  0.00     0.016 A 
ATOM     39  C   UNL A   1      40.150  25.990  27.385  1.00  0.00     0.010 A 
ATOM     40  C   UNL A   1      41.292  24.067  26.433  1.00  0.00     0.010 A 
ATOM     41  C   UNL A   1      41.332  25.357  26.961  1.00  0.00    -0.014 A 
BRANCH  41  42
ATOM     42  C   UNL A   1      42.583  26.122  27.031  1.00  0.00     0.031 A 
ATOM     43  C   UNL A   1      42.503  27.518  27.553  1.00  0.00     0.074 A 
ATOM     44  C   UNL A   1      43.739  25.445  27.184  1.00  0.00     0.049 A 
ATOM     45  N   UNL A   1      42.595  27.833  28.813  1.00  0.00    -0.248 NA
ATOM     46  C   UNL A   1      42.088  28.627  26.695  1.00  0.00     0.031 C 
ATOM     47  C   UNL A   1      43.863  24.189  27.940  1.00  0.00     0.029 A 
ATOM     48  N   UNL A   1      45.032  25.806  26.906  1.00  0.00    -0.354 N 
ATOM     49  C   UNL A   1      42.194  29.153  28.932  1.00  0.00     0.074 A 
ATOM     50  C   UNL A   1      41.919  29.613  27.589  1.00  0.00     0.031 C 
ATOM     51  C   UNL A   1      45.165  23.976  28.211  1.00  0.00     0.029 A 
ATOM     52  C   UNL A   1      45.967  24.981  27.523  1.00  0.00     0.049 A 
ATOM     53  H   UNL A   1      45.273  26.568  26.332  1.00  0.00     0.167 HD
ATOM     54  C   UNL A   1      42.085  29.803  30.121  1.00  0.00     0.037 A 
ATOM     55  C   UNL A   1      47.215  25.367  27.898  1.00  0.00     0.037 A 
ATOM     56  C   UNL A   1      42.379  29.035  31.291  1.00  0.00     0.049 A 
ATOM     57  C   UNL A   1      46.889  26.286  29.050  1.00  0.00     0.074 A 
ATOM     58  C   UNL A   1      41.667  28.304  32.217  1.00  0.00     0.029 A 
ATOM     59  N   UNL A   1      43.696  28.876  31.651  1.00  0.00    -0.354 N 
ATOM     60  N   UNL A   1      46.601  25.916  30.271  1.00  0.00    -0.248 NA
ATOM     61  C   UNL A   1      46.524  27.668  28.731  1.00  0.00     0.031 C 
ATOM     62  C   UNL A   1      42.609  27.399  32.795  1.00  0.00     0.029 A 
ATOM     63  C   UNL A   1      43.821  27.600  32.139  1.00  0.00     0.049 A 
ATOM     64  H   UNL A   1      44.411  29.548  31.573  1.00  0.00     0.167 HD
ATOM     65  C   UNL A   1      45.769  26.920  30.773  1.00  0.00     0.074 A 
ATOM     66  C   UNL A   1      45.785  27.980  29.786  1.00  0.00     0.031 C 
ATOM     67  C   UNL A   1      44.966  26.762  31.864  1.00  0.00     0.037 A 
BRANCH  54  68
ATOM     68  C   UNL A   1      41.800  31.242  30.264  1.00  0.00     0.057 A 
ATOM     69  C   UNL A   1      40.491  31.633  30.572  1.00  0.00     0.134 A 
ATOM     70  C   UNL A   1      42.713  32.235  29.911  1.00  0.00     0.134 A 
ATOM     71  F   UNL A   1      39.572  30.712  30.906  1.00  0.00    -0.206 F 
ATOM     72  C   UNL A   1      40.087  32.965  30.495  1.00  0.00     0.040 A 
ATOM     73  C   UNL A   1      42.324  33.576  29.836  1.00  0.00     0.040 A 
ATOM     74  F   UNL A   1      43.977  31.922  29.592  1.00  0.00    -0.206 F 
ATOM     75  C   UNL A   1      41.005  33.941  30.114  1.00  0.00     0.006 A 
ENDBRANCH  54  68
BRANCH  55  76
ATOM     76  C   UNL A   1      48.115  25.740  26.762  1.00  0.00     0.057 A 
ATOM     77  C   UNL A   1      47.805  25.266  25.468  1.00  0.00     0.134 A 
ATOM     78  C   UNL A   1      49.269  26.523  26.857  1.00  0.00     0.134 A 
ATOM     79  F   UNL A   1      46.785  24.412  25.281  1.00  0.00    -0.206 F 
ATOM     80  C   UNL A   1      48.520  25.653  24.333  1.00  0.00     0.040 A 
ATOM     81  C   UNL A   1      49.985  26.935  25.725  1.00  0.00     0.040 A 
ATOM     82  F   UNL A   1      49.741  26.926  28.044  1.00  0.00    -0.206 F 
ATOM     83  C   UNL A   1      49.600  26.517  24.456  1.00  0.00     0.006 A 
ENDBRANCH  55  76
BRANCH  67  84
ATOM     84  C   UNL A   1      45.154  25.506  32.639  1.00  0.00     0.057 A 
ATOM     85  C   UNL A   1      45.931  25.504  33.801  1.00  0.00     0.134 A 
ATOM     86  C   UNL A   1      44.518  24.312  32.279  1.00  0.00     0.134 A 
ATOM     87  F   UNL A   1      46.556  26.620  34.207  1.00  0.00    -0.206 F 
ATOM     88  C   UNL A   1      46.049  24.359  34.592  1.00  0.00     0.040 A 
ATOM     89  C   UNL A   1      44.610  23.168  33.073  1.00  0.00     0.040 A 
ATOM     90  F   UNL A   1      43.766  24.236  31.169  1.00  0.00    -0.206 F 
ATOM     91  C   UNL A   1      45.376  23.192  34.236  1.00  0.00     0.006 A 
ENDBRANCH  67  84
ENDBRANCH  41  42
ENDBRANCH  34  36
ENDBRANCH  33  34
ENDBRANCH  32  33
ENDBRANCH   1  32
TORSDOF 15
ENDMDL
