MODEL 1
REMARK VINA RESULT:     -11.1      0.000      0.000
REMARK SMILES O=C(OCCOC(=O)[C@H]1CC[C@@]2(CC[N@@H+](C3CC3)C2)C1)c1ccc(-c2c3nc(c(-c4c(F)cccc4F)c4ccc([nH]4)c(-c4c(F)cccc4F)c4nc(c(-c5c(F)cccc5F)c5ccc2[nH]5)C=C4)C=C3)cc1
REMARK SMILES IDX 4 1 3 2 2 3 1 4 21 5 22 6 74 7 23 8 73 9 24 10 25 11 26 12
REMARK SMILES IDX 67 13 27 14 72 15 66 16 68 17 28 18 71 19 65 20 64 21 29 23
REMARK SMILES IDX 55 24 38 25 54 26 39 27 42 28 53 29 69 30 40 31 41 32 52 34
REMARK SMILES IDX 70 35 43 36 30 37 31 38 36 39 32 40 33 41 35 42 37 43 34 44
REMARK SMILES IDX 56 45 57 46 62 47 58 48 59 49 61 50 63 51 60 52 44 53 45 54
REMARK SMILES IDX 50 55 46 56 47 57 49 58 51 59 48 60 5 61 6 62 7 63 8 64 9 65
REMARK SMILES IDX 10 66 20 67 11 68 12 69 13 70 19 71 14 72 15 73 16 75 17 76
REMARK SMILES IDX 18 77
REMARK H PARENT 68 22 42 33 15 74
REMARK Flexibility Score: inf
ROOT
ATOM      1  C   UNL A   1      33.728  29.475  27.067  1.00  0.00     0.275 C 
ENDROOT
BRANCH   1   2
ATOM      2  O   UNL A   1      34.203  30.540  27.923  1.00  0.00    -0.458 OA
BRANCH   2   3
ATOM      3  C   UNL A   1      35.293  30.730  28.705  1.00  0.00     0.338 C 
ATOM      4  O   UNL A   1      35.231  31.603  29.572  1.00  0.00    -0.246 OA
BRANCH   3   5
ATOM      5  C   UNL A   1      36.623  30.042  28.552  1.00  0.00     0.060 A 
ATOM      6  C   UNL A   1      37.355  29.940  27.384  1.00  0.00     0.016 A 
ATOM      7  C   UNL A   1      37.166  29.382  29.684  1.00  0.00     0.016 A 
ATOM      8  C   UNL A   1      38.642  29.343  27.407  1.00  0.00     0.010 A 
ATOM      9  C   UNL A   1      38.479  28.819  29.709  1.00  0.00     0.010 A 
ATOM     10  C   UNL A   1      39.300  28.874  28.585  1.00  0.00    -0.014 A 
BRANCH  10  11
ATOM     11  C   UNL A   1      40.808  28.525  28.527  1.00  0.00     0.031 A 
ATOM     12  C   UNL A   1      41.169  27.139  28.047  1.00  0.00     0.074 A 
ATOM     13  C   UNL A   1      41.872  29.372  28.691  1.00  0.00     0.049 A 
ATOM     14  N   UNL A   1      42.305  26.682  27.582  1.00  0.00    -0.248 NA
ATOM     15  C   UNL A   1      40.095  26.135  28.105  1.00  0.00     0.031 C 
ATOM     16  C   UNL A   1      41.848  30.726  29.233  1.00  0.00     0.029 A 
ATOM     17  N   UNL A   1      43.203  29.267  28.258  1.00  0.00    -0.354 N 
ATOM     18  C   UNL A   1      42.088  25.338  27.330  1.00  0.00     0.074 A 
ATOM     19  C   UNL A   1      40.683  25.084  27.563  1.00  0.00     0.031 C 
ATOM     20  C   UNL A   1      42.948  31.398  28.840  1.00  0.00     0.029 A 
ATOM     21  C   UNL A   1      43.882  30.486  28.188  1.00  0.00     0.049 A 
ATOM     22  H   UNL A   1      43.621  28.407  28.024  1.00  0.00     0.167 HD
ATOM     23  C   UNL A   1      42.983  24.362  27.054  1.00  0.00     0.037 A 
ATOM     24  C   UNL A   1      45.096  30.838  27.673  1.00  0.00     0.037 A 
ATOM     25  C   UNL A   1      44.406  24.523  26.968  1.00  0.00     0.049 A 
ATOM     26  C   UNL A   1      46.074  29.728  27.336  1.00  0.00     0.074 A 
ATOM     27  C   UNL A   1      45.370  23.535  26.872  1.00  0.00     0.029 A 
ATOM     28  N   UNL A   1      45.075  25.731  27.004  1.00  0.00    -0.354 N 
ATOM     29  N   UNL A   1      45.856  28.451  27.161  1.00  0.00    -0.248 NA
ATOM     30  C   UNL A   1      47.504  30.101  27.247  1.00  0.00     0.031 C 
ATOM     31  C   UNL A   1      46.629  24.140  26.913  1.00  0.00     0.029 A 
ATOM     32  C   UNL A   1      46.443  25.509  26.964  1.00  0.00     0.049 A 
ATOM     33  H   UNL A   1      44.645  26.616  27.049  1.00  0.00     0.167 HD
ATOM     34  C   UNL A   1      47.113  27.869  27.016  1.00  0.00     0.074 A 
ATOM     35  C   UNL A   1      48.084  28.936  27.003  1.00  0.00     0.031 C 
ATOM     36  C   UNL A   1      47.428  26.554  26.974  1.00  0.00     0.037 A 
BRANCH  23  37
ATOM     37  C   UNL A   1      42.435  22.974  27.036  1.00  0.00     0.057 A 
ATOM     38  C   UNL A   1      42.086  22.292  28.204  1.00  0.00     0.134 A 
ATOM     39  C   UNL A   1      42.302  22.304  25.812  1.00  0.00     0.134 A 
ATOM     40  F   UNL A   1      42.245  22.871  29.403  1.00  0.00    -0.206 F 
ATOM     41  C   UNL A   1      41.623  20.978  28.155  1.00  0.00     0.040 A 
ATOM     42  C   UNL A   1      41.822  20.999  25.750  1.00  0.00     0.040 A 
ATOM     43  F   UNL A   1      42.651  22.905  24.665  1.00  0.00    -0.206 F 
ATOM     44  C   UNL A   1      41.484  20.332  26.926  1.00  0.00     0.006 A 
ENDBRANCH  23  37
BRANCH  24  45
ATOM     45  C   UNL A   1      45.599  32.260  27.522  1.00  0.00     0.057 A 
ATOM     46  C   UNL A   1      46.252  32.915  28.592  1.00  0.00     0.134 A 
ATOM     47  C   UNL A   1      45.311  33.064  26.412  1.00  0.00     0.134 A 
ATOM     48  F   UNL A   1      46.506  32.257  29.734  1.00  0.00    -0.206 F 
ATOM     49  C   UNL A   1      46.565  34.282  28.566  1.00  0.00     0.040 A 
ATOM     50  C   UNL A   1      45.674  34.418  26.349  1.00  0.00     0.040 A 
ATOM     51  F   UNL A   1      44.622  32.570  25.374  1.00  0.00    -0.206 F 
ATOM     52  C   UNL A   1      46.287  35.038  27.434  1.00  0.00     0.006 A 
ENDBRANCH  24  45
BRANCH  36  53
ATOM     53  C   UNL A   1      48.881  26.174  26.983  1.00  0.00     0.057 A 
ATOM     54  C   UNL A   1      49.609  26.055  25.789  1.00  0.00     0.134 A 
ATOM     55  C   UNL A   1      49.579  25.988  28.182  1.00  0.00     0.134 A 
ATOM     56  F   UNL A   1      49.005  26.219  24.603  1.00  0.00    -0.206 F 
ATOM     57  C   UNL A   1      50.972  25.748  25.789  1.00  0.00     0.040 A 
ATOM     58  C   UNL A   1      50.947  25.704  28.195  1.00  0.00     0.040 A 
ATOM     59  F   UNL A   1      48.948  26.099  29.360  1.00  0.00    -0.206 F 
ATOM     60  C   UNL A   1      51.646  25.577  26.996  1.00  0.00     0.006 A 
ENDBRANCH  36  53
ENDBRANCH  10  11
ENDBRANCH   3   5
ENDBRANCH   2   3
ENDBRANCH   1   2
BRANCH   1  61
ATOM     61  C   UNL A   1      32.245  29.183  27.235  1.00  0.00     0.274 C 
BRANCH  61  62
ATOM     62  O   UNL A   1      31.662  28.712  26.023  1.00  0.00    -0.462 OA
BRANCH  62  63
ATOM     63  C   UNL A   1      31.478  27.369  25.945  1.00  0.00     0.309 C 
ATOM     64  O   UNL A   1      31.120  26.650  26.878  1.00  0.00    -0.252 OA
BRANCH  63  65
ATOM     65  C   UNL A   1      31.805  26.840  24.566  1.00  0.00     0.100 C 
ATOM     66  C   UNL A   1      33.157  27.308  24.082  1.00  0.00     0.016 C 
ATOM     67  C   UNL A   1      31.868  25.296  24.514  1.00  0.00     0.028 C 
ATOM     68  C   UNL A   1      34.027  26.230  24.650  1.00  0.00     0.014 C 
ATOM     69  C   UNL A   1      33.353  24.857  24.577  1.00  0.00     0.026 C 
ATOM     70  C   UNL A   1      33.991  24.082  25.758  1.00  0.00     0.074 C 
ATOM     71  C   UNL A   1      33.610  23.849  23.434  1.00  0.00     0.269 C 
ATOM     72  C   UNL A   1      34.681  22.846  25.201  1.00  0.00     0.263 C 
ATOM     73  N   UNL A   1      33.842  22.528  24.062  1.00  0.00    -0.332 N 
ATOM     74  H   UNL A   1      34.208  21.947  23.308  1.00  0.00     0.348 HD
BRANCH  73  75
ATOM     75  C   UNL A   1      32.751  21.632  24.492  1.00  0.00     0.184 C 
ATOM     76  C   UNL A   1      32.523  20.251  23.917  1.00  0.00     0.071 C 
ATOM     77  C   UNL A   1      32.889  20.425  25.360  1.00  0.00     0.071 C 
ENDBRANCH  73  75
ENDBRANCH  63  65
ENDBRANCH  62  63
ENDBRANCH  61  62
ENDBRANCH   1  61
TORSDOF 12
ENDMDL
MODEL 2
REMARK VINA RESULT:     -11.1      5.858     10.301
REMARK SMILES O=C(OCCOC(=O)[C@H]1CC[C@@]2(CC[N@@H+](C3CC3)C2)C1)c1ccc(-c2c3nc(c(-c4c(F)cccc4F)c4ccc([nH]4)c(-c4c(F)cccc4F)c4nc(c(-c5c(F)cccc5F)c5ccc2[nH]5)C=C4)C=C3)cc1
REMARK SMILES IDX 4 1 3 2 2 3 1 4 21 5 22 6 74 7 23 8 73 9 24 10 25 11 26 12
REMARK SMILES IDX 67 13 27 14 72 15 66 16 68 17 28 18 71 19 65 20 64 21 29 23
REMARK SMILES IDX 55 24 38 25 54 26 39 27 42 28 53 29 69 30 40 31 41 32 52 34
REMARK SMILES IDX 70 35 43 36 30 37 31 38 36 39 32 40 33 41 35 42 37 43 34 44
REMARK SMILES IDX 56 45 57 46 62 47 58 48 59 49 61 50 63 51 60 52 44 53 45 54
REMARK SMILES IDX 50 55 46 56 47 57 49 58 51 59 48 60 5 61 6 62 7 63 8 64 9 65
REMARK SMILES IDX 10 66 20 67 11 68 12 69 13 70 19 71 14 72 15 73 16 75 17 76
REMARK SMILES IDX 18 77
REMARK H PARENT 68 22 42 33 15 74
REMARK Flexibility Score: inf
ROOT
ATOM      1  C   UNL A   1      38.499  22.402  25.836  1.00  0.00     0.275 C 
ENDROOT
BRANCH   1   2
ATOM      2  O   UNL A   1      39.686  22.640  26.628  1.00  0.00    -0.458 OA
BRANCH   2   3
ATOM      3  C   UNL A   1      40.596  23.640  26.717  1.00  0.00     0.338 C 
ATOM      4  O   UNL A   1      41.692  23.466  26.183  1.00  0.00    -0.246 OA
BRANCH   3   5
ATOM      5  C   UNL A   1      40.435  24.917  27.498  1.00  0.00     0.060 A 
ATOM      6  C   UNL A   1      39.411  25.206  28.380  1.00  0.00     0.016 A 
ATOM      7  C   UNL A   1      41.378  25.954  27.281  1.00  0.00     0.016 A 
ATOM      8  C   UNL A   1      39.437  26.416  29.120  1.00  0.00     0.010 A 
ATOM      9  C   UNL A   1      41.419  27.151  28.059  1.00  0.00     0.010 A 
ATOM     10  C   UNL A   1      40.498  27.371  29.080  1.00  0.00    -0.014 A 
BRANCH  10  11
ATOM     11  C   UNL A   1      40.555  28.490  30.149  1.00  0.00     0.031 A 
ATOM     12  C   UNL A   1      39.427  29.496  30.145  1.00  0.00     0.074 A 
ATOM     13  C   UNL A   1      41.410  28.589  31.215  1.00  0.00     0.049 A 
ATOM     14  N   UNL A   1      39.029  30.311  31.089  1.00  0.00    -0.248 NA
ATOM     15  C   UNL A   1      38.648  29.586  28.901  1.00  0.00     0.031 C 
ATOM     16  C   UNL A   1      42.637  27.832  31.436  1.00  0.00     0.029 A 
ATOM     17  N   UNL A   1      41.288  29.287  32.426  1.00  0.00    -0.354 N 
ATOM     18  C   UNL A   1      37.983  31.032  30.538  1.00  0.00     0.074 A 
ATOM     19  C   UNL A   1      37.719  30.466  29.232  1.00  0.00     0.031 C 
ATOM     20  C   UNL A   1      42.965  27.860  32.744  1.00  0.00     0.029 A 
ATOM     21  C   UNL A   1      42.106  28.804  33.452  1.00  0.00     0.049 A 
ATOM     22  H   UNL A   1      40.678  30.050  32.544  1.00  0.00     0.167 HD
ATOM     23  C   UNL A   1      37.369  32.144  31.002  1.00  0.00     0.037 A 
ATOM     24  C   UNL A   1      42.171  29.078  34.787  1.00  0.00     0.037 A 
ATOM     25  C   UNL A   1      37.693  32.843  32.212  1.00  0.00     0.049 A 
ATOM     26  C   UNL A   1      41.446  30.311  35.296  1.00  0.00     0.074 A 
ATOM     27  C   UNL A   1      37.226  34.075  32.635  1.00  0.00     0.029 A 
ATOM     28  N   UNL A   1      38.584  32.404  33.171  1.00  0.00    -0.354 N 
ATOM     29  N   UNL A   1      40.500  31.013  34.730  1.00  0.00    -0.248 NA
ATOM     30  C   UNL A   1      41.897  30.863  36.593  1.00  0.00     0.031 C 
ATOM     31  C   UNL A   1      37.881  34.413  33.822  1.00  0.00     0.029 A 
ATOM     32  C   UNL A   1      38.703  33.358  34.171  1.00  0.00     0.049 A 
ATOM     33  H   UNL A   1      39.062  31.543  33.150  1.00  0.00     0.167 HD
ATOM     34  C   UNL A   1      40.299  32.113  35.559  1.00  0.00     0.074 A 
ATOM     35  C   UNL A   1      41.130  31.935  36.725  1.00  0.00     0.031 C 
ATOM     36  C   UNL A   1      39.543  33.211  35.327  1.00  0.00     0.037 A 
BRANCH  23  37
ATOM     37  C   UNL A   1      36.408  32.789  30.059  1.00  0.00     0.057 A 
ATOM     38  C   UNL A   1      36.830  33.563  28.974  1.00  0.00     0.134 A 
ATOM     39  C   UNL A   1      35.031  32.659  30.284  1.00  0.00     0.134 A 
ATOM     40  F   UNL A   1      38.137  33.761  28.747  1.00  0.00    -0.206 F 
ATOM     41  C   UNL A   1      35.906  34.192  28.141  1.00  0.00     0.040 A 
ATOM     42  C   UNL A   1      34.100  33.266  29.448  1.00  0.00     0.040 A 
ATOM     43  F   UNL A   1      34.577  31.950  31.329  1.00  0.00    -0.206 F 
ATOM     44  C   UNL A   1      34.538  34.038  28.374  1.00  0.00     0.006 A 
ENDBRANCH  23  37
BRANCH  24  45
ATOM     45  C   UNL A   1      43.011  28.317  35.792  1.00  0.00     0.057 A 
ATOM     46  C   UNL A   1      44.398  28.566  35.913  1.00  0.00     0.134 A 
ATOM     47  C   UNL A   1      42.531  27.227  36.528  1.00  0.00     0.134 A 
ATOM     48  F   UNL A   1      44.977  29.539  35.193  1.00  0.00    -0.206 F 
ATOM     49  C   UNL A   1      45.248  27.763  36.690  1.00  0.00     0.040 A 
ATOM     50  C   UNL A   1      43.360  26.454  37.356  1.00  0.00     0.040 A 
ATOM     51  F   UNL A   1      41.250  26.848  36.426  1.00  0.00    -0.206 F 
ATOM     52  C   UNL A   1      44.726  26.708  37.426  1.00  0.00     0.006 A 
ENDBRANCH  24  45
BRANCH  36  53
ATOM     53  C   UNL A   1      39.622  34.345  36.308  1.00  0.00     0.057 A 
ATOM     54  C   UNL A   1      38.867  34.339  37.491  1.00  0.00     0.134 A 
ATOM     55  C   UNL A   1      40.498  35.419  36.111  1.00  0.00     0.134 A 
ATOM     56  F   UNL A   1      38.006  33.342  37.744  1.00  0.00    -0.206 F 
ATOM     57  C   UNL A   1      38.968  35.367  38.431  1.00  0.00     0.040 A 
ATOM     58  C   UNL A   1      40.625  36.441  37.056  1.00  0.00     0.040 A 
ATOM     59  F   UNL A   1      41.259  35.484  35.009  1.00  0.00    -0.206 F 
ATOM     60  C   UNL A   1      39.855  36.419  38.217  1.00  0.00     0.006 A 
ENDBRANCH  36  53
ENDBRANCH  10  11
ENDBRANCH   3   5
ENDBRANCH   2   3
ENDBRANCH   1   2
BRANCH   1  61
ATOM     61  C   UNL A   1      37.499  23.547  25.891  1.00  0.00     0.274 C 
BRANCH  61  62
ATOM     62  O   UNL A   1      36.604  23.514  24.782  1.00  0.00    -0.462 OA
BRANCH  62  63
ATOM     63  C   UNL A   1      35.299  23.745  25.075  1.00  0.00     0.309 C 
ATOM     64  O   UNL A   1      34.632  24.682  24.634  1.00  0.00    -0.252 OA
BRANCH  63  65
ATOM     65  C   UNL A   1      34.757  22.726  26.053  1.00  0.00     0.100 C 
ATOM     66  C   UNL A   1      33.328  23.016  26.446  1.00  0.00     0.016 C 
ATOM     67  C   UNL A   1      34.737  21.292  25.476  1.00  0.00     0.028 C 
ATOM     68  C   UNL A   1      32.604  22.286  25.357  1.00  0.00     0.014 C 
ATOM     69  C   UNL A   1      33.299  20.971  24.993  1.00  0.00     0.026 C 
ATOM     70  C   UNL A   1      32.899  20.753  23.512  1.00  0.00     0.074 C 
ATOM     71  C   UNL A   1      32.884  19.603  25.580  1.00  0.00     0.269 C 
ATOM     72  C   UNL A   1      32.164  19.425  23.406  1.00  0.00     0.263 C 
ATOM     73  N   UNL A   1      32.806  18.650  24.450  1.00  0.00    -0.332 N 
ATOM     74  H   UNL A   1      32.335  17.832  24.837  1.00  0.00     0.348 HD
BRANCH  73  75
ATOM     75  C   UNL A   1      33.983  17.956  23.892  1.00  0.00     0.184 C 
ATOM     76  C   UNL A   1      34.754  16.885  24.631  1.00  0.00     0.071 C 
ATOM     77  C   UNL A   1      34.019  16.559  23.366  1.00  0.00     0.071 C 
ENDBRANCH  73  75
ENDBRANCH  63  65
ENDBRANCH  62  63
ENDBRANCH  61  62
ENDBRANCH   1  61
TORSDOF 12
ENDMDL
MODEL 3
REMARK VINA RESULT:     -11.1      4.677     10.560
REMARK SMILES O=C(OCCOC(=O)[C@H]1CC[C@@]2(CC[N@@H+](C3CC3)C2)C1)c1ccc(-c2c3nc(c(-c4c(F)cccc4F)c4ccc([nH]4)c(-c4c(F)cccc4F)c4nc(c(-c5c(F)cccc5F)c5ccc2[nH]5)C=C4)C=C3)cc1
REMARK SMILES IDX 4 1 3 2 2 3 1 4 21 5 22 6 74 7 23 8 73 9 24 10 25 11 26 12
REMARK SMILES IDX 67 13 27 14 72 15 66 16 68 17 28 18 71 19 65 20 64 21 29 23
REMARK SMILES IDX 55 24 38 25 54 26 39 27 42 28 53 29 69 30 40 31 41 32 52 34
REMARK SMILES IDX 70 35 43 36 30 37 31 38 36 39 32 40 33 41 35 42 37 43 34 44
REMARK SMILES IDX 56 45 57 46 62 47 58 48 59 49 61 50 63 51 60 52 44 53 45 54
REMARK SMILES IDX 50 55 46 56 47 57 49 58 51 59 48 60 5 61 6 62 7 63 8 64 9 65
REMARK SMILES IDX 10 66 20 67 11 68 12 69 13 70 19 71 14 72 15 73 16 75 17 76
REMARK SMILES IDX 18 77
REMARK H PARENT 68 22 42 33 15 74
REMARK Flexibility Score: inf
ROOT
ATOM      1  C   UNL A   1      42.355  19.874  26.325  1.00  0.00     0.275 C 
ENDROOT
BRANCH   1   2
ATOM      2  O   UNL A   1      41.674  21.041  25.808  1.00  0.00    -0.458 OA
BRANCH   2   3
ATOM      3  C   UNL A   1      40.614  21.787  26.202  1.00  0.00     0.338 C 
ATOM      4  O   UNL A   1      39.504  21.484  25.761  1.00  0.00    -0.246 OA
BRANCH   3   5
ATOM      5  C   UNL A   1      40.671  23.026  27.056  1.00  0.00     0.060 A 
ATOM      6  C   UNL A   1      41.557  23.257  28.091  1.00  0.00     0.016 A 
ATOM      7  C   UNL A   1      39.701  24.035  26.833  1.00  0.00     0.016 A 
ATOM      8  C   UNL A   1      41.559  24.513  28.751  1.00  0.00     0.010 A 
ATOM      9  C   UNL A   1      39.735  25.311  27.474  1.00  0.00     0.010 A 
ATOM     10  C   UNL A   1      40.738  25.624  28.388  1.00  0.00    -0.014 A 
BRANCH  10  11
ATOM     11  C   UNL A   1      41.042  27.022  28.981  1.00  0.00     0.031 A 
ATOM     12  C   UNL A   1      42.386  27.626  28.648  1.00  0.00     0.074 A 
ATOM     13  C   UNL A   1      40.178  27.863  29.631  1.00  0.00     0.049 A 
ATOM     14  N   UNL A   1      42.782  28.873  28.708  1.00  0.00    -0.248 NA
ATOM     15  C   UNL A   1      43.420  26.687  28.185  1.00  0.00     0.031 C 
ATOM     16  C   UNL A   1      38.862  27.536  30.167  1.00  0.00     0.029 A 
ATOM     17  N   UNL A   1      40.221  29.253  29.821  1.00  0.00    -0.354 N 
ATOM     18  C   UNL A   1      44.113  28.857  28.328  1.00  0.00     0.074 A 
ATOM     19  C   UNL A   1      44.420  27.506  27.910  1.00  0.00     0.031 C 
ATOM     20  C   UNL A   1      38.137  28.661  30.326  1.00  0.00     0.029 A 
ATOM     21  C   UNL A   1      38.982  29.832  30.109  1.00  0.00     0.049 A 
ATOM     22  H   UNL A   1      41.053  29.775  29.757  1.00  0.00     0.167 HD
ATOM     23  C   UNL A   1      45.046  29.831  28.429  1.00  0.00     0.037 A 
ATOM     24  C   UNL A   1      38.567  31.129  30.194  1.00  0.00     0.037 A 
ATOM     25  C   UNL A   1      44.843  31.139  28.982  1.00  0.00     0.049 A 
ATOM     26  C   UNL A   1      39.627  32.211  30.271  1.00  0.00     0.074 A 
ATOM     27  C   UNL A   1      45.797  32.098  29.275  1.00  0.00     0.029 A 
ATOM     28  N   UNL A   1      43.622  31.663  29.360  1.00  0.00    -0.354 N 
ATOM     29  N   UNL A   1      40.897  32.157  29.962  1.00  0.00    -0.248 NA
ATOM     30  C   UNL A   1      39.211  33.516  30.834  1.00  0.00     0.031 C 
ATOM     31  C   UNL A   1      45.161  33.180  29.890  1.00  0.00     0.029 A 
ATOM     32  C   UNL A   1      43.804  32.921  29.914  1.00  0.00     0.049 A 
ATOM     33  H   UNL A   1      42.753  31.212  29.252  1.00  0.00     0.167 HD
ATOM     34  C   UNL A   1      41.434  33.379  30.357  1.00  0.00     0.074 A 
ATOM     35  C   UNL A   1      40.344  34.203  30.818  1.00  0.00     0.031 C 
ATOM     36  C   UNL A   1      42.735  33.748  30.401  1.00  0.00     0.037 A 
BRANCH  23  37
ATOM     37  C   UNL A   1      46.445  29.417  28.112  1.00  0.00     0.057 A 
ATOM     38  C   UNL A   1      47.286  28.832  29.062  1.00  0.00     0.134 A 
ATOM     39  C   UNL A   1      46.960  29.660  26.831  1.00  0.00     0.134 A 
ATOM     40  F   UNL A   1      46.857  28.628  30.316  1.00  0.00    -0.206 F 
ATOM     41  C   UNL A   1      48.603  28.502  28.746  1.00  0.00     0.040 A 
ATOM     42  C   UNL A   1      48.266  29.317  26.499  1.00  0.00     0.040 A 
ATOM     43  F   UNL A   1      46.201  30.246  25.893  1.00  0.00    -0.206 F 
ATOM     44  C   UNL A   1      49.093  28.739  27.461  1.00  0.00     0.006 A 
ENDBRANCH  23  37
BRANCH  24  45
ATOM     45  C   UNL A   1      37.126  31.574  30.341  1.00  0.00     0.057 A 
ATOM     46  C   UNL A   1      36.398  32.055  29.228  1.00  0.00     0.134 A 
ATOM     47  C   UNL A   1      36.483  31.703  31.579  1.00  0.00     0.134 A 
ATOM     48  F   UNL A   1      36.950  32.050  28.005  1.00  0.00    -0.206 F 
ATOM     49  C   UNL A   1      35.133  32.650  29.348  1.00  0.00     0.040 A 
ATOM     50  C   UNL A   1      35.193  32.240  31.705  1.00  0.00     0.040 A 
ATOM     51  F   UNL A   1      37.111  31.356  32.711  1.00  0.00    -0.206 F 
ATOM     52  C   UNL A   1      34.520  32.733  30.592  1.00  0.00     0.006 A 
ENDBRANCH  24  45
BRANCH  36  53
ATOM     53  C   UNL A   1      43.076  35.069  31.028  1.00  0.00     0.057 A 
ATOM     54  C   UNL A   1      43.155  35.215  32.421  1.00  0.00     0.134 A 
ATOM     55  C   UNL A   1      43.391  36.187  30.247  1.00  0.00     0.134 A 
ATOM     56  F   UNL A   1      42.865  34.186  33.232  1.00  0.00    -0.206 F 
ATOM     57  C   UNL A   1      43.515  36.428  33.013  1.00  0.00     0.040 A 
ATOM     58  C   UNL A   1      43.776  37.399  30.827  1.00  0.00     0.040 A 
ATOM     59  F   UNL A   1      43.348  36.116  28.908  1.00  0.00    -0.206 F 
ATOM     60  C   UNL A   1      43.834  37.523  32.214  1.00  0.00     0.006 A 
ENDBRANCH  36  53
ENDBRANCH  10  11
ENDBRANCH   3   5
ENDBRANCH   2   3
ENDBRANCH   1   2
BRANCH   1  61
ATOM     61  C   UNL A   1      43.526  19.430  25.461  1.00  0.00     0.274 C 
BRANCH  61  62
ATOM     62  O   UNL A   1      43.836  20.396  24.460  1.00  0.00    -0.462 OA
BRANCH  62  63
ATOM     63  C   UNL A   1      44.996  21.077  24.642  1.00  0.00     0.309 C 
ATOM     64  O   UNL A   1      45.976  20.651  25.252  1.00  0.00    -0.252 OA
BRANCH  63  65
ATOM     65  C   UNL A   1      44.933  22.460  24.030  1.00  0.00     0.100 C 
ATOM     66  C   UNL A   1      43.832  23.300  24.632  1.00  0.00     0.016 C 
ATOM     67  C   UNL A   1      46.230  23.273  24.251  1.00  0.00     0.028 C 
ATOM     68  C   UNL A   1      44.562  23.898  25.794  1.00  0.00     0.014 C 
ATOM     69  C   UNL A   1      46.010  24.245  25.438  1.00  0.00     0.026 C 
ATOM     70  C   UNL A   1      46.745  24.149  26.798  1.00  0.00     0.074 C 
ATOM     71  C   UNL A   1      46.457  25.658  24.997  1.00  0.00     0.269 C 
ATOM     72  C   UNL A   1      47.374  25.503  27.098  1.00  0.00     0.263 C 
ATOM     73  N   UNL A   1      47.680  25.987  25.766  1.00  0.00    -0.332 N 
ATOM     74  H   UNL A   1      47.821  26.984  25.609  1.00  0.00     0.348 HD
BRANCH  73  75
ATOM     75  C   UNL A   1      49.029  25.532  25.378  1.00  0.00     0.184 C 
ATOM     76  C   UNL A   1      50.100  26.450  24.833  1.00  0.00     0.071 C 
ATOM     77  C   UNL A   1      50.291  25.751  26.144  1.00  0.00     0.071 C 
ENDBRANCH  73  75
ENDBRANCH  63  65
ENDBRANCH  62  63
ENDBRANCH  61  62
ENDBRANCH   1  61
TORSDOF 12
ENDMDL
