MODEL 1
REMARK VINA RESULT:     -11.2      0.000      0.000
REMARK SMILES CC(C)(C)OC(=O)N1C[C@H](Oc2ccncc2)C[C@H]1C(=O)OCCOC(=O)c1ccc(-c2c3nc(c(-c4c(F)cccc4F)c4ccc([nH]4)c(-c4c(F)cccc4F)c4nc(c(-c5c(F)cccc5F)c5ccc2[nH]5)C=C4)C=C3)cc1
REMARK SMILES IDX 23 1 22 2 20 3 21 4 19 5 8 6 9 7 10 8 18 9 6 10 7 11 5 12
REMARK SMILES IDX 2 13 1 14 3 15 4 16 11 17 12 18 13 19 17 20 14 21 16 22
REMARK SMILES IDX 15 23 24 24 25 25 26 26 27 27 28 28 29 29 81 30 30 31 80 32
REMARK SMILES IDX 31 33 32 34 33 35 74 36 34 37 79 38 73 39 75 40 35 41 78 42
REMARK SMILES IDX 72 43 71 44 36 46 62 47 45 48 61 49 46 50 49 51 60 52 76 53
REMARK SMILES IDX 47 54 48 55 59 57 77 58 50 59 37 60 38 61 43 62 39 63 40 64
REMARK SMILES IDX 42 65 44 66 41 67 63 68 64 69 69 70 65 71 66 72 68 73 70 74
REMARK SMILES IDX 67 75 51 76 52 77 57 78 53 79 54 80 56 81 58 82 55 83
REMARK H PARENT 75 45 49 56
REMARK Flexibility Score: inf
ROOT
ATOM      1  C   UNL A   1      32.315  31.088  26.826  1.00  0.00     0.274 C 
ENDROOT
BRANCH   1   2
ATOM      2  O   UNL A   1      31.684  30.485  25.680  1.00  0.00    -0.461 OA
BRANCH   2   3
ATOM      3  C   UNL A   1      32.359  29.469  25.086  1.00  0.00     0.329 C 
ATOM      4  O   UNL A   1      33.581  29.345  25.136  1.00  0.00    -0.250 OA
BRANCH   3   5
ATOM      5  C   UNL A   1      31.434  28.374  24.518  1.00  0.00     0.202 C 
ATOM      6  N   UNL A   1      31.174  28.367  23.081  1.00  0.00    -0.291 N 
ATOM      7  C   UNL A   1      31.749  27.195  22.445  1.00  0.00     0.169 C 
ATOM      8  C   UNL A   1      31.832  26.155  23.559  1.00  0.00     0.195 C 
ATOM      9  C   UNL A   1      32.019  26.980  24.831  1.00  0.00     0.084 C 
BRANCH   6  10
ATOM     10  C   UNL A   1      30.259  29.221  22.510  1.00  0.00     0.411 C 
ATOM     11  O   UNL A   1      30.385  29.713  21.403  1.00  0.00    -0.224 OA
BRANCH  10  12
ATOM     12  O   UNL A   1      29.228  29.475  23.356  1.00  0.00    -0.444 OA
BRANCH  12  13
ATOM     13  C   UNL A   1      27.922  29.883  22.871  1.00  0.00     0.106 C 
ATOM     14  C   UNL A   1      27.621  31.185  23.630  1.00  0.00     0.056 C 
ATOM     15  C   UNL A   1      26.902  28.814  23.265  1.00  0.00     0.056 C 
ATOM     16  C   UNL A   1      27.869  30.187  21.368  1.00  0.00     0.056 C 
ENDBRANCH  12  13
ENDBRANCH  10  12
ENDBRANCH   6  10
BRANCH   8  17
ATOM     17  O   UNL A   1      30.779  25.178  23.616  1.00  0.00    -0.488 OA
BRANCH  17  18
ATOM     18  C   UNL A   1      31.102  23.903  23.975  1.00  0.00     0.122 A 
ATOM     19  C   UNL A   1      31.859  23.100  23.133  1.00  0.00     0.066 A 
ATOM     20  C   UNL A   1      30.828  23.475  25.268  1.00  0.00     0.066 A 
ATOM     21  C   UNL A   1      32.240  21.853  23.593  1.00  0.00     0.115 A 
ATOM     22  C   UNL A   1      31.261  22.215  25.641  1.00  0.00     0.115 A 
ATOM     23  N   UNL A   1      31.952  21.387  24.827  1.00  0.00    -0.264 NA
ENDBRANCH  17  18
ENDBRANCH   8  17
ENDBRANCH   3   5
ENDBRANCH   2   3
ENDBRANCH   1   2
BRANCH   1  24
ATOM     24  C   UNL A   1      31.738  32.472  27.159  1.00  0.00     0.275 C 
BRANCH  24  25
ATOM     25  O   UNL A   1      32.708  33.529  26.986  1.00  0.00    -0.458 OA
BRANCH  25  26
ATOM     26  C   UNL A   1      33.186  34.066  28.134  1.00  0.00     0.338 C 
ATOM     27  O   UNL A   1      32.641  34.903  28.835  1.00  0.00    -0.246 OA
BRANCH  26  28
ATOM     28  C   UNL A   1      34.413  33.372  28.570  1.00  0.00     0.060 A 
ATOM     29  C   UNL A   1      34.256  32.318  29.475  1.00  0.00     0.016 A 
ATOM     30  C   UNL A   1      35.690  33.772  28.175  1.00  0.00     0.016 A 
ATOM     31  C   UNL A   1      35.363  31.645  29.978  1.00  0.00     0.010 A 
ATOM     32  C   UNL A   1      36.810  33.109  28.700  1.00  0.00     0.010 A 
ATOM     33  C   UNL A   1      36.650  32.046  29.608  1.00  0.00    -0.014 A 
BRANCH  33  34
ATOM     34  C   UNL A   1      37.811  31.386  30.249  1.00  0.00     0.031 A 
ATOM     35  C   UNL A   1      38.140  31.689  31.682  1.00  0.00     0.074 A 
ATOM     36  C   UNL A   1      38.513  30.454  29.576  1.00  0.00     0.049 A 
ATOM     37  N   UNL A   1      39.114  31.226  32.423  1.00  0.00    -0.248 NA
ATOM     38  C   UNL A   1      37.248  32.631  32.376  1.00  0.00     0.031 C 
ATOM     39  C   UNL A   1      38.246  30.024  28.205  1.00  0.00     0.029 A 
ATOM     40  N   UNL A   1      39.588  29.695  29.964  1.00  0.00    -0.354 N 
ATOM     41  C   UNL A   1      38.959  31.824  33.666  1.00  0.00     0.074 A 
ATOM     42  C   UNL A   1      37.808  32.697  33.576  1.00  0.00     0.031 C 
ATOM     43  C   UNL A   1      39.137  29.077  27.864  1.00  0.00     0.029 A 
ATOM     44  C   UNL A   1      40.056  28.863  28.978  1.00  0.00     0.049 A 
ATOM     45  H   UNL A   1      39.986  29.745  30.863  1.00  0.00     0.167 HD
ATOM     46  C   UNL A   1      39.706  31.655  34.782  1.00  0.00     0.037 A 
ATOM     47  C   UNL A   1      41.121  28.037  28.969  1.00  0.00     0.037 A 
ATOM     48  C   UNL A   1      40.848  30.782  34.875  1.00  0.00     0.049 A 
ATOM     49  C   UNL A   1      41.980  27.929  30.200  1.00  0.00     0.074 A 
ATOM     50  C   UNL A   1      41.675  30.557  35.961  1.00  0.00     0.029 A 
ATOM     51  N   UNL A   1      41.320  29.990  33.840  1.00  0.00    -0.354 N 
ATOM     52  N   UNL A   1      41.833  28.509  31.367  1.00  0.00    -0.248 NA
ATOM     53  C   UNL A   1      43.158  27.052  30.112  1.00  0.00     0.031 C 
ATOM     54  C   UNL A   1      42.671  29.653  35.572  1.00  0.00     0.029 A 
ATOM     55  C   UNL A   1      42.438  29.286  34.257  1.00  0.00     0.049 A 
ATOM     56  H   UNL A   1      40.921  29.936  32.942  1.00  0.00     0.167 HD
ATOM     57  C   UNL A   1      42.881  28.051  32.155  1.00  0.00     0.074 A 
ATOM     58  C   UNL A   1      43.648  27.133  31.341  1.00  0.00     0.031 C 
ATOM     59  C   UNL A   1      43.182  28.367  33.438  1.00  0.00     0.037 A 
BRANCH  46  60
ATOM     60  C   UNL A   1      39.326  32.450  35.995  1.00  0.00     0.057 A 
ATOM     61  C   UNL A   1      39.866  33.718  36.245  1.00  0.00     0.134 A 
ATOM     62  C   UNL A   1      38.376  31.959  36.899  1.00  0.00     0.134 A 
ATOM     63  F   UNL A   1      40.791  34.236  35.424  1.00  0.00    -0.206 F 
ATOM     64  C   UNL A   1      39.483  34.464  37.361  1.00  0.00     0.040 A 
ATOM     65  C   UNL A   1      37.970  32.705  38.006  1.00  0.00     0.040 A 
ATOM     66  F   UNL A   1      37.819  30.753  36.714  1.00  0.00    -0.206 F 
ATOM     67  C   UNL A   1      38.526  33.960  38.242  1.00  0.00     0.006 A 
ENDBRANCH  46  60
BRANCH  47  68
ATOM     68  C   UNL A   1      41.462  27.269  27.745  1.00  0.00     0.057 A 
ATOM     69  C   UNL A   1      42.212  27.841  26.712  1.00  0.00     0.134 A 
ATOM     70  C   UNL A   1      41.008  25.957  27.563  1.00  0.00     0.134 A 
ATOM     71  F   UNL A   1      42.653  29.103  26.817  1.00  0.00    -0.206 F 
ATOM     72  C   UNL A   1      42.482  27.145  25.533  1.00  0.00     0.040 A 
ATOM     73  C   UNL A   1      41.293  25.239  26.401  1.00  0.00     0.040 A 
ATOM     74  F   UNL A   1      40.282  25.353  28.515  1.00  0.00    -0.206 F 
ATOM     75  C   UNL A   1      42.024  25.838  25.378  1.00  0.00     0.006 A 
ENDBRANCH  47  68
BRANCH  59  76
ATOM     76  C   UNL A   1      44.370  27.686  34.051  1.00  0.00     0.057 A 
ATOM     77  C   UNL A   1      44.263  26.439  34.678  1.00  0.00     0.134 A 
ATOM     78  C   UNL A   1      45.642  28.269  33.979  1.00  0.00     0.134 A 
ATOM     79  F   UNL A   1      43.070  25.834  34.791  1.00  0.00    -0.206 F 
ATOM     80  C   UNL A   1      45.377  25.803  35.229  1.00  0.00     0.040 A 
ATOM     81  C   UNL A   1      46.766  27.633  34.506  1.00  0.00     0.040 A 
ATOM     82  F   UNL A   1      45.812  29.459  33.384  1.00  0.00    -0.206 F 
ATOM     83  C   UNL A   1      46.634  26.399  35.139  1.00  0.00     0.006 A 
ENDBRANCH  59  76
ENDBRANCH  33  34
ENDBRANCH  26  28
ENDBRANCH  25  26
ENDBRANCH  24  25
ENDBRANCH   1  24
TORSDOF 16
ENDMDL
MODEL 2
REMARK VINA RESULT:     -11.1      4.507      9.180
REMARK SMILES CC(C)(C)OC(=O)N1C[C@H](Oc2ccncc2)C[C@H]1C(=O)OCCOC(=O)c1ccc(-c2c3nc(c(-c4c(F)cccc4F)c4ccc([nH]4)c(-c4c(F)cccc4F)c4nc(c(-c5c(F)cccc5F)c5ccc2[nH]5)C=C4)C=C3)cc1
REMARK SMILES IDX 23 1 22 2 20 3 21 4 19 5 8 6 9 7 10 8 18 9 6 10 7 11 5 12
REMARK SMILES IDX 2 13 1 14 3 15 4 16 11 17 12 18 13 19 17 20 14 21 16 22
REMARK SMILES IDX 15 23 24 24 25 25 26 26 27 27 28 28 29 29 81 30 30 31 80 32
REMARK SMILES IDX 31 33 32 34 33 35 74 36 34 37 79 38 73 39 75 40 35 41 78 42
REMARK SMILES IDX 72 43 71 44 36 46 62 47 45 48 61 49 46 50 49 51 60 52 76 53
REMARK SMILES IDX 47 54 48 55 59 57 77 58 50 59 37 60 38 61 43 62 39 63 40 64
REMARK SMILES IDX 42 65 44 66 41 67 63 68 64 69 69 70 65 71 66 72 68 73 70 74
REMARK SMILES IDX 67 75 51 76 52 77 57 78 53 79 54 80 56 81 58 82 55 83
REMARK H PARENT 75 45 49 56
REMARK Flexibility Score: inf
ROOT
ATOM      1  C   UNL A   1      38.675  21.470  25.787  1.00  0.00     0.274 C 
ENDROOT
BRANCH   1   2
ATOM      2  O   UNL A   1      37.538  21.912  25.019  1.00  0.00    -0.461 OA
BRANCH   2   3
ATOM      3  C   UNL A   1      36.620  22.660  25.680  1.00  0.00     0.329 C 
ATOM      4  O   UNL A   1      36.837  23.800  26.085  1.00  0.00    -0.250 OA
BRANCH   3   5
ATOM      5  C   UNL A   1      35.215  22.026  25.695  1.00  0.00     0.202 C 
ATOM      6  N   UNL A   1      34.132  22.728  25.011  1.00  0.00    -0.291 N 
ATOM      7  C   UNL A   1      33.664  21.981  23.857  1.00  0.00     0.169 C 
ATOM      8  C   UNL A   1      34.018  20.530  24.168  1.00  0.00     0.195 C 
ATOM      9  C   UNL A   1      35.264  20.626  25.046  1.00  0.00     0.084 C 
BRANCH   6  10
ATOM     10  C   UNL A   1      33.488  23.798  25.589  1.00  0.00     0.411 C 
ATOM     11  O   UNL A   1      33.991  24.522  26.429  1.00  0.00    -0.224 OA
BRANCH  10  12
ATOM     12  O   UNL A   1      32.214  23.910  25.134  1.00  0.00    -0.444 OA
BRANCH  12  13
ATOM     13  C   UNL A   1      31.734  25.118  24.490  1.00  0.00     0.106 C 
ATOM     14  C   UNL A   1      30.622  24.635  23.547  1.00  0.00     0.056 C 
ATOM     15  C   UNL A   1      32.877  25.717  23.668  1.00  0.00     0.056 C 
ATOM     16  C   UNL A   1      31.128  26.152  25.448  1.00  0.00     0.056 C 
ENDBRANCH  12  13
ENDBRANCH  10  12
ENDBRANCH   6  10
BRANCH   8  17
ATOM     17  O   UNL A   1      32.966  19.702  24.694  1.00  0.00    -0.488 OA
BRANCH  17  18
ATOM     18  C   UNL A   1      33.171  18.356  24.747  1.00  0.00     0.122 A 
ATOM     19  C   UNL A   1      32.637  17.597  25.779  1.00  0.00     0.066 A 
ATOM     20  C   UNL A   1      33.758  17.719  23.659  1.00  0.00     0.066 A 
ATOM     21  C   UNL A   1      32.793  16.224  25.724  1.00  0.00     0.115 A 
ATOM     22  C   UNL A   1      33.857  16.339  23.691  1.00  0.00     0.115 A 
ATOM     23  N   UNL A   1      33.398  15.577  24.707  1.00  0.00    -0.264 NA
ENDBRANCH  17  18
ENDBRANCH   8  17
ENDBRANCH   3   5
ENDBRANCH   2   3
ENDBRANCH   1   2
BRANCH   1  24
ATOM     24  C   UNL A   1      39.296  20.178  25.234  1.00  0.00     0.275 C 
BRANCH  24  25
ATOM     25  O   UNL A   1      40.106  19.494  26.215  1.00  0.00    -0.458 OA
BRANCH  25  26
ATOM     26  C   UNL A   1      41.444  19.631  26.055  1.00  0.00     0.338 C 
ATOM     27  O   UNL A   1      42.195  18.867  25.472  1.00  0.00    -0.246 OA
BRANCH  26  28
ATOM     28  C   UNL A   1      41.898  20.953  26.526  1.00  0.00     0.060 A 
ATOM     29  C   UNL A   1      41.693  21.248  27.877  1.00  0.00     0.016 A 
ATOM     30  C   UNL A   1      42.442  21.916  25.674  1.00  0.00     0.016 A 
ATOM     31  C   UNL A   1      42.042  22.490  28.394  1.00  0.00     0.010 A 
ATOM     32  C   UNL A   1      42.773  23.178  26.189  1.00  0.00     0.010 A 
ATOM     33  C   UNL A   1      42.569  23.472  27.549  1.00  0.00    -0.014 A 
BRANCH  33  34
ATOM     34  C   UNL A   1      42.823  24.822  28.104  1.00  0.00     0.031 A 
ATOM     35  C   UNL A   1      44.227  25.232  28.444  1.00  0.00     0.074 A 
ATOM     36  C   UNL A   1      41.814  25.705  28.221  1.00  0.00     0.049 A 
ATOM     37  N   UNL A   1      44.660  26.361  28.944  1.00  0.00    -0.248 NA
ATOM     38  C   UNL A   1      45.284  24.245  28.173  1.00  0.00     0.031 C 
ATOM     39  C   UNL A   1      40.421  25.446  27.859  1.00  0.00     0.029 A 
ATOM     40  N   UNL A   1      41.810  27.002  28.668  1.00  0.00    -0.354 N 
ATOM     41  C   UNL A   1      46.037  26.219  29.057  1.00  0.00     0.074 A 
ATOM     42  C   UNL A   1      46.366  24.889  28.589  1.00  0.00     0.031 C 
ATOM     43  C   UNL A   1      39.695  26.552  28.101  1.00  0.00     0.029 A 
ATOM     44  C   UNL A   1      40.565  27.579  28.668  1.00  0.00     0.049 A 
ATOM     45  H   UNL A   1      42.623  27.473  28.963  1.00  0.00     0.167 HD
ATOM     46  C   UNL A   1      46.944  27.118  29.506  1.00  0.00     0.037 A 
ATOM     47  C   UNL A   1      40.168  28.793  29.098  1.00  0.00     0.037 A 
ATOM     48  C   UNL A   1      46.618  28.443  29.966  1.00  0.00     0.049 A 
ATOM     49  C   UNL A   1      41.188  29.744  29.665  1.00  0.00     0.074 A 
ATOM     50  C   UNL A   1      47.469  29.420  30.453  1.00  0.00     0.029 A 
ATOM     51  N   UNL A   1      45.339  28.976  29.995  1.00  0.00    -0.354 N 
ATOM     52  N   UNL A   1      42.485  29.595  29.779  1.00  0.00    -0.248 NA
ATOM     53  C   UNL A   1      40.686  31.032  30.165  1.00  0.00     0.031 C 
ATOM     54  C   UNL A   1      46.699  30.534  30.809  1.00  0.00     0.029 A 
ATOM     55  C   UNL A   1      45.375  30.263  30.505  1.00  0.00     0.049 A 
ATOM     56  H   UNL A   1      44.525  28.508  29.697  1.00  0.00     0.167 HD
ATOM     57  C   UNL A   1      42.956  30.774  30.342  1.00  0.00     0.074 A 
ATOM     58  C   UNL A   1      41.808  31.636  30.531  1.00  0.00     0.031 C 
ATOM     59  C   UNL A   1      44.225  31.112  30.675  1.00  0.00     0.037 A 
BRANCH  46  60
ATOM     60  C   UNL A   1      48.380  26.692  29.543  1.00  0.00     0.057 A 
ATOM     61  C   UNL A   1      49.263  26.979  28.495  1.00  0.00     0.134 A 
ATOM     62  C   UNL A   1      48.895  26.023  30.661  1.00  0.00     0.134 A 
ATOM     63  F   UNL A   1      48.826  27.604  27.391  1.00  0.00    -0.206 F 
ATOM     64  C   UNL A   1      50.607  26.605  28.552  1.00  0.00     0.040 A 
ATOM     65  C   UNL A   1      50.242  25.663  30.738  1.00  0.00     0.040 A 
ATOM     66  F   UNL A   1      48.102  25.722  31.700  1.00  0.00    -0.206 F 
ATOM     67  C   UNL A   1      51.101  25.951  29.680  1.00  0.00     0.006 A 
ENDBRANCH  46  60
BRANCH  47  68
ATOM     68  C   UNL A   1      38.734  29.174  29.044  1.00  0.00     0.057 A 
ATOM     69  C   UNL A   1      37.893  29.000  30.148  1.00  0.00     0.134 A 
ATOM     70  C   UNL A   1      38.163  29.682  27.871  1.00  0.00     0.134 A 
ATOM     71  F   UNL A   1      38.376  28.493  31.292  1.00  0.00    -0.206 F 
ATOM     72  C   UNL A   1      36.531  29.298  30.083  1.00  0.00     0.040 A 
ATOM     73  C   UNL A   1      36.808  30.009  27.799  1.00  0.00     0.040 A 
ATOM     74  F   UNL A   1      38.915  29.869  26.776  1.00  0.00    -0.206 F 
ATOM     75  C   UNL A   1      35.986  29.808  28.906  1.00  0.00     0.006 A 
ENDBRANCH  47  68
BRANCH  59  76
ATOM     76  C   UNL A   1      44.444  32.483  31.243  1.00  0.00     0.057 A 
ATOM     77  C   UNL A   1      44.679  33.592  30.422  1.00  0.00     0.134 A 
ATOM     78  C   UNL A   1      44.381  32.700  32.626  1.00  0.00     0.134 A 
ATOM     79  F   UNL A   1      44.764  33.447  29.091  1.00  0.00    -0.206 F 
ATOM     80  C   UNL A   1      44.863  34.868  30.958  1.00  0.00     0.040 A 
ATOM     81  C   UNL A   1      44.541  33.974  33.171  1.00  0.00     0.040 A 
ATOM     82  F   UNL A   1      44.151  31.680  33.466  1.00  0.00    -0.206 F 
ATOM     83  C   UNL A   1      44.789  35.062  32.336  1.00  0.00     0.006 A 
ENDBRANCH  59  76
ENDBRANCH  33  34
ENDBRANCH  26  28
ENDBRANCH  25  26
ENDBRANCH  24  25
ENDBRANCH   1  24
TORSDOF 16
ENDMDL
MODEL 3
REMARK VINA RESULT:     -11.1      3.533      5.803
REMARK SMILES CC(C)(C)OC(=O)N1C[C@H](Oc2ccncc2)C[C@H]1C(=O)OCCOC(=O)c1ccc(-c2c3nc(c(-c4c(F)cccc4F)c4ccc([nH]4)c(-c4c(F)cccc4F)c4nc(c(-c5c(F)cccc5F)c5ccc2[nH]5)C=C4)C=C3)cc1
REMARK SMILES IDX 23 1 22 2 20 3 21 4 19 5 8 6 9 7 10 8 18 9 6 10 7 11 5 12
REMARK SMILES IDX 2 13 1 14 3 15 4 16 11 17 12 18 13 19 17 20 14 21 16 22
REMARK SMILES IDX 15 23 24 24 25 25 26 26 27 27 28 28 29 29 81 30 30 31 80 32
REMARK SMILES IDX 31 33 32 34 33 35 74 36 34 37 79 38 73 39 75 40 35 41 78 42
REMARK SMILES IDX 72 43 71 44 36 46 62 47 45 48 61 49 46 50 49 51 60 52 76 53
REMARK SMILES IDX 47 54 48 55 59 57 77 58 50 59 37 60 38 61 43 62 39 63 40 64
REMARK SMILES IDX 42 65 44 66 41 67 63 68 64 69 69 70 65 71 66 72 68 73 70 74
REMARK SMILES IDX 67 75 51 76 52 77 57 78 53 79 54 80 56 81 58 82 55 83
REMARK H PARENT 75 45 49 56
REMARK Flexibility Score: inf
ROOT
ATOM      1  C   UNL A   1      33.278  29.496  25.363  1.00  0.00     0.274 C 
ENDROOT
BRANCH   1   2
ATOM      2  O   UNL A   1      33.462  28.284  24.606  1.00  0.00    -0.461 OA
BRANCH   2   3
ATOM      3  C   UNL A   1      33.384  28.401  23.256  1.00  0.00     0.329 C 
ATOM      4  O   UNL A   1      34.366  28.519  22.527  1.00  0.00    -0.250 OA
BRANCH   3   5
ATOM      5  C   UNL A   1      31.963  28.165  22.706  1.00  0.00     0.202 C 
ATOM      6  N   UNL A   1      31.353  26.853  22.905  1.00  0.00    -0.291 N 
ATOM      7  C   UNL A   1      30.211  26.931  23.798  1.00  0.00     0.169 C 
ATOM      8  C   UNL A   1      29.721  28.370  23.670  1.00  0.00     0.195 C 
ATOM      9  C   UNL A   1      30.980  29.170  23.344  1.00  0.00     0.084 C 
BRANCH   6  10
ATOM     10  C   UNL A   1      31.676  25.780  22.107  1.00  0.00     0.411 C 
ATOM     11  O   UNL A   1      32.020  25.876  20.943  1.00  0.00    -0.224 OA
BRANCH  10  12
ATOM     12  O   UNL A   1      31.518  24.606  22.772  1.00  0.00    -0.444 OA
BRANCH  12  13
ATOM     13  C   UNL A   1      32.603  23.994  23.514  1.00  0.00     0.106 C 
ATOM     14  C   UNL A   1      32.718  22.578  22.928  1.00  0.00     0.056 C 
ATOM     15  C   UNL A   1      32.198  23.906  24.986  1.00  0.00     0.056 C 
ATOM     16  C   UNL A   1      33.961  24.689  23.343  1.00  0.00     0.056 C 
ENDBRANCH  12  13
ENDBRANCH  10  12
ENDBRANCH   6  10
BRANCH   8  17
ATOM     17  O   UNL A   1      28.608  28.602  22.790  1.00  0.00    -0.488 OA
BRANCH  17  18
ATOM     18  C   UNL A   1      28.277  29.891  22.495  1.00  0.00     0.122 A 
ATOM     19  C   UNL A   1      27.899  30.773  23.497  1.00  0.00     0.066 A 
ATOM     20  C   UNL A   1      28.502  30.368  21.209  1.00  0.00     0.066 A 
ATOM     21  C   UNL A   1      27.673  32.092  23.151  1.00  0.00     0.115 A 
ATOM     22  C   UNL A   1      28.259  31.708  20.963  1.00  0.00     0.115 A 
ATOM     23  N   UNL A   1      27.837  32.580  21.903  1.00  0.00    -0.264 NA
ENDBRANCH  17  18
ENDBRANCH   8  17
ENDBRANCH   3   5
ENDBRANCH   2   3
ENDBRANCH   1   2
BRANCH   1  24
ATOM     24  C   UNL A   1      32.936  29.227  26.836  1.00  0.00     0.275 C 
BRANCH  24  25
ATOM     25  O   UNL A   1      34.114  29.011  27.644  1.00  0.00    -0.458 OA
BRANCH  25  26
ATOM     26  C   UNL A   1      34.748  30.136  28.051  1.00  0.00     0.338 C 
ATOM     27  O   UNL A   1      34.241  31.224  28.273  1.00  0.00    -0.246 OA
BRANCH  26  28
ATOM     28  C   UNL A   1      36.157  29.855  28.388  1.00  0.00     0.060 A 
ATOM     29  C   UNL A   1      37.096  30.018  27.365  1.00  0.00     0.016 A 
ATOM     30  C   UNL A   1      36.556  29.377  29.636  1.00  0.00     0.016 A 
ATOM     31  C   UNL A   1      38.437  29.725  27.580  1.00  0.00     0.010 A 
ATOM     32  C   UNL A   1      37.906  29.058  29.848  1.00  0.00     0.010 A 
ATOM     33  C   UNL A   1      38.850  29.225  28.819  1.00  0.00    -0.014 A 
BRANCH  33  34
ATOM     34  C   UNL A   1      40.264  28.813  28.981  1.00  0.00     0.031 A 
ATOM     35  C   UNL A   1      41.235  29.742  29.651  1.00  0.00     0.074 A 
ATOM     36  C   UNL A   1      40.655  27.580  28.609  1.00  0.00     0.049 A 
ATOM     37  N   UNL A   1      42.512  29.576  29.884  1.00  0.00    -0.248 NA
ATOM     38  C   UNL A   1      40.695  31.023  30.133  1.00  0.00     0.031 C 
ATOM     39  C   UNL A   1      39.789  26.565  28.011  1.00  0.00     0.029 A 
ATOM     40  N   UNL A   1      41.881  26.971  28.689  1.00  0.00    -0.354 N 
ATOM     41  C   UNL A   1      42.931  30.731  30.530  1.00  0.00     0.074 A 
ATOM     42  C   UNL A   1      41.777  31.598  30.640  1.00  0.00     0.031 C 
ATOM     43  C   UNL A   1      40.513  25.457  27.777  1.00  0.00     0.029 A 
ATOM     44  C   UNL A   1      41.897  25.699  28.173  1.00  0.00     0.049 A 
ATOM     45  H   UNL A   1      42.675  27.405  29.079  1.00  0.00     0.167 HD
ATOM     46  C   UNL A   1      44.165  31.037  30.996  1.00  0.00     0.037 A 
ATOM     47  C   UNL A   1      42.920  24.835  28.018  1.00  0.00     0.037 A 
ATOM     48  C   UNL A   1      45.312  30.173  30.894  1.00  0.00     0.049 A 
ATOM     49  C   UNL A   1      44.298  25.235  28.474  1.00  0.00     0.074 A 
ATOM     50  C   UNL A   1      46.607  30.404  31.324  1.00  0.00     0.029 A 
ATOM     51  N   UNL A   1      45.300  28.911  30.321  1.00  0.00    -0.354 N 
ATOM     52  N   UNL A   1      44.686  26.334  29.072  1.00  0.00    -0.248 NA
ATOM     53  C   UNL A   1      45.382  24.271  28.230  1.00  0.00     0.031 C 
ATOM     54  C   UNL A   1      47.387  29.294  30.980  1.00  0.00     0.029 A 
ATOM     55  C   UNL A   1      46.568  28.356  30.373  1.00  0.00     0.049 A 
ATOM     56  H   UNL A   1      44.507  28.473  29.935  1.00  0.00     0.167 HD
ATOM     57  C   UNL A   1      46.048  26.187  29.296  1.00  0.00     0.074 A 
ATOM     58  C   UNL A   1      46.418  24.884  28.784  1.00  0.00     0.031 C 
ATOM     59  C   UNL A   1      46.917  27.054  29.870  1.00  0.00     0.037 A 
BRANCH  46  60
ATOM     60  C   UNL A   1      44.347  32.378  31.642  1.00  0.00     0.057 A 
ATOM     61  C   UNL A   1      44.670  33.518  30.896  1.00  0.00     0.134 A 
ATOM     62  C   UNL A   1      44.154  32.536  33.020  1.00  0.00     0.134 A 
ATOM     63  F   UNL A   1      44.881  33.428  29.575  1.00  0.00    -0.206 F 
ATOM     64  C   UNL A   1      44.806  34.769  31.502  1.00  0.00     0.040 A 
ATOM     65  C   UNL A   1      44.267  33.785  33.633  1.00  0.00     0.040 A 
ATOM     66  F   UNL A   1      43.840  31.483  33.789  1.00  0.00    -0.206 F 
ATOM     67  C   UNL A   1      44.598  34.905  32.874  1.00  0.00     0.006 A 
ENDBRANCH  46  60
BRANCH  47  68
ATOM     68  C   UNL A   1      42.695  23.518  27.371  1.00  0.00     0.057 A 
ATOM     69  C   UNL A   1      42.331  22.393  28.119  1.00  0.00     0.134 A 
ATOM     70  C   UNL A   1      42.880  23.345  25.994  1.00  0.00     0.134 A 
ATOM     71  F   UNL A   1      42.165  22.489  29.446  1.00  0.00    -0.206 F 
ATOM     72  C   UNL A   1      42.180  21.139  27.525  1.00  0.00     0.040 A 
ATOM     73  C   UNL A   1      42.706  22.103  25.383  1.00  0.00     0.040 A 
ATOM     74  F   UNL A   1      43.232  24.384  25.222  1.00  0.00    -0.206 F 
ATOM     75  C   UNL A   1      42.364  20.993  26.151  1.00  0.00     0.006 A 
ENDBRANCH  47  68
BRANCH  59  76
ATOM     76  C   UNL A   1      48.341  26.607  30.010  1.00  0.00     0.057 A 
ATOM     77  C   UNL A   1      49.318  26.951  29.067  1.00  0.00     0.134 A 
ATOM     78  C   UNL A   1      48.748  25.854  31.119  1.00  0.00     0.134 A 
ATOM     79  F   UNL A   1      48.989  27.659  27.975  1.00  0.00    -0.206 F 
ATOM     80  C   UNL A   1      50.646  26.546  29.213  1.00  0.00     0.040 A 
ATOM     81  C   UNL A   1      50.076  25.463  31.288  1.00  0.00     0.040 A 
ATOM     82  F   UNL A   1      47.862  25.499  32.062  1.00  0.00    -0.206 F 
ATOM     83  C   UNL A   1      51.028  25.804  30.330  1.00  0.00     0.006 A 
ENDBRANCH  59  76
ENDBRANCH  33  34
ENDBRANCH  26  28
ENDBRANCH  25  26
ENDBRANCH  24  25
ENDBRANCH   1  24
TORSDOF 16
ENDMDL
