MODEL 1
REMARK VINA RESULT:     -11.2      0.000      0.000
REMARK SMILES C[C@H](NC(=O)OCc1ccccc1)C(=O)NCC(=O)N1CCC[C@H]1C(=O)OCCOC(=O)c1ccc(-c2c3nc(c(-c4c(F)cccc4F)c4ccc([nH]4)c(-c4c(F)cccc4F)c4nc(c(-c5c(F)cccc5F)c5ccc2[nH]5)C=C4)C=C3)cc1
REMARK SMILES IDX 20 1 21 2 22 3 23 4 24 5 18 6 19 7 17 8 16 9 14 10 15 11
REMARK SMILES IDX 2 13 1 14 3 15 4 16 5 18 6 19 7 20 8 21 9 22 13 23 10 24
REMARK SMILES IDX 12 25 11 26 25 27 26 28 27 29 28 30 29 31 30 32 31 33 32 34
REMARK SMILES IDX 33 35 34 36 86 37 35 38 85 39 36 40 37 41 38 42 79 43 39 44
REMARK SMILES IDX 84 45 78 46 80 47 40 48 83 49 77 50 76 51 41 53 67 54 50 55
REMARK SMILES IDX 66 56 51 57 54 58 65 59 81 60 52 61 53 62 64 64 82 65 55 66
REMARK SMILES IDX 42 67 43 68 48 69 44 70 45 71 47 72 49 73 46 74 68 75 69 76
REMARK SMILES IDX 74 77 70 78 71 79 73 80 75 81 72 82 56 83 57 84 62 85 58 86
REMARK SMILES IDX 59 87 61 88 63 89 60 90
REMARK H PARENT 16 12 3 17 80 52 54 63
REMARK Flexibility Score: inf
ROOT
ATOM      1  N   UNL A   1      30.942  26.589  22.525  1.00  0.00    -0.327 N 
ATOM      2  C   UNL A   1      30.216  26.040  23.656  1.00  0.00     0.120 C 
ATOM      3  C   UNL A   1      28.986  26.929  23.808  1.00  0.00     0.024 C 
ATOM      4  C   UNL A   1      29.219  28.124  22.881  1.00  0.00     0.039 C 
ATOM      5  C   UNL A   1      30.663  28.015  22.410  1.00  0.00     0.195 C 
ENDROOT
BRANCH   1   6
ATOM      6  C   UNL A   1      31.912  26.044  21.725  1.00  0.00     0.242 C 
ATOM      7  O   UNL A   1      31.725  25.953  20.505  1.00  0.00    -0.273 OA
BRANCH   6   8
ATOM      8  C   UNL A   1      33.118  25.307  22.318  1.00  0.00     0.216 C 
BRANCH   8   9
ATOM      9  N   UNL A   1      33.701  25.701  23.581  1.00  0.00    -0.345 N 
ATOM     10  C   UNL A   1      33.799  25.017  24.755  1.00  0.00     0.242 C 
ATOM     11  O   UNL A   1      34.402  25.573  25.679  1.00  0.00    -0.273 OA
ATOM     12  H   UNL A   1      34.088  26.607  23.595  1.00  0.00     0.164 HD
BRANCH  10  13
ATOM     13  C   UNL A   1      33.205  23.603  24.949  1.00  0.00     0.171 C 
ATOM     14  C   UNL A   1      31.995  23.613  25.868  1.00  0.00     0.042 C 
BRANCH  13  15
ATOM     15  N   UNL A   1      34.264  22.629  25.199  1.00  0.00    -0.310 N 
ATOM     16  C   UNL A   1      34.433  21.324  24.867  1.00  0.00     0.408 C 
ATOM     17  H   UNL A   1      35.015  22.998  25.717  1.00  0.00     0.167 HD
ATOM     18  O   UNL A   1      35.400  20.712  25.288  1.00  0.00    -0.225 OA
BRANCH  16  19
ATOM     19  O   UNL A   1      33.475  20.813  24.065  1.00  0.00    -0.445 OA
BRANCH  19  20
ATOM     20  C   UNL A   1      32.534  19.954  24.736  1.00  0.00     0.270 C 
BRANCH  20  21
ATOM     21  C   UNL A   1      32.892  18.484  24.677  1.00  0.00    -0.011 A 
ATOM     22  C   UNL A   1      33.549  17.933  23.569  1.00  0.00     0.007 A 
ATOM     23  C   UNL A   1      32.556  17.643  25.750  1.00  0.00     0.007 A 
ATOM     24  C   UNL A   1      33.893  16.579  23.549  1.00  0.00     0.000 A 
ATOM     25  C   UNL A   1      32.894  16.290  25.725  1.00  0.00     0.000 A 
ATOM     26  C   UNL A   1      33.567  15.759  24.627  1.00  0.00     0.000 A 
ENDBRANCH  20  21
ENDBRANCH  19  20
ENDBRANCH  16  19
ENDBRANCH  13  15
ENDBRANCH  10  13
ENDBRANCH   8   9
ENDBRANCH   6   8
ENDBRANCH   1   6
BRANCH   5  27
ATOM     27  C   UNL A   1      31.643  28.799  23.294  1.00  0.00     0.328 C 
ATOM     28  O   UNL A   1      32.864  28.735  23.193  1.00  0.00    -0.250 OA
BRANCH  27  29
ATOM     29  O   UNL A   1      30.978  29.570  24.196  1.00  0.00    -0.461 OA
BRANCH  29  30
ATOM     30  C   UNL A   1      31.434  29.513  25.559  1.00  0.00     0.274 C 
BRANCH  30  31
ATOM     31  C   UNL A   1      31.574  30.924  26.124  1.00  0.00     0.275 C 
BRANCH  31  32
ATOM     32  O   UNL A   1      32.452  30.927  27.266  1.00  0.00    -0.458 OA
BRANCH  32  33
ATOM     33  C   UNL A   1      33.226  32.029  27.381  1.00  0.00     0.338 C 
ATOM     34  O   UNL A   1      32.892  33.194  27.251  1.00  0.00    -0.246 OA
BRANCH  33  35
ATOM     35  C   UNL A   1      34.581  31.658  27.805  1.00  0.00     0.060 A 
ATOM     36  C   UNL A   1      34.809  30.340  28.186  1.00  0.00     0.016 A 
ATOM     37  C   UNL A   1      35.541  32.635  28.051  1.00  0.00     0.016 A 
ATOM     38  C   UNL A   1      35.918  30.027  28.960  1.00  0.00     0.010 A 
ATOM     39  C   UNL A   1      36.740  32.275  28.680  1.00  0.00     0.010 A 
ATOM     40  C   UNL A   1      36.931  30.971  29.174  1.00  0.00    -0.014 A 
BRANCH  40  41
ATOM     41  C   UNL A   1      38.180  30.576  29.888  1.00  0.00     0.031 A 
ATOM     42  C   UNL A   1      39.176  29.644  29.247  1.00  0.00     0.074 A 
ATOM     43  C   UNL A   1      38.422  31.055  31.128  1.00  0.00     0.049 A 
ATOM     44  N   UNL A   1      40.187  29.014  29.792  1.00  0.00    -0.248 NA
ATOM     45  C   UNL A   1      39.009  29.372  27.811  1.00  0.00     0.031 C 
ATOM     46  C   UNL A   1      37.568  31.997  31.859  1.00  0.00     0.029 A 
ATOM     47  N   UNL A   1      39.457  30.816  31.999  1.00  0.00    -0.354 N 
ATOM     48  C   UNL A   1      40.742  28.235  28.784  1.00  0.00     0.074 A 
ATOM     49  C   UNL A   1      39.950  28.463  27.594  1.00  0.00     0.031 C 
ATOM     50  C   UNL A   1      38.129  32.285  33.039  1.00  0.00     0.029 A 
ATOM     51  C   UNL A   1      39.310  31.453  33.209  1.00  0.00     0.049 A 
ATOM     52  H   UNL A   1      40.227  30.243  31.779  1.00  0.00     0.167 HD
ATOM     53  C   UNL A   1      41.815  27.409  28.849  1.00  0.00     0.037 A 
ATOM     54  C   UNL A   1      39.995  31.333  34.360  1.00  0.00     0.037 A 
ATOM     55  C   UNL A   1      42.622  27.223  30.029  1.00  0.00     0.049 A 
ATOM     56  C   UNL A   1      41.134  30.361  34.427  1.00  0.00     0.074 A 
ATOM     57  C   UNL A   1      43.731  26.411  30.198  1.00  0.00     0.029 A 
ATOM     58  N   UNL A   1      42.415  27.870  31.239  1.00  0.00    -0.354 N 
ATOM     59  N   UNL A   1      41.614  29.588  33.483  1.00  0.00    -0.248 NA
ATOM     60  C   UNL A   1      41.812  30.226  35.721  1.00  0.00     0.031 C 
ATOM     61  C   UNL A   1      44.168  26.534  31.520  1.00  0.00     0.029 A 
ATOM     62  C   UNL A   1      43.365  27.462  32.162  1.00  0.00     0.049 A 
ATOM     63  H   UNL A   1      41.700  28.523  31.416  1.00  0.00     0.167 HD
ATOM     64  C   UNL A   1      42.657  28.884  34.066  1.00  0.00     0.074 A 
ATOM     65  C   UNL A   1      42.759  29.344  35.436  1.00  0.00     0.031 C 
ATOM     66  C   UNL A   1      43.455  27.935  33.519  1.00  0.00     0.037 A 
BRANCH  53  67
ATOM     67  C   UNL A   1      42.173  26.619  27.622  1.00  0.00     0.057 A 
ATOM     68  C   UNL A   1      43.043  27.114  26.643  1.00  0.00     0.134 A 
ATOM     69  C   UNL A   1      41.689  25.314  27.450  1.00  0.00     0.134 A 
ATOM     70  F   UNL A   1      43.537  28.358  26.740  1.00  0.00    -0.206 F 
ATOM     71  C   UNL A   1      43.406  26.349  25.531  1.00  0.00     0.040 A 
ATOM     72  C   UNL A   1      42.065  24.529  26.357  1.00  0.00     0.040 A 
ATOM     73  F   UNL A   1      40.858  24.771  28.353  1.00  0.00    -0.206 F 
ATOM     74  C   UNL A   1      42.924  25.049  25.391  1.00  0.00     0.006 A 
ENDBRANCH  53  67
BRANCH  54  75
ATOM     75  C   UNL A   1      39.565  32.091  35.564  1.00  0.00     0.057 A 
ATOM     76  C   UNL A   1      38.589  31.589  36.431  1.00  0.00     0.134 A 
ATOM     77  C   UNL A   1      40.117  33.343  35.873  1.00  0.00     0.134 A 
ATOM     78  F   UNL A   1      38.007  30.407  36.179  1.00  0.00    -0.206 F 
ATOM     79  C   UNL A   1      38.162  32.310  37.547  1.00  0.00     0.040 A 
ATOM     80  C   UNL A   1      39.728  34.057  37.007  1.00  0.00     0.040 A 
ATOM     81  F   UNL A   1      41.063  33.880  35.088  1.00  0.00    -0.206 F 
ATOM     82  C   UNL A   1      38.739  33.544  37.843  1.00  0.00     0.006 A 
ENDBRANCH  54  75
BRANCH  66  83
ATOM     83  C   UNL A   1      44.526  27.362  34.398  1.00  0.00     0.057 A 
ATOM     84  C   UNL A   1      44.341  26.166  35.104  1.00  0.00     0.134 A 
ATOM     85  C   UNL A   1      45.763  28.006  34.523  1.00  0.00     0.134 A 
ATOM     86  F   UNL A   1      43.171  25.513  35.040  1.00  0.00    -0.206 F 
ATOM     87  C   UNL A   1      45.343  25.643  35.923  1.00  0.00     0.040 A 
ATOM     88  C   UNL A   1      46.782  27.476  35.316  1.00  0.00     0.040 A 
ATOM     89  F   UNL A   1      46.006  29.151  33.869  1.00  0.00    -0.206 F 
ATOM     90  C   UNL A   1      46.570  26.296  36.024  1.00  0.00     0.006 A 
ENDBRANCH  66  83
ENDBRANCH  40  41
ENDBRANCH  33  35
ENDBRANCH  32  33
ENDBRANCH  31  32
ENDBRANCH  30  31
ENDBRANCH  29  30
ENDBRANCH  27  29
ENDBRANCH   5  27
TORSDOF 19
ENDMDL
MODEL 2
REMARK VINA RESULT:     -11.0      4.212      7.472
REMARK SMILES C[C@H](NC(=O)OCc1ccccc1)C(=O)NCC(=O)N1CCC[C@H]1C(=O)OCCOC(=O)c1ccc(-c2c3nc(c(-c4c(F)cccc4F)c4ccc([nH]4)c(-c4c(F)cccc4F)c4nc(c(-c5c(F)cccc5F)c5ccc2[nH]5)C=C4)C=C3)cc1
REMARK SMILES IDX 20 1 21 2 22 3 23 4 24 5 18 6 19 7 17 8 16 9 14 10 15 11
REMARK SMILES IDX 2 13 1 14 3 15 4 16 5 18 6 19 7 20 8 21 9 22 13 23 10 24
REMARK SMILES IDX 12 25 11 26 25 27 26 28 27 29 28 30 29 31 30 32 31 33 32 34
REMARK SMILES IDX 33 35 34 36 86 37 35 38 85 39 36 40 37 41 38 42 79 43 39 44
REMARK SMILES IDX 84 45 78 46 80 47 40 48 83 49 77 50 76 51 41 53 67 54 50 55
REMARK SMILES IDX 66 56 51 57 54 58 65 59 81 60 52 61 53 62 64 64 82 65 55 66
REMARK SMILES IDX 42 67 43 68 48 69 44 70 45 71 47 72 49 73 46 74 68 75 69 76
REMARK SMILES IDX 74 77 70 78 71 79 73 80 75 81 72 82 56 83 57 84 62 85 58 86
REMARK SMILES IDX 59 87 61 88 63 89 60 90
REMARK H PARENT 16 12 3 17 80 52 54 63
REMARK Flexibility Score: inf
ROOT
ATOM      1  N   UNL A   1      31.413  27.542  23.553  1.00  0.00    -0.327 N 
ATOM      2  C   UNL A   1      31.649  28.817  22.900  1.00  0.00     0.120 C 
ATOM      3  C   UNL A   1      33.166  28.958  22.842  1.00  0.00     0.024 C 
ATOM      4  C   UNL A   1      33.723  27.835  23.719  1.00  0.00     0.039 C 
ATOM      5  C   UNL A   1      32.527  27.235  24.444  1.00  0.00     0.195 C 
ENDROOT
BRANCH   1   6
ATOM      6  C   UNL A   1      30.304  26.738  23.589  1.00  0.00     0.242 C 
ATOM      7  O   UNL A   1      29.175  27.243  23.528  1.00  0.00    -0.273 OA
BRANCH   6   8
ATOM      8  C   UNL A   1      30.402  25.255  23.961  1.00  0.00     0.216 C 
BRANCH   8   9
ATOM      9  N   UNL A   1      30.092  24.785  25.293  1.00  0.00    -0.345 N 
ATOM     10  C   UNL A   1      30.804  23.978  26.128  1.00  0.00     0.242 C 
ATOM     11  O   UNL A   1      30.330  23.772  27.250  1.00  0.00    -0.273 OA
ATOM     12  H   UNL A   1      29.231  25.097  25.653  1.00  0.00     0.164 HD
BRANCH  10  13
ATOM     13  C   UNL A   1      32.155  23.342  25.723  1.00  0.00     0.171 C 
ATOM     14  C   UNL A   1      33.335  24.221  26.101  1.00  0.00     0.042 C 
BRANCH  13  15
ATOM     15  N   UNL A   1      32.087  22.809  24.366  1.00  0.00    -0.310 N 
ATOM     16  C   UNL A   1      32.152  21.556  23.846  1.00  0.00     0.408 C 
ATOM     17  H   UNL A   1      31.968  23.506  23.681  1.00  0.00     0.167 HD
ATOM     18  O   UNL A   1      32.152  21.400  22.638  1.00  0.00    -0.225 OA
BRANCH  16  19
ATOM     19  O   UNL A   1      32.206  20.565  24.762  1.00  0.00    -0.445 OA
BRANCH  19  20
ATOM     20  C   UNL A   1      33.506  19.962  24.908  1.00  0.00     0.270 C 
BRANCH  20  21
ATOM     21  C   UNL A   1      33.484  18.449  24.920  1.00  0.00    -0.011 A 
ATOM     22  C   UNL A   1      34.372  17.696  24.140  1.00  0.00     0.007 A 
ATOM     23  C   UNL A   1      32.552  17.773  25.724  1.00  0.00     0.007 A 
ATOM     24  C   UNL A   1      34.352  16.301  24.188  1.00  0.00     0.000 A 
ATOM     25  C   UNL A   1      32.528  16.379  25.765  1.00  0.00     0.000 A 
ATOM     26  C   UNL A   1      33.431  15.642  25.002  1.00  0.00     0.000 A 
ENDBRANCH  20  21
ENDBRANCH  19  20
ENDBRANCH  16  19
ENDBRANCH  13  15
ENDBRANCH  10  13
ENDBRANCH   8   9
ENDBRANCH   6   8
ENDBRANCH   1   6
BRANCH   5  27
ATOM     27  C   UNL A   1      32.273  27.875  25.816  1.00  0.00     0.328 C 
ATOM     28  O   UNL A   1      31.420  27.488  26.609  1.00  0.00    -0.250 OA
BRANCH  27  29
ATOM     29  O   UNL A   1      33.118  28.918  26.033  1.00  0.00    -0.461 OA
BRANCH  29  30
ATOM     30  C   UNL A   1      32.588  30.040  26.759  1.00  0.00     0.274 C 
BRANCH  30  31
ATOM     31  C   UNL A   1      33.719  30.792  27.458  1.00  0.00     0.275 C 
BRANCH  31  32
ATOM     32  O   UNL A   1      34.688  29.867  27.988  1.00  0.00    -0.458 OA
BRANCH  32  33
ATOM     33  C   UNL A   1      35.632  30.428  28.776  1.00  0.00     0.338 C 
ATOM     34  O   UNL A   1      35.488  31.317  29.598  1.00  0.00    -0.246 OA
BRANCH  33  35
ATOM     35  C   UNL A   1      36.917  29.743  28.599  1.00  0.00     0.060 A 
ATOM     36  C   UNL A   1      37.547  29.232  29.728  1.00  0.00     0.016 A 
ATOM     37  C   UNL A   1      37.599  29.813  27.387  1.00  0.00     0.016 A 
ATOM     38  C   UNL A   1      38.905  28.947  29.692  1.00  0.00     0.010 A 
ATOM     39  C   UNL A   1      38.922  29.359  27.318  1.00  0.00     0.010 A 
ATOM     40  C   UNL A   1      39.606  28.951  28.478  1.00  0.00    -0.014 A 
BRANCH  40  41
ATOM     41  C   UNL A   1      41.029  28.506  28.437  1.00  0.00     0.031 A 
ATOM     42  C   UNL A   1      42.154  29.487  28.645  1.00  0.00     0.074 A 
ATOM     43  C   UNL A   1      41.317  27.207  28.205  1.00  0.00     0.049 A 
ATOM     44  N   UNL A   1      43.435  29.335  28.419  1.00  0.00    -0.248 NA
ATOM     45  C   UNL A   1      41.794  30.817  29.162  1.00  0.00     0.031 C 
ATOM     46  C   UNL A   1      40.332  26.135  28.024  1.00  0.00     0.029 A 
ATOM     47  N   UNL A   1      42.522  26.560  28.078  1.00  0.00    -0.354 N 
ATOM     48  C   UNL A   1      44.025  30.559  28.714  1.00  0.00     0.074 A 
ATOM     49  C   UNL A   1      42.960  31.449  29.127  1.00  0.00     0.031 C 
ATOM     50  C   UNL A   1      40.966  24.969  27.853  1.00  0.00     0.029 A 
ATOM     51  C   UNL A   1      42.397  25.224  27.779  1.00  0.00     0.049 A 
ATOM     52  H   UNL A   1      43.391  27.011  28.189  1.00  0.00     0.167 HD
ATOM     53  C   UNL A   1      45.334  30.903  28.647  1.00  0.00     0.037 A 
ATOM     54  C   UNL A   1      43.312  24.311  27.407  1.00  0.00     0.037 A 
ATOM     55  C   UNL A   1      46.391  29.996  28.275  1.00  0.00     0.049 A 
ATOM     56  C   UNL A   1      44.743  24.735  27.273  1.00  0.00     0.074 A 
ATOM     57  C   UNL A   1      47.750  30.246  28.179  1.00  0.00     0.029 A 
ATOM     58  N   UNL A   1      46.209  28.659  27.953  1.00  0.00    -0.354 N 
ATOM     59  N   UNL A   1      45.280  25.909  27.499  1.00  0.00    -0.248 NA
ATOM     60  C   UNL A   1      45.693  23.716  26.810  1.00  0.00     0.031 C 
ATOM     61  C   UNL A   1      48.383  29.073  27.757  1.00  0.00     0.029 A 
ATOM     62  C   UNL A   1      47.427  28.077  27.641  1.00  0.00     0.049 A 
ATOM     63  H   UNL A   1      45.342  28.192  27.947  1.00  0.00     0.167 HD
ATOM     64  C   UNL A   1      46.631  25.767  27.218  1.00  0.00     0.074 A 
ATOM     65  C   UNL A   1      46.835  24.386  26.834  1.00  0.00     0.031 C 
ATOM     66  C   UNL A   1      47.613  26.699  27.266  1.00  0.00     0.037 A 
BRANCH  53  67
ATOM     67  C   UNL A   1      45.706  32.326  28.957  1.00  0.00     0.057 A 
ATOM     68  C   UNL A   1      46.091  32.734  30.240  1.00  0.00     0.134 A 
ATOM     69  C   UNL A   1      45.743  33.290  27.938  1.00  0.00     0.134 A 
ATOM     70  F   UNL A   1      46.072  31.867  31.263  1.00  0.00    -0.206 F 
ATOM     71  C   UNL A   1      46.482  34.050  30.503  1.00  0.00     0.040 A 
ATOM     72  C   UNL A   1      46.157  34.601  28.183  1.00  0.00     0.040 A 
ATOM     73  F   UNL A   1      45.396  32.967  26.683  1.00  0.00    -0.206 F 
ATOM     74  C   UNL A   1      46.525  34.985  29.470  1.00  0.00     0.006 A 
ENDBRANCH  53  67
BRANCH  54  75
ATOM     75  C   UNL A   1      42.886  22.932  27.052  1.00  0.00     0.057 A 
ATOM     76  C   UNL A   1      42.581  21.988  28.037  1.00  0.00     0.134 A 
ATOM     77  C   UNL A   1      42.779  22.523  25.715  1.00  0.00     0.134 A 
ATOM     78  F   UNL A   1      42.685  22.310  29.336  1.00  0.00    -0.206 F 
ATOM     79  C   UNL A   1      42.206  20.684  27.709  1.00  0.00     0.040 A 
ATOM     80  C   UNL A   1      42.368  21.236  25.372  1.00  0.00     0.040 A 
ATOM     81  F   UNL A   1      43.049  23.382  24.719  1.00  0.00    -0.206 F 
ATOM     82  C   UNL A   1      42.090  20.307  26.372  1.00  0.00     0.006 A 
ENDBRANCH  54  75
BRANCH  66  83
ATOM     83  C   UNL A   1      48.999  26.240  26.926  1.00  0.00     0.057 A 
ATOM     84  C   UNL A   1      49.548  26.426  25.651  1.00  0.00     0.134 A 
ATOM     85  C   UNL A   1      49.801  25.622  27.894  1.00  0.00     0.134 A 
ATOM     86  F   UNL A   1      48.822  26.994  24.676  1.00  0.00    -0.206 F 
ATOM     87  C   UNL A   1      50.837  25.991  25.343  1.00  0.00     0.040 A 
ATOM     88  C   UNL A   1      51.102  25.210  27.606  1.00  0.00     0.040 A 
ATOM     89  F   UNL A   1      49.338  25.420  29.136  1.00  0.00    -0.206 F 
ATOM     90  C   UNL A   1      51.620  25.388  26.325  1.00  0.00     0.006 A 
ENDBRANCH  66  83
ENDBRANCH  40  41
ENDBRANCH  33  35
ENDBRANCH  32  33
ENDBRANCH  31  32
ENDBRANCH  30  31
ENDBRANCH  29  30
ENDBRANCH  27  29
ENDBRANCH   5  27
TORSDOF 19
ENDMDL
MODEL 3
REMARK VINA RESULT:     -11.0      1.193      2.140
REMARK SMILES C[C@H](NC(=O)OCc1ccccc1)C(=O)NCC(=O)N1CCC[C@H]1C(=O)OCCOC(=O)c1ccc(-c2c3nc(c(-c4c(F)cccc4F)c4ccc([nH]4)c(-c4c(F)cccc4F)c4nc(c(-c5c(F)cccc5F)c5ccc2[nH]5)C=C4)C=C3)cc1
REMARK SMILES IDX 20 1 21 2 22 3 23 4 24 5 18 6 19 7 17 8 16 9 14 10 15 11
REMARK SMILES IDX 2 13 1 14 3 15 4 16 5 18 6 19 7 20 8 21 9 22 13 23 10 24
REMARK SMILES IDX 12 25 11 26 25 27 26 28 27 29 28 30 29 31 30 32 31 33 32 34
REMARK SMILES IDX 33 35 34 36 86 37 35 38 85 39 36 40 37 41 38 42 79 43 39 44
REMARK SMILES IDX 84 45 78 46 80 47 40 48 83 49 77 50 76 51 41 53 67 54 50 55
REMARK SMILES IDX 66 56 51 57 54 58 65 59 81 60 52 61 53 62 64 64 82 65 55 66
REMARK SMILES IDX 42 67 43 68 48 69 44 70 45 71 47 72 49 73 46 74 68 75 69 76
REMARK SMILES IDX 74 77 70 78 71 79 73 80 75 81 72 82 56 83 57 84 62 85 58 86
REMARK SMILES IDX 59 87 61 88 63 89 60 90
REMARK H PARENT 16 12 3 17 80 52 54 63
REMARK Flexibility Score: inf
ROOT
ATOM      1  N   UNL A   1      30.616  27.003  22.551  1.00  0.00    -0.327 N 
ATOM      2  C   UNL A   1      29.586  26.709  23.532  1.00  0.00     0.120 C 
ATOM      3  C   UNL A   1      28.586  27.854  23.414  1.00  0.00     0.024 C 
ATOM      4  C   UNL A   1      29.254  28.900  22.518  1.00  0.00     0.039 C 
ATOM      5  C   UNL A   1      30.696  28.445  22.344  1.00  0.00     0.195 C 
ENDROOT
BRANCH   1   6
ATOM      6  C   UNL A   1      31.566  26.204  21.974  1.00  0.00     0.242 C 
ATOM      7  O   UNL A   1      31.519  25.968  20.760  1.00  0.00    -0.273 OA
BRANCH   6   8
ATOM      8  C   UNL A   1      32.542  25.380  22.821  1.00  0.00     0.216 C 
BRANCH   8   9
ATOM      9  N   UNL A   1      33.208  25.944  23.974  1.00  0.00    -0.345 N 
ATOM     10  C   UNL A   1      33.154  25.580  25.286  1.00  0.00     0.242 C 
ATOM     11  O   UNL A   1      33.874  26.205  26.071  1.00  0.00    -0.273 OA
ATOM     12  H   UNL A   1      33.792  26.713  23.780  1.00  0.00     0.164 HD
BRANCH  10  13
ATOM     13  C   UNL A   1      32.253  24.432  25.797  1.00  0.00     0.171 C 
ATOM     14  C   UNL A   1      30.853  24.914  26.137  1.00  0.00     0.042 C 
BRANCH  13  15
ATOM     15  N   UNL A   1      32.966  23.613  26.773  1.00  0.00    -0.310 N 
ATOM     16  C   UNL A   1      33.130  22.275  26.932  1.00  0.00     0.408 C 
ATOM     17  H   UNL A   1      33.427  24.145  27.462  1.00  0.00     0.167 HD
ATOM     18  O   UNL A   1      33.722  21.849  27.909  1.00  0.00    -0.225 OA
BRANCH  16  19
ATOM     19  O   UNL A   1      32.605  21.518  25.946  1.00  0.00    -0.445 OA
BRANCH  19  20
ATOM     20  C   UNL A   1      33.555  20.664  25.282  1.00  0.00     0.270 C 
BRANCH  20  21
ATOM     21  C   UNL A   1      34.691  21.409  24.615  1.00  0.00    -0.011 A 
ATOM     22  C   UNL A   1      34.455  22.389  23.641  1.00  0.00     0.007 A 
ATOM     23  C   UNL A   1      36.018  21.114  24.968  1.00  0.00     0.007 A 
ATOM     24  C   UNL A   1      35.518  23.082  23.059  1.00  0.00     0.000 A 
ATOM     25  C   UNL A   1      37.080  21.802  24.379  1.00  0.00     0.000 A 
ATOM     26  C   UNL A   1      36.830  22.790  23.429  1.00  0.00     0.000 A 
ENDBRANCH  20  21
ENDBRANCH  19  20
ENDBRANCH  16  19
ENDBRANCH  13  15
ENDBRANCH  10  13
ENDBRANCH   8   9
ENDBRANCH   6   8
ENDBRANCH   1   6
BRANCH   5  27
ATOM     27  C   UNL A   1      31.648  29.056  23.382  1.00  0.00     0.328 C 
ATOM     28  O   UNL A   1      32.867  28.919  23.364  1.00  0.00    -0.250 OA
BRANCH  27  29
ATOM     29  O   UNL A   1      30.960  29.768  24.315  1.00  0.00    -0.461 OA
BRANCH  29  30
ATOM     30  C   UNL A   1      31.488  29.760  25.653  1.00  0.00     0.274 C 
BRANCH  30  31
ATOM     31  C   UNL A   1      31.603  31.190  26.178  1.00  0.00     0.275 C 
BRANCH  31  32
ATOM     32  O   UNL A   1      32.415  31.227  27.368  1.00  0.00    -0.458 OA
BRANCH  32  33
ATOM     33  C   UNL A   1      33.218  32.310  27.470  1.00  0.00     0.338 C 
ATOM     34  O   UNL A   1      32.912  33.483  27.336  1.00  0.00    -0.246 OA
BRANCH  33  35
ATOM     35  C   UNL A   1      34.567  31.907  27.883  1.00  0.00     0.060 A 
ATOM     36  C   UNL A   1      34.764  30.587  28.273  1.00  0.00     0.016 A 
ATOM     37  C   UNL A   1      35.555  32.860  28.111  1.00  0.00     0.016 A 
ATOM     38  C   UNL A   1      35.873  30.251  29.038  1.00  0.00     0.010 A 
ATOM     39  C   UNL A   1      36.751  32.474  28.730  1.00  0.00     0.010 A 
ATOM     40  C   UNL A   1      36.912  31.170  29.234  1.00  0.00    -0.014 A 
BRANCH  40  41
ATOM     41  C   UNL A   1      38.158  30.747  29.938  1.00  0.00     0.031 A 
ATOM     42  C   UNL A   1      39.141  29.814  29.279  1.00  0.00     0.074 A 
ATOM     43  C   UNL A   1      38.408  31.202  31.185  1.00  0.00     0.049 A 
ATOM     44  N   UNL A   1      40.146  29.163  29.812  1.00  0.00    -0.248 NA
ATOM     45  C   UNL A   1      38.969  29.568  27.839  1.00  0.00     0.031 C 
ATOM     46  C   UNL A   1      37.567  32.141  31.934  1.00  0.00     0.029 A 
ATOM     47  N   UNL A   1      39.442  30.936  32.050  1.00  0.00    -0.354 N 
ATOM     48  C   UNL A   1      40.690  28.394  28.789  1.00  0.00     0.074 A 
ATOM     49  C   UNL A   1      39.898  28.652  27.605  1.00  0.00     0.031 C 
ATOM     50  C   UNL A   1      38.134  32.403  33.117  1.00  0.00     0.029 A 
ATOM     51  C   UNL A   1      39.305  31.554  33.270  1.00  0.00     0.049 A 
ATOM     52  H   UNL A   1      40.204  30.358  31.818  1.00  0.00     0.167 HD
ATOM     53  C   UNL A   1      41.752  27.554  28.838  1.00  0.00     0.037 A 
ATOM     54  C   UNL A   1      39.991  31.406  34.418  1.00  0.00     0.037 A 
ATOM     55  C   UNL A   1      42.559  27.338  30.013  1.00  0.00     0.049 A 
ATOM     56  C   UNL A   1      41.118  30.420  34.466  1.00  0.00     0.074 A 
ATOM     57  C   UNL A   1      43.659  26.510  30.166  1.00  0.00     0.029 A 
ATOM     58  N   UNL A   1      42.363  27.968  31.234  1.00  0.00    -0.354 N 
ATOM     59  N   UNL A   1      41.586  29.657  33.508  1.00  0.00    -0.248 NA
ATOM     60  C   UNL A   1      41.797  30.255  35.757  1.00  0.00     0.031 C 
ATOM     61  C   UNL A   1      44.100  26.606  31.489  1.00  0.00     0.029 A 
ATOM     62  C   UNL A   1      43.309  27.532  32.148  1.00  0.00     0.049 A 
ATOM     63  H   UNL A   1      41.656  28.626  31.423  1.00  0.00     0.167 HD
ATOM     64  C   UNL A   1      42.623  28.931  34.077  1.00  0.00     0.074 A 
ATOM     65  C   UNL A   1      42.732  29.366  35.454  1.00  0.00     0.031 C 
ATOM     66  C   UNL A   1      43.407  27.981  33.513  1.00  0.00     0.037 A 
BRANCH  53  67
ATOM     67  C   UNL A   1      42.098  26.781  27.597  1.00  0.00     0.057 A 
ATOM     68  C   UNL A   1      41.568  25.511  27.336  1.00  0.00     0.134 A 
ATOM     69  C   UNL A   1      42.925  27.346  26.614  1.00  0.00     0.134 A 
ATOM     70  F   UNL A   1      40.776  24.908  28.235  1.00  0.00    -0.206 F 
ATOM     71  C   UNL A   1      41.859  24.825  26.154  1.00  0.00     0.040 A 
ATOM     72  C   UNL A   1      43.202  26.682  25.418  1.00  0.00     0.040 A 
ATOM     73  F   UNL A   1      43.460  28.563  26.793  1.00  0.00    -0.206 F 
ATOM     74  C   UNL A   1      42.671  25.415  25.186  1.00  0.00     0.006 A 
ENDBRANCH  53  67
BRANCH  54  75
ATOM     75  C   UNL A   1      39.572  32.149  35.636  1.00  0.00     0.057 A 
ATOM     76  C   UNL A   1      40.129  33.389  35.961  1.00  0.00     0.134 A 
ATOM     77  C   UNL A   1      38.605  31.630  36.510  1.00  0.00     0.134 A 
ATOM     78  F   UNL A   1      41.075  33.930  35.177  1.00  0.00    -0.206 F 
ATOM     79  C   UNL A   1      39.758  34.078  37.117  1.00  0.00     0.040 A 
ATOM     80  C   UNL A   1      38.197  32.325  37.648  1.00  0.00     0.040 A 
ATOM     81  F   UNL A   1      38.024  30.447  36.254  1.00  0.00    -0.206 F 
ATOM     82  C   UNL A   1      38.782  33.549  37.960  1.00  0.00     0.006 A 
ENDBRANCH  54  75
BRANCH  66  83
ATOM     83  C   UNL A   1      44.473  27.381  34.380  1.00  0.00     0.057 A 
ATOM     84  C   UNL A   1      44.259  26.200  35.103  1.00  0.00     0.134 A 
ATOM     85  C   UNL A   1      45.734  27.981  34.475  1.00  0.00     0.134 A 
ATOM     86  F   UNL A   1      43.065  25.589  35.067  1.00  0.00    -0.206 F 
ATOM     87  C   UNL A   1      45.256  25.651  35.910  1.00  0.00     0.040 A 
ATOM     88  C   UNL A   1      46.748  27.426  35.256  1.00  0.00     0.040 A 
ATOM     89  F   UNL A   1      46.006  29.110  33.804  1.00  0.00    -0.206 F 
ATOM     90  C   UNL A   1      46.507  26.261  35.982  1.00  0.00     0.006 A 
ENDBRANCH  66  83
ENDBRANCH  40  41
ENDBRANCH  33  35
ENDBRANCH  32  33
ENDBRANCH  31  32
ENDBRANCH  30  31
ENDBRANCH  29  30
ENDBRANCH  27  29
ENDBRANCH   5  27
TORSDOF 19
ENDMDL
