MODEL 1
REMARK VINA RESULT:     -11.6      0.000      0.000
REMARK SMILES CS(=O)(=O)c1ccc(N2N=C(C(=O)OCCOC(=O)c3ccc(-c4c5nc(c(-c6c(F)cccc6F)c6ccc([nH]6)c(-c6c(F)cccc6F)c6nc(c(-c7c(F)cccc7F)c7ccc4[nH]7)C=C6)C=C5)cc3)C[C@H]2c2ccco2)cc1
REMARK SMILES IDX 15 1 14 2 12 3 13 4 11 5 9 6 10 7 75 8 74 9 8 10 5 11 6 12
REMARK SMILES IDX 82 13 7 14 81 15 2 16 1 17 3 18 4 19 76 20 77 21 80 22 78 23
REMARK SMILES IDX 79 24 16 25 17 26 18 27 19 28 20 29 21 30 73 31 22 32 72 33
REMARK SMILES IDX 23 34 24 35 25 36 66 37 26 38 71 39 65 40 67 41 27 42 70 43
REMARK SMILES IDX 64 44 63 45 28 47 54 48 37 49 53 50 38 51 41 52 52 53 68 54
REMARK SMILES IDX 39 55 40 56 51 58 69 59 42 60 29 61 30 62 35 63 31 64 32 65
REMARK SMILES IDX 34 66 36 67 33 68 55 69 56 70 61 71 57 72 58 73 60 74 62 75
REMARK SMILES IDX 59 76 43 77 44 78 49 79 45 80 46 81 48 82 50 83 47 84
REMARK H PARENT 67 46 41 57
REMARK Flexibility Score: inf
ROOT
ATOM      1  C   UNL A   1      31.495  28.707  25.035  1.00  0.00     0.275 C 
ENDROOT
BRANCH   1   2
ATOM      2  O   UNL A   1      32.533  27.794  25.429  1.00  0.00    -0.458 OA
BRANCH   2   3
ATOM      3  C   UNL A   1      32.133  26.624  25.967  1.00  0.00     0.354 C 
ATOM      4  O   UNL A   1      31.355  26.450  26.882  1.00  0.00    -0.245 OA
BRANCH   3   5
ATOM      5  C   UNL A   1      32.723  25.508  25.144  1.00  0.00     0.148 C 
ATOM      6  N   UNL A   1      33.028  23.603  24.291  1.00  0.00    -0.254 N 
ATOM      7  N   UNL A   1      32.338  24.272  25.257  1.00  0.00    -0.169 NA
ATOM      8  C   UNL A   1      34.169  24.371  23.775  1.00  0.00     0.180 C 
ATOM      9  C   UNL A   1      33.707  25.805  24.055  1.00  0.00     0.101 C 
BRANCH   6  10
ATOM     10  C   UNL A   1      32.932  22.225  24.161  1.00  0.00     0.060 A 
ATOM     11  C   UNL A   1      32.753  19.437  23.924  1.00  0.00     0.067 A 
ATOM     12  C   UNL A   1      33.399  19.997  25.028  1.00  0.00     0.022 A 
ATOM     13  C   UNL A   1      32.216  20.252  22.925  1.00  0.00     0.022 A 
ATOM     14  C   UNL A   1      33.467  21.387  25.149  1.00  0.00     0.029 A 
ATOM     15  C   UNL A   1      32.321  21.640  23.045  1.00  0.00     0.029 A 
BRANCH  11  16
ATOM     16  S   UNL A   1      32.659  17.670  23.772  1.00  0.00     0.175 S 
ATOM     17  C   UNL A   1      34.307  17.143  24.164  1.00  0.00     0.163 C 
ATOM     18  O   UNL A   1      32.413  17.364  22.377  1.00  0.00    -0.224 OA
ATOM     19  O   UNL A   1      31.779  17.180  24.816  1.00  0.00    -0.224 OA
ENDBRANCH  11  16
ENDBRANCH   6  10
BRANCH   8  20
ATOM     20  C   UNL A   1      35.484  24.054  24.438  1.00  0.00     0.128 A 
ATOM     21  C   UNL A   1      36.589  23.330  24.034  1.00  0.00     0.048 A 
ATOM     22  O   UNL A   1      35.674  24.503  25.717  1.00  0.00    -0.467 OA
ATOM     23  C   UNL A   1      37.495  23.336  25.122  1.00  0.00     0.042 A 
ATOM     24  C   UNL A   1      36.891  24.060  26.121  1.00  0.00     0.195 A 
ENDBRANCH   8  20
ENDBRANCH   3   5
ENDBRANCH   2   3
ENDBRANCH   1   2
BRANCH   1  25
ATOM     25  C   UNL A   1      31.681  30.020  25.800  1.00  0.00     0.275 C 
BRANCH  25  26
ATOM     26  O   UNL A   1      33.080  30.265  26.050  1.00  0.00    -0.458 OA
BRANCH  26  27
ATOM     27  C   UNL A   1      33.354  31.216  26.978  1.00  0.00     0.338 C 
ATOM     28  O   UNL A   1      32.622  32.133  27.321  1.00  0.00    -0.246 OA
BRANCH  27  29
ATOM     29  C   UNL A   1      34.661  30.942  27.615  1.00  0.00     0.060 A 
ATOM     30  C   UNL A   1      34.968  29.615  27.930  1.00  0.00     0.016 A 
ATOM     31  C   UNL A   1      35.565  31.964  27.929  1.00  0.00     0.016 A 
ATOM     32  C   UNL A   1      36.172  29.304  28.558  1.00  0.00     0.010 A 
ATOM     33  C   UNL A   1      36.767  31.654  28.574  1.00  0.00     0.010 A 
ATOM     34  C   UNL A   1      37.068  30.324  28.902  1.00  0.00    -0.014 A 
BRANCH  34  35
ATOM     35  C   UNL A   1      38.293  29.985  29.660  1.00  0.00     0.031 A 
ATOM     36  C   UNL A   1      38.476  30.521  31.049  1.00  0.00     0.074 A 
ATOM     37  C   UNL A   1      39.210  29.160  29.127  1.00  0.00     0.049 A 
ATOM     38  N   UNL A   1      39.431  30.279  31.910  1.00  0.00    -0.248 NA
ATOM     39  C   UNL A   1      37.445  31.452  31.534  1.00  0.00     0.031 C 
ATOM     40  C   UNL A   1      39.136  28.559  27.796  1.00  0.00     0.029 A 
ATOM     41  N   UNL A   1      40.377  28.671  29.656  1.00  0.00    -0.354 N 
ATOM     42  C   UNL A   1      39.107  31.008  33.045  1.00  0.00     0.074 A 
ATOM     43  C   UNL A   1      37.880  31.720  32.758  1.00  0.00     0.031 C 
ATOM     44  C   UNL A   1      40.207  27.767  27.617  1.00  0.00     0.029 A 
ATOM     45  C   UNL A   1      41.035  27.805  28.821  1.00  0.00     0.049 A 
ATOM     46  H   UNL A   1      40.709  28.918  30.549  1.00  0.00     0.167 HD
ATOM     47  C   UNL A   1      39.770  31.074  34.223  1.00  0.00     0.037 A 
ATOM     48  C   UNL A   1      42.168  27.106  29.016  1.00  0.00     0.037 A 
ATOM     49  C   UNL A   1      41.001  30.390  34.511  1.00  0.00     0.049 A 
ATOM     50  C   UNL A   1      42.891  27.206  30.327  1.00  0.00     0.074 A 
ATOM     51  C   UNL A   1      41.768  30.435  35.662  1.00  0.00     0.029 A 
ATOM     52  N   UNL A   1      41.642  29.530  33.633  1.00  0.00    -0.354 N 
ATOM     53  N   UNL A   1      42.580  27.904  31.391  1.00  0.00    -0.248 NA
ATOM     54  C   UNL A   1      44.125  26.416  30.465  1.00  0.00     0.031 C 
ATOM     55  C   UNL A   1      42.884  29.609  35.475  1.00  0.00     0.029 A 
ATOM     56  C   UNL A   1      42.800  29.043  34.214  1.00  0.00     0.049 A 
ATOM     57  H   UNL A   1      41.322  29.301  32.731  1.00  0.00     0.167 HD
ATOM     58  C   UNL A   1      43.569  27.635  32.325  1.00  0.00     0.074 A 
ATOM     59  C   UNL A   1      44.490  26.702  31.708  1.00  0.00     0.031 C 
ATOM     60  C   UNL A   1      43.704  28.119  33.582  1.00  0.00     0.037 A 
BRANCH  47  61
ATOM     61  C   UNL A   1      39.168  31.933  35.287  1.00  0.00     0.057 A 
ATOM     62  C   UNL A   1      38.342  31.388  36.276  1.00  0.00     0.134 A 
ATOM     63  C   UNL A   1      39.418  33.309  35.329  1.00  0.00     0.134 A 
ATOM     64  F   UNL A   1      38.052  30.078  36.275  1.00  0.00    -0.206 F 
ATOM     65  C   UNL A   1      37.776  32.187  37.271  1.00  0.00     0.040 A 
ATOM     66  C   UNL A   1      38.865  34.116  36.322  1.00  0.00     0.040 A 
ATOM     67  F   UNL A   1      40.196  33.887  34.402  1.00  0.00    -0.206 F 
ATOM     68  C   UNL A   1      38.040  33.555  37.296  1.00  0.00     0.006 A 
ENDBRANCH  47  61
BRANCH  48  69
ATOM     69  C   UNL A   1      42.676  26.222  27.944  1.00  0.00     0.057 A 
ATOM     70  C   UNL A   1      43.581  26.697  26.990  1.00  0.00     0.134 A 
ATOM     71  C   UNL A   1      42.268  24.888  27.851  1.00  0.00     0.134 A 
ATOM     72  F   UNL A   1      43.987  27.974  27.021  1.00  0.00    -0.206 F 
ATOM     73  C   UNL A   1      44.062  25.873  25.972  1.00  0.00     0.040 A 
ATOM     74  C   UNL A   1      42.747  24.051  26.842  1.00  0.00     0.040 A 
ATOM     75  F   UNL A   1      41.397  24.382  28.736  1.00  0.00    -0.206 F 
ATOM     76  C   UNL A   1      43.647  24.545  25.899  1.00  0.00     0.006 A 
ENDBRANCH  48  69
BRANCH  60  77
ATOM     77  C   UNL A   1      44.891  27.657  34.364  1.00  0.00     0.057 A 
ATOM     78  C   UNL A   1      46.096  28.368  34.337  1.00  0.00     0.134 A 
ATOM     79  C   UNL A   1      44.821  26.517  35.171  1.00  0.00     0.134 A 
ATOM     80  F   UNL A   1      46.222  29.464  33.572  1.00  0.00    -0.206 F 
ATOM     81  C   UNL A   1      47.198  27.957  35.086  1.00  0.00     0.040 A 
ATOM     82  C   UNL A   1      45.915  26.099  35.930  1.00  0.00     0.040 A 
ATOM     83  F   UNL A   1      43.693  25.796  35.236  1.00  0.00    -0.206 F 
ATOM     84  C   UNL A   1      47.108  26.819  35.888  1.00  0.00     0.006 A 
ENDBRANCH  60  77
ENDBRANCH  34  35
ENDBRANCH  27  29
ENDBRANCH  26  27
ENDBRANCH  25  26
ENDBRANCH   1  25
TORSDOF 14
ENDMDL
MODEL 2
REMARK VINA RESULT:     -11.5      3.151      6.695
REMARK SMILES CS(=O)(=O)c1ccc(N2N=C(C(=O)OCCOC(=O)c3ccc(-c4c5nc(c(-c6c(F)cccc6F)c6ccc([nH]6)c(-c6c(F)cccc6F)c6nc(c(-c7c(F)cccc7F)c7ccc4[nH]7)C=C6)C=C5)cc3)C[C@H]2c2ccco2)cc1
REMARK SMILES IDX 15 1 14 2 12 3 13 4 11 5 9 6 10 7 75 8 74 9 8 10 5 11 6 12
REMARK SMILES IDX 82 13 7 14 81 15 2 16 1 17 3 18 4 19 76 20 77 21 80 22 78 23
REMARK SMILES IDX 79 24 16 25 17 26 18 27 19 28 20 29 21 30 73 31 22 32 72 33
REMARK SMILES IDX 23 34 24 35 25 36 66 37 26 38 71 39 65 40 67 41 27 42 70 43
REMARK SMILES IDX 64 44 63 45 28 47 54 48 37 49 53 50 38 51 41 52 52 53 68 54
REMARK SMILES IDX 39 55 40 56 51 58 69 59 42 60 29 61 30 62 35 63 31 64 32 65
REMARK SMILES IDX 34 66 36 67 33 68 55 69 56 70 61 71 57 72 58 73 60 74 62 75
REMARK SMILES IDX 59 76 43 77 44 78 49 79 45 80 46 81 48 82 50 83 47 84
REMARK H PARENT 67 46 41 57
REMARK Flexibility Score: inf
ROOT
ATOM      1  C   UNL A   1      32.376  27.865  25.927  1.00  0.00     0.275 C 
ENDROOT
BRANCH   1   2
ATOM      2  O   UNL A   1      33.007  26.603  26.198  1.00  0.00    -0.458 OA
BRANCH   2   3
ATOM      3  C   UNL A   1      32.209  25.517  26.190  1.00  0.00     0.354 C 
ATOM      4  O   UNL A   1      31.099  25.401  26.667  1.00  0.00    -0.245 OA
BRANCH   3   5
ATOM      5  C   UNL A   1      32.875  24.456  25.352  1.00  0.00     0.148 C 
ATOM      6  N   UNL A   1      33.360  22.575  24.527  1.00  0.00    -0.254 N 
ATOM      7  N   UNL A   1      32.665  23.185  25.528  1.00  0.00    -0.169 NA
ATOM      8  C   UNL A   1      34.347  23.464  23.900  1.00  0.00     0.180 C 
ATOM      9  C   UNL A   1      33.725  24.836  24.180  1.00  0.00     0.101 C 
BRANCH   6  10
ATOM     10  C   UNL A   1      33.435  21.193  24.442  1.00  0.00     0.060 A 
ATOM     11  C   UNL A   1      33.612  18.400  24.285  1.00  0.00     0.067 A 
ATOM     12  C   UNL A   1      34.599  19.118  24.962  1.00  0.00     0.022 A 
ATOM     13  C   UNL A   1      32.550  19.061  23.665  1.00  0.00     0.022 A 
ATOM     14  C   UNL A   1      34.494  20.507  25.054  1.00  0.00     0.029 A 
ATOM     15  C   UNL A   1      32.476  20.454  23.738  1.00  0.00     0.029 A 
BRANCH  11  16
ATOM     16  S   UNL A   1      33.741  16.631  24.175  1.00  0.00     0.175 S 
ATOM     17  C   UNL A   1      35.181  16.270  25.145  1.00  0.00     0.163 C 
ATOM     18  O   UNL A   1      34.038  16.300  22.795  1.00  0.00    -0.224 OA
ATOM     19  O   UNL A   1      32.595  16.058  24.856  1.00  0.00    -0.224 OA
ENDBRANCH  11  16
ENDBRANCH   6  10
BRANCH   8  20
ATOM     20  C   UNL A   1      35.740  23.343  24.464  1.00  0.00     0.128 A 
ATOM     21  C   UNL A   1      36.856  22.636  24.062  1.00  0.00     0.048 A 
ATOM     22  O   UNL A   1      36.011  24.003  25.631  1.00  0.00    -0.467 OA
ATOM     23  C   UNL A   1      37.857  22.875  25.036  1.00  0.00     0.042 A 
ATOM     24  C   UNL A   1      37.293  23.710  25.969  1.00  0.00     0.195 A 
ENDBRANCH   8  20
ENDBRANCH   3   5
ENDBRANCH   2   3
ENDBRANCH   1   2
BRANCH   1  25
ATOM     25  C   UNL A   1      32.663  28.817  27.090  1.00  0.00     0.275 C 
BRANCH  25  26
ATOM     26  O   UNL A   1      34.059  28.765  27.452  1.00  0.00    -0.458 OA
BRANCH  26  27
ATOM     27  C   UNL A   1      34.603  29.935  27.870  1.00  0.00     0.338 C 
ATOM     28  O   UNL A   1      34.025  31.004  27.996  1.00  0.00    -0.246 OA
BRANCH  27  29
ATOM     29  C   UNL A   1      36.015  29.727  28.260  1.00  0.00     0.060 A 
ATOM     30  C   UNL A   1      36.994  29.886  27.274  1.00  0.00     0.016 A 
ATOM     31  C   UNL A   1      36.382  29.353  29.558  1.00  0.00     0.016 A 
ATOM     32  C   UNL A   1      38.337  29.672  27.579  1.00  0.00     0.010 A 
ATOM     33  C   UNL A   1      37.728  29.124  29.861  1.00  0.00     0.010 A 
ATOM     34  C   UNL A   1      38.709  29.270  28.868  1.00  0.00    -0.014 A 
BRANCH  34  35
ATOM     35  C   UNL A   1      40.126  28.949  29.145  1.00  0.00     0.031 A 
ATOM     36  C   UNL A   1      40.676  27.614  28.737  1.00  0.00     0.074 A 
ATOM     37  C   UNL A   1      40.928  29.867  29.710  1.00  0.00     0.049 A 
ATOM     38  N   UNL A   1      41.903  27.167  28.812  1.00  0.00    -0.248 NA
ATOM     39  C   UNL A   1      39.716  26.656  28.166  1.00  0.00     0.031 C 
ATOM     40  C   UNL A   1      40.517  31.205  30.132  1.00  0.00     0.029 A 
ATOM     41  N   UNL A   1      42.266  29.813  30.007  1.00  0.00    -0.354 N 
ATOM     42  C   UNL A   1      41.870  25.887  28.279  1.00  0.00     0.074 A 
ATOM     43  C   UNL A   1      40.497  25.616  27.905  1.00  0.00     0.031 C 
ATOM     44  C   UNL A   1      41.588  31.854  30.622  1.00  0.00     0.029 A 
ATOM     45  C   UNL A   1      42.754  30.977  30.542  1.00  0.00     0.049 A 
ATOM     46  H   UNL A   1      42.822  29.016  29.850  1.00  0.00     0.167 HD
ATOM     47  C   UNL A   1      42.892  25.016  28.112  1.00  0.00     0.037 A 
ATOM     48  C   UNL A   1      44.007  31.304  30.908  1.00  0.00     0.037 A 
ATOM     49  C   UNL A   1      44.253  25.264  28.500  1.00  0.00     0.049 A 
ATOM     50  C   UNL A   1      45.122  30.315  30.724  1.00  0.00     0.074 A 
ATOM     51  C   UNL A   1      45.347  24.421  28.411  1.00  0.00     0.029 A 
ATOM     52  N   UNL A   1      44.705  26.453  29.050  1.00  0.00    -0.354 N 
ATOM     53  N   UNL A   1      45.077  29.104  30.226  1.00  0.00    -0.248 NA
ATOM     54  C   UNL A   1      46.463  30.742  31.150  1.00  0.00     0.031 C 
ATOM     55  C   UNL A   1      46.463  25.097  28.921  1.00  0.00     0.029 A 
ATOM     56  C   UNL A   1      46.062  26.364  29.313  1.00  0.00     0.049 A 
ATOM     57  H   UNL A   1      44.146  27.242  29.229  1.00  0.00     0.167 HD
ATOM     58  C   UNL A   1      46.378  28.627  30.271  1.00  0.00     0.074 A 
ATOM     59  C   UNL A   1      47.195  29.681  30.838  1.00  0.00     0.031 C 
ATOM     60  C   UNL A   1      46.854  27.421  29.880  1.00  0.00     0.037 A 
BRANCH  47  61
ATOM     61  C   UNL A   1      42.560  23.701  27.484  1.00  0.00     0.057 A 
ATOM     62  C   UNL A   1      42.601  23.531  26.096  1.00  0.00     0.134 A 
ATOM     63  C   UNL A   1      42.204  22.598  28.268  1.00  0.00     0.134 A 
ATOM     64  F   UNL A   1      42.918  24.558  25.294  1.00  0.00    -0.206 F 
ATOM     65  C   UNL A   1      42.291  22.305  25.505  1.00  0.00     0.040 A 
ATOM     66  C   UNL A   1      41.898  21.366  27.690  1.00  0.00     0.040 A 
ATOM     67  F   UNL A   1      42.141  22.705  29.603  1.00  0.00    -0.206 F 
ATOM     68  C   UNL A   1      41.940  21.218  26.304  1.00  0.00     0.006 A 
ENDBRANCH  47  61
BRANCH  48  69
ATOM     69  C   UNL A   1      44.281  32.648  31.464  1.00  0.00     0.057 A 
ATOM     70  C   UNL A   1      44.254  32.873  32.843  1.00  0.00     0.134 A 
ATOM     71  C   UNL A   1      44.572  33.731  30.629  1.00  0.00     0.134 A 
ATOM     72  F   UNL A   1      43.958  31.874  33.685  1.00  0.00    -0.206 F 
ATOM     73  C   UNL A   1      44.505  34.138  33.377  1.00  0.00     0.040 A 
ATOM     74  C   UNL A   1      44.832  34.999  31.150  1.00  0.00     0.040 A 
ATOM     75  F   UNL A   1      44.605  33.571  29.298  1.00  0.00    -0.206 F 
ATOM     76  C   UNL A   1      44.799  35.204  32.529  1.00  0.00     0.006 A 
ENDBRANCH  48  69
BRANCH  60  77
ATOM     77  C   UNL A   1      48.318  27.178  30.062  1.00  0.00     0.057 A 
ATOM     78  C   UNL A   1      48.812  26.574  31.224  1.00  0.00     0.134 A 
ATOM     79  C   UNL A   1      49.233  27.518  29.060  1.00  0.00     0.134 A 
ATOM     80  F   UNL A   1      47.979  26.236  32.221  1.00  0.00    -0.206 F 
ATOM     81  C   UNL A   1      50.173  26.320  31.387  1.00  0.00     0.040 A 
ATOM     82  C   UNL A   1      50.597  27.263  29.209  1.00  0.00     0.040 A 
ATOM     83  F   UNL A   1      48.818  28.100  27.927  1.00  0.00    -0.206 F 
ATOM     84  C   UNL A   1      51.070  26.663  30.375  1.00  0.00     0.006 A 
ENDBRANCH  60  77
ENDBRANCH  34  35
ENDBRANCH  27  29
ENDBRANCH  26  27
ENDBRANCH  25  26
ENDBRANCH   1  25
TORSDOF 14
ENDMDL
MODEL 3
REMARK VINA RESULT:     -11.5      2.826      3.873
REMARK SMILES CS(=O)(=O)c1ccc(N2N=C(C(=O)OCCOC(=O)c3ccc(-c4c5nc(c(-c6c(F)cccc6F)c6ccc([nH]6)c(-c6c(F)cccc6F)c6nc(c(-c7c(F)cccc7F)c7ccc4[nH]7)C=C6)C=C5)cc3)C[C@H]2c2ccco2)cc1
REMARK SMILES IDX 15 1 14 2 12 3 13 4 11 5 9 6 10 7 75 8 74 9 8 10 5 11 6 12
REMARK SMILES IDX 82 13 7 14 81 15 2 16 1 17 3 18 4 19 76 20 77 21 80 22 78 23
REMARK SMILES IDX 79 24 16 25 17 26 18 27 19 28 20 29 21 30 73 31 22 32 72 33
REMARK SMILES IDX 23 34 24 35 25 36 66 37 26 38 71 39 65 40 67 41 27 42 70 43
REMARK SMILES IDX 64 44 63 45 28 47 54 48 37 49 53 50 38 51 41 52 52 53 68 54
REMARK SMILES IDX 39 55 40 56 51 58 69 59 42 60 29 61 30 62 35 63 31 64 32 65
REMARK SMILES IDX 34 66 36 67 33 68 55 69 56 70 61 71 57 72 58 73 60 74 62 75
REMARK SMILES IDX 59 76 43 77 44 78 49 79 45 80 46 81 48 82 50 83 47 84
REMARK H PARENT 67 46 41 57
REMARK Flexibility Score: inf
ROOT
ATOM      1  C   UNL A   1      32.293  28.410  25.937  1.00  0.00     0.275 C 
ENDROOT
BRANCH   1   2
ATOM      2  O   UNL A   1      33.005  27.165  26.026  1.00  0.00    -0.458 OA
BRANCH   2   3
ATOM      3  C   UNL A   1      32.257  26.054  26.177  1.00  0.00     0.354 C 
ATOM      4  O   UNL A   1      31.211  25.933  26.782  1.00  0.00    -0.245 OA
BRANCH   3   5
ATOM      5  C   UNL A   1      32.869  24.963  25.338  1.00  0.00     0.148 C 
ATOM      6  N   UNL A   1      33.253  23.064  24.502  1.00  0.00    -0.254 N 
ATOM      7  N   UNL A   1      32.580  23.705  25.499  1.00  0.00    -0.169 NA
ATOM      8  C   UNL A   1      34.301  23.897  23.898  1.00  0.00     0.180 C 
ATOM      9  C   UNL A   1      33.758  25.301  24.181  1.00  0.00     0.101 C 
BRANCH   6  10
ATOM     10  C   UNL A   1      33.246  21.680  24.404  1.00  0.00     0.060 A 
ATOM     11  C   UNL A   1      33.252  18.882  24.228  1.00  0.00     0.067 A 
ATOM     12  C   UNL A   1      34.089  19.519  25.146  1.00  0.00     0.022 A 
ATOM     13  C   UNL A   1      32.429  19.626  23.381  1.00  0.00     0.022 A 
ATOM     14  C   UNL A   1      34.067  20.912  25.242  1.00  0.00     0.029 A 
ATOM     15  C   UNL A   1      32.441  21.021  23.466  1.00  0.00     0.029 A 
BRANCH  11  16
ATOM     16  S   UNL A   1      33.275  17.110  24.110  1.00  0.00     0.175 S 
ATOM     17  C   UNL A   1      34.854  16.680  24.793  1.00  0.00     0.163 C 
ATOM     18  O   UNL A   1      33.290  16.766  22.702  1.00  0.00    -0.224 OA
ATOM     19  O   UNL A   1      32.253  16.591  25.000  1.00  0.00    -0.224 OA
ENDBRANCH  11  16
ENDBRANCH   6  10
BRANCH   8  20
ATOM     20  C   UNL A   1      35.675  23.687  24.479  1.00  0.00     0.128 A 
ATOM     21  C   UNL A   1      36.787  22.998  24.035  1.00  0.00     0.048 A 
ATOM     22  O   UNL A   1      35.929  24.219  25.714  1.00  0.00    -0.467 OA
ATOM     23  C   UNL A   1      37.766  23.114  25.052  1.00  0.00     0.042 A 
ATOM     24  C   UNL A   1      37.195  23.863  26.052  1.00  0.00     0.195 A 
ENDBRANCH   8  20
ENDBRANCH   3   5
ENDBRANCH   2   3
ENDBRANCH   1   2
BRANCH   1  25
ATOM     25  C   UNL A   1      32.564  29.221  27.207  1.00  0.00     0.275 C 
BRANCH  25  26
ATOM     26  O   UNL A   1      33.936  29.065  27.623  1.00  0.00    -0.458 OA
BRANCH  26  27
ATOM     27  C   UNL A   1      34.574  30.206  27.988  1.00  0.00     0.338 C 
ATOM     28  O   UNL A   1      34.070  31.309  28.131  1.00  0.00    -0.246 OA
BRANCH  27  29
ATOM     29  C   UNL A   1      35.993  29.917  28.294  1.00  0.00     0.060 A 
ATOM     30  C   UNL A   1      36.930  30.090  27.271  1.00  0.00     0.016 A 
ATOM     31  C   UNL A   1      36.404  29.457  29.551  1.00  0.00     0.016 A 
ATOM     32  C   UNL A   1      38.274  29.803  27.496  1.00  0.00     0.010 A 
ATOM     33  C   UNL A   1      37.751  29.154  29.773  1.00  0.00     0.010 A 
ATOM     34  C   UNL A   1      38.689  29.314  28.742  1.00  0.00    -0.014 A 
BRANCH  34  35
ATOM     35  C   UNL A   1      40.102  28.919  28.930  1.00  0.00     0.031 A 
ATOM     36  C   UNL A   1      41.035  29.833  29.668  1.00  0.00     0.074 A 
ATOM     37  C   UNL A   1      40.533  27.725  28.489  1.00  0.00     0.049 A 
ATOM     38  N   UNL A   1      42.283  29.640  30.011  1.00  0.00    -0.248 NA
ATOM     39  C   UNL A   1      40.490  31.137  30.076  1.00  0.00     0.031 C 
ATOM     40  C   UNL A   1      39.719  26.742  27.777  1.00  0.00     0.029 A 
ATOM     41  N   UNL A   1      41.765  27.132  28.596  1.00  0.00    -0.354 N 
ATOM     42  C   UNL A   1      42.666  30.785  30.694  1.00  0.00     0.074 A 
ATOM     43  C   UNL A   1      41.528  31.681  30.697  1.00  0.00     0.031 C 
ATOM     44  C   UNL A   1      40.471  25.657  27.522  1.00  0.00     0.029 A 
ATOM     45  C   UNL A   1      41.814  25.872  28.058  1.00  0.00     0.049 A 
ATOM     46  H   UNL A   1      42.539  27.569  29.019  1.00  0.00     0.167 HD
ATOM     47  C   UNL A   1      43.858  31.065  31.270  1.00  0.00     0.037 A 
ATOM     48  C   UNL A   1      42.825  24.984  28.020  1.00  0.00     0.037 A 
ATOM     49  C   UNL A   1      45.002  30.194  31.253  1.00  0.00     0.049 A 
ATOM     50  C   UNL A   1      44.141  25.324  28.656  1.00  0.00     0.074 A 
ATOM     51  C   UNL A   1      46.266  30.415  31.772  1.00  0.00     0.029 A 
ATOM     52  N   UNL A   1      45.014  28.930  30.687  1.00  0.00    -0.354 N 
ATOM     53  N   UNL A   1      44.495  26.413  29.291  1.00  0.00    -0.248 NA
ATOM     54  C   UNL A   1      45.200  24.305  28.571  1.00  0.00     0.031 C 
ATOM     55  C   UNL A   1      47.049  29.284  31.507  1.00  0.00     0.029 A 
ATOM     56  C   UNL A   1      46.266  28.359  30.837  1.00  0.00     0.049 A 
ATOM     57  H   UNL A   1      44.247  28.502  30.244  1.00  0.00     0.167 HD
ATOM     58  C   UNL A   1      45.808  26.211  29.688  1.00  0.00     0.074 A 
ATOM     59  C   UNL A   1      46.190  24.891  29.230  1.00  0.00     0.031 C 
ATOM     60  C   UNL A   1      46.627  27.047  30.371  1.00  0.00     0.037 A 
BRANCH  47  61
ATOM     61  C   UNL A   1      43.978  32.384  31.962  1.00  0.00     0.057 A 
ATOM     62  C   UNL A   1      44.395  33.528  31.272  1.00  0.00     0.134 A 
ATOM     63  C   UNL A   1      43.671  32.515  33.321  1.00  0.00     0.134 A 
ATOM     64  F   UNL A   1      44.719  33.458  29.972  1.00  0.00    -0.206 F 
ATOM     65  C   UNL A   1      44.509  34.762  31.914  1.00  0.00     0.040 A 
ATOM     66  C   UNL A   1      43.776  33.744  33.972  1.00  0.00     0.040 A 
ATOM     67  F   UNL A   1      43.275  31.451  34.034  1.00  0.00    -0.206 F 
ATOM     68  C   UNL A   1      44.197  34.871  33.269  1.00  0.00     0.006 A 
ENDBRANCH  47  61
BRANCH  48  69
ATOM     69  C   UNL A   1      42.620  23.669  27.375  1.00  0.00     0.057 A 
ATOM     70  C   UNL A   1      42.253  22.550  28.129  1.00  0.00     0.134 A 
ATOM     71  C   UNL A   1      42.788  23.502  25.997  1.00  0.00     0.134 A 
ATOM     72  F   UNL A   1      42.100  22.650  29.456  1.00  0.00    -0.206 F 
ATOM     73  C   UNL A   1      42.062  21.303  27.532  1.00  0.00     0.040 A 
ATOM     74  C   UNL A   1      42.593  22.263  25.387  1.00  0.00     0.040 A 
ATOM     75  F   UNL A   1      43.146  24.541  25.228  1.00  0.00    -0.206 F 
ATOM     76  C   UNL A   1      42.229  21.159  26.156  1.00  0.00     0.006 A 
ENDBRANCH  48  69
BRANCH  60  77
ATOM     77  C   UNL A   1      48.012  26.562  30.650  1.00  0.00     0.057 A 
ATOM     78  C   UNL A   1      48.302  25.829  31.807  1.00  0.00     0.134 A 
ATOM     79  C   UNL A   1      49.053  26.798  29.747  1.00  0.00     0.134 A 
ATOM     80  F   UNL A   1      47.343  25.580  32.713  1.00  0.00    -0.206 F 
ATOM     81  C   UNL A   1      49.587  25.350  32.059  1.00  0.00     0.040 A 
ATOM     82  C   UNL A   1      50.342  26.319  29.986  1.00  0.00     0.040 A 
ATOM     83  F   UNL A   1      48.835  27.496  28.623  1.00  0.00    -0.206 F 
ATOM     84  C   UNL A   1      50.612  25.593  31.145  1.00  0.00     0.006 A 
ENDBRANCH  60  77
ENDBRANCH  34  35
ENDBRANCH  27  29
ENDBRANCH  26  27
ENDBRANCH  25  26
ENDBRANCH   1  25
TORSDOF 14
ENDMDL
