MODEL 1
REMARK VINA RESULT:     -12.4      0.000      0.000
REMARK SMILES C[C@@H](C(=O)OCCOC(=O)c1ccc(-c2c3nc(c(-c4c(F)cccc4F)c4ccc([nH]4)c(-c4c(F)cccc4F)c4nc(c(-c5c(F)cccc5F)c5ccc2[nH]5)C=C4)C=C3)cc1)c1ccc(-c2cccc(OC(=O)NC3CC3)c2)c(F)c1
REMARK SMILES IDX 5 1 3 2 4 3 2 4 1 5 65 6 66 7 84 8 67 9 82 10 68 11 83 12
REMARK SMILES IDX 69 13 70 14 81 15 71 16 73 17 72 18 74 19 75 20 76 21 77 22
REMARK SMILES IDX 78 24 79 25 80 26 6 27 7 28 8 29 9 30 10 31 11 32 12 33
REMARK SMILES IDX 64 34 13 35 63 36 14 37 15 38 16 39 57 40 17 41 62 42 56 43
REMARK SMILES IDX 58 44 18 45 61 46 55 47 54 48 19 50 45 51 28 52 44 53 29 54
REMARK SMILES IDX 32 55 43 56 59 57 30 58 31 59 42 61 60 62 33 63 20 64 21 65
REMARK SMILES IDX 26 66 22 67 23 68 25 69 27 70 24 71 46 72 47 73 52 74 48 75
REMARK SMILES IDX 49 76 51 77 53 78 50 79 34 80 35 81 40 82 36 83 37 84 39 85
REMARK SMILES IDX 41 86 38 87
REMARK H PARENT 77 23 58 49 32 60
REMARK Flexibility Score: inf
ROOT
ATOM      1  O   UNL A   1      30.845  29.298  23.817  1.00  0.00    -0.462 OA
ENDROOT
BRANCH   1   2
ATOM      2  C   UNL A   1      31.407  28.406  22.952  1.00  0.00     0.313 C 
ATOM      3  O   UNL A   1      30.802  27.912  22.007  1.00  0.00    -0.252 OA
BRANCH   2   4
ATOM      4  C   UNL A   1      32.855  28.038  23.339  1.00  0.00     0.126 C 
ATOM      5  C   UNL A   1      33.875  28.611  22.342  1.00  0.00     0.025 C 
BRANCH   4   6
ATOM      6  C   UNL A   1      33.031  26.534  23.602  1.00  0.00    -0.031 A 
ATOM      7  C   UNL A   1      33.309  25.662  22.533  1.00  0.00     0.005 A 
ATOM      8  C   UNL A   1      32.948  25.967  24.883  1.00  0.00     0.044 A 
ATOM      9  C   UNL A   1      33.547  24.294  22.742  1.00  0.00     0.012 A 
ATOM     10  C   UNL A   1      33.165  24.599  25.082  1.00  0.00     0.131 A 
ATOM     11  C   UNL A   1      33.486  23.735  24.027  1.00  0.00     0.018 A 
ATOM     12  F   UNL A   1      33.099  24.133  26.338  1.00  0.00    -0.206 F 
BRANCH  11  13
ATOM     13  C   UNL A   1      33.781  22.313  24.260  1.00  0.00    -0.012 A 
ATOM     14  C   UNL A   1      35.048  21.900  24.708  1.00  0.00     0.009 A 
ATOM     15  C   UNL A   1      32.804  21.326  24.052  1.00  0.00     0.056 A 
ATOM     16  C   UNL A   1      35.316  20.564  25.008  1.00  0.00     0.004 A 
ATOM     17  C   UNL A   1      33.102  19.985  24.288  1.00  0.00     0.133 A 
ATOM     18  C   UNL A   1      34.338  19.605  24.805  1.00  0.00     0.047 A 
BRANCH  17  19
ATOM     19  O   UNL A   1      32.249  18.902  23.996  1.00  0.00    -0.410 OA
BRANCH  19  20
ATOM     20  C   UNL A   1      32.481  17.921  23.052  1.00  0.00     0.412 C 
ATOM     21  O   UNL A   1      32.533  18.081  21.834  1.00  0.00    -0.224 OA
ATOM     22  N   UNL A   1      32.684  16.677  23.592  1.00  0.00    -0.318 N 
ATOM     23  H   UNL A   1      32.701  15.941  22.939  1.00  0.00     0.167 HD
BRANCH  22  24
ATOM     24  C   UNL A   1      32.874  16.279  24.951  1.00  0.00     0.085 C 
ATOM     25  C   UNL A   1      32.934  14.888  25.516  1.00  0.00     0.027 C 
ATOM     26  C   UNL A   1      34.192  15.689  25.377  1.00  0.00     0.027 C 
ENDBRANCH  22  24
ENDBRANCH  19  20
ENDBRANCH  17  19
ENDBRANCH  11  13
ENDBRANCH   4   6
ENDBRANCH   2   4
ENDBRANCH   1   2
BRANCH   1  27
ATOM     27  C   UNL A   1      31.380  29.337  25.156  1.00  0.00     0.274 C 
BRANCH  27  28
ATOM     28  C   UNL A   1      31.428  30.771  25.681  1.00  0.00     0.275 C 
BRANCH  28  29
ATOM     29  O   UNL A   1      32.065  30.811  26.973  1.00  0.00    -0.458 OA
BRANCH  29  30
ATOM     30  C   UNL A   1      32.775  31.926  27.246  1.00  0.00     0.338 C 
ATOM     31  O   UNL A   1      32.413  33.091  27.142  1.00  0.00    -0.246 OA
BRANCH  30  32
ATOM     32  C   UNL A   1      34.074  31.540  27.804  1.00  0.00     0.060 A 
ATOM     33  C   UNL A   1      34.318  30.186  27.996  1.00  0.00     0.016 A 
ATOM     34  C   UNL A   1      34.997  32.489  28.247  1.00  0.00     0.016 A 
ATOM     35  C   UNL A   1      35.454  29.774  28.681  1.00  0.00     0.010 A 
ATOM     36  C   UNL A   1      36.170  32.065  28.893  1.00  0.00     0.010 A 
ATOM     37  C   UNL A   1      36.395  30.701  29.144  1.00  0.00    -0.014 A 
BRANCH  37  38
ATOM     38  C   UNL A   1      37.547  30.217  29.956  1.00  0.00     0.031 A 
ATOM     39  C   UNL A   1      38.683  29.488  29.285  1.00  0.00     0.074 A 
ATOM     40  C   UNL A   1      37.650  30.540  31.261  1.00  0.00     0.049 A 
ATOM     41  N   UNL A   1      39.764  28.969  29.815  1.00  0.00    -0.248 NA
ATOM     42  C   UNL A   1      38.594  29.326  27.826  1.00  0.00     0.031 C 
ATOM     43  C   UNL A   1      36.698  31.369  32.002  1.00  0.00     0.029 A 
ATOM     44  N   UNL A   1      38.648  30.288  32.174  1.00  0.00    -0.354 N 
ATOM     45  C   UNL A   1      40.442  28.358  28.766  1.00  0.00     0.074 A 
ATOM     46  C   UNL A   1      39.670  28.597  27.566  1.00  0.00     0.031 C 
ATOM     47  C   UNL A   1      37.214  31.657  33.207  1.00  0.00     0.029 A 
ATOM     48  C   UNL A   1      38.490  30.963  33.364  1.00  0.00     0.049 A 
ATOM     49  H   UNL A   1      39.403  29.681  31.994  1.00  0.00     0.167 HD
ATOM     50  C   UNL A   1      41.592  27.643  28.804  1.00  0.00     0.037 A 
ATOM     51  C   UNL A   1      39.297  31.036  34.441  1.00  0.00     0.037 A 
ATOM     52  C   UNL A   1      42.401  27.465  29.982  1.00  0.00     0.049 A 
ATOM     53  C   UNL A   1      40.567  30.227  34.464  1.00  0.00     0.074 A 
ATOM     54  C   UNL A   1      43.549  26.707  30.136  1.00  0.00     0.029 A 
ATOM     55  N   UNL A   1      42.161  28.078  31.201  1.00  0.00    -0.354 N 
ATOM     56  N   UNL A   1      41.149  29.566  33.494  1.00  0.00    -0.248 NA
ATOM     57  C   UNL A   1      41.277  30.151  35.751  1.00  0.00     0.031 C 
ATOM     58  C   UNL A   1      43.981  26.828  31.461  1.00  0.00     0.029 A 
ATOM     59  C   UNL A   1      43.126  27.698  32.119  1.00  0.00     0.049 A 
ATOM     60  H   UNL A   1      41.416  28.693  31.387  1.00  0.00     0.167 HD
ATOM     61  C   UNL A   1      42.285  28.991  34.053  1.00  0.00     0.074 A 
ATOM     62  C   UNL A   1      42.342  29.429  35.432  1.00  0.00     0.031 C 
ATOM     63  C   UNL A   1      43.183  28.150  33.484  1.00  0.00     0.037 A 
BRANCH  50  64
ATOM     64  C   UNL A   1      42.001  26.920  27.555  1.00  0.00     0.057 A 
ATOM     65  C   UNL A   1      42.812  27.500  26.574  1.00  0.00     0.134 A 
ATOM     66  C   UNL A   1      41.587  25.596  27.354  1.00  0.00     0.134 A 
ATOM     67  F   UNL A   1      43.230  28.768  26.698  1.00  0.00    -0.206 F 
ATOM     68  C   UNL A   1      43.182  26.792  25.427  1.00  0.00     0.040 A 
ATOM     69  C   UNL A   1      41.970  24.871  26.225  1.00  0.00     0.040 A 
ATOM     70  F   UNL A   1      40.812  24.981  28.260  1.00  0.00    -0.206 F 
ATOM     71  C   UNL A   1      42.766  25.473  25.254  1.00  0.00     0.006 A 
ENDBRANCH  50  64
BRANCH  51  72
ATOM     72  C   UNL A   1      38.963  31.919  35.591  1.00  0.00     0.057 A 
ATOM     73  C   UNL A   1      38.200  31.437  36.663  1.00  0.00     0.134 A 
ATOM     74  C   UNL A   1      39.351  33.263  35.636  1.00  0.00     0.134 A 
ATOM     75  F   UNL A   1      37.772  30.166  36.669  1.00  0.00    -0.206 F 
ATOM     76  C   UNL A   1      37.821  32.260  37.725  1.00  0.00     0.040 A 
ATOM     77  C   UNL A   1      39.008  34.090  36.708  1.00  0.00     0.040 A 
ATOM     78  F   UNL A   1      40.074  33.794  34.639  1.00  0.00    -0.206 F 
ATOM     79  C   UNL A   1      38.232  33.591  37.751  1.00  0.00     0.006 A 
ENDBRANCH  51  72
BRANCH  63  80
ATOM     80  C   UNL A   1      44.302  27.642  34.347  1.00  0.00     0.057 A 
ATOM     81  C   UNL A   1      44.186  26.445  35.067  1.00  0.00     0.134 A 
ATOM     82  C   UNL A   1      45.525  28.320  34.416  1.00  0.00     0.134 A 
ATOM     83  F   UNL A   1      43.037  25.752  35.050  1.00  0.00    -0.206 F 
ATOM     84  C   UNL A   1      45.238  25.952  35.840  1.00  0.00     0.040 A 
ATOM     85  C   UNL A   1      46.594  27.823  35.164  1.00  0.00     0.040 A 
ATOM     86  F   UNL A   1      45.708  29.466  33.743  1.00  0.00    -0.206 F 
ATOM     87  C   UNL A   1      46.449  26.638  35.883  1.00  0.00     0.006 A 
ENDBRANCH  63  80
ENDBRANCH  37  38
ENDBRANCH  30  32
ENDBRANCH  29  30
ENDBRANCH  28  29
ENDBRANCH  27  28
ENDBRANCH   1  27
TORSDOF 16
ENDMDL
MODEL 2
REMARK VINA RESULT:     -12.2      5.029      9.311
REMARK SMILES C[C@@H](C(=O)OCCOC(=O)c1ccc(-c2c3nc(c(-c4c(F)cccc4F)c4ccc([nH]4)c(-c4c(F)cccc4F)c4nc(c(-c5c(F)cccc5F)c5ccc2[nH]5)C=C4)C=C3)cc1)c1ccc(-c2cccc(OC(=O)NC3CC3)c2)c(F)c1
REMARK SMILES IDX 5 1 3 2 4 3 2 4 1 5 65 6 66 7 84 8 67 9 82 10 68 11 83 12
REMARK SMILES IDX 69 13 70 14 81 15 71 16 73 17 72 18 74 19 75 20 76 21 77 22
REMARK SMILES IDX 78 24 79 25 80 26 6 27 7 28 8 29 9 30 10 31 11 32 12 33
REMARK SMILES IDX 64 34 13 35 63 36 14 37 15 38 16 39 57 40 17 41 62 42 56 43
REMARK SMILES IDX 58 44 18 45 61 46 55 47 54 48 19 50 45 51 28 52 44 53 29 54
REMARK SMILES IDX 32 55 43 56 59 57 30 58 31 59 42 61 60 62 33 63 20 64 21 65
REMARK SMILES IDX 26 66 22 67 23 68 25 69 27 70 24 71 46 72 47 73 52 74 48 75
REMARK SMILES IDX 49 76 51 77 53 78 50 79 34 80 35 81 40 82 36 83 37 84 39 85
REMARK SMILES IDX 41 86 38 87
REMARK H PARENT 77 23 58 49 32 60
REMARK Flexibility Score: inf
ROOT
ATOM      1  O   UNL A   1      34.647  34.748  31.442  1.00  0.00    -0.462 OA
ENDROOT
BRANCH   1   2
ATOM      2  C   UNL A   1      33.721  35.038  30.484  1.00  0.00     0.313 C 
ATOM      3  O   UNL A   1      32.562  35.347  30.739  1.00  0.00    -0.252 OA
BRANCH   2   4
ATOM      4  C   UNL A   1      34.275  34.864  29.053  1.00  0.00     0.126 C 
ATOM      5  C   UNL A   1      34.071  36.130  28.206  1.00  0.00     0.025 C 
BRANCH   4   6
ATOM      6  C   UNL A   1      33.767  33.582  28.377  1.00  0.00    -0.031 A 
ATOM      7  C   UNL A   1      34.549  32.412  28.413  1.00  0.00     0.005 A 
ATOM      8  C   UNL A   1      32.527  33.500  27.725  1.00  0.00     0.044 A 
ATOM      9  C   UNL A   1      34.087  31.202  27.869  1.00  0.00     0.012 A 
ATOM     10  C   UNL A   1      32.082  32.297  27.167  1.00  0.00     0.131 A 
ATOM     11  C   UNL A   1      32.838  31.120  27.238  1.00  0.00     0.018 A 
ATOM     12  F   UNL A   1      30.873  32.287  26.585  1.00  0.00    -0.206 F 
BRANCH  11  13
ATOM     13  C   UNL A   1      32.328  29.845  26.709  1.00  0.00    -0.012 A 
ATOM     14  C   UNL A   1      32.106  28.746  27.557  1.00  0.00     0.009 A 
ATOM     15  C   UNL A   1      32.038  29.692  25.344  1.00  0.00     0.056 A 
ATOM     16  C   UNL A   1      31.548  27.558  27.080  1.00  0.00     0.004 A 
ATOM     17  C   UNL A   1      31.547  28.478  24.865  1.00  0.00     0.133 A 
ATOM     18  C   UNL A   1      31.261  27.427  25.732  1.00  0.00     0.047 A 
BRANCH  17  19
ATOM     19  O   UNL A   1      31.340  28.167  23.505  1.00  0.00    -0.410 OA
BRANCH  19  20
ATOM     20  C   UNL A   1      31.875  28.849  22.430  1.00  0.00     0.412 C 
ATOM     21  O   UNL A   1      33.025  28.754  22.007  1.00  0.00    -0.224 OA
ATOM     22  N   UNL A   1      30.980  29.682  21.809  1.00  0.00    -0.318 N 
ATOM     23  H   UNL A   1      31.374  30.287  21.140  1.00  0.00     0.167 HD
BRANCH  22  24
ATOM     24  C   UNL A   1      29.567  29.812  21.977  1.00  0.00     0.085 C 
ATOM     25  C   UNL A   1      28.819  30.513  23.075  1.00  0.00     0.027 C 
ATOM     26  C   UNL A   1      28.906  31.138  21.716  1.00  0.00     0.027 C 
ENDBRANCH  22  24
ENDBRANCH  19  20
ENDBRANCH  17  19
ENDBRANCH  11  13
ENDBRANCH   4   6
ENDBRANCH   2   4
ENDBRANCH   1   2
BRANCH   1  27
ATOM     27  C   UNL A   1      34.169  34.618  32.797  1.00  0.00     0.274 C 
BRANCH  27  28
ATOM     28  C   UNL A   1      34.185  33.157  33.241  1.00  0.00     0.275 C 
BRANCH  28  29
ATOM     29  O   UNL A   1      35.163  32.415  32.488  1.00  0.00    -0.458 OA
BRANCH  29  30
ATOM     30  C   UNL A   1      36.324  32.155  33.126  1.00  0.00     0.338 C 
ATOM     31  O   UNL A   1      36.582  32.314  34.312  1.00  0.00    -0.246 OA
BRANCH  30  32
ATOM     32  C   UNL A   1      37.258  31.531  32.183  1.00  0.00     0.060 A 
ATOM     33  C   UNL A   1      38.235  30.692  32.702  1.00  0.00     0.016 A 
ATOM     34  C   UNL A   1      37.258  31.853  30.825  1.00  0.00     0.016 A 
ATOM     35  C   UNL A   1      39.250  30.215  31.882  1.00  0.00     0.010 A 
ATOM     36  C   UNL A   1      38.256  31.326  29.989  1.00  0.00     0.010 A 
ATOM     37  C   UNL A   1      39.283  30.525  30.518  1.00  0.00    -0.014 A 
BRANCH  37  38
ATOM     38  C   UNL A   1      40.443  30.070  29.701  1.00  0.00     0.031 A 
ATOM     39  C   UNL A   1      41.682  30.924  29.618  1.00  0.00     0.074 A 
ATOM     40  C   UNL A   1      40.450  28.842  29.144  1.00  0.00     0.049 A 
ATOM     41  N   UNL A   1      42.788  30.718  28.946  1.00  0.00    -0.248 NA
ATOM     42  C   UNL A   1      41.678  32.171  30.398  1.00  0.00     0.031 C 
ATOM     43  C   UNL A   1      39.380  27.852  29.271  1.00  0.00     0.029 A 
ATOM     44  N   UNL A   1      41.427  28.181  28.435  1.00  0.00    -0.354 N 
ATOM     45  C   UNL A   1      43.577  31.842  29.164  1.00  0.00     0.074 A 
ATOM     46  C   UNL A   1      42.839  32.711  30.055  1.00  0.00     0.031 C 
ATOM     47  C   UNL A   1      39.805  26.680  28.773  1.00  0.00     0.029 A 
ATOM     48  C   UNL A   1      41.141  26.853  28.209  1.00  0.00     0.049 A 
ATOM     49  H   UNL A   1      42.251  28.617  28.118  1.00  0.00     0.167 HD
ATOM     50  C   UNL A   1      44.796  32.133  28.650  1.00  0.00     0.037 A 
ATOM     51  C   UNL A   1      41.885  25.884  27.639  1.00  0.00     0.037 A 
ATOM     52  C   UNL A   1      45.565  31.241  27.822  1.00  0.00     0.049 A 
ATOM     53  C   UNL A   1      43.234  26.232  27.069  1.00  0.00     0.074 A 
ATOM     54  C   UNL A   1      46.782  31.468  27.203  1.00  0.00     0.029 A 
ATOM     55  N   UNL A   1      45.203  29.937  27.525  1.00  0.00    -0.354 N 
ATOM     56  N   UNL A   1      43.929  27.337  27.193  1.00  0.00    -0.248 NA
ATOM     57  C   UNL A   1      43.889  25.202  26.247  1.00  0.00     0.031 C 
ATOM     58  C   UNL A   1      47.136  30.315  26.495  1.00  0.00     0.029 A 
ATOM     59  C   UNL A   1      46.162  29.355  26.712  1.00  0.00     0.049 A 
ATOM     60  H   UNL A   1      44.387  29.490  27.845  1.00  0.00     0.167 HD
ATOM     61  C   UNL A   1      45.095  27.136  26.462  1.00  0.00     0.074 A 
ATOM     62  C   UNL A   1      45.040  25.785  25.945  1.00  0.00     0.031 C 
ATOM     63  C   UNL A   1      46.106  28.005  26.215  1.00  0.00     0.037 A 
BRANCH  50  64
ATOM     64  C   UNL A   1      45.339  33.511  28.890  1.00  0.00     0.057 A 
ATOM     65  C   UNL A   1      46.148  33.827  29.987  1.00  0.00     0.134 A 
ATOM     66  C   UNL A   1      45.059  34.536  27.975  1.00  0.00     0.134 A 
ATOM     67  F   UNL A   1      46.440  32.897  30.908  1.00  0.00    -0.206 F 
ATOM     68  C   UNL A   1      46.645  35.120  30.174  1.00  0.00     0.040 A 
ATOM     69  C   UNL A   1      45.570  35.824  28.138  1.00  0.00     0.040 A 
ATOM     70  F   UNL A   1      44.294  34.296  26.899  1.00  0.00    -0.206 F 
ATOM     71  C   UNL A   1      46.361  36.119  29.245  1.00  0.00     0.006 A 
ENDBRANCH  50  64
BRANCH  51  72
ATOM     72  C   UNL A   1      41.404  24.477  27.590  1.00  0.00     0.057 A 
ATOM     73  C   UNL A   1      40.359  24.110  26.730  1.00  0.00     0.134 A 
ATOM     74  C   UNL A   1      41.931  23.479  28.417  1.00  0.00     0.134 A 
ATOM     75  F   UNL A   1      39.790  25.025  25.931  1.00  0.00    -0.206 F 
ATOM     76  C   UNL A   1      39.847  22.812  26.708  1.00  0.00     0.040 A 
ATOM     77  C   UNL A   1      41.452  22.168  28.382  1.00  0.00     0.040 A 
ATOM     78  F   UNL A   1      42.925  23.762  29.272  1.00  0.00    -0.206 F 
ATOM     79  C   UNL A   1      40.400  21.833  27.532  1.00  0.00     0.006 A 
ENDBRANCH  51  72
BRANCH  63  80
ATOM     80  C   UNL A   1      47.233  27.528  25.345  1.00  0.00     0.057 A 
ATOM     81  C   UNL A   1      47.231  27.743  23.960  1.00  0.00     0.134 A 
ATOM     82  C   UNL A   1      48.357  26.903  25.899  1.00  0.00     0.134 A 
ATOM     83  F   UNL A   1      46.180  28.330  23.366  1.00  0.00    -0.206 F 
ATOM     84  C   UNL A   1      48.295  27.335  23.155  1.00  0.00     0.040 A 
ATOM     85  C   UNL A   1      49.440  26.514  25.107  1.00  0.00     0.040 A 
ATOM     86  F   UNL A   1      48.430  26.677  27.219  1.00  0.00    -0.206 F 
ATOM     87  C   UNL A   1      49.407  26.725  23.731  1.00  0.00     0.006 A 
ENDBRANCH  63  80
ENDBRANCH  37  38
ENDBRANCH  30  32
ENDBRANCH  29  30
ENDBRANCH  28  29
ENDBRANCH  27  28
ENDBRANCH   1  27
TORSDOF 16
ENDMDL
MODEL 3
REMARK VINA RESULT:     -12.1      3.596      8.506
REMARK SMILES C[C@@H](C(=O)OCCOC(=O)c1ccc(-c2c3nc(c(-c4c(F)cccc4F)c4ccc([nH]4)c(-c4c(F)cccc4F)c4nc(c(-c5c(F)cccc5F)c5ccc2[nH]5)C=C4)C=C3)cc1)c1ccc(-c2cccc(OC(=O)NC3CC3)c2)c(F)c1
REMARK SMILES IDX 5 1 3 2 4 3 2 4 1 5 65 6 66 7 84 8 67 9 82 10 68 11 83 12
REMARK SMILES IDX 69 13 70 14 81 15 71 16 73 17 72 18 74 19 75 20 76 21 77 22
REMARK SMILES IDX 78 24 79 25 80 26 6 27 7 28 8 29 9 30 10 31 11 32 12 33
REMARK SMILES IDX 64 34 13 35 63 36 14 37 15 38 16 39 57 40 17 41 62 42 56 43
REMARK SMILES IDX 58 44 18 45 61 46 55 47 54 48 19 50 45 51 28 52 44 53 29 54
REMARK SMILES IDX 32 55 43 56 59 57 30 58 31 59 42 61 60 62 33 63 20 64 21 65
REMARK SMILES IDX 26 66 22 67 23 68 25 69 27 70 24 71 46 72 47 73 52 74 48 75
REMARK SMILES IDX 49 76 51 77 53 78 50 79 34 80 35 81 40 82 36 83 37 84 39 85
REMARK SMILES IDX 41 86 38 87
REMARK H PARENT 77 23 58 49 32 60
REMARK Flexibility Score: inf
ROOT
ATOM      1  O   UNL A   1      42.669  21.918  25.069  1.00  0.00    -0.462 OA
ENDROOT
BRANCH   1   2
ATOM      2  C   UNL A   1      42.026  21.303  26.102  1.00  0.00     0.313 C 
ATOM      3  O   UNL A   1      42.002  20.087  26.254  1.00  0.00    -0.252 OA
BRANCH   2   4
ATOM      4  C   UNL A   1      41.276  22.302  27.011  1.00  0.00     0.126 C 
ATOM      5  C   UNL A   1      41.371  21.907  28.493  1.00  0.00     0.025 C 
BRANCH   4   6
ATOM      6  C   UNL A   1      39.838  22.565  26.536  1.00  0.00    -0.031 A 
ATOM      7  C   UNL A   1      39.224  23.802  26.811  1.00  0.00     0.005 A 
ATOM      8  C   UNL A   1      39.090  21.630  25.806  1.00  0.00     0.044 A 
ATOM      9  C   UNL A   1      37.940  24.108  26.332  1.00  0.00     0.012 A 
ATOM     10  C   UNL A   1      37.802  21.933  25.350  1.00  0.00     0.131 A 
ATOM     11  C   UNL A   1      37.204  23.178  25.585  1.00  0.00     0.018 A 
ATOM     12  F   UNL A   1      37.157  21.000  24.634  1.00  0.00    -0.206 F 
BRANCH  11  13
ATOM     13  C   UNL A   1      35.878  23.509  25.039  1.00  0.00    -0.012 A 
ATOM     14  C   UNL A   1      35.536  23.178  23.716  1.00  0.00     0.009 A 
ATOM     15  C   UNL A   1      34.911  24.155  25.826  1.00  0.00     0.056 A 
ATOM     16  C   UNL A   1      34.257  23.416  23.212  1.00  0.00     0.004 A 
ATOM     17  C   UNL A   1      33.658  24.451  25.291  1.00  0.00     0.133 A 
ATOM     18  C   UNL A   1      33.313  24.047  24.004  1.00  0.00     0.047 A 
BRANCH  17  19
ATOM     19  O   UNL A   1      32.658  25.205  25.940  1.00  0.00    -0.410 OA
BRANCH  19  20
ATOM     20  C   UNL A   1      31.499  24.701  26.497  1.00  0.00     0.412 C 
ATOM     21  O   UNL A   1      31.427  23.846  27.377  1.00  0.00    -0.224 OA
ATOM     22  N   UNL A   1      30.357  25.262  25.987  1.00  0.00    -0.318 N 
ATOM     23  H   UNL A   1      29.522  24.816  26.256  1.00  0.00     0.167 HD
BRANCH  22  24
ATOM     24  C   UNL A   1      30.185  26.390  25.127  1.00  0.00     0.085 C 
ATOM     25  C   UNL A   1      30.456  26.489  23.653  1.00  0.00     0.027 C 
ATOM     26  C   UNL A   1      29.044  26.412  24.147  1.00  0.00     0.027 C 
ENDBRANCH  22  24
ENDBRANCH  19  20
ENDBRANCH  17  19
ENDBRANCH  11  13
ENDBRANCH   4   6
ENDBRANCH   2   4
ENDBRANCH   1   2
BRANCH   1  27
ATOM     27  C   UNL A   1      44.108  21.814  25.040  1.00  0.00     0.274 C 
BRANCH  27  28
ATOM     28  C   UNL A   1      44.714  22.903  24.156  1.00  0.00     0.275 C 
BRANCH  28  29
ATOM     29  O   UNL A   1      44.069  24.167  24.406  1.00  0.00    -0.458 OA
BRANCH  29  30
ATOM     30  C   UNL A   1      44.812  25.089  25.055  1.00  0.00     0.338 C 
ATOM     31  O   UNL A   1      45.967  25.420  24.824  1.00  0.00    -0.246 OA
BRANCH  30  32
ATOM     32  C   UNL A   1      43.978  25.749  26.065  1.00  0.00     0.060 A 
ATOM     33  C   UNL A   1      44.038  27.134  26.147  1.00  0.00     0.016 A 
ATOM     34  C   UNL A   1      43.240  25.021  27.000  1.00  0.00     0.016 A 
ATOM     35  C   UNL A   1      43.411  27.797  27.194  1.00  0.00     0.010 A 
ATOM     36  C   UNL A   1      42.563  25.700  28.027  1.00  0.00     0.010 A 
ATOM     37  C   UNL A   1      42.668  27.096  28.151  1.00  0.00    -0.014 A 
BRANCH  37  38
ATOM     38  C   UNL A   1      42.094  27.841  29.307  1.00  0.00     0.031 A 
ATOM     39  C   UNL A   1      42.929  28.068  30.541  1.00  0.00     0.074 A 
ATOM     40  C   UNL A   1      40.885  28.430  29.212  1.00  0.00     0.049 A 
ATOM     41  N   UNL A   1      42.609  28.671  31.660  1.00  0.00    -0.248 NA
ATOM     42  C   UNL A   1      44.307  27.554  30.510  1.00  0.00     0.031 C 
ATOM     43  C   UNL A   1      40.033  28.418  28.022  1.00  0.00     0.029 A 
ATOM     44  N   UNL A   1      40.201  29.229  30.099  1.00  0.00    -0.354 N 
ATOM     45  C   UNL A   1      43.719  28.543  32.489  1.00  0.00     0.074 A 
ATOM     46  C   UNL A   1      44.730  27.835  31.735  1.00  0.00     0.031 C 
ATOM     47  C   UNL A   1      39.011  29.268  28.207  1.00  0.00     0.029 A 
ATOM     48  C   UNL A   1      39.079  29.817  29.559  1.00  0.00     0.049 A 
ATOM     49  H   UNL A   1      40.486  29.366  31.032  1.00  0.00     0.167 HD
ATOM     50  C   UNL A   1      43.871  28.958  33.769  1.00  0.00     0.037 A 
ATOM     51  C   UNL A   1      38.225  30.717  30.085  1.00  0.00     0.037 A 
ATOM     52  C   UNL A   1      42.895  29.725  34.498  1.00  0.00     0.049 A 
ATOM     53  C   UNL A   1      38.410  31.159  31.513  1.00  0.00     0.074 A 
ATOM     54  C   UNL A   1      42.931  30.139  35.819  1.00  0.00     0.029 A 
ATOM     55  N   UNL A   1      41.720  30.221  33.956  1.00  0.00    -0.354 N 
ATOM     56  N   UNL A   1      39.416  30.945  32.325  1.00  0.00    -0.248 NA
ATOM     57  C   UNL A   1      37.316  31.943  32.108  1.00  0.00     0.031 C 
ATOM     58  C   UNL A   1      41.757  30.849  36.088  1.00  0.00     0.029 A 
ATOM     59  C   UNL A   1      41.012  30.917  34.922  1.00  0.00     0.049 A 
ATOM     60  H   UNL A   1      41.432  30.097  33.023  1.00  0.00     0.167 HD
ATOM     61  C   UNL A   1      39.074  31.561  33.524  1.00  0.00     0.074 A 
ATOM     62  C   UNL A   1      37.795  32.205  33.316  1.00  0.00     0.031 C 
ATOM     63  C   UNL A   1      39.746  31.566  34.702  1.00  0.00     0.037 A 
BRANCH  50  64
ATOM     64  C   UNL A   1      45.103  28.511  34.500  1.00  0.00     0.057 A 
ATOM     65  C   UNL A   1      46.296  29.241  34.493  1.00  0.00     0.134 A 
ATOM     66  C   UNL A   1      45.071  27.329  35.254  1.00  0.00     0.134 A 
ATOM     67  F   UNL A   1      46.397  30.372  33.780  1.00  0.00    -0.206 F 
ATOM     68  C   UNL A   1      47.421  28.800  35.194  1.00  0.00     0.040 A 
ATOM     69  C   UNL A   1      46.181  26.892  35.978  1.00  0.00     0.040 A 
ATOM     70  F   UNL A   1      43.955  26.586  35.307  1.00  0.00    -0.206 F 
ATOM     71  C   UNL A   1      47.363  27.626  35.944  1.00  0.00     0.006 A 
ENDBRANCH  50  64
BRANCH  51  72
ATOM     72  C   UNL A   1      37.122  31.296  29.271  1.00  0.00     0.057 A 
ATOM     73  C   UNL A   1      37.204  32.611  28.792  1.00  0.00     0.134 A 
ATOM     74  C   UNL A   1      35.952  30.583  28.986  1.00  0.00     0.134 A 
ATOM     75  F   UNL A   1      38.286  33.358  29.053  1.00  0.00    -0.206 F 
ATOM     76  C   UNL A   1      36.158  33.200  28.078  1.00  0.00     0.040 A 
ATOM     77  C   UNL A   1      34.912  31.148  28.244  1.00  0.00     0.040 A 
ATOM     78  F   UNL A   1      35.801  29.324  29.422  1.00  0.00    -0.206 F 
ATOM     79  C   UNL A   1      35.009  32.463  27.797  1.00  0.00     0.006 A 
ENDBRANCH  51  72
BRANCH  63  80
ATOM     80  C   UNL A   1      39.113  32.283  35.859  1.00  0.00     0.057 A 
ATOM     81  C   UNL A   1      38.286  31.613  36.770  1.00  0.00     0.134 A 
ATOM     82  C   UNL A   1      39.376  33.636  36.101  1.00  0.00     0.134 A 
ATOM     83  F   UNL A   1      37.987  30.317  36.591  1.00  0.00    -0.206 F 
ATOM     84  C   UNL A   1      37.726  32.269  37.868  1.00  0.00     0.040 A 
ATOM     85  C   UNL A   1      38.844  34.297  37.210  1.00  0.00     0.040 A 
ATOM     86  F   UNL A   1      40.169  34.335  35.274  1.00  0.00    -0.206 F 
ATOM     87  C   UNL A   1      38.012  33.613  38.094  1.00  0.00     0.006 A 
ENDBRANCH  63  80
ENDBRANCH  37  38
ENDBRANCH  30  32
ENDBRANCH  29  30
ENDBRANCH  28  29
ENDBRANCH  27  28
ENDBRANCH   1  27
TORSDOF 16
ENDMDL
