MODEL 1
REMARK VINA RESULT:     -10.8      0.000      0.000
REMARK SMILES Cc1nc(C)c(C(=O)N[C@@H](CCS(C)(=O)=O)C(=O)OCCOC(=O)c2ccc(-c3c4nc(c(-c5c(F)cccc5F)c5ccc([nH]5)c(-c5c(F)cccc5F)c5nc(c(-c6c(F)cccc6F)c6ccc3[nH]6)C=C5)C=C4)cc2)s1
REMARK SMILES IDX 20 1 19 2 17 3 18 4 10 5 9 6 7 7 8 8 6 10 1 11 2 12 3 13
REMARK SMILES IDX 79 14 4 15 5 16 11 17 12 18 13 19 14 20 15 21 16 22 21 23
REMARK SMILES IDX 22 24 23 25 24 26 25 27 26 28 78 29 27 30 77 31 28 32 29 33
REMARK SMILES IDX 30 34 71 35 31 36 76 37 70 38 72 39 32 40 75 41 69 42 68 43
REMARK SMILES IDX 33 45 59 46 42 47 58 48 43 49 46 50 57 51 73 52 44 53 45 54
REMARK SMILES IDX 56 56 74 57 47 58 34 59 35 60 40 61 36 62 37 63 39 64 41 65
REMARK SMILES IDX 38 66 60 67 61 68 66 69 62 70 63 71 65 72 67 73 64 74 48 75
REMARK SMILES IDX 49 76 54 77 50 78 51 79 53 80 55 81 52 82
REMARK H PARENT 9 9 72 44 46 55
REMARK Flexibility Score: inf
ROOT
ATOM      1  C   UNL A   1      35.221  20.969  24.675  1.00  0.00     0.274 C 
ENDROOT
BRANCH   1   2
ATOM      2  O   UNL A   1      35.207  22.414  24.733  1.00  0.00    -0.461 OA
BRANCH   2   3
ATOM      3  C   UNL A   1      35.078  23.061  23.553  1.00  0.00     0.328 C 
ATOM      4  O   UNL A   1      35.891  23.020  22.635  1.00  0.00    -0.250 OA
BRANCH   3   5
ATOM      5  C   UNL A   1      33.827  23.949  23.472  1.00  0.00     0.193 C 
BRANCH   5   6
ATOM      6  N   UNL A   1      33.901  25.133  22.620  1.00  0.00    -0.338 N 
ATOM      7  C   UNL A   1      33.450  26.436  22.732  1.00  0.00     0.263 C 
ATOM      8  O   UNL A   1      33.740  27.139  21.760  1.00  0.00    -0.268 OA
ATOM      9  H   UNL A   1      34.381  24.968  21.776  1.00  0.00     0.164 HD
BRANCH   7  10
ATOM     10  C   UNL A   1      32.726  26.987  23.880  1.00  0.00     0.115 A 
ATOM     11  C   UNL A   1      31.881  28.545  27.361  1.00  0.00     0.079 C 
ATOM     12  C   UNL A   1      31.955  27.936  26.002  1.00  0.00     0.091 A 
ATOM     13  N   UNL A   1      31.015  28.055  25.099  1.00  0.00    -0.246 NA
ATOM     14  S   UNL A   1      33.308  27.013  25.502  1.00  0.00    -0.113 S 
ATOM     15  C   UNL A   1      31.412  27.465  23.904  1.00  0.00     0.061 A 
ATOM     16  C   UNL A   1      30.383  27.463  22.826  1.00  0.00     0.068 C 
ENDBRANCH   7  10
ENDBRANCH   5   6
BRANCH   5  17
ATOM     17  C   UNL A   1      32.558  23.120  23.181  1.00  0.00     0.053 C 
BRANCH  17  18
ATOM     18  C   UNL A   1      31.365  23.238  24.127  1.00  0.00     0.139 C 
BRANCH  18  19
ATOM     19  S   UNL A   1      31.357  22.299  25.647  1.00  0.00     0.147 S 
ATOM     20  C   UNL A   1      32.587  22.986  26.741  1.00  0.00     0.158 C 
ATOM     21  O   UNL A   1      30.070  22.521  26.281  1.00  0.00    -0.229 OA
ATOM     22  O   UNL A   1      31.766  20.949  25.315  1.00  0.00    -0.229 OA
ENDBRANCH  18  19
ENDBRANCH  17  18
ENDBRANCH   5  17
ENDBRANCH   3   5
ENDBRANCH   2   3
ENDBRANCH   1   2
BRANCH   1  23
ATOM     23  C   UNL A   1      36.618  20.434  24.980  1.00  0.00     0.275 C 
BRANCH  23  24
ATOM     24  O   UNL A   1      37.513  21.521  25.272  1.00  0.00    -0.458 OA
BRANCH  24  25
ATOM     25  C   UNL A   1      38.685  21.145  25.826  1.00  0.00     0.338 C 
ATOM     26  O   UNL A   1      39.273  20.077  25.697  1.00  0.00    -0.246 OA
BRANCH  25  27
ATOM     27  C   UNL A   1      39.299  22.306  26.466  1.00  0.00     0.060 A 
ATOM     28  C   UNL A   1      38.802  23.560  26.117  1.00  0.00     0.016 A 
ATOM     29  C   UNL A   1      40.397  22.185  27.312  1.00  0.00     0.016 A 
ATOM     30  C   UNL A   1      39.425  24.709  26.575  1.00  0.00     0.010 A 
ATOM     31  C   UNL A   1      41.020  23.345  27.781  1.00  0.00     0.010 A 
ATOM     32  C   UNL A   1      40.556  24.615  27.389  1.00  0.00    -0.014 A 
BRANCH  32  33
ATOM     33  C   UNL A   1      41.309  25.848  27.719  1.00  0.00     0.031 A 
ATOM     34  C   UNL A   1      40.655  26.899  28.570  1.00  0.00     0.074 A 
ATOM     35  C   UNL A   1      42.588  25.997  27.328  1.00  0.00     0.049 A 
ATOM     36  N   UNL A   1      41.052  28.117  28.831  1.00  0.00    -0.248 NA
ATOM     37  C   UNL A   1      39.384  26.527  29.211  1.00  0.00     0.031 C 
ATOM     38  C   UNL A   1      43.371  25.003  26.592  1.00  0.00     0.029 A 
ATOM     39  N   UNL A   1      43.457  27.043  27.507  1.00  0.00    -0.354 N 
ATOM     40  C   UNL A   1      40.051  28.677  29.616  1.00  0.00     0.074 A 
ATOM     41  C   UNL A   1      39.033  27.664  29.793  1.00  0.00     0.031 C 
ATOM     42  C   UNL A   1      44.609  25.482  26.393  1.00  0.00     0.029 A 
ATOM     43  C   UNL A   1      44.680  26.844  26.912  1.00  0.00     0.049 A 
ATOM     44  H   UNL A   1      43.227  27.856  28.009  1.00  0.00     0.167 HD
ATOM     45  C   UNL A   1      39.992  29.925  30.135  1.00  0.00     0.037 A 
ATOM     46  C   UNL A   1      45.719  27.686  26.759  1.00  0.00     0.037 A 
ATOM     47  C   UNL A   1      41.038  30.905  29.999  1.00  0.00     0.049 A 
ATOM     48  C   UNL A   1      45.604  29.089  27.286  1.00  0.00     0.074 A 
ATOM     49  C   UNL A   1      41.078  32.201  30.481  1.00  0.00     0.029 A 
ATOM     50  N   UNL A   1      42.241  30.683  29.344  1.00  0.00    -0.354 N 
ATOM     51  N   UNL A   1      44.621  29.644  27.952  1.00  0.00    -0.248 NA
ATOM     52  C   UNL A   1      46.734  29.990  27.021  1.00  0.00     0.031 C 
ATOM     53  C   UNL A   1      42.292  32.775  30.088  1.00  0.00     0.029 A 
ATOM     54  C   UNL A   1      43.026  31.822  29.399  1.00  0.00     0.049 A 
ATOM     55  H   UNL A   1      42.499  29.840  28.905  1.00  0.00     0.167 HD
ATOM     56  C   UNL A   1      45.015  30.952  28.196  1.00  0.00     0.074 A 
ATOM     57  C   UNL A   1      46.339  31.101  27.626  1.00  0.00     0.031 C 
ATOM     58  C   UNL A   1      44.343  31.945  28.829  1.00  0.00     0.037 A 
BRANCH  45  59
ATOM     59  C   UNL A   1      38.736  30.316  30.857  1.00  0.00     0.057 A 
ATOM     60  C   UNL A   1      37.641  30.889  30.199  1.00  0.00     0.134 A 
ATOM     61  C   UNL A   1      38.616  30.092  32.235  1.00  0.00     0.134 A 
ATOM     62  F   UNL A   1      37.697  31.144  28.883  1.00  0.00    -0.206 F 
ATOM     63  C   UNL A   1      36.480  31.245  30.889  1.00  0.00     0.040 A 
ATOM     64  C   UNL A   1      37.452  30.419  32.931  1.00  0.00     0.040 A 
ATOM     65  F   UNL A   1      39.627  29.543  32.926  1.00  0.00    -0.206 F 
ATOM     66  C   UNL A   1      36.382  31.004  32.259  1.00  0.00     0.006 A 
ENDBRANCH  45  59
BRANCH  46  67
ATOM     67  C   UNL A   1      46.933  27.245  26.026  1.00  0.00     0.057 A 
ATOM     68  C   UNL A   1      48.004  26.641  26.694  1.00  0.00     0.134 A 
ATOM     69  C   UNL A   1      47.055  27.425  24.643  1.00  0.00     0.134 A 
ATOM     70  F   UNL A   1      47.956  26.463  28.023  1.00  0.00    -0.206 F 
ATOM     71  C   UNL A   1      49.158  26.244  26.016  1.00  0.00     0.040 A 
ATOM     72  C   UNL A   1      48.190  27.005  23.947  1.00  0.00     0.040 A 
ATOM     73  F   UNL A   1      46.065  27.997  23.942  1.00  0.00    -0.206 F 
ATOM     74  C   UNL A   1      49.249  26.419  24.636  1.00  0.00     0.006 A 
ENDBRANCH  46  67
BRANCH  58  75
ATOM     75  C   UNL A   1      45.043  33.264  28.963  1.00  0.00     0.057 A 
ATOM     76  C   UNL A   1      45.943  33.519  30.006  1.00  0.00     0.134 A 
ATOM     77  C   UNL A   1      44.840  34.277  28.018  1.00  0.00     0.134 A 
ATOM     78  F   UNL A   1      46.168  32.592  30.950  1.00  0.00    -0.206 F 
ATOM     79  C   UNL A   1      46.600  34.744  30.117  1.00  0.00     0.040 A 
ATOM     80  C   UNL A   1      45.511  35.498  28.105  1.00  0.00     0.040 A 
ATOM     81  F   UNL A   1      43.998  34.093  26.992  1.00  0.00    -0.206 F 
ATOM     82  C   UNL A   1      46.388  35.736  29.160  1.00  0.00     0.006 A 
ENDBRANCH  58  75
ENDBRANCH  32  33
ENDBRANCH  25  27
ENDBRANCH  24  25
ENDBRANCH  23  24
ENDBRANCH   1  23
TORSDOF 16
ENDMDL
MODEL 2
REMARK VINA RESULT:     -10.7      1.468      2.997
REMARK SMILES Cc1nc(C)c(C(=O)N[C@@H](CCS(C)(=O)=O)C(=O)OCCOC(=O)c2ccc(-c3c4nc(c(-c5c(F)cccc5F)c5ccc([nH]5)c(-c5c(F)cccc5F)c5nc(c(-c6c(F)cccc6F)c6ccc3[nH]6)C=C5)C=C4)cc2)s1
REMARK SMILES IDX 20 1 19 2 17 3 18 4 10 5 9 6 7 7 8 8 6 10 1 11 2 12 3 13
REMARK SMILES IDX 79 14 4 15 5 16 11 17 12 18 13 19 14 20 15 21 16 22 21 23
REMARK SMILES IDX 22 24 23 25 24 26 25 27 26 28 78 29 27 30 77 31 28 32 29 33
REMARK SMILES IDX 30 34 71 35 31 36 76 37 70 38 72 39 32 40 75 41 69 42 68 43
REMARK SMILES IDX 33 45 59 46 42 47 58 48 43 49 46 50 57 51 73 52 44 53 45 54
REMARK SMILES IDX 56 56 74 57 47 58 34 59 35 60 40 61 36 62 37 63 39 64 41 65
REMARK SMILES IDX 38 66 60 67 61 68 66 69 62 70 63 71 65 72 67 73 64 74 48 75
REMARK SMILES IDX 49 76 54 77 50 78 51 79 53 80 55 81 52 82
REMARK H PARENT 9 9 72 44 46 55
REMARK Flexibility Score: inf
ROOT
ATOM      1  C   UNL A   1      35.222  22.273  25.476  1.00  0.00     0.274 C 
ENDROOT
BRANCH   1   2
ATOM      2  O   UNL A   1      35.521  23.584  24.946  1.00  0.00    -0.461 OA
BRANCH   2   3
ATOM      3  C   UNL A   1      34.803  23.975  23.870  1.00  0.00     0.328 C 
ATOM      4  O   UNL A   1      34.926  23.519  22.737  1.00  0.00    -0.250 OA
BRANCH   3   5
ATOM      5  C   UNL A   1      33.837  25.133  24.163  1.00  0.00     0.193 C 
BRANCH   5   6
ATOM      6  N   UNL A   1      32.483  25.028  23.623  1.00  0.00    -0.338 N 
ATOM      7  C   UNL A   1      31.570  23.997  23.494  1.00  0.00     0.263 C 
ATOM      8  O   UNL A   1      30.507  24.349  22.974  1.00  0.00    -0.268 OA
ATOM      9  H   UNL A   1      32.143  25.884  23.274  1.00  0.00     0.164 HD
BRANCH   7  10
ATOM     10  C   UNL A   1      31.778  22.619  23.942  1.00  0.00     0.115 A 
ATOM     11  C   UNL A   1      32.983  18.910  24.171  1.00  0.00     0.079 C 
ATOM     12  C   UNL A   1      32.383  20.271  24.285  1.00  0.00     0.091 A 
ATOM     13  N   UNL A   1      31.941  20.780  25.406  1.00  0.00    -0.246 NA
ATOM     14  S   UNL A   1      32.225  21.301  22.926  1.00  0.00    -0.113 S 
ATOM     15  C   UNL A   1      31.533  22.096  25.215  1.00  0.00     0.061 A 
ATOM     16  C   UNL A   1      30.928  22.751  26.409  1.00  0.00     0.068 C 
ENDBRANCH   7  10
ENDBRANCH   5   6
BRANCH   5  17
ATOM     17  C   UNL A   1      33.821  25.496  25.662  1.00  0.00     0.053 C 
BRANCH  17  18
ATOM     18  C   UNL A   1      32.513  25.964  26.297  1.00  0.00     0.139 C 
BRANCH  18  19
ATOM     19  S   UNL A   1      32.323  27.681  26.749  1.00  0.00     0.147 S 
ATOM     20  C   UNL A   1      31.779  28.586  25.313  1.00  0.00     0.158 C 
ATOM     21  O   UNL A   1      31.244  27.753  27.717  1.00  0.00    -0.229 OA
ATOM     22  O   UNL A   1      33.638  28.173  27.109  1.00  0.00    -0.229 OA
ENDBRANCH  18  19
ENDBRANCH  17  18
ENDBRANCH   5  17
ENDBRANCH   3   5
ENDBRANCH   2   3
ENDBRANCH   1   2
BRANCH   1  23
ATOM     23  C   UNL A   1      36.228  21.245  24.966  1.00  0.00     0.275 C 
BRANCH  23  24
ATOM     24  O   UNL A   1      37.522  21.854  24.808  1.00  0.00    -0.458 OA
BRANCH  24  25
ATOM     25  C   UNL A   1      38.472  21.364  25.632  1.00  0.00     0.338 C 
ATOM     26  O   UNL A   1      38.885  20.212  25.707  1.00  0.00    -0.246 OA
BRANCH  25  27
ATOM     27  C   UNL A   1      39.127  22.477  26.313  1.00  0.00     0.060 A 
ATOM     28  C   UNL A   1      38.674  23.760  26.014  1.00  0.00     0.016 A 
ATOM     29  C   UNL A   1      40.223  22.286  27.151  1.00  0.00     0.016 A 
ATOM     30  C   UNL A   1      39.337  24.869  26.513  1.00  0.00     0.010 A 
ATOM     31  C   UNL A   1      40.887  23.406  27.662  1.00  0.00     0.010 A 
ATOM     32  C   UNL A   1      40.466  24.705  27.319  1.00  0.00    -0.014 A 
BRANCH  32  33
ATOM     33  C   UNL A   1      41.262  25.897  27.693  1.00  0.00     0.031 A 
ATOM     34  C   UNL A   1      40.639  26.948  28.569  1.00  0.00     0.074 A 
ATOM     35  C   UNL A   1      42.549  26.008  27.320  1.00  0.00     0.049 A 
ATOM     36  N   UNL A   1      41.079  28.141  28.869  1.00  0.00    -0.248 NA
ATOM     37  C   UNL A   1      39.347  26.607  29.184  1.00  0.00     0.031 C 
ATOM     38  C   UNL A   1      43.303  25.007  26.563  1.00  0.00     0.029 A 
ATOM     39  N   UNL A   1      43.456  27.014  27.538  1.00  0.00    -0.354 N 
ATOM     40  C   UNL A   1      40.091  28.717  29.660  1.00  0.00     0.074 A 
ATOM     41  C   UNL A   1      39.034  27.739  29.796  1.00  0.00     0.031 C 
ATOM     42  C   UNL A   1      44.561  25.444  26.391  1.00  0.00     0.029 A 
ATOM     43  C   UNL A   1      44.677  26.786  26.951  1.00  0.00     0.049 A 
ATOM     44  H   UNL A   1      43.252  27.821  28.063  1.00  0.00     0.167 HD
ATOM     45  C   UNL A   1      40.074  29.951  30.215  1.00  0.00     0.037 A 
ATOM     46  C   UNL A   1      45.750  27.591  26.834  1.00  0.00     0.037 A 
ATOM     47  C   UNL A   1      41.159  30.892  30.119  1.00  0.00     0.049 A 
ATOM     48  C   UNL A   1      45.682  28.982  27.401  1.00  0.00     0.074 A 
ATOM     49  C   UNL A   1      41.243  32.171  30.639  1.00  0.00     0.029 A 
ATOM     50  N   UNL A   1      42.360  30.644  29.471  1.00  0.00    -0.354 N 
ATOM     51  N   UNL A   1      44.713  29.554  28.073  1.00  0.00    -0.248 NA
ATOM     52  C   UNL A   1      46.849  29.845  27.174  1.00  0.00     0.031 C 
ATOM     53  C   UNL A   1      42.483  32.710  30.276  1.00  0.00     0.029 A 
ATOM     54  C   UNL A   1      43.187  31.749  29.567  1.00  0.00     0.049 A 
ATOM     55  H   UNL A   1      42.590  29.805  29.009  1.00  0.00     0.167 HD
ATOM     56  C   UNL A   1      45.155  30.838  28.360  1.00  0.00     0.074 A 
ATOM     57  C   UNL A   1      46.490  30.953  27.807  1.00  0.00     0.031 C 
ATOM     58  C   UNL A   1      44.514  31.838  29.014  1.00  0.00     0.037 A 
BRANCH  45  59
ATOM     59  C   UNL A   1      38.827  30.369  30.935  1.00  0.00     0.057 A 
ATOM     60  C   UNL A   1      37.775  31.030  30.289  1.00  0.00     0.134 A 
ATOM     61  C   UNL A   1      38.669  30.081  32.297  1.00  0.00     0.134 A 
ATOM     62  F   UNL A   1      37.868  31.348  28.990  1.00  0.00    -0.206 F 
ATOM     63  C   UNL A   1      36.620  31.410  30.978  1.00  0.00     0.040 A 
ATOM     64  C   UNL A   1      37.509  30.433  32.990  1.00  0.00     0.040 A 
ATOM     65  F   UNL A   1      39.637  29.447  32.976  1.00  0.00    -0.206 F 
ATOM     66  C   UNL A   1      36.483  31.105  32.332  1.00  0.00     0.006 A 
ENDBRANCH  45  59
BRANCH  46  67
ATOM     67  C   UNL A   1      46.954  27.125  26.100  1.00  0.00     0.057 A 
ATOM     68  C   UNL A   1      47.088  27.329  24.723  1.00  0.00     0.134 A 
ATOM     69  C   UNL A   1      47.995  26.456  26.757  1.00  0.00     0.134 A 
ATOM     70  F   UNL A   1      46.114  27.942  24.034  1.00  0.00    -0.206 F 
ATOM     71  C   UNL A   1      48.207  26.874  24.022  1.00  0.00     0.040 A 
ATOM     72  C   UNL A   1      49.133  26.023  26.075  1.00  0.00     0.040 A 
ATOM     73  F   UNL A   1      47.929  26.228  28.078  1.00  0.00    -0.206 F 
ATOM     74  C   UNL A   1      49.238  26.226  24.701  1.00  0.00     0.006 A 
ENDBRANCH  46  67
BRANCH  58  75
ATOM     75  C   UNL A   1      45.263  33.124  29.194  1.00  0.00     0.057 A 
ATOM     76  C   UNL A   1      45.062  34.220  28.347  1.00  0.00     0.134 A 
ATOM     77  C   UNL A   1      46.171  33.278  30.249  1.00  0.00     0.134 A 
ATOM     78  F   UNL A   1      44.215  34.130  27.309  1.00  0.00    -0.206 F 
ATOM     79  C   UNL A   1      45.753  35.418  28.528  1.00  0.00     0.040 A 
ATOM     80  C   UNL A   1      46.850  34.479  30.456  1.00  0.00     0.040 A 
ATOM     81  F   UNL A   1      46.403  32.268  31.101  1.00  0.00    -0.206 F 
ATOM     82  C   UNL A   1      46.647  35.551  29.590  1.00  0.00     0.006 A 
ENDBRANCH  58  75
ENDBRANCH  32  33
ENDBRANCH  25  27
ENDBRANCH  24  25
ENDBRANCH  23  24
ENDBRANCH   1  23
TORSDOF 16
ENDMDL
MODEL 3
REMARK VINA RESULT:     -10.5      4.065      8.873
REMARK SMILES Cc1nc(C)c(C(=O)N[C@@H](CCS(C)(=O)=O)C(=O)OCCOC(=O)c2ccc(-c3c4nc(c(-c5c(F)cccc5F)c5ccc([nH]5)c(-c5c(F)cccc5F)c5nc(c(-c6c(F)cccc6F)c6ccc3[nH]6)C=C5)C=C4)cc2)s1
REMARK SMILES IDX 20 1 19 2 17 3 18 4 10 5 9 6 7 7 8 8 6 10 1 11 2 12 3 13
REMARK SMILES IDX 79 14 4 15 5 16 11 17 12 18 13 19 14 20 15 21 16 22 21 23
REMARK SMILES IDX 22 24 23 25 24 26 25 27 26 28 78 29 27 30 77 31 28 32 29 33
REMARK SMILES IDX 30 34 71 35 31 36 76 37 70 38 72 39 32 40 75 41 69 42 68 43
REMARK SMILES IDX 33 45 59 46 42 47 58 48 43 49 46 50 57 51 73 52 44 53 45 54
REMARK SMILES IDX 56 56 74 57 47 58 34 59 35 60 40 61 36 62 37 63 39 64 41 65
REMARK SMILES IDX 38 66 60 67 61 68 66 69 62 70 63 71 65 72 67 73 64 74 48 75
REMARK SMILES IDX 49 76 54 77 50 78 51 79 53 80 55 81 52 82
REMARK H PARENT 9 9 72 44 46 55
REMARK Flexibility Score: inf
ROOT
ATOM      1  C   UNL A   1      31.800  28.767  26.591  1.00  0.00     0.274 C 
ENDROOT
BRANCH   1   2
ATOM      2  O   UNL A   1      31.627  27.986  25.387  1.00  0.00    -0.461 OA
BRANCH   2   3
ATOM      3  C   UNL A   1      32.665  27.977  24.522  1.00  0.00     0.328 C 
ATOM      4  O   UNL A   1      33.846  27.883  24.840  1.00  0.00    -0.250 OA
BRANCH   3   5
ATOM      5  C   UNL A   1      32.247  28.178  23.058  1.00  0.00     0.193 C 
BRANCH   5   6
ATOM      6  N   UNL A   1      32.702  27.184  22.088  1.00  0.00    -0.338 N 
ATOM      7  C   UNL A   1      32.856  25.810  22.112  1.00  0.00     0.263 C 
ATOM      8  O   UNL A   1      33.273  25.347  21.046  1.00  0.00    -0.268 OA
ATOM      9  H   UNL A   1      32.954  27.581  21.223  1.00  0.00     0.164 HD
BRANCH   7  10
ATOM     10  C   UNL A   1      32.541  24.940  23.247  1.00  0.00     0.115 A 
ATOM     11  C   UNL A   1      30.686  22.534  25.703  1.00  0.00     0.079 C 
ATOM     12  C   UNL A   1      31.578  23.451  24.936  1.00  0.00     0.091 A 
ATOM     13  N   UNL A   1      32.881  23.464  25.052  1.00  0.00    -0.246 NA
ATOM     14  S   UNL A   1      30.953  24.585  23.816  1.00  0.00    -0.113 S 
ATOM     15  C   UNL A   1      33.442  24.352  24.141  1.00  0.00     0.061 A 
ATOM     16  C   UNL A   1      34.919  24.515  24.241  1.00  0.00     0.068 C 
ENDBRANCH   7  10
ENDBRANCH   5   6
BRANCH   5  17
ATOM     17  C   UNL A   1      30.732  28.441  22.929  1.00  0.00     0.053 C 
BRANCH  17  18
ATOM     18  C   UNL A   1      30.254  29.603  22.060  1.00  0.00     0.139 C 
BRANCH  18  19
ATOM     19  S   UNL A   1      28.856  30.579  22.593  1.00  0.00     0.147 S 
ATOM     20  C   UNL A   1      27.496  29.478  22.935  1.00  0.00     0.158 C 
ATOM     21  O   UNL A   1      29.219  31.192  23.858  1.00  0.00    -0.229 OA
ATOM     22  O   UNL A   1      28.474  31.419  21.477  1.00  0.00    -0.229 OA
ENDBRANCH  18  19
ENDBRANCH  17  18
ENDBRANCH   5  17
ENDBRANCH   3   5
ENDBRANCH   2   3
ENDBRANCH   1   2
BRANCH   1  23
ATOM     23  C   UNL A   1      31.755  30.260  26.273  1.00  0.00     0.275 C 
BRANCH  23  24
ATOM     24  O   UNL A   1      33.090  30.788  26.187  1.00  0.00    -0.458 OA
BRANCH  24  25
ATOM     25  C   UNL A   1      33.399  31.682  27.149  1.00  0.00     0.338 C 
ATOM     26  O   UNL A   1      32.666  32.516  27.668  1.00  0.00    -0.246 OA
BRANCH  25  27
ATOM     27  C   UNL A   1      34.729  31.377  27.669  1.00  0.00     0.060 A 
ATOM     28  C   UNL A   1      34.998  30.047  27.987  1.00  0.00     0.016 A 
ATOM     29  C   UNL A   1      35.664  32.375  27.931  1.00  0.00     0.016 A 
ATOM     30  C   UNL A   1      36.185  29.706  28.612  1.00  0.00     0.010 A 
ATOM     31  C   UNL A   1      36.866  32.027  28.555  1.00  0.00     0.010 A 
ATOM     32  C   UNL A   1      37.120  30.694  28.928  1.00  0.00    -0.014 A 
BRANCH  32  33
ATOM     33  C   UNL A   1      38.296  30.334  29.754  1.00  0.00     0.031 A 
ATOM     34  C   UNL A   1      39.363  29.456  29.163  1.00  0.00     0.074 A 
ATOM     35  C   UNL A   1      38.451  30.844  30.989  1.00  0.00     0.049 A 
ATOM     36  N   UNL A   1      40.375  28.874  29.752  1.00  0.00    -0.248 NA
ATOM     37  C   UNL A   1      39.274  29.197  27.718  1.00  0.00     0.031 C 
ATOM     38  C   UNL A   1      37.543  31.795  31.634  1.00  0.00     0.029 A 
ATOM     39  N   UNL A   1      39.438  30.640  31.919  1.00  0.00    -0.354 N 
ATOM     40  C   UNL A   1      41.009  28.133  28.762  1.00  0.00     0.074 A 
ATOM     41  C   UNL A   1      40.271  28.344  27.535  1.00  0.00     0.031 C 
ATOM     42  C   UNL A   1      38.022  32.100  32.850  1.00  0.00     0.029 A 
ATOM     43  C   UNL A   1      39.221  31.307  33.101  1.00  0.00     0.049 A 
ATOM     44  H   UNL A   1      40.223  30.070  31.757  1.00  0.00     0.167 HD
ATOM     45  C   UNL A   1      42.106  27.348  28.874  1.00  0.00     0.037 A 
ATOM     46  C   UNL A   1      39.886  31.244  34.270  1.00  0.00     0.037 A 
ATOM     47  C   UNL A   1      42.864  27.193  30.088  1.00  0.00     0.049 A 
ATOM     48  C   UNL A   1      41.061  30.314  34.390  1.00  0.00     0.074 A 
ATOM     49  C   UNL A   1      43.988  26.418  30.313  1.00  0.00     0.029 A 
ATOM     50  N   UNL A   1      42.582  27.845  31.279  1.00  0.00    -0.354 N 
ATOM     51  N   UNL A   1      41.606  29.547  33.477  1.00  0.00    -0.248 NA
ATOM     52  C   UNL A   1      41.699  30.223  35.710  1.00  0.00     0.031 C 
ATOM     53  C   UNL A   1      44.366  26.575  31.651  1.00  0.00     0.029 A 
ATOM     54  C   UNL A   1      43.503  27.482  32.246  1.00  0.00     0.049 A 
ATOM     55  H   UNL A   1      41.837  28.474  31.417  1.00  0.00     0.167 HD
ATOM     56  C   UNL A   1      42.656  28.893  34.104  1.00  0.00     0.074 A 
ATOM     57  C   UNL A   1      42.687  29.370  35.473  1.00  0.00     0.031 C 
ATOM     58  C   UNL A   1      43.516  27.974  33.600  1.00  0.00     0.037 A 
BRANCH  45  59
ATOM     59  C   UNL A   1      42.521  26.562  27.666  1.00  0.00     0.057 A 
ATOM     60  C   UNL A   1      42.058  25.264  27.421  1.00  0.00     0.134 A 
ATOM     61  C   UNL A   1      43.384  27.128  26.719  1.00  0.00     0.134 A 
ATOM     62  F   UNL A   1      41.241  24.658  28.296  1.00  0.00    -0.206 F 
ATOM     63  C   UNL A   1      42.456  24.548  26.289  1.00  0.00     0.040 A 
ATOM     64  C   UNL A   1      43.769  26.434  25.571  1.00  0.00     0.040 A 
ATOM     65  F   UNL A   1      43.863  28.370  26.890  1.00  0.00    -0.206 F 
ATOM     66  C   UNL A   1      43.309  25.137  25.357  1.00  0.00     0.006 A 
ENDBRANCH  45  59
BRANCH  46  67
ATOM     67  C   UNL A   1      39.421  32.039  35.435  1.00  0.00     0.057 A 
ATOM     68  C   UNL A   1      38.518  31.507  36.361  1.00  0.00     0.134 A 
ATOM     69  C   UNL A   1      39.862  33.351  35.645  1.00  0.00     0.134 A 
ATOM     70  F   UNL A   1      38.041  30.263  36.201  1.00  0.00    -0.206 F 
ATOM     71  C   UNL A   1      38.058  32.256  37.447  1.00  0.00     0.040 A 
ATOM     72  C   UNL A   1      39.435  34.101  36.742  1.00  0.00     0.040 A 
ATOM     73  F   UNL A   1      40.728  33.921  34.793  1.00  0.00    -0.206 F 
ATOM     74  C   UNL A   1      38.524  33.555  37.643  1.00  0.00     0.006 A 
ENDBRANCH  46  67
BRANCH  58  75
ATOM     75  C   UNL A   1      44.577  27.455  34.524  1.00  0.00     0.057 A 
ATOM     76  C   UNL A   1      44.395  26.285  35.272  1.00  0.00     0.134 A 
ATOM     77  C   UNL A   1      45.807  28.115  34.638  1.00  0.00     0.134 A 
ATOM     78  F   UNL A   1      43.233  25.616  35.216  1.00  0.00    -0.206 F 
ATOM     79  C   UNL A   1      45.391  25.802  36.120  1.00  0.00     0.040 A 
ATOM     80  C   UNL A   1      46.820  27.627  35.465  1.00  0.00     0.040 A 
ATOM     81  F   UNL A   1      46.046  29.235  33.942  1.00  0.00    -0.206 F 
ATOM     82  C   UNL A   1      46.611  26.471  36.213  1.00  0.00     0.006 A 
ENDBRANCH  58  75
ENDBRANCH  32  33
ENDBRANCH  25  27
ENDBRANCH  24  25
ENDBRANCH  23  24
ENDBRANCH   1  23
TORSDOF 16
ENDMDL
