MODEL 1
REMARK VINA RESULT:     -11.5      0.000      0.000
REMARK SMILES CC1=C(C)C[C@@H](C(=O)OCCOC(=O)c2ccc(-c3c4nc(c(-c5c(F)cccc5F)c5ccc([nH]5)c(-c5c(F)cccc5F)c5nc(c(-c6c(F)cccc6F)c6ccc3[nH]6)C=C5)C=C4)cc2)[C@@H](C(=O)NCC[NH+]2CCOCC2)C1
REMARK SMILES IDX 10 1 9 2 7 3 8 4 6 5 1 6 2 7 3 8 81 9 4 10 5 11 69 12 70 13
REMARK SMILES IDX 71 14 72 15 73 17 74 18 75 19 76 20 80 21 77 23 79 24 78 25
REMARK SMILES IDX 11 26 12 27 13 28 14 29 15 30 16 31 68 32 17 33 67 34 18 35
REMARK SMILES IDX 19 36 20 37 61 38 21 39 66 40 60 41 62 42 22 43 65 44 59 45
REMARK SMILES IDX 58 46 23 48 49 49 32 50 48 51 33 52 36 53 47 54 63 55 34 56
REMARK SMILES IDX 35 57 46 59 64 60 37 61 24 62 25 63 30 64 26 65 27 66 29 67
REMARK SMILES IDX 31 68 28 69 50 70 51 71 56 72 52 73 53 74 55 75 57 76 54 77
REMARK SMILES IDX 38 78 39 79 44 80 40 81 41 82 43 83 45 84 42 85
REMARK H PARENT 72 16 75 22 62 47 36 58
REMARK Flexibility Score: inf
ROOT
ATOM      1  C   UNL A   1      31.667  28.603  27.314  1.00  0.00     0.274 C 
ENDROOT
BRANCH   1   2
ATOM      2  O   UNL A   1      31.036  27.399  26.841  1.00  0.00    -0.462 OA
BRANCH   2   3
ATOM      3  C   UNL A   1      31.852  26.417  26.415  1.00  0.00     0.310 C 
ATOM      4  O   UNL A   1      33.079  26.469  26.464  1.00  0.00    -0.252 OA
BRANCH   3   5
ATOM      5  C   UNL A   1      31.142  25.223  25.807  1.00  0.00     0.116 C 
ATOM      6  C   UNL A   1      32.298  22.209  22.762  1.00  0.00     0.039 C 
ATOM      7  C   UNL A   1      31.839  23.061  23.916  1.00  0.00    -0.074 C 
ATOM      8  C   UNL A   1      32.367  23.025  25.154  1.00  0.00    -0.073 C 
ATOM      9  C   UNL A   1      30.661  23.952  23.611  1.00  0.00     0.045 C 
ATOM     10  C   UNL A   1      33.401  22.036  25.627  1.00  0.00     0.039 C 
ATOM     11  C   UNL A   1      31.878  23.944  26.239  1.00  0.00     0.046 C 
ATOM     12  C   UNL A   1      30.621  25.297  24.365  1.00  0.00     0.097 C 
BRANCH  12  13
ATOM     13  C   UNL A   1      31.166  26.331  23.371  1.00  0.00     0.224 C 
ATOM     14  O   UNL A   1      31.701  26.038  22.308  1.00  0.00    -0.275 OA
ATOM     15  N   UNL A   1      30.697  27.609  23.635  1.00  0.00    -0.350 N 
ATOM     16  H   UNL A   1      31.024  28.108  24.418  1.00  0.00     0.163 HD
BRANCH  15  17
ATOM     17  C   UNL A   1      29.721  28.203  22.745  1.00  0.00     0.177 C 
BRANCH  17  18
ATOM     18  C   UNL A   1      29.503  29.719  22.914  1.00  0.00     0.283 C 
BRANCH  18  19
ATOM     19  N   UNL A   1      28.205  30.347  22.641  1.00  0.00    -0.330 N 
ATOM     20  C   UNL A   1      27.871  30.658  21.245  1.00  0.00     0.291 C 
ATOM     21  C   UNL A   1      27.911  31.508  23.498  1.00  0.00     0.291 C 
ATOM     22  H   UNL A   1      27.588  29.573  22.889  1.00  0.00     0.348 HD
ATOM     23  C   UNL A   1      28.399  32.014  20.746  1.00  0.00     0.221 C 
ATOM     24  C   UNL A   1      28.488  32.822  22.956  1.00  0.00     0.221 C 
ATOM     25  O   UNL A   1      28.020  33.083  21.627  1.00  0.00    -0.370 OA
ENDBRANCH  18  19
ENDBRANCH  17  18
ENDBRANCH  15  17
ENDBRANCH  12  13
ENDBRANCH   3   5
ENDBRANCH   2   3
ENDBRANCH   1   2
BRANCH   1  26
ATOM     26  C   UNL A   1      31.770  29.655  26.203  1.00  0.00     0.275 C 
BRANCH  26  27
ATOM     27  O   UNL A   1      33.102  30.198  26.097  1.00  0.00    -0.458 OA
BRANCH  27  28
ATOM     28  C   UNL A   1      33.396  31.206  26.948  1.00  0.00     0.338 C 
ATOM     29  O   UNL A   1      32.697  32.151  27.271  1.00  0.00    -0.246 OA
BRANCH  28  30
ATOM     30  C   UNL A   1      34.673  30.955  27.622  1.00  0.00     0.060 A 
ATOM     31  C   UNL A   1      34.936  29.639  28.013  1.00  0.00     0.016 A 
ATOM     32  C   UNL A   1      35.537  31.992  27.971  1.00  0.00     0.016 A 
ATOM     33  C   UNL A   1      36.074  29.343  28.750  1.00  0.00     0.010 A 
ATOM     34  C   UNL A   1      36.682  31.694  28.716  1.00  0.00     0.010 A 
ATOM     35  C   UNL A   1      36.951  30.371  29.111  1.00  0.00    -0.014 A 
BRANCH  35  36
ATOM     36  C   UNL A   1      38.140  30.050  29.930  1.00  0.00     0.031 A 
ATOM     37  C   UNL A   1      39.206  29.151  29.381  1.00  0.00     0.074 A 
ATOM     38  C   UNL A   1      38.266  30.595  31.152  1.00  0.00     0.049 A 
ATOM     39  N   UNL A   1      40.270  28.676  29.973  1.00  0.00    -0.248 NA
ATOM     40  C   UNL A   1      39.055  28.733  27.978  1.00  0.00     0.031 C 
ATOM     41  C   UNL A   1      37.319  31.531  31.760  1.00  0.00     0.029 A 
ATOM     42  N   UNL A   1      39.242  30.437  32.101  1.00  0.00    -0.354 N 
ATOM     43  C   UNL A   1      40.905  27.884  29.027  1.00  0.00     0.074 A 
ATOM     44  C   UNL A   1      40.106  27.939  27.821  1.00  0.00     0.031 C 
ATOM     45  C   UNL A   1      37.758  31.859  32.986  1.00  0.00     0.029 A 
ATOM     46  C   UNL A   1      38.988  31.122  33.263  1.00  0.00     0.049 A 
ATOM     47  H   UNL A   1      40.046  29.886  31.963  1.00  0.00     0.167 HD
ATOM     48  C   UNL A   1      42.050  27.173  29.160  1.00  0.00     0.037 A 
ATOM     49  C   UNL A   1      39.655  31.126  34.431  1.00  0.00     0.037 A 
ATOM     50  C   UNL A   1      42.844  27.133  30.360  1.00  0.00     0.049 A 
ATOM     51  C   UNL A   1      40.891  30.285  34.570  1.00  0.00     0.074 A 
ATOM     52  C   UNL A   1      44.021  26.443  30.595  1.00  0.00     0.029 A 
ATOM     53  N   UNL A   1      42.539  27.816  31.527  1.00  0.00    -0.354 N 
ATOM     54  N   UNL A   1      41.471  29.517  33.679  1.00  0.00    -0.248 NA
ATOM     55  C   UNL A   1      41.559  30.302  35.879  1.00  0.00     0.031 C 
ATOM     56  C   UNL A   1      44.411  26.685  31.917  1.00  0.00     0.029 A 
ATOM     57  C   UNL A   1      43.496  27.552  32.493  1.00  0.00     0.049 A 
ATOM     58  H   UNL A   1      41.758  28.402  31.652  1.00  0.00     0.167 HD
ATOM     59  C   UNL A   1      42.577  28.968  34.313  1.00  0.00     0.074 A 
ATOM     60  C   UNL A   1      42.596  29.504  35.661  1.00  0.00     0.031 C 
ATOM     61  C   UNL A   1      43.493  28.096  33.826  1.00  0.00     0.037 A 
BRANCH  48  62
ATOM     62  C   UNL A   1      42.489  26.352  27.985  1.00  0.00     0.057 A 
ATOM     63  C   UNL A   1      43.362  26.856  27.013  1.00  0.00     0.134 A 
ATOM     64  C   UNL A   1      42.051  25.030  27.841  1.00  0.00     0.134 A 
ATOM     65  F   UNL A   1      43.802  28.121  27.087  1.00  0.00    -0.206 F 
ATOM     66  C   UNL A   1      43.771  26.078  25.929  1.00  0.00     0.040 A 
ATOM     67  C   UNL A   1      42.468  24.236  26.771  1.00  0.00     0.040 A 
ATOM     68  F   UNL A   1      41.214  24.488  28.738  1.00  0.00    -0.206 F 
ATOM     69  C   UNL A   1      43.328  24.762  25.809  1.00  0.00     0.006 A 
ENDBRANCH  48  62
BRANCH  49  70
ATOM     70  C   UNL A   1      39.145  31.929  35.568  1.00  0.00     0.057 A 
ATOM     71  C   UNL A   1      39.489  33.276  35.714  1.00  0.00     0.134 A 
ATOM     72  C   UNL A   1      38.291  31.371  36.526  1.00  0.00     0.134 A 
ATOM     73  F   UNL A   1      40.321  33.860  34.838  1.00  0.00    -0.206 F 
ATOM     74  C   UNL A   1      39.008  34.041  36.778  1.00  0.00     0.040 A 
ATOM     75  C   UNL A   1      37.785  32.128  37.583  1.00  0.00     0.040 A 
ATOM     76  F   UNL A   1      37.924  30.084  36.439  1.00  0.00    -0.206 F 
ATOM     77  C   UNL A   1      38.147  33.467  37.713  1.00  0.00     0.006 A 
ENDBRANCH  49  70
BRANCH  61  78
ATOM     78  C   UNL A   1      44.599  27.689  34.751  1.00  0.00     0.057 A 
ATOM     79  C   UNL A   1      44.485  26.568  35.581  1.00  0.00     0.134 A 
ATOM     80  C   UNL A   1      45.800  28.408  34.788  1.00  0.00     0.134 A 
ATOM     81  F   UNL A   1      43.353  25.848  35.600  1.00  0.00    -0.206 F 
ATOM     82  C   UNL A   1      45.523  26.185  36.431  1.00  0.00     0.040 A 
ATOM     83  C   UNL A   1      46.852  28.023  35.620  1.00  0.00     0.040 A 
ATOM     84  F   UNL A   1      45.971  29.488  34.012  1.00  0.00    -0.206 F 
ATOM     85  C   UNL A   1      46.713  26.911  36.449  1.00  0.00     0.006 A 
ENDBRANCH  61  78
ENDBRANCH  35  36
ENDBRANCH  28  30
ENDBRANCH  27  28
ENDBRANCH  26  27
ENDBRANCH   1  26
TORSDOF 15
ENDMDL
MODEL 2
REMARK VINA RESULT:     -11.5      4.979      9.479
REMARK SMILES CC1=C(C)C[C@@H](C(=O)OCCOC(=O)c2ccc(-c3c4nc(c(-c5c(F)cccc5F)c5ccc([nH]5)c(-c5c(F)cccc5F)c5nc(c(-c6c(F)cccc6F)c6ccc3[nH]6)C=C5)C=C4)cc2)[C@@H](C(=O)NCC[NH+]2CCOCC2)C1
REMARK SMILES IDX 10 1 9 2 7 3 8 4 6 5 1 6 2 7 3 8 81 9 4 10 5 11 69 12 70 13
REMARK SMILES IDX 71 14 72 15 73 17 74 18 75 19 76 20 80 21 77 23 79 24 78 25
REMARK SMILES IDX 11 26 12 27 13 28 14 29 15 30 16 31 68 32 17 33 67 34 18 35
REMARK SMILES IDX 19 36 20 37 61 38 21 39 66 40 60 41 62 42 22 43 65 44 59 45
REMARK SMILES IDX 58 46 23 48 49 49 32 50 48 51 33 52 36 53 47 54 63 55 34 56
REMARK SMILES IDX 35 57 46 59 64 60 37 61 24 62 25 63 30 64 26 65 27 66 29 67
REMARK SMILES IDX 31 68 28 69 50 70 51 71 56 72 52 73 53 74 55 75 57 76 54 77
REMARK SMILES IDX 38 78 39 79 44 80 40 81 41 82 43 83 45 84 42 85
REMARK H PARENT 72 16 75 22 62 47 36 58
REMARK Flexibility Score: inf
ROOT
ATOM      1  C   UNL A   1      37.768  21.177  25.001  1.00  0.00     0.274 C 
ENDROOT
BRANCH   1   2
ATOM      2  O   UNL A   1      36.709  21.696  25.826  1.00  0.00    -0.462 OA
BRANCH   2   3
ATOM      3  C   UNL A   1      36.470  23.018  25.741  1.00  0.00     0.310 C 
ATOM      4  O   UNL A   1      37.190  23.884  26.234  1.00  0.00    -0.252 OA
BRANCH   3   5
ATOM      5  C   UNL A   1      35.191  23.385  25.014  1.00  0.00     0.116 C 
ATOM      6  C   UNL A   1      31.378  25.256  26.299  1.00  0.00     0.039 C 
ATOM      7  C   UNL A   1      32.668  24.764  25.698  1.00  0.00    -0.074 C 
ATOM      8  C   UNL A   1      33.790  25.499  25.583  1.00  0.00    -0.073 C 
ATOM      9  C   UNL A   1      32.611  23.361  25.148  1.00  0.00     0.045 C 
ATOM     10  C   UNL A   1      33.903  26.967  25.906  1.00  0.00     0.039 C 
ATOM     11  C   UNL A   1      35.052  24.916  25.009  1.00  0.00     0.046 C 
ATOM     12  C   UNL A   1      33.920  22.551  25.236  1.00  0.00     0.097 C 
BRANCH  12  13
ATOM     13  C   UNL A   1      33.758  21.657  26.472  1.00  0.00     0.224 C 
ATOM     14  O   UNL A   1      33.188  22.012  27.498  1.00  0.00    -0.275 OA
ATOM     15  N   UNL A   1      34.018  20.325  26.194  1.00  0.00    -0.350 N 
ATOM     16  H   UNL A   1      34.939  20.021  26.028  1.00  0.00     0.163 HD
BRANCH  15  17
ATOM     17  C   UNL A   1      32.919  19.382  26.151  1.00  0.00     0.177 C 
BRANCH  17  18
ATOM     18  C   UNL A   1      32.399  19.031  24.744  1.00  0.00     0.283 C 
BRANCH  18  19
ATOM     19  N   UNL A   1      32.212  17.641  24.315  1.00  0.00    -0.330 N 
ATOM     20  C   UNL A   1      32.458  16.578  25.300  1.00  0.00     0.291 C 
ATOM     21  C   UNL A   1      32.880  17.312  23.044  1.00  0.00     0.291 C 
ATOM     22  H   UNL A   1      31.200  17.639  24.181  1.00  0.00     0.348 HD
ATOM     23  C   UNL A   1      33.926  16.130  25.406  1.00  0.00     0.221 C 
ATOM     24  C   UNL A   1      34.347  16.898  23.220  1.00  0.00     0.221 C 
ATOM     25  O   UNL A   1      34.468  15.790  24.120  1.00  0.00    -0.370 OA
ENDBRANCH  18  19
ENDBRANCH  17  18
ENDBRANCH  15  17
ENDBRANCH  12  13
ENDBRANCH   3   5
ENDBRANCH   2   3
ENDBRANCH   1   2
BRANCH   1  26
ATOM     26  C   UNL A   1      39.110  21.188  25.741  1.00  0.00     0.275 C 
BRANCH  26  27
ATOM     27  O   UNL A   1      39.650  19.858  25.898  1.00  0.00    -0.458 OA
BRANCH  27  28
ATOM     28  C   UNL A   1      40.992  19.780  26.033  1.00  0.00     0.338 C 
ATOM     29  O   UNL A   1      41.738  18.888  25.668  1.00  0.00    -0.246 OA
BRANCH  28  30
ATOM     30  C   UNL A   1      41.531  21.038  26.557  1.00  0.00     0.060 A 
ATOM     31  C   UNL A   1      41.329  21.297  27.916  1.00  0.00     0.016 A 
ATOM     32  C   UNL A   1      42.109  21.995  25.725  1.00  0.00     0.016 A 
ATOM     33  C   UNL A   1      41.715  22.514  28.461  1.00  0.00     0.010 A 
ATOM     34  C   UNL A   1      42.496  23.222  26.273  1.00  0.00     0.010 A 
ATOM     35  C   UNL A   1      42.296  23.485  27.640  1.00  0.00    -0.014 A 
BRANCH  35  36
ATOM     36  C   UNL A   1      42.668  24.792  28.224  1.00  0.00     0.031 A 
ATOM     37  C   UNL A   1      41.617  25.837  28.449  1.00  0.00     0.074 A 
ATOM     38  C   UNL A   1      43.945  25.018  28.575  1.00  0.00     0.049 A 
ATOM     39  N   UNL A   1      41.755  27.071  28.858  1.00  0.00    -0.248 NA
ATOM     40  C   UNL A   1      40.227  25.439  28.181  1.00  0.00     0.031 C 
ATOM     41  C   UNL A   1      45.037  24.051  28.457  1.00  0.00     0.029 A 
ATOM     42  N   UNL A   1      44.540  26.136  29.101  1.00  0.00    -0.354 N 
ATOM     43  C   UNL A   1      40.476  27.608  28.873  1.00  0.00     0.074 A 
ATOM     44  C   UNL A   1      39.573  26.566  28.431  1.00  0.00     0.031 C 
ATOM     45  C   UNL A   1      46.173  24.620  28.892  1.00  0.00     0.029 A 
ATOM     46  C   UNL A   1      45.895  26.002  29.273  1.00  0.00     0.049 A 
ATOM     47  H   UNL A   1      44.044  26.954  29.332  1.00  0.00     0.167 HD
ATOM     48  C   UNL A   1      40.095  28.859  29.223  1.00  0.00     0.037 A 
ATOM     49  C   UNL A   1      46.813  26.906  29.661  1.00  0.00     0.037 A 
ATOM     50  C   UNL A   1      40.998  29.885  29.672  1.00  0.00     0.049 A 
ATOM     51  C   UNL A   1      46.372  28.303  29.989  1.00  0.00     0.074 A 
ATOM     52  C   UNL A   1      40.711  31.185  30.050  1.00  0.00     0.029 A 
ATOM     53  N   UNL A   1      42.369  29.722  29.805  1.00  0.00    -0.354 N 
ATOM     54  N   UNL A   1      45.163  28.810  29.977  1.00  0.00    -0.248 NA
ATOM     55  C   UNL A   1      47.422  29.255  30.375  1.00  0.00     0.031 C 
ATOM     56  C   UNL A   1      41.914  31.819  30.382  1.00  0.00     0.029 A 
ATOM     57  C   UNL A   1      42.945  30.903  30.244  1.00  0.00     0.049 A 
ATOM     58  H   UNL A   1      42.861  28.891  29.616  1.00  0.00     0.167 HD
ATOM     59  C   UNL A   1      45.303  30.136  30.362  1.00  0.00     0.074 A 
ATOM     60  C   UNL A   1      46.714  30.351  30.617  1.00  0.00     0.031 C 
ATOM     61  C   UNL A   1      44.351  31.092  30.490  1.00  0.00     0.037 A 
BRANCH  48  62
ATOM     62  C   UNL A   1      38.640  29.195  29.096  1.00  0.00     0.057 A 
ATOM     63  C   UNL A   1      37.765  29.126  30.188  1.00  0.00     0.134 A 
ATOM     64  C   UNL A   1      38.113  29.617  27.869  1.00  0.00     0.134 A 
ATOM     65  F   UNL A   1      38.205  28.712  31.386  1.00  0.00    -0.206 F 
ATOM     66  C   UNL A   1      36.414  29.451  30.059  1.00  0.00     0.040 A 
ATOM     67  C   UNL A   1      36.768  29.962  27.732  1.00  0.00     0.040 A 
ATOM     68  F   UNL A   1      38.898  29.703  26.784  1.00  0.00    -0.206 F 
ATOM     69  C   UNL A   1      35.913  29.876  28.829  1.00  0.00     0.006 A 
ENDBRANCH  48  62
BRANCH  49  70
ATOM     70  C   UNL A   1      48.243  26.520  29.727  1.00  0.00     0.057 A 
ATOM     71  C   UNL A   1      48.772  25.895  30.861  1.00  0.00     0.134 A 
ATOM     72  C   UNL A   1      49.109  26.756  28.654  1.00  0.00     0.134 A 
ATOM     73  F   UNL A   1      47.995  25.663  31.929  1.00  0.00    -0.206 F 
ATOM     74  C   UNL A   1      50.116  25.524  30.928  1.00  0.00     0.040 A 
ATOM     75  C   UNL A   1      50.449  26.371  28.698  1.00  0.00     0.040 A 
ATOM     76  F   UNL A   1      48.659  27.350  27.539  1.00  0.00    -0.206 F 
ATOM     77  C   UNL A   1      50.957  25.756  29.841  1.00  0.00     0.006 A 
ENDBRANCH  49  70
BRANCH  61  78
ATOM     78  C   UNL A   1      44.806  32.445  30.946  1.00  0.00     0.057 A 
ATOM     79  C   UNL A   1      45.157  33.446  30.032  1.00  0.00     0.134 A 
ATOM     80  C   UNL A   1      44.866  32.757  32.308  1.00  0.00     0.134 A 
ATOM     81  F   UNL A   1      45.134  33.201  28.713  1.00  0.00    -0.206 F 
ATOM     82  C   UNL A   1      45.568  34.709  30.461  1.00  0.00     0.040 A 
ATOM     83  C   UNL A   1      45.256  34.022  32.749  1.00  0.00     0.040 A 
ATOM     84  F   UNL A   1      44.537  31.841  33.232  1.00  0.00    -0.206 F 
ATOM     85  C   UNL A   1      45.614  35.001  31.823  1.00  0.00     0.006 A 
ENDBRANCH  61  78
ENDBRANCH  35  36
ENDBRANCH  28  30
ENDBRANCH  27  28
ENDBRANCH  26  27
ENDBRANCH   1  26
TORSDOF 15
ENDMDL
MODEL 3
REMARK VINA RESULT:     -11.4      2.846      4.679
REMARK SMILES CC1=C(C)C[C@@H](C(=O)OCCOC(=O)c2ccc(-c3c4nc(c(-c5c(F)cccc5F)c5ccc([nH]5)c(-c5c(F)cccc5F)c5nc(c(-c6c(F)cccc6F)c6ccc3[nH]6)C=C5)C=C4)cc2)[C@@H](C(=O)NCC[NH+]2CCOCC2)C1
REMARK SMILES IDX 10 1 9 2 7 3 8 4 6 5 1 6 2 7 3 8 81 9 4 10 5 11 69 12 70 13
REMARK SMILES IDX 71 14 72 15 73 17 74 18 75 19 76 20 80 21 77 23 79 24 78 25
REMARK SMILES IDX 11 26 12 27 13 28 14 29 15 30 16 31 68 32 17 33 67 34 18 35
REMARK SMILES IDX 19 36 20 37 61 38 21 39 66 40 60 41 62 42 22 43 65 44 59 45
REMARK SMILES IDX 58 46 23 48 49 49 32 50 48 51 33 52 36 53 47 54 63 55 34 56
REMARK SMILES IDX 35 57 46 59 64 60 37 61 24 62 25 63 30 64 26 65 27 66 29 67
REMARK SMILES IDX 31 68 28 69 50 70 51 71 56 72 52 73 53 74 55 75 57 76 54 77
REMARK SMILES IDX 38 78 39 79 44 80 40 81 41 82 43 83 45 84 42 85
REMARK H PARENT 72 16 75 22 62 47 36 58
REMARK Flexibility Score: inf
ROOT
ATOM      1  C   UNL A   1      32.626  30.569  27.241  1.00  0.00     0.274 C 
ENDROOT
BRANCH   1   2
ATOM      2  O   UNL A   1      31.928  29.560  26.487  1.00  0.00    -0.462 OA
BRANCH   2   3
ATOM      3  C   UNL A   1      31.927  28.316  27.000  1.00  0.00     0.310 C 
ATOM      4  O   UNL A   1      31.224  27.957  27.942  1.00  0.00    -0.252 OA
BRANCH   3   5
ATOM      5  C   UNL A   1      32.914  27.364  26.354  1.00  0.00     0.116 C 
ATOM      6  C   UNL A   1      33.299  25.677  22.267  1.00  0.00     0.039 C 
ATOM      7  C   UNL A   1      33.382  26.295  23.638  1.00  0.00    -0.074 C 
ATOM      8  C   UNL A   1      33.687  27.584  23.881  1.00  0.00    -0.073 C 
ATOM      9  C   UNL A   1      33.158  25.332  24.777  1.00  0.00     0.045 C 
ATOM     10  C   UNL A   1      34.129  28.582  22.842  1.00  0.00     0.039 C 
ATOM     11  C   UNL A   1      33.704  28.132  25.281  1.00  0.00     0.046 C 
ATOM     12  C   UNL A   1      32.490  25.923  26.035  1.00  0.00     0.097 C 
BRANCH  12  13
ATOM     13  C   UNL A   1      31.010  25.533  25.926  1.00  0.00     0.224 C 
ATOM     14  O   UNL A   1      30.304  25.805  24.961  1.00  0.00    -0.275 OA
ATOM     15  N   UNL A   1      30.651  24.569  26.855  1.00  0.00    -0.350 N 
ATOM     16  H   UNL A   1      30.576  24.801  27.809  1.00  0.00     0.163 HD
BRANCH  15  17
ATOM     17  C   UNL A   1      30.388  23.217  26.409  1.00  0.00     0.177 C 
BRANCH  17  18
ATOM     18  C   UNL A   1      31.579  22.486  25.761  1.00  0.00     0.283 C 
BRANCH  18  19
ATOM     19  N   UNL A   1      32.451  21.595  26.535  1.00  0.00    -0.330 N 
ATOM     20  C   UNL A   1      33.301  22.195  27.573  1.00  0.00     0.291 C 
ATOM     21  C   UNL A   1      33.245  20.670  25.709  1.00  0.00     0.291 C 
ATOM     22  H   UNL A   1      31.743  21.072  27.051  1.00  0.00     0.348 HD
ATOM     23  C   UNL A   1      34.650  22.733  27.065  1.00  0.00     0.221 C 
ATOM     24  C   UNL A   1      34.564  21.278  25.215  1.00  0.00     0.221 C 
ATOM     25  O   UNL A   1      35.363  21.741  26.311  1.00  0.00    -0.370 OA
ENDBRANCH  18  19
ENDBRANCH  17  18
ENDBRANCH  15  17
ENDBRANCH  12  13
ENDBRANCH   3   5
ENDBRANCH   2   3
ENDBRANCH   1   2
BRANCH   1  26
ATOM     26  C   UNL A   1      31.904  31.920  27.171  1.00  0.00     0.275 C 
BRANCH  26  27
ATOM     27  O   UNL A   1      32.819  33.006  26.914  1.00  0.00    -0.458 OA
BRANCH  27  28
ATOM     28  C   UNL A   1      33.102  33.799  27.971  1.00  0.00     0.338 C 
ATOM     29  O   UNL A   1      32.401  34.653  28.485  1.00  0.00    -0.246 OA
BRANCH  28  30
ATOM     30  C   UNL A   1      34.367  33.397  28.592  1.00  0.00     0.060 A 
ATOM     31  C   UNL A   1      35.538  33.655  27.871  1.00  0.00     0.016 A 
ATOM     32  C   UNL A   1      34.406  32.681  29.787  1.00  0.00     0.016 A 
ATOM     33  C   UNL A   1      36.763  33.207  28.345  1.00  0.00     0.010 A 
ATOM     34  C   UNL A   1      35.641  32.228  30.263  1.00  0.00     0.010 A 
ATOM     35  C   UNL A   1      36.820  32.486  29.541  1.00  0.00    -0.014 A 
BRANCH  35  36
ATOM     36  C   UNL A   1      38.126  31.980  30.016  1.00  0.00     0.031 A 
ATOM     37  C   UNL A   1      38.673  30.695  29.473  1.00  0.00     0.074 A 
ATOM     38  C   UNL A   1      38.826  32.699  30.910  1.00  0.00     0.049 A 
ATOM     39  N   UNL A   1      39.747  30.040  29.828  1.00  0.00    -0.248 NA
ATOM     40  C   UNL A   1      37.911  30.064  28.384  1.00  0.00     0.031 C 
ATOM     41  C   UNL A   1      38.417  33.993  31.459  1.00  0.00     0.029 A 
ATOM     42  N   UNL A   1      40.027  32.439  31.517  1.00  0.00    -0.354 N 
ATOM     43  C   UNL A   1      39.780  28.907  29.027  1.00  0.00     0.074 A 
ATOM     44  C   UNL A   1      38.617  28.963  28.167  1.00  0.00     0.031 C 
ATOM     45  C   UNL A   1      39.350  34.412  32.328  1.00  0.00     0.029 A 
ATOM     46  C   UNL A   1      40.394  33.396  32.431  1.00  0.00     0.049 A 
ATOM     47  H   UNL A   1      40.573  31.645  31.317  1.00  0.00     0.167 HD
ATOM     48  C   UNL A   1      40.699  27.913  29.017  1.00  0.00     0.037 A 
ATOM     49  C   UNL A   1      41.438  33.430  33.279  1.00  0.00     0.037 A 
ATOM     50  C   UNL A   1      41.858  27.873  29.868  1.00  0.00     0.049 A 
ATOM     51  C   UNL A   1      42.412  32.287  33.287  1.00  0.00     0.074 A 
ATOM     52  C   UNL A   1      42.850  26.909  29.934  1.00  0.00     0.029 A 
ATOM     53  N   UNL A   1      42.181  28.845  30.803  1.00  0.00    -0.354 N 
ATOM     54  N   UNL A   1      42.422  31.206  32.543  1.00  0.00    -0.248 NA
ATOM     55  C   UNL A   1      43.512  32.362  34.257  1.00  0.00     0.031 C 
ATOM     56  C   UNL A   1      43.756  27.283  30.932  1.00  0.00     0.029 A 
ATOM     57  C   UNL A   1      43.348  28.496  31.463  1.00  0.00     0.049 A 
ATOM     58  H   UNL A   1      41.659  29.662  30.973  1.00  0.00     0.167 HD
ATOM     59  C   UNL A   1      43.532  30.478  32.947  1.00  0.00     0.074 A 
ATOM     60  C   UNL A   1      44.181  31.248  33.990  1.00  0.00     0.031 C 
ATOM     61  C   UNL A   1      43.974  29.279  32.497  1.00  0.00     0.037 A 
BRANCH  48  62
ATOM     62  C   UNL A   1      40.463  26.769  28.077  1.00  0.00     0.057 A 
ATOM     63  C   UNL A   1      41.085  26.698  26.825  1.00  0.00     0.134 A 
ATOM     64  C   UNL A   1      39.619  25.713  28.443  1.00  0.00     0.134 A 
ATOM     65  F   UNL A   1      41.891  27.687  26.410  1.00  0.00    -0.206 F 
ATOM     66  C   UNL A   1      40.865  25.622  25.964  1.00  0.00     0.040 A 
ATOM     67  C   UNL A   1      39.405  24.624  27.598  1.00  0.00     0.040 A 
ATOM     68  F   UNL A   1      38.992  25.722  29.629  1.00  0.00    -0.206 F 
ATOM     69  C   UNL A   1      40.027  24.578  26.352  1.00  0.00     0.006 A 
ENDBRANCH  48  62
BRANCH  49  70
ATOM     70  C   UNL A   1      41.592  34.572  34.211  1.00  0.00     0.057 A 
ATOM     71  C   UNL A   1      42.303  35.717  33.841  1.00  0.00     0.134 A 
ATOM     72  C   UNL A   1      41.020  34.549  35.489  1.00  0.00     0.134 A 
ATOM     73  F   UNL A   1      42.890  35.788  32.637  1.00  0.00    -0.206 F 
ATOM     74  C   UNL A   1      42.447  36.799  34.711  1.00  0.00     0.040 A 
ATOM     75  C   UNL A   1      41.137  35.631  36.361  1.00  0.00     0.040 A 
ATOM     76  F   UNL A   1      40.325  33.478  35.900  1.00  0.00    -0.206 F 
ATOM     77  C   UNL A   1      41.857  36.760  35.973  1.00  0.00     0.006 A 
ENDBRANCH  49  70
BRANCH  61  78
ATOM     78  C   UNL A   1      45.227  28.742  33.119  1.00  0.00     0.057 A 
ATOM     79  C   UNL A   1      46.492  29.069  32.617  1.00  0.00     0.134 A 
ATOM     80  C   UNL A   1      45.168  27.915  34.246  1.00  0.00     0.134 A 
ATOM     81  F   UNL A   1      46.612  29.846  31.530  1.00  0.00    -0.206 F 
ATOM     82  C   UNL A   1      47.658  28.578  33.207  1.00  0.00     0.040 A 
ATOM     83  C   UNL A   1      46.326  27.433  34.857  1.00  0.00     0.040 A 
ATOM     84  F   UNL A   1      43.985  27.571  34.777  1.00  0.00    -0.206 F 
ATOM     85  C   UNL A   1      47.576  27.760  34.333  1.00  0.00     0.006 A 
ENDBRANCH  61  78
ENDBRANCH  35  36
ENDBRANCH  28  30
ENDBRANCH  27  28
ENDBRANCH  26  27
ENDBRANCH   1  26
TORSDOF 15
ENDMDL
