MODEL 1
REMARK VINA RESULT:     -15.2      0.000      0.000
REMARK SMILES O=C(OCCOC(=O)c1ccc(-c2c3nc(c(-c4c(F)cccc4F)c4ccc([nH]4)c(-c4c(F)cccc4F)c4nc(c(-c5c(F)cccc5F)c5ccc2[nH]5)C=C4)C=C3)cc1)C1=Cc2cc(Cl)cc(-c3ccc(CO)cc3)c2O[C@@H]1C(F)(F)F
REMARK SMILES IDX 4 1 3 2 2 3 1 4 63 5 64 6 81 7 65 8 80 9 66 10 79 11 67 12
REMARK SMILES IDX 70 13 68 14 69 15 82 16 83 17 84 18 85 19 71 20 72 21 78 22
REMARK SMILES IDX 73 23 77 24 74 25 75 26 76 27 5 29 6 30 7 31 8 32 9 33 10 34
REMARK SMILES IDX 62 35 11 36 61 37 12 38 13 39 14 40 55 41 15 42 60 43 54 44
REMARK SMILES IDX 56 45 16 46 59 47 53 48 52 49 17 51 43 52 26 53 42 54 27 55
REMARK SMILES IDX 30 56 41 57 57 58 28 59 29 60 40 62 58 63 31 64 18 65 19 66
REMARK SMILES IDX 24 67 20 68 21 69 23 70 25 71 22 72 44 73 45 74 50 75 46 76
REMARK SMILES IDX 47 77 49 78 51 79 48 80 32 81 33 82 38 83 34 84 35 85 37 86
REMARK SMILES IDX 39 87 36 88
REMARK H PARENT 76 28 56 50 30 61
REMARK Flexibility Score: inf
ROOT
ATOM      1  C   UNL A   1      31.537  27.381  25.889  1.00  0.00     0.275 C 
ENDROOT
BRANCH   1   2
ATOM      2  O   UNL A   1      32.525  26.329  26.510  1.00  0.00    -0.459 OA
BRANCH   2   3
ATOM      3  C   UNL A   1      32.085  25.070  26.422  1.00  0.00     0.338 C 
ATOM      4  O   UNL A   1      31.592  24.342  27.244  1.00  0.00    -0.246 OA
BRANCH   3   5
ATOM      5  C   UNL A   1      32.688  24.823  25.140  1.00  0.00     0.087 C 
ATOM      6  C   UNL A   1      34.132  24.616  25.280  1.00  0.00     0.027 C 
ATOM      7  C   UNL A   1      31.421  23.501  24.529  1.00  0.00     0.316 C 
ATOM      8  C   UNL A   1      34.925  23.020  25.023  1.00  0.00     0.019 A 
ATOM      9  O   UNL A   1      32.245  21.765  24.316  1.00  0.00    -0.475 OA
ATOM     10  C   UNL A   1      36.264  22.960  25.299  1.00  0.00     0.032 A 
ATOM     11  C   UNL A   1      34.026  21.564  24.673  1.00  0.00     0.135 A 
ATOM     12  C   UNL A   1      36.805  21.678  25.268  1.00  0.00     0.042 A 
ATOM     13  C   UNL A   1      34.642  20.334  24.733  1.00  0.00     0.026 A 
ATOM     14  Cl  UNL A   1      38.492  21.523  25.630  1.00  0.00    -0.084 Cl
ATOM     15  C   UNL A   1      36.051  20.468  25.009  1.00  0.00     0.033 A 
BRANCH   7  16
ATOM     16  C   UNL A   1      30.651  24.477  23.560  1.00  0.00     0.430 C 
ATOM     17  F   UNL A   1      31.456  25.115  22.713  1.00  0.00    -0.167 F 
ATOM     18  F   UNL A   1      29.854  23.719  22.747  1.00  0.00    -0.167 F 
ATOM     19  F   UNL A   1      29.781  25.334  24.139  1.00  0.00    -0.167 F 
ENDBRANCH   7  16
BRANCH  13  20
ATOM     20  C   UNL A   1      34.116  18.974  24.719  1.00  0.00    -0.015 A 
ATOM     21  C   UNL A   1      32.947  18.703  25.462  1.00  0.00     0.009 A 
ATOM     22  C   UNL A   1      34.853  17.891  24.237  1.00  0.00     0.009 A 
ATOM     23  C   UNL A   1      32.546  17.397  25.746  1.00  0.00     0.007 A 
ATOM     24  C   UNL A   1      34.450  16.576  24.521  1.00  0.00     0.007 A 
ATOM     25  C   UNL A   1      33.303  16.318  25.284  1.00  0.00    -0.023 A 
BRANCH  25  26
ATOM     26  C   UNL A   1      32.886  14.914  25.634  1.00  0.00     0.191 C 
BRANCH  26  27
ATOM     27  O   UNL A   1      31.510  14.703  25.335  1.00  0.00    -0.392 OA
ATOM     28  H   UNL A   1      31.069  15.559  25.220  1.00  0.00     0.211 HD
ENDBRANCH  26  27
ENDBRANCH  25  26
ENDBRANCH  13  20
ENDBRANCH   3   5
ENDBRANCH   2   3
ENDBRANCH   1   2
BRANCH   1  29
ATOM     29  C   UNL A   1      31.804  29.522  25.866  1.00  0.00     0.275 C 
BRANCH  29  30
ATOM     30  O   UNL A   1      32.484  30.463  27.128  1.00  0.00    -0.458 OA
BRANCH  30  31
ATOM     31  C   UNL A   1      33.030  31.690  27.400  1.00  0.00     0.338 C 
ATOM     32  O   UNL A   1      32.493  32.747  27.662  1.00  0.00    -0.246 OA
BRANCH  31  33
ATOM     33  C   UNL A   1      34.491  31.434  27.569  1.00  0.00     0.060 A 
ATOM     34  C   UNL A   1      35.387  32.514  27.657  1.00  0.00     0.016 A 
ATOM     35  C   UNL A   1      34.880  30.173  28.010  1.00  0.00     0.016 A 
ATOM     36  C   UNL A   1      36.532  32.392  28.467  1.00  0.00     0.010 A 
ATOM     37  C   UNL A   1      36.045  30.042  28.759  1.00  0.00     0.010 A 
ATOM     38  C   UNL A   1      36.827  31.166  29.078  1.00  0.00    -0.014 A 
BRANCH  38  39
ATOM     39  C   UNL A   1      38.065  30.931  29.860  1.00  0.00     0.031 A 
ATOM     40  C   UNL A   1      39.036  29.970  29.255  1.00  0.00     0.074 A 
ATOM     41  C   UNL A   1      38.230  31.364  31.128  1.00  0.00     0.049 A 
ATOM     42  N   UNL A   1      40.026  29.323  29.804  1.00  0.00    -0.248 NA
ATOM     43  C   UNL A   1      38.796  29.643  27.840  1.00  0.00     0.031 C 
ATOM     44  C   UNL A   1      37.351  32.289  31.843  1.00  0.00     0.029 A 
ATOM     45  N   UNL A   1      39.189  31.034  32.061  1.00  0.00    -0.354 N 
ATOM     46  C   UNL A   1      40.495  28.477  28.811  1.00  0.00     0.074 A 
ATOM     47  C   UNL A   1      39.653  28.661  27.652  1.00  0.00     0.031 C 
ATOM     48  C   UNL A   1      37.794  32.428  33.108  1.00  0.00     0.029 A 
ATOM     49  C   UNL A   1      38.967  31.577  33.307  1.00  0.00     0.049 A 
ATOM     50  H   UNL A   1      39.962  30.459  31.856  1.00  0.00     0.167 HD
ATOM     51  C   UNL A   1      41.535  27.616  28.855  1.00  0.00     0.037 A 
ATOM     52  C   UNL A   1      39.625  31.381  34.471  1.00  0.00     0.037 A 
ATOM     53  C   UNL A   1      42.354  27.418  30.013  1.00  0.00     0.049 A 
ATOM     54  C   UNL A   1      40.791  30.416  34.507  1.00  0.00     0.074 A 
ATOM     55  C   UNL A   1      43.448  26.590  30.165  1.00  0.00     0.029 A 
ATOM     56  N   UNL A   1      42.150  28.054  31.229  1.00  0.00    -0.354 N 
ATOM     57  N   UNL A   1      41.274  29.667  33.544  1.00  0.00    -0.248 NA
ATOM     58  C   UNL A   1      41.501  30.265  35.788  1.00  0.00     0.031 C 
ATOM     59  C   UNL A   1      43.887  26.699  31.487  1.00  0.00     0.029 A 
ATOM     60  C   UNL A   1      43.096  27.632  32.143  1.00  0.00     0.049 A 
ATOM     61  H   UNL A   1      41.438  28.708  31.413  1.00  0.00     0.167 HD
ATOM     62  C   UNL A   1      42.361  28.990  34.090  1.00  0.00     0.074 A 
ATOM     63  C   UNL A   1      42.467  29.413  35.470  1.00  0.00     0.031 C 
ATOM     64  C   UNL A   1      43.199  28.099  33.503  1.00  0.00     0.037 A 
BRANCH  51  65
ATOM     65  C   UNL A   1      41.772  26.821  27.609  1.00  0.00     0.057 A 
ATOM     66  C   UNL A   1      41.277  25.516  27.466  1.00  0.00     0.134 A 
ATOM     67  C   UNL A   1      42.616  27.310  26.606  1.00  0.00     0.134 A 
ATOM     68  F   UNL A   1      40.496  24.977  28.415  1.00  0.00    -0.206 F 
ATOM     69  C   UNL A   1      41.676  24.699  26.409  1.00  0.00     0.040 A 
ATOM     70  C   UNL A   1      42.990  26.514  25.523  1.00  0.00     0.040 A 
ATOM     71  F   UNL A   1      43.128  28.547  26.688  1.00  0.00    -0.206 F 
ATOM     72  C   UNL A   1      42.538  25.199  25.434  1.00  0.00     0.006 A 
ENDBRANCH  51  65
BRANCH  52  73
ATOM     73  C   UNL A   1      39.221  32.102  35.713  1.00  0.00     0.057 A 
ATOM     74  C   UNL A   1      38.346  31.513  36.637  1.00  0.00     0.134 A 
ATOM     75  C   UNL A   1      39.648  33.407  35.985  1.00  0.00     0.134 A 
ATOM     76  F   UNL A   1      37.869  30.278  36.419  1.00  0.00    -0.206 F 
ATOM     77  C   UNL A   1      37.897  32.198  37.769  1.00  0.00     0.040 A 
ATOM     78  C   UNL A   1      39.223  34.097  37.126  1.00  0.00     0.040 A 
ATOM     79  F   UNL A   1      40.476  34.039  35.140  1.00  0.00    -0.206 F 
ATOM     80  C   UNL A   1      38.340  33.494  38.019  1.00  0.00     0.006 A 
ENDBRANCH  52  73
BRANCH  64  81
ATOM     81  C   UNL A   1      44.347  27.566  34.309  1.00  0.00     0.057 A 
ATOM     82  C   UNL A   1      45.558  28.255  34.424  1.00  0.00     0.134 A 
ATOM     83  C   UNL A   1      44.178  26.411  35.086  1.00  0.00     0.134 A 
ATOM     84  F   UNL A   1      45.782  29.363  33.702  1.00  0.00    -0.206 F 
ATOM     85  C   UNL A   1      46.563  27.817  35.289  1.00  0.00     0.040 A 
ATOM     86  C   UNL A   1      45.165  25.977  35.971  1.00  0.00     0.040 A 
ATOM     87  F   UNL A   1      43.034  25.714  35.030  1.00  0.00    -0.206 F 
ATOM     88  C   UNL A   1      46.361  26.683  36.076  1.00  0.00     0.006 A 
ENDBRANCH  64  81
ENDBRANCH  38  39
ENDBRANCH  31  33
ENDBRANCH  30  31
ENDBRANCH  29  30
ENDBRANCH   1  29
TORSDOF 15
ENDMDL
MODEL 2
REMARK VINA RESULT:     -15.1      3.355      6.638
REMARK SMILES O=C(OCCOC(=O)c1ccc(-c2c3nc(c(-c4c(F)cccc4F)c4ccc([nH]4)c(-c4c(F)cccc4F)c4nc(c(-c5c(F)cccc5F)c5ccc2[nH]5)C=C4)C=C3)cc1)C1=Cc2cc(Cl)cc(-c3ccc(CO)cc3)c2O[C@@H]1C(F)(F)F
REMARK SMILES IDX 4 1 3 2 2 3 1 4 63 5 64 6 81 7 65 8 80 9 66 10 79 11 67 12
REMARK SMILES IDX 70 13 68 14 69 15 82 16 83 17 84 18 85 19 71 20 72 21 78 22
REMARK SMILES IDX 73 23 77 24 74 25 75 26 76 27 5 29 6 30 7 31 8 32 9 33 10 34
REMARK SMILES IDX 62 35 11 36 61 37 12 38 13 39 14 40 55 41 15 42 60 43 54 44
REMARK SMILES IDX 56 45 16 46 59 47 53 48 52 49 17 51 43 52 26 53 42 54 27 55
REMARK SMILES IDX 30 56 41 57 57 58 28 59 29 60 40 62 58 63 31 64 18 65 19 66
REMARK SMILES IDX 24 67 20 68 21 69 23 70 25 71 22 72 44 73 45 74 50 75 46 76
REMARK SMILES IDX 47 77 49 78 51 79 48 80 32 81 33 82 38 83 34 84 35 85 37 86
REMARK SMILES IDX 39 87 36 88
REMARK H PARENT 76 28 56 50 30 61
REMARK Flexibility Score: inf
ROOT
ATOM      1  C   UNL A   1      32.053  27.804  27.204  1.00  0.00     0.275 C 
ENDROOT
BRANCH   1   2
ATOM      2  O   UNL A   1      32.925  26.727  26.465  1.00  0.00    -0.459 OA
BRANCH   2   3
ATOM      3  C   UNL A   1      32.298  25.558  26.297  1.00  0.00     0.338 C 
ATOM      4  O   UNL A   1      31.649  24.889  27.059  1.00  0.00    -0.246 OA
BRANCH   3   5
ATOM      5  C   UNL A   1      32.925  25.266  25.036  1.00  0.00     0.087 C 
ATOM      6  C   UNL A   1      34.357  25.013  25.220  1.00  0.00     0.027 C 
ATOM      7  C   UNL A   1      31.631  23.976  24.416  1.00  0.00     0.316 C 
ATOM      8  C   UNL A   1      35.102  23.387  25.015  1.00  0.00     0.019 A 
ATOM      9  O   UNL A   1      32.400  22.209  24.259  1.00  0.00    -0.475 OA
ATOM     10  C   UNL A   1      36.430  23.287  25.328  1.00  0.00     0.032 A 
ATOM     11  C   UNL A   1      34.163  21.955  24.668  1.00  0.00     0.135 A 
ATOM     12  C   UNL A   1      36.927  21.987  25.336  1.00  0.00     0.042 A 
ATOM     13  C   UNL A   1      34.735  20.706  24.767  1.00  0.00     0.026 A 
ATOM     14  Cl  UNL A   1      38.597  21.783  25.747  1.00  0.00    -0.084 Cl
ATOM     15  C   UNL A   1      36.139  20.798  25.080  1.00  0.00     0.033 A 
BRANCH   7  16
ATOM     16  C   UNL A   1      30.921  24.958  23.408  1.00  0.00     0.430 C 
ATOM     17  F   UNL A   1      31.693  25.301  22.380  1.00  0.00    -0.167 F 
ATOM     18  F   UNL A   1      29.881  24.284  22.828  1.00  0.00    -0.167 F 
ATOM     19  F   UNL A   1      30.325  26.045  23.948  1.00  0.00    -0.167 F 
ENDBRANCH   7  16
BRANCH  13  20
ATOM     20  C   UNL A   1      34.163  19.365  24.764  1.00  0.00    -0.015 A 
ATOM     21  C   UNL A   1      32.928  19.165  25.420  1.00  0.00     0.009 A 
ATOM     22  C   UNL A   1      34.897  18.239  24.389  1.00  0.00     0.009 A 
ATOM     23  C   UNL A   1      32.460  17.885  25.722  1.00  0.00     0.007 A 
ATOM     24  C   UNL A   1      34.425  16.951  24.690  1.00  0.00     0.007 A 
ATOM     25  C   UNL A   1      33.212  16.764  25.367  1.00  0.00    -0.023 A 
BRANCH  25  26
ATOM     26  C   UNL A   1      32.718  15.390  25.737  1.00  0.00     0.191 C 
BRANCH  26  27
ATOM     27  O   UNL A   1      33.666  14.393  25.370  1.00  0.00    -0.392 OA
ATOM     28  H   UNL A   1      34.363  14.794  24.826  1.00  0.00     0.211 HD
ENDBRANCH  26  27
ENDBRANCH  25  26
ENDBRANCH  13  20
ENDBRANCH   3   5
ENDBRANCH   2   3
ENDBRANCH   1   2
BRANCH   1  29
ATOM     29  C   UNL A   1      32.348  29.941  27.149  1.00  0.00     0.275 C 
BRANCH  29  30
ATOM     30  O   UNL A   1      33.828  30.758  27.436  1.00  0.00    -0.458 OA
BRANCH  30  31
ATOM     31  C   UNL A   1      34.671  31.166  28.436  1.00  0.00     0.338 C 
ATOM     32  O   UNL A   1      34.524  32.022  29.285  1.00  0.00    -0.246 OA
BRANCH  31  33
ATOM     33  C   UNL A   1      35.765  30.149  28.460  1.00  0.00     0.060 A 
ATOM     34  C   UNL A   1      36.627  30.021  27.357  1.00  0.00     0.016 A 
ATOM     35  C   UNL A   1      36.136  29.628  29.694  1.00  0.00     0.016 A 
ATOM     36  C   UNL A   1      37.970  29.660  27.573  1.00  0.00     0.010 A 
ATOM     37  C   UNL A   1      37.449  29.212  29.891  1.00  0.00     0.010 A 
ATOM     38  C   UNL A   1      38.401  29.318  28.862  1.00  0.00    -0.014 A 
BRANCH  38  39
ATOM     39  C   UNL A   1      39.771  28.829  29.153  1.00  0.00     0.031 A 
ATOM     40  C   UNL A   1      40.734  29.863  29.636  1.00  0.00     0.074 A 
ATOM     41  C   UNL A   1      40.203  27.598  28.807  1.00  0.00     0.049 A 
ATOM     42  N   UNL A   1      42.038  29.840  29.675  1.00  0.00    -0.248 NA
ATOM     43  C   UNL A   1      40.129  31.134  30.065  1.00  0.00     0.031 C 
ATOM     44  C   UNL A   1      39.372  26.503  28.309  1.00  0.00     0.029 A 
ATOM     45  N   UNL A   1      41.480  27.081  28.781  1.00  0.00    -0.354 N 
ATOM     46  C   UNL A   1      42.406  31.110  30.087  1.00  0.00     0.074 A 
ATOM     47  C   UNL A   1      41.197  31.885  30.238  1.00  0.00     0.031 C 
ATOM     48  C   UNL A   1      40.163  25.456  27.999  1.00  0.00     0.029 A 
ATOM     49  C   UNL A   1      41.560  25.815  28.243  1.00  0.00     0.049 A 
ATOM     50  H   UNL A   1      42.265  27.572  29.115  1.00  0.00     0.167 HD
ATOM     51  C   UNL A   1      43.645  31.598  30.321  1.00  0.00     0.037 A 
ATOM     52  C   UNL A   1      42.642  25.056  27.960  1.00  0.00     0.037 A 
ATOM     53  C   UNL A   1      44.844  30.835  30.148  1.00  0.00     0.049 A 
ATOM     54  C   UNL A   1      44.024  25.613  28.229  1.00  0.00     0.074 A 
ATOM     55  C   UNL A   1      46.151  31.218  30.377  1.00  0.00     0.029 A 
ATOM     56  N   UNL A   1      44.876  29.528  29.686  1.00  0.00    -0.354 N 
ATOM     57  N   UNL A   1      44.366  26.796  28.685  1.00  0.00    -0.248 NA
ATOM     58  C   UNL A   1      45.171  24.735  27.941  1.00  0.00     0.031 C 
ATOM     59  C   UNL A   1      46.979  30.151  30.018  1.00  0.00     0.029 A 
ATOM     60  C   UNL A   1      46.183  29.088  29.614  1.00  0.00     0.049 A 
ATOM     61  H   UNL A   1      44.085  28.993  29.445  1.00  0.00     0.167 HD
ATOM     62  C   UNL A   1      45.755  26.788  28.774  1.00  0.00     0.074 A 
ATOM     63  C   UNL A   1      46.196  25.485  28.323  1.00  0.00     0.031 C 
ATOM     64  C   UNL A   1      46.591  27.770  29.195  1.00  0.00     0.037 A 
BRANCH  51  65
ATOM     65  C   UNL A   1      43.707  33.034  30.739  1.00  0.00     0.057 A 
ATOM     66  C   UNL A   1      43.639  33.408  32.090  1.00  0.00     0.134 A 
ATOM     67  C   UNL A   1      43.694  34.052  29.781  1.00  0.00     0.134 A 
ATOM     68  F   UNL A   1      43.607  32.474  33.054  1.00  0.00    -0.206 F 
ATOM     69  C   UNL A   1      43.477  34.741  32.467  1.00  0.00     0.040 A 
ATOM     70  C   UNL A   1      43.572  35.392  30.150  1.00  0.00     0.040 A 
ATOM     71  F   UNL A   1      43.748  33.760  28.473  1.00  0.00    -0.206 F 
ATOM     72  C   UNL A   1      43.441  35.737  31.494  1.00  0.00     0.006 A 
ENDBRANCH  51  65
BRANCH  52  73
ATOM     73  C   UNL A   1      42.493  23.685  27.394  1.00  0.00     0.057 A 
ATOM     74  C   UNL A   1      42.333  22.572  28.231  1.00  0.00     0.134 A 
ATOM     75  C   UNL A   1      42.562  23.440  26.017  1.00  0.00     0.134 A 
ATOM     76  F   UNL A   1      42.295  22.731  29.562  1.00  0.00    -0.206 F 
ATOM     77  C   UNL A   1      42.265  21.271  27.725  1.00  0.00     0.040 A 
ATOM     78  C   UNL A   1      42.475  22.144  25.496  1.00  0.00     0.040 A 
ATOM     79  F   UNL A   1      42.728  24.454  25.156  1.00  0.00    -0.206 F 
ATOM     80  C   UNL A   1      42.332  21.054  26.352  1.00  0.00     0.006 A 
ENDBRANCH  52  73
BRANCH  64  81
ATOM     81  C   UNL A   1      48.060  27.472  29.260  1.00  0.00     0.057 A 
ATOM     82  C   UNL A   1      48.933  27.806  28.219  1.00  0.00     0.134 A 
ATOM     83  C   UNL A   1      48.620  26.965  30.441  1.00  0.00     0.134 A 
ATOM     84  F   UNL A   1      48.459  28.289  27.062  1.00  0.00    -0.206 F 
ATOM     85  C   UNL A   1      50.314  27.650  28.352  1.00  0.00     0.040 A 
ATOM     86  C   UNL A   1      49.999  26.828  30.594  1.00  0.00     0.040 A 
ATOM     87  F   UNL A   1      47.836  26.638  31.479  1.00  0.00    -0.206 F 
ATOM     88  C   UNL A   1      50.851  27.174  29.548  1.00  0.00     0.006 A 
ENDBRANCH  64  81
ENDBRANCH  38  39
ENDBRANCH  31  33
ENDBRANCH  30  31
ENDBRANCH  29  30
ENDBRANCH   1  29
TORSDOF 15
ENDMDL
MODEL 3
REMARK VINA RESULT:     -14.9      4.313      9.862
REMARK SMILES O=C(OCCOC(=O)c1ccc(-c2c3nc(c(-c4c(F)cccc4F)c4ccc([nH]4)c(-c4c(F)cccc4F)c4nc(c(-c5c(F)cccc5F)c5ccc2[nH]5)C=C4)C=C3)cc1)C1=Cc2cc(Cl)cc(-c3ccc(CO)cc3)c2O[C@@H]1C(F)(F)F
REMARK SMILES IDX 4 1 3 2 2 3 1 4 63 5 64 6 81 7 65 8 80 9 66 10 79 11 67 12
REMARK SMILES IDX 70 13 68 14 69 15 82 16 83 17 84 18 85 19 71 20 72 21 78 22
REMARK SMILES IDX 73 23 77 24 74 25 75 26 76 27 5 29 6 30 7 31 8 32 9 33 10 34
REMARK SMILES IDX 62 35 11 36 61 37 12 38 13 39 14 40 55 41 15 42 60 43 54 44
REMARK SMILES IDX 56 45 16 46 59 47 53 48 52 49 17 51 43 52 26 53 42 54 27 55
REMARK SMILES IDX 30 56 41 57 57 58 28 59 29 60 40 62 58 63 31 64 18 65 19 66
REMARK SMILES IDX 24 67 20 68 21 69 23 70 25 71 22 72 44 73 45 74 50 75 46 76
REMARK SMILES IDX 47 77 49 78 51 79 48 80 32 81 33 82 38 83 34 84 35 85 37 86
REMARK SMILES IDX 39 87 36 88
REMARK H PARENT 76 28 56 50 30 61
REMARK Flexibility Score: inf
ROOT
ATOM      1  C   UNL A   1      35.148  22.951  23.508  1.00  0.00     0.275 C 
ENDROOT
BRANCH   1   2
ATOM      2  O   UNL A   1      34.934  24.463  23.878  1.00  0.00    -0.459 OA
BRANCH   2   3
ATOM      3  C   UNL A   1      33.977  25.056  23.158  1.00  0.00     0.338 C 
ATOM      4  O   UNL A   1      34.002  25.556  22.063  1.00  0.00    -0.246 OA
BRANCH   3   5
ATOM      5  C   UNL A   1      33.048  25.154  24.252  1.00  0.00     0.087 C 
ATOM      6  C   UNL A   1      33.479  26.182  25.204  1.00  0.00     0.027 C 
ATOM      7  C   UNL A   1      31.435  25.214  23.194  1.00  0.00     0.316 C 
ATOM      8  C   UNL A   1      32.610  27.743  25.424  1.00  0.00     0.019 A 
ATOM      9  O   UNL A   1      30.528  26.913  23.367  1.00  0.00    -0.475 OA
ATOM     10  C   UNL A   1      33.196  28.646  26.269  1.00  0.00     0.032 A 
ATOM     11  C   UNL A   1      31.231  28.201  24.456  1.00  0.00     0.135 A 
ATOM     12  C   UNL A   1      32.602  29.904  26.275  1.00  0.00     0.042 A 
ATOM     13  C   UNL A   1      30.757  29.494  24.485  1.00  0.00     0.026 A 
ATOM     14  Cl  UNL A   1      33.306  31.106  27.305  1.00  0.00    -0.084 Cl
ATOM     15  C   UNL A   1      31.477  30.292  25.447  1.00  0.00     0.033 A 
BRANCH   7  16
ATOM     16  C   UNL A   1      31.026  23.717  23.471  1.00  0.00     0.430 C 
ATOM     17  F   UNL A   1      30.774  23.474  24.755  1.00  0.00    -0.167 F 
ATOM     18  F   UNL A   1      29.827  23.489  22.853  1.00  0.00    -0.167 F 
ATOM     19  F   UNL A   1      31.833  22.767  22.948  1.00  0.00    -0.167 F 
ENDBRANCH   7  16
BRANCH  13  20
ATOM     20  C   UNL A   1      29.803  30.206  23.645  1.00  0.00    -0.015 A 
ATOM     21  C   UNL A   1      29.737  29.868  22.276  1.00  0.00     0.009 A 
ATOM     22  C   UNL A   1      29.159  31.372  24.064  1.00  0.00     0.009 A 
ATOM     23  C   UNL A   1      29.081  30.682  21.351  1.00  0.00     0.007 A 
ATOM     24  C   UNL A   1      28.498  32.191  23.135  1.00  0.00     0.007 A 
ATOM     25  C   UNL A   1      28.463  31.860  21.773  1.00  0.00    -0.023 A 
BRANCH  25  26
ATOM     26  C   UNL A   1      27.797  32.754  20.761  1.00  0.00     0.191 C 
BRANCH  26  27
ATOM     27  O   UNL A   1      27.345  32.004  19.638  1.00  0.00    -0.392 OA
ATOM     28  H   UNL A   1      27.769  32.340  18.833  1.00  0.00     0.211 HD
ENDBRANCH  26  27
ENDBRANCH  25  26
ENDBRANCH  13  20
ENDBRANCH   3   5
ENDBRANCH   2   3
ENDBRANCH   1   2
BRANCH   1  29
ATOM     29  C   UNL A   1      36.326  21.522  24.615  1.00  0.00     0.275 C 
BRANCH  29  30
ATOM     30  O   UNL A   1      37.994  21.668  24.985  1.00  0.00    -0.458 OA
BRANCH  30  31
ATOM     31  C   UNL A   1      38.991  21.124  25.751  1.00  0.00     0.338 C 
ATOM     32  O   UNL A   1      39.596  20.078  25.625  1.00  0.00    -0.246 OA
BRANCH  31  33
ATOM     33  C   UNL A   1      39.403  22.216  26.683  1.00  0.00     0.060 A 
ATOM     34  C   UNL A   1      40.416  21.986  27.629  1.00  0.00     0.016 A 
ATOM     35  C   UNL A   1      39.051  23.519  26.348  1.00  0.00     0.016 A 
ATOM     36  C   UNL A   1      41.273  23.043  27.989  1.00  0.00     0.010 A 
ATOM     37  C   UNL A   1      39.864  24.571  26.755  1.00  0.00     0.010 A 
ATOM     38  C   UNL A   1      41.036  24.332  27.493  1.00  0.00    -0.014 A 
BRANCH  38  39
ATOM     39  C   UNL A   1      41.831  25.515  27.905  1.00  0.00     0.031 A 
ATOM     40  C   UNL A   1      41.079  26.568  28.651  1.00  0.00     0.074 A 
ATOM     41  C   UNL A   1      43.084  25.752  27.464  1.00  0.00     0.049 A 
ATOM     42  N   UNL A   1      41.381  27.818  28.868  1.00  0.00    -0.248 NA
ATOM     43  C   UNL A   1      39.759  26.157  29.156  1.00  0.00     0.031 C 
ATOM     44  C   UNL A   1      43.923  24.818  26.713  1.00  0.00     0.029 A 
ATOM     45  N   UNL A   1      43.855  26.891  27.548  1.00  0.00    -0.354 N 
ATOM     46  C   UNL A   1      40.265  28.353  29.493  1.00  0.00     0.074 A 
ATOM     47  C   UNL A   1      39.271  27.307  29.574  1.00  0.00     0.031 C 
ATOM     48  C   UNL A   1      45.077  25.431  26.381  1.00  0.00     0.029 A 
ATOM     49  C   UNL A   1      45.048  26.812  26.864  1.00  0.00     0.049 A 
ATOM     50  H   UNL A   1      43.577  27.691  28.050  1.00  0.00     0.167 HD
ATOM     51  C   UNL A   1      40.077  29.606  29.960  1.00  0.00     0.037 A 
ATOM     52  C   UNL A   1      45.985  27.758  26.637  1.00  0.00     0.037 A 
ATOM     53  C   UNL A   1      41.054  30.648  29.857  1.00  0.00     0.049 A 
ATOM     54  C   UNL A   1      45.764  29.159  27.167  1.00  0.00     0.074 A 
ATOM     55  C   UNL A   1      40.981  31.948  30.315  1.00  0.00     0.029 A 
ATOM     56  N   UNL A   1      42.285  30.501  29.234  1.00  0.00    -0.354 N 
ATOM     57  N   UNL A   1      44.732  29.643  27.819  1.00  0.00    -0.248 NA
ATOM     58  C   UNL A   1      46.831  30.145  26.929  1.00  0.00     0.031 C 
ATOM     59  C   UNL A   1      42.158  32.601  29.937  1.00  0.00     0.029 A 
ATOM     60  C   UNL A   1      42.982  31.692  29.289  1.00  0.00     0.049 A 
ATOM     61  H   UNL A   1      42.614  29.672  28.816  1.00  0.00     0.167 HD
ATOM     62  C   UNL A   1      45.043  30.971  28.100  1.00  0.00     0.074 A 
ATOM     63  C   UNL A   1      46.357  31.220  27.546  1.00  0.00     0.031 C 
ATOM     64  C   UNL A   1      44.307  31.900  28.760  1.00  0.00     0.037 A 
BRANCH  51  65
ATOM     65  C   UNL A   1      38.737  29.876  30.569  1.00  0.00     0.057 A 
ATOM     66  C   UNL A   1      37.682  30.412  29.815  1.00  0.00     0.134 A 
ATOM     67  C   UNL A   1      38.544  29.733  31.947  1.00  0.00     0.134 A 
ATOM     68  F   UNL A   1      37.822  30.611  28.495  1.00  0.00    -0.206 F 
ATOM     69  C   UNL A   1      36.511  30.865  30.422  1.00  0.00     0.040 A 
ATOM     70  C   UNL A   1      37.360  30.147  32.560  1.00  0.00     0.040 A 
ATOM     71  F   UNL A   1      39.516  29.235  32.725  1.00  0.00    -0.206 F 
ATOM     72  C   UNL A   1      36.350  30.735  31.800  1.00  0.00     0.006 A 
ENDBRANCH  51  65
BRANCH  52  73
ATOM     73  C   UNL A   1      47.230  27.442  25.878  1.00  0.00     0.057 A 
ATOM     74  C   UNL A   1      47.281  27.584  24.484  1.00  0.00     0.134 A 
ATOM     75  C   UNL A   1      48.375  26.939  26.508  1.00  0.00     0.134 A 
ATOM     76  F   UNL A   1      46.207  28.025  23.813  1.00  0.00    -0.206 F 
ATOM     77  C   UNL A   1      48.412  27.224  23.746  1.00  0.00     0.040 A 
ATOM     78  C   UNL A   1      49.521  26.594  25.784  1.00  0.00     0.040 A 
ATOM     79  F   UNL A   1      48.395  26.764  27.838  1.00  0.00    -0.206 F 
ATOM     80  C   UNL A   1      49.539  26.731  24.397  1.00  0.00     0.006 A 
ENDBRANCH  52  73
BRANCH  64  81
ATOM     81  C   UNL A   1      44.915  33.254  28.989  1.00  0.00     0.057 A 
ATOM     82  C   UNL A   1      45.752  33.517  30.078  1.00  0.00     0.134 A 
ATOM     83  C   UNL A   1      44.761  34.262  28.026  1.00  0.00     0.134 A 
ATOM     84  F   UNL A   1      45.935  32.597  31.035  1.00  0.00    -0.206 F 
ATOM     85  C   UNL A   1      46.421  34.737  30.200  1.00  0.00     0.040 A 
ATOM     86  C   UNL A   1      45.442  35.474  28.126  1.00  0.00     0.040 A 
ATOM     87  F   UNL A   1      43.982  34.064  26.953  1.00  0.00    -0.206 F 
ATOM     88  C   UNL A   1      46.278  35.714  29.214  1.00  0.00     0.006 A 
ENDBRANCH  64  81
ENDBRANCH  38  39
ENDBRANCH  31  33
ENDBRANCH  30  31
ENDBRANCH  29  30
ENDBRANCH   1  29
TORSDOF 15
ENDMDL
