MODEL 1
REMARK VINA RESULT:     -12.4      0.000      0.000
REMARK SMILES C[C@H](c1ccccc1)N1C(=O)c2ccc(C(=O)OCCOC(=O)c3ccc(-c4c5nc(c(-c6c(F)cccc6F)c6ccc([nH]6)c(-c6c(F)cccc6F)c6nc(c(-c7c(F)cccc7F)c7ccc4[nH]7)C=C6)C=C5)cc3)cc2C1=O
REMARK SMILES IDX 19 1 18 2 16 3 17 4 15 5 9 6 10 7 80 8 11 9 12 10 79 11
REMARK SMILES IDX 81 12 13 13 78 14 14 15 2 16 1 17 3 18 4 19 8 20 5 21 7 22
REMARK SMILES IDX 6 23 20 24 21 25 22 26 23 27 24 28 25 29 77 30 26 31 76 32
REMARK SMILES IDX 27 33 28 34 29 35 70 36 30 37 75 38 69 39 71 40 31 41 74 42
REMARK SMILES IDX 68 43 67 44 32 46 58 47 41 48 57 49 42 50 45 51 56 52 72 53
REMARK SMILES IDX 43 54 44 55 55 57 73 58 46 59 33 60 34 61 39 62 35 63 36 64
REMARK SMILES IDX 38 65 40 66 37 67 59 68 60 69 65 70 61 71 62 72 64 73 66 74
REMARK SMILES IDX 63 75 47 76 48 77 53 78 49 79 50 80 52 81 54 82 51 83
REMARK H PARENT 71 45 45 56
REMARK Flexibility Score: inf
ROOT
ATOM      1  C   UNL A   1      39.278  21.403  26.113  1.00  0.00     0.275 C 
ENDROOT
BRANCH   1   2
ATOM      2  O   UNL A   1      38.133  22.277  26.102  1.00  0.00    -0.458 OA
BRANCH   2   3
ATOM      3  C   UNL A   1      37.141  21.936  25.252  1.00  0.00     0.338 C 
ATOM      4  O   UNL A   1      37.218  21.247  24.251  1.00  0.00    -0.246 OA
BRANCH   3   5
ATOM      5  C   UNL A   1      35.868  22.515  25.724  1.00  0.00     0.060 A 
ATOM      6  N   UNL A   1      32.073  25.088  25.644  1.00  0.00    -0.267 N 
ATOM      7  C   UNL A   1      32.079  24.055  26.542  1.00  0.00     0.262 C 
ATOM      8  C   UNL A   1      33.265  25.167  24.972  1.00  0.00     0.262 C 
ATOM      9  O   UNL A   1      31.247  23.699  27.353  1.00  0.00    -0.269 OA
ATOM     10  C   UNL A   1      33.362  23.386  26.406  1.00  0.00     0.053 A 
ATOM     11  C   UNL A   1      34.089  24.053  25.439  1.00  0.00     0.054 A 
ATOM     12  O   UNL A   1      33.646  25.989  24.159  1.00  0.00    -0.269 OA
ATOM     13  C   UNL A   1      33.852  22.287  27.082  1.00  0.00     0.015 A 
ATOM     14  C   UNL A   1      35.347  23.631  25.055  1.00  0.00     0.030 A 
ATOM     15  C   UNL A   1      35.140  21.871  26.752  1.00  0.00     0.016 A 
BRANCH   6  16
ATOM     16  C   UNL A   1      30.951  25.997  25.406  1.00  0.00     0.121 C 
ATOM     17  C   UNL A   1      30.348  25.848  24.002  1.00  0.00     0.037 C 
BRANCH  16  18
ATOM     18  C   UNL A   1      31.296  27.440  25.759  1.00  0.00    -0.025 A 
ATOM     19  C   UNL A   1      31.215  28.483  24.823  1.00  0.00     0.006 A 
ATOM     20  C   UNL A   1      31.703  27.757  27.066  1.00  0.00     0.006 A 
ATOM     21  C   UNL A   1      31.563  29.791  25.171  1.00  0.00     0.000 A 
ATOM     22  C   UNL A   1      32.028  29.069  27.420  1.00  0.00     0.000 A 
ATOM     23  C   UNL A   1      31.968  30.084  26.469  1.00  0.00     0.000 A 
ENDBRANCH  16  18
ENDBRANCH   6  16
ENDBRANCH   3   5
ENDBRANCH   2   3
ENDBRANCH   1   2
BRANCH   1  24
ATOM     24  C   UNL A   1      40.519  22.229  26.432  1.00  0.00     0.275 C 
BRANCH  24  25
ATOM     25  O   UNL A   1      40.145  23.618  26.558  1.00  0.00    -0.458 OA
BRANCH  25  26
ATOM     26  C   UNL A   1      41.178  24.481  26.678  1.00  0.00     0.338 C 
ATOM     27  O   UNL A   1      42.291  24.382  26.188  1.00  0.00    -0.246 OA
BRANCH  26  28
ATOM     28  C   UNL A   1      40.788  25.661  27.464  1.00  0.00     0.060 A 
ATOM     29  C   UNL A   1      41.619  26.779  27.483  1.00  0.00     0.016 A 
ATOM     30  C   UNL A   1      39.721  25.563  28.359  1.00  0.00     0.016 A 
ATOM     31  C   UNL A   1      41.469  27.726  28.496  1.00  0.00     0.010 A 
ATOM     32  C   UNL A   1      39.498  26.584  29.290  1.00  0.00     0.010 A 
ATOM     33  C   UNL A   1      40.404  27.651  29.414  1.00  0.00    -0.014 A 
BRANCH  33  34
ATOM     34  C   UNL A   1      40.274  28.667  30.504  1.00  0.00     0.031 A 
ATOM     35  C   UNL A   1      39.208  29.739  30.459  1.00  0.00     0.074 A 
ATOM     36  C   UNL A   1      41.096  28.614  31.573  1.00  0.00     0.049 A 
ATOM     37  N   UNL A   1      39.012  30.746  31.276  1.00  0.00    -0.248 NA
ATOM     38  C   UNL A   1      38.249  29.688  29.345  1.00  0.00     0.031 C 
ATOM     39  C   UNL A   1      42.179  27.647  31.761  1.00  0.00     0.029 A 
ATOM     40  N   UNL A   1      41.135  29.375  32.716  1.00  0.00    -0.354 N 
ATOM     41  C   UNL A   1      37.946  31.471  30.750  1.00  0.00     0.074 A 
ATOM     42  C   UNL A   1      37.546  30.797  29.534  1.00  0.00     0.031 C 
ATOM     43  C   UNL A   1      42.724  27.823  32.973  1.00  0.00     0.029 A 
ATOM     44  C   UNL A   1      42.093  28.971  33.614  1.00  0.00     0.049 A 
ATOM     45  H   UNL A   1      40.534  30.139  32.877  1.00  0.00     0.167 HD
ATOM     46  C   UNL A   1      37.350  32.588  31.236  1.00  0.00     0.037 A 
ATOM     47  C   UNL A   1      42.451  29.473  34.811  1.00  0.00     0.037 A 
ATOM     48  C   UNL A   1      37.701  33.233  32.475  1.00  0.00     0.049 A 
ATOM     49  C   UNL A   1      41.755  30.691  35.340  1.00  0.00     0.074 A 
ATOM     50  C   UNL A   1      37.146  34.366  33.049  1.00  0.00     0.029 A 
ATOM     51  N   UNL A   1      38.683  32.789  33.349  1.00  0.00    -0.354 N 
ATOM     52  N   UNL A   1      40.786  31.388  34.800  1.00  0.00    -0.248 NA
ATOM     53  C   UNL A   1      42.215  31.204  36.639  1.00  0.00     0.031 C 
ATOM     54  C   UNL A   1      37.806  34.621  34.256  1.00  0.00     0.029 A 
ATOM     55  C   UNL A   1      38.747  33.625  34.453  1.00  0.00     0.049 A 
ATOM     56  H   UNL A   1      39.249  31.998  33.205  1.00  0.00     0.167 HD
ATOM     57  C   UNL A   1      40.523  32.421  35.688  1.00  0.00     0.074 A 
ATOM     58  C   UNL A   1      41.407  32.238  36.820  1.00  0.00     0.031 C 
ATOM     59  C   UNL A   1      39.638  33.440  35.568  1.00  0.00     0.037 A 
BRANCH  46  60
ATOM     60  C   UNL A   1      36.250  33.203  30.416  1.00  0.00     0.057 A 
ATOM     61  C   UNL A   1      34.900  33.065  30.760  1.00  0.00     0.134 A 
ATOM     62  C   UNL A   1      36.552  33.992  29.297  1.00  0.00     0.134 A 
ATOM     63  F   UNL A   1      34.541  32.315  31.813  1.00  0.00    -0.206 F 
ATOM     64  C   UNL A   1      33.889  33.673  30.011  1.00  0.00     0.040 A 
ATOM     65  C   UNL A   1      35.552  34.625  28.556  1.00  0.00     0.040 A 
ATOM     66  F   UNL A   1      37.826  34.175  28.917  1.00  0.00    -0.206 F 
ATOM     67  C   UNL A   1      34.216  34.462  28.910  1.00  0.00     0.006 A 
ENDBRANCH  46  60
BRANCH  47  68
ATOM     68  C   UNL A   1      43.550  28.833  35.578  1.00  0.00     0.057 A 
ATOM     69  C   UNL A   1      44.884  29.203  35.380  1.00  0.00     0.134 A 
ATOM     70  C   UNL A   1      43.288  27.844  36.534  1.00  0.00     0.134 A 
ATOM     71  F   UNL A   1      45.200  30.128  34.461  1.00  0.00    -0.206 F 
ATOM     72  C   UNL A   1      45.921  28.607  36.100  1.00  0.00     0.040 A 
ATOM     73  C   UNL A   1      44.310  27.261  37.281  1.00  0.00     0.040 A 
ATOM     74  F   UNL A   1      42.027  27.450  36.772  1.00  0.00    -0.206 F 
ATOM     75  C   UNL A   1      45.633  27.639  37.061  1.00  0.00     0.006 A 
ENDBRANCH  47  68
BRANCH  59  76
ATOM     76  C   UNL A   1      39.587  34.425  36.698  1.00  0.00     0.057 A 
ATOM     77  C   UNL A   1      40.300  35.630  36.654  1.00  0.00     0.134 A 
ATOM     78  C   UNL A   1      38.824  34.164  37.842  1.00  0.00     0.134 A 
ATOM     79  F   UNL A   1      41.062  35.931  35.591  1.00  0.00    -0.206 F 
ATOM     80  C   UNL A   1      40.283  36.527  37.723  1.00  0.00     0.040 A 
ATOM     81  C   UNL A   1      38.781  35.064  38.909  1.00  0.00     0.040 A 
ATOM     82  F   UNL A   1      38.113  33.031  37.944  1.00  0.00    -0.206 F 
ATOM     83  C   UNL A   1      39.519  36.245  38.854  1.00  0.00     0.006 A 
ENDBRANCH  59  76
ENDBRANCH  33  34
ENDBRANCH  26  28
ENDBRANCH  25  26
ENDBRANCH  24  25
ENDBRANCH   1  24
TORSDOF 13
ENDMDL
MODEL 2
REMARK VINA RESULT:     -12.3      3.835      7.898
REMARK SMILES C[C@H](c1ccccc1)N1C(=O)c2ccc(C(=O)OCCOC(=O)c3ccc(-c4c5nc(c(-c6c(F)cccc6F)c6ccc([nH]6)c(-c6c(F)cccc6F)c6nc(c(-c7c(F)cccc7F)c7ccc4[nH]7)C=C6)C=C5)cc3)cc2C1=O
REMARK SMILES IDX 19 1 18 2 16 3 17 4 15 5 9 6 10 7 80 8 11 9 12 10 79 11
REMARK SMILES IDX 81 12 13 13 78 14 14 15 2 16 1 17 3 18 4 19 8 20 5 21 7 22
REMARK SMILES IDX 6 23 20 24 21 25 22 26 23 27 24 28 25 29 77 30 26 31 76 32
REMARK SMILES IDX 27 33 28 34 29 35 70 36 30 37 75 38 69 39 71 40 31 41 74 42
REMARK SMILES IDX 68 43 67 44 32 46 58 47 41 48 57 49 42 50 45 51 56 52 72 53
REMARK SMILES IDX 43 54 44 55 55 57 73 58 46 59 33 60 34 61 39 62 35 63 36 64
REMARK SMILES IDX 38 65 40 66 37 67 59 68 60 69 65 70 61 71 62 72 64 73 66 74
REMARK SMILES IDX 63 75 47 76 48 77 53 78 49 79 50 80 52 81 54 82 51 83
REMARK H PARENT 71 45 45 56
REMARK Flexibility Score: inf
ROOT
ATOM      1  C   UNL A   1      37.449  20.028  25.158  1.00  0.00     0.275 C 
ENDROOT
BRANCH   1   2
ATOM      2  O   UNL A   1      37.218  21.357  24.652  1.00  0.00    -0.458 OA
BRANCH   2   3
ATOM      3  C   UNL A   1      37.371  22.360  25.543  1.00  0.00     0.338 C 
ATOM      4  O   UNL A   1      38.411  22.826  25.973  1.00  0.00    -0.246 OA
BRANCH   3   5
ATOM      5  C   UNL A   1      36.045  22.872  25.940  1.00  0.00     0.060 A 
ATOM      6  N   UNL A   1      32.179  25.325  25.689  1.00  0.00    -0.267 N 
ATOM      7  C   UNL A   1      32.151  24.245  26.530  1.00  0.00     0.262 C 
ATOM      8  C   UNL A   1      33.417  25.478  25.120  1.00  0.00     0.262 C 
ATOM      9  O   UNL A   1      31.271  23.819  27.251  1.00  0.00    -0.269 OA
ATOM     10  C   UNL A   1      33.464  23.625  26.463  1.00  0.00     0.053 A 
ATOM     11  C   UNL A   1      34.240  24.366  25.593  1.00  0.00     0.054 A 
ATOM     12  O   UNL A   1      33.832  26.355  24.385  1.00  0.00    -0.269 OA
ATOM     13  C   UNL A   1      33.938  22.507  27.118  1.00  0.00     0.015 A 
ATOM     14  C   UNL A   1      35.540  24.006  25.291  1.00  0.00     0.030 A 
ATOM     15  C   UNL A   1      35.262  22.150  26.872  1.00  0.00     0.016 A 
BRANCH   6  16
ATOM     16  C   UNL A   1      31.048  26.211  25.409  1.00  0.00     0.121 C 
ATOM     17  C   UNL A   1      30.505  26.055  23.982  1.00  0.00     0.037 C 
BRANCH  16  18
ATOM     18  C   UNL A   1      31.346  27.659  25.781  1.00  0.00    -0.025 A 
ATOM     19  C   UNL A   1      31.762  28.035  27.067  1.00  0.00     0.006 A 
ATOM     20  C   UNL A   1      31.213  28.667  24.809  1.00  0.00     0.006 A 
ATOM     21  C   UNL A   1      32.002  29.375  27.383  1.00  0.00     0.000 A 
ATOM     22  C   UNL A   1      31.477  30.004  25.120  1.00  0.00     0.000 A 
ATOM     23  C   UNL A   1      31.860  30.359  26.410  1.00  0.00     0.000 A 
ENDBRANCH  16  18
ENDBRANCH   6  16
ENDBRANCH   3   5
ENDBRANCH   2   3
ENDBRANCH   1   2
BRANCH   1  24
ATOM     24  C   UNL A   1      38.913  19.667  24.929  1.00  0.00     0.275 C 
BRANCH  24  25
ATOM     25  O   UNL A   1      39.639  19.819  26.168  1.00  0.00    -0.458 OA
BRANCH  25  26
ATOM     26  C   UNL A   1      40.979  19.688  26.066  1.00  0.00     0.338 C 
ATOM     27  O   UNL A   1      41.602  18.757  25.580  1.00  0.00    -0.246 OA
BRANCH  26  28
ATOM     28  C   UNL A   1      41.665  20.882  26.582  1.00  0.00     0.060 A 
ATOM     29  C   UNL A   1      41.830  21.040  27.957  1.00  0.00     0.016 A 
ATOM     30  C   UNL A   1      41.932  21.944  25.716  1.00  0.00     0.016 A 
ATOM     31  C   UNL A   1      42.118  22.303  28.471  1.00  0.00     0.010 A 
ATOM     32  C   UNL A   1      42.348  23.176  26.234  1.00  0.00     0.010 A 
ATOM     33  C   UNL A   1      42.388  23.393  27.621  1.00  0.00    -0.014 A 
BRANCH  33  34
ATOM     34  C   UNL A   1      42.676  24.744  28.196  1.00  0.00     0.031 A 
ATOM     35  C   UNL A   1      44.083  25.163  28.560  1.00  0.00     0.074 A 
ATOM     36  C   UNL A   1      41.672  25.631  28.362  1.00  0.00     0.049 A 
ATOM     37  N   UNL A   1      44.495  26.262  29.146  1.00  0.00    -0.248 NA
ATOM     38  C   UNL A   1      45.168  24.220  28.245  1.00  0.00     0.031 C 
ATOM     39  C   UNL A   1      40.260  25.377  28.066  1.00  0.00     0.029 A 
ATOM     40  N   UNL A   1      41.686  26.934  28.798  1.00  0.00    -0.354 N 
ATOM     41  C   UNL A   1      45.869  26.121  29.313  1.00  0.00     0.074 A 
ATOM     42  C   UNL A   1      46.221  24.823  28.780  1.00  0.00     0.031 C 
ATOM     43  C   UNL A   1      39.560  26.504  28.255  1.00  0.00     0.029 A 
ATOM     44  C   UNL A   1      40.451  27.536  28.772  1.00  0.00     0.049 A 
ATOM     45  H   UNL A   1      42.503  27.393  29.100  1.00  0.00     0.167 HD
ATOM     46  C   UNL A   1      46.758  26.992  29.851  1.00  0.00     0.037 A 
ATOM     47  C   UNL A   1      40.061  28.770  29.143  1.00  0.00     0.037 A 
ATOM     48  C   UNL A   1      46.428  28.310  30.331  1.00  0.00     0.049 A 
ATOM     49  C   UNL A   1      41.070  29.726  29.706  1.00  0.00     0.074 A 
ATOM     50  C   UNL A   1      47.266  29.264  30.886  1.00  0.00     0.029 A 
ATOM     51  N   UNL A   1      45.161  28.874  30.288  1.00  0.00    -0.354 N 
ATOM     52  N   UNL A   1      42.353  29.551  29.902  1.00  0.00    -0.248 NA
ATOM     53  C   UNL A   1      40.571  31.047  30.118  1.00  0.00     0.031 C 
ATOM     54  C   UNL A   1      46.504  30.394  31.201  1.00  0.00     0.029 A 
ATOM     55  C   UNL A   1      45.198  30.160  30.807  1.00  0.00     0.049 A 
ATOM     56  H   UNL A   1      44.357  28.428  29.941  1.00  0.00     0.167 HD
ATOM     57  C   UNL A   1      42.815  30.734  30.462  1.00  0.00     0.074 A 
ATOM     58  C   UNL A   1      41.682  31.633  30.539  1.00  0.00     0.031 C 
ATOM     59  C   UNL A   1      44.063  31.041  30.889  1.00  0.00     0.037 A 
BRANCH  46  60
ATOM     60  C   UNL A   1      48.188  26.546  29.967  1.00  0.00     0.057 A 
ATOM     61  C   UNL A   1      48.650  25.803  31.060  1.00  0.00     0.134 A 
ATOM     62  C   UNL A   1      49.104  26.817  28.940  1.00  0.00     0.134 A 
ATOM     63  F   UNL A   1      47.828  25.517  32.082  1.00  0.00    -0.206 F 
ATOM     64  C   UNL A   1      49.973  25.362  31.138  1.00  0.00     0.040 A 
ATOM     65  C   UNL A   1      50.423  26.360  28.995  1.00  0.00     0.040 A 
ATOM     66  F   UNL A   1      48.727  27.516  27.859  1.00  0.00    -0.206 F 
ATOM     67  C   UNL A   1      50.861  25.634  30.099  1.00  0.00     0.006 A 
ENDBRANCH  46  60
BRANCH  47  68
ATOM     68  C   UNL A   1      38.634  29.160  29.016  1.00  0.00     0.057 A 
ATOM     69  C   UNL A   1      37.762  29.083  30.107  1.00  0.00     0.134 A 
ATOM     70  C   UNL A   1      38.113  29.626  27.803  1.00  0.00     0.134 A 
ATOM     71  F   UNL A   1      38.196  28.622  31.289  1.00  0.00    -0.206 F 
ATOM     72  C   UNL A   1      36.420  29.451  29.995  1.00  0.00     0.040 A 
ATOM     73  C   UNL A   1      36.782  30.024  27.684  1.00  0.00     0.040 A 
ATOM     74  F   UNL A   1      38.901  29.725  26.722  1.00  0.00    -0.206 F 
ATOM     75  C   UNL A   1      35.929  29.932  28.782  1.00  0.00     0.006 A 
ENDBRANCH  47  68
BRANCH  59  76
ATOM     76  C   UNL A   1      44.259  32.410  31.469  1.00  0.00     0.057 A 
ATOM     77  C   UNL A   1      44.603  33.505  30.666  1.00  0.00     0.134 A 
ATOM     78  C   UNL A   1      44.110  32.635  32.842  1.00  0.00     0.134 A 
ATOM     79  F   UNL A   1      44.776  33.351  29.344  1.00  0.00    -0.206 F 
ATOM     80  C   UNL A   1      44.825  34.770  31.213  1.00  0.00     0.040 A 
ATOM     81  C   UNL A   1      44.306  33.901  33.398  1.00  0.00     0.040 A 
ATOM     82  F   UNL A   1      43.775  31.630  33.665  1.00  0.00    -0.206 F 
ATOM     83  C   UNL A   1      44.674  34.970  32.583  1.00  0.00     0.006 A 
ENDBRANCH  59  76
ENDBRANCH  33  34
ENDBRANCH  26  28
ENDBRANCH  25  26
ENDBRANCH  24  25
ENDBRANCH   1  24
TORSDOF 13
ENDMDL
MODEL 3
REMARK VINA RESULT:     -12.3      5.467     10.629
REMARK SMILES C[C@H](c1ccccc1)N1C(=O)c2ccc(C(=O)OCCOC(=O)c3ccc(-c4c5nc(c(-c6c(F)cccc6F)c6ccc([nH]6)c(-c6c(F)cccc6F)c6nc(c(-c7c(F)cccc7F)c7ccc4[nH]7)C=C6)C=C5)cc3)cc2C1=O
REMARK SMILES IDX 19 1 18 2 16 3 17 4 15 5 9 6 10 7 80 8 11 9 12 10 79 11
REMARK SMILES IDX 81 12 13 13 78 14 14 15 2 16 1 17 3 18 4 19 8 20 5 21 7 22
REMARK SMILES IDX 6 23 20 24 21 25 22 26 23 27 24 28 25 29 77 30 26 31 76 32
REMARK SMILES IDX 27 33 28 34 29 35 70 36 30 37 75 38 69 39 71 40 31 41 74 42
REMARK SMILES IDX 68 43 67 44 32 46 58 47 41 48 57 49 42 50 45 51 56 52 72 53
REMARK SMILES IDX 43 54 44 55 55 57 73 58 46 59 33 60 34 61 39 62 35 63 36 64
REMARK SMILES IDX 38 65 40 66 37 67 59 68 60 69 65 70 61 71 62 72 64 73 66 74
REMARK SMILES IDX 63 75 47 76 48 77 53 78 49 79 50 80 52 81 54 82 51 83
REMARK H PARENT 71 45 45 56
REMARK Flexibility Score: inf
ROOT
ATOM      1  C   UNL A   1      33.876  31.837  27.631  1.00  0.00     0.275 C 
ENDROOT
BRANCH   1   2
ATOM      2  O   UNL A   1      34.043  30.536  27.036  1.00  0.00    -0.458 OA
BRANCH   2   3
ATOM      3  C   UNL A   1      32.905  29.892  26.701  1.00  0.00     0.338 C 
ATOM      4  O   UNL A   1      31.783  30.080  27.137  1.00  0.00    -0.246 OA
BRANCH   3   5
ATOM      5  C   UNL A   1      33.196  28.886  25.662  1.00  0.00     0.060 A 
ATOM      6  N   UNL A   1      33.433  24.757  23.681  1.00  0.00    -0.267 N 
ATOM      7  C   UNL A   1      33.515  25.832  22.838  1.00  0.00     0.262 C 
ATOM      8  C   UNL A   1      33.346  25.158  24.989  1.00  0.00     0.262 C 
ATOM      9  O   UNL A   1      33.660  25.891  21.634  1.00  0.00    -0.269 OA
ATOM     10  C   UNL A   1      33.429  27.024  23.666  1.00  0.00     0.053 A 
ATOM     11  C   UNL A   1      33.312  26.620  24.982  1.00  0.00     0.054 A 
ATOM     12  O   UNL A   1      33.328  24.491  26.007  1.00  0.00    -0.269 OA
ATOM     13  C   UNL A   1      33.456  28.352  23.294  1.00  0.00     0.015 A 
ATOM     14  C   UNL A   1      33.174  27.529  26.013  1.00  0.00     0.030 A 
ATOM     15  C   UNL A   1      33.371  29.293  24.318  1.00  0.00     0.016 A 
BRANCH   6  16
ATOM     16  C   UNL A   1      33.428  23.353  23.267  1.00  0.00     0.121 C 
ATOM     17  C   UNL A   1      32.081  22.661  23.517  1.00  0.00     0.037 C 
BRANCH  16  18
ATOM     18  C   UNL A   1      34.613  22.581  23.836  1.00  0.00    -0.025 A 
ATOM     19  C   UNL A   1      34.451  21.446  24.647  1.00  0.00     0.006 A 
ATOM     20  C   UNL A   1      35.921  23.001  23.541  1.00  0.00     0.006 A 
ATOM     21  C   UNL A   1      35.558  20.776  25.174  1.00  0.00     0.000 A 
ATOM     22  C   UNL A   1      37.028  22.315  24.050  1.00  0.00     0.000 A 
ATOM     23  C   UNL A   1      36.845  21.209  24.875  1.00  0.00     0.000 A 
ENDBRANCH  16  18
ENDBRANCH   6  16
ENDBRANCH   3   5
ENDBRANCH   2   3
ENDBRANCH   1   2
BRANCH   1  24
ATOM     24  C   UNL A   1      34.739  31.913  28.886  1.00  0.00     0.275 C 
BRANCH  24  25
ATOM     25  O   UNL A   1      35.373  30.634  29.105  1.00  0.00    -0.458 OA
BRANCH  25  26
ATOM     26  C   UNL A   1      36.331  30.626  30.057  1.00  0.00     0.338 C 
ATOM     27  O   UNL A   1      36.285  31.133  31.166  1.00  0.00    -0.246 OA
BRANCH  26  28
ATOM     28  C   UNL A   1      37.499  29.845  29.620  1.00  0.00     0.060 A 
ATOM     29  C   UNL A   1      38.355  29.297  30.572  1.00  0.00     0.016 A 
ATOM     30  C   UNL A   1      37.863  29.860  28.272  1.00  0.00     0.016 A 
ATOM     31  C   UNL A   1      39.637  28.900  30.192  1.00  0.00     0.010 A 
ATOM     32  C   UNL A   1      39.102  29.338  27.881  1.00  0.00     0.010 A 
ATOM     33  C   UNL A   1      40.033  28.907  28.840  1.00  0.00    -0.014 A 
BRANCH  33  34
ATOM     34  C   UNL A   1      41.419  28.494  28.458  1.00  0.00     0.031 A 
ATOM     35  C   UNL A   1      41.734  27.072  28.048  1.00  0.00     0.074 A 
ATOM     36  C   UNL A   1      42.411  29.410  28.439  1.00  0.00     0.049 A 
ATOM     37  N   UNL A   1      42.895  26.529  27.771  1.00  0.00    -0.248 NA
ATOM     38  C   UNL A   1      40.605  26.133  27.957  1.00  0.00     0.031 C 
ATOM     39  C   UNL A   1      42.270  30.818  28.814  1.00  0.00     0.029 A 
ATOM     40  N   UNL A   1      43.729  29.300  28.067  1.00  0.00    -0.354 N 
ATOM     41  C   UNL A   1      42.643  25.183  27.521  1.00  0.00     0.074 A 
ATOM     42  C   UNL A   1      41.220  24.987  27.696  1.00  0.00     0.031 C 
ATOM     43  C   UNL A   1      43.426  31.455  28.582  1.00  0.00     0.029 A 
ATOM     44  C   UNL A   1      44.419  30.486  28.129  1.00  0.00     0.049 A 
ATOM     45  H   UNL A   1      44.140  28.452  27.782  1.00  0.00     0.167 HD
ATOM     46  C   UNL A   1      43.511  24.201  27.173  1.00  0.00     0.037 A 
ATOM     47  C   UNL A   1      45.710  30.772  27.877  1.00  0.00     0.037 A 
ATOM     48  C   UNL A   1      44.920  24.396  26.939  1.00  0.00     0.049 A 
ATOM     49  C   UNL A   1      46.643  29.675  27.462  1.00  0.00     0.074 A 
ATOM     50  C   UNL A   1      45.874  23.460  26.575  1.00  0.00     0.029 A 
ATOM     51  N   UNL A   1      45.574  25.617  27.020  1.00  0.00    -0.354 N 
ATOM     52  N   UNL A   1      46.392  28.401  27.283  1.00  0.00    -0.248 NA
ATOM     53  C   UNL A   1      48.045  30.051  27.230  1.00  0.00     0.031 C 
ATOM     54  C   UNL A   1      47.109  24.108  26.460  1.00  0.00     0.029 A 
ATOM     55  C   UNL A   1      46.917  25.455  26.713  1.00  0.00     0.049 A 
ATOM     56  H   UNL A   1      45.148  26.470  27.259  1.00  0.00     0.167 HD
ATOM     57  C   UNL A   1      47.602  27.824  26.924  1.00  0.00     0.074 A 
ATOM     58  C   UNL A   1      48.578  28.893  26.871  1.00  0.00     0.031 C 
ATOM     59  C   UNL A   1      47.881  26.522  26.675  1.00  0.00     0.037 A 
BRANCH  46  60
ATOM     60  C   UNL A   1      42.967  22.808  27.030  1.00  0.00     0.057 A 
ATOM     61  C   UNL A   1      42.615  22.029  28.140  1.00  0.00     0.134 A 
ATOM     62  C   UNL A   1      42.740  22.258  25.761  1.00  0.00     0.134 A 
ATOM     63  F   UNL A   1      42.816  22.492  29.384  1.00  0.00    -0.206 F 
ATOM     64  C   UNL A   1      42.076  20.750  27.994  1.00  0.00     0.040 A 
ATOM     65  C   UNL A   1      42.178  20.989  25.602  1.00  0.00     0.040 A 
ATOM     66  F   UNL A   1      43.045  22.952  24.654  1.00  0.00    -0.206 F 
ATOM     67  C   UNL A   1      41.849  20.229  26.721  1.00  0.00     0.006 A 
ENDBRANCH  46  60
BRANCH  47  68
ATOM     68  C   UNL A   1      46.200  32.165  28.040  1.00  0.00     0.057 A 
ATOM     69  C   UNL A   1      46.805  32.586  29.229  1.00  0.00     0.134 A 
ATOM     70  C   UNL A   1      46.082  33.103  27.007  1.00  0.00     0.134 A 
ATOM     71  F   UNL A   1      46.925  31.740  30.263  1.00  0.00    -0.206 F 
ATOM     72  C   UNL A   1      47.271  33.892  29.387  1.00  0.00     0.040 A 
ATOM     73  C   UNL A   1      46.569  34.402  27.141  1.00  0.00     0.040 A 
ATOM     74  F   UNL A   1      45.514  32.757  25.841  1.00  0.00    -0.206 F 
ATOM     75  C   UNL A   1      47.161  34.802  28.337  1.00  0.00     0.006 A 
ENDBRANCH  47  68
BRANCH  59  76
ATOM     76  C   UNL A   1      49.301  26.194  26.318  1.00  0.00     0.057 A 
ATOM     77  C   UNL A   1      50.210  25.732  27.277  1.00  0.00     0.134 A 
ATOM     78  C   UNL A   1      49.763  26.347  25.006  1.00  0.00     0.134 A 
ATOM     79  F   UNL A   1      49.832  25.579  28.555  1.00  0.00    -0.206 F 
ATOM     80  C   UNL A   1      51.541  25.465  26.951  1.00  0.00     0.040 A 
ATOM     81  C   UNL A   1      51.087  26.062  24.662  1.00  0.00     0.040 A 
ATOM     82  F   UNL A   1      48.941  26.780  24.039  1.00  0.00    -0.206 F 
ATOM     83  C   UNL A   1      51.981  25.628  25.639  1.00  0.00     0.006 A 
ENDBRANCH  59  76
ENDBRANCH  33  34
ENDBRANCH  26  28
ENDBRANCH  25  26
ENDBRANCH  24  25
ENDBRANCH   1  24
TORSDOF 13
ENDMDL
