MODEL 1
REMARK VINA RESULT:     -12.0      0.000      0.000
REMARK SMILES O=C(CCC(=O)N1CCC(c2nnc3ccccn23)CC1)OCCOC(=O)c1ccc(-c2c3nc(c(-c4c(F)cccc4F)c4ccc([nH]4)c(-c4c(F)cccc4F)c4nc(c(-c5c(F)cccc5F)c5ccc2[nH]5)C=C4)C=C3)cc1
REMARK SMILES IDX 23 1 22 2 2 3 1 4 3 5 4 6 5 7 6 8 7 9 8 10 21 11 9 12 20 13
REMARK SMILES IDX 10 14 11 15 12 16 19 17 13 18 14 19 18 20 15 21 17 22 16 23
REMARK SMILES IDX 24 24 25 25 26 26 27 27 28 28 29 29 81 30 30 31 80 32 31 33
REMARK SMILES IDX 32 34 33 35 74 36 34 37 79 38 73 39 75 40 35 41 78 42 72 43
REMARK SMILES IDX 71 44 36 46 62 47 45 48 61 49 46 50 49 51 60 52 76 53 47 54
REMARK SMILES IDX 48 55 59 57 77 58 50 59 37 60 38 61 43 62 39 63 40 64 42 65
REMARK SMILES IDX 44 66 41 67 63 68 64 69 69 70 65 71 66 72 68 73 70 74 67 75
REMARK SMILES IDX 51 76 52 77 57 78 53 79 54 80 56 81 58 82 55 83
REMARK H PARENT 75 45 49 56
REMARK Flexibility Score: inf
ROOT
ATOM      1  C   UNL A   1      43.700  21.457  26.198  1.00  0.00     0.274 C 
ENDROOT
BRANCH   1   2
ATOM      2  O   UNL A   1      42.886  20.271  26.021  1.00  0.00    -0.462 OA
BRANCH   2   3
ATOM      3  C   UNL A   1      41.541  20.212  25.979  1.00  0.00     0.306 C 
ATOM      4  O   UNL A   1      40.971  19.139  25.786  1.00  0.00    -0.252 OA
BRANCH   3   5
ATOM      5  C   UNL A   1      40.750  21.424  26.361  1.00  0.00     0.132 C 
BRANCH   5   6
ATOM      6  C   UNL A   1      39.277  21.121  26.157  1.00  0.00     0.112 C 
BRANCH   6   7
ATOM      7  C   UNL A   1      38.462  22.388  26.032  1.00  0.00     0.223 C 
ATOM      8  O   UNL A   1      38.857  23.416  26.587  1.00  0.00    -0.275 OA
ATOM      9  N   UNL A   1      37.323  22.368  25.245  1.00  0.00    -0.343 N 
ATOM     10  C   UNL A   1      36.820  23.633  24.741  1.00  0.00     0.120 C 
ATOM     11  C   UNL A   1      36.425  21.226  25.040  1.00  0.00     0.120 C 
ATOM     12  C   UNL A   1      35.509  23.981  25.416  1.00  0.00     0.033 C 
ATOM     13  C   UNL A   1      35.040  21.507  25.654  1.00  0.00     0.033 C 
ATOM     14  C   UNL A   1      34.478  22.861  25.189  1.00  0.00     0.062 C 
BRANCH  14  15
ATOM     15  C   UNL A   1      33.201  23.238  25.876  1.00  0.00     0.140 A 
ATOM     16  N   UNL A   1      32.860  22.991  27.126  1.00  0.00    -0.134 NA
ATOM     17  N   UNL A   1      32.244  24.049  25.298  1.00  0.00    -0.286 N 
ATOM     18  N   UNL A   1      31.685  23.661  27.396  1.00  0.00    -0.130 NA
ATOM     19  C   UNL A   1      31.332  24.311  26.309  1.00  0.00     0.160 A 
ATOM     20  C   UNL A   1      32.143  24.589  24.016  1.00  0.00     0.095 A 
ATOM     21  C   UNL A   1      30.260  25.197  26.011  1.00  0.00     0.050 A 
ATOM     22  C   UNL A   1      31.127  25.421  23.733  1.00  0.00     0.019 A 
ATOM     23  C   UNL A   1      30.164  25.735  24.778  1.00  0.00     0.005 A 
ENDBRANCH  14  15
ENDBRANCH   6   7
ENDBRANCH   5   6
ENDBRANCH   3   5
ENDBRANCH   2   3
ENDBRANCH   1   2
BRANCH   1  24
ATOM     24  C   UNL A   1      44.014  22.031  24.818  1.00  0.00     0.275 C 
BRANCH  24  25
ATOM     25  O   UNL A   1      43.368  23.313  24.732  1.00  0.00    -0.458 OA
BRANCH  25  26
ATOM     26  C   UNL A   1      44.161  24.378  25.016  1.00  0.00     0.338 C 
ATOM     27  O   UNL A   1      45.214  24.673  24.487  1.00  0.00    -0.246 OA
BRANCH  26  28
ATOM     28  C   UNL A   1      43.423  25.256  25.953  1.00  0.00     0.060 A 
ATOM     29  C   UNL A   1      43.868  26.575  26.111  1.00  0.00     0.016 A 
ATOM     30  C   UNL A   1      42.289  24.807  26.640  1.00  0.00     0.016 A 
ATOM     31  C   UNL A   1      43.211  27.432  26.993  1.00  0.00     0.010 A 
ATOM     32  C   UNL A   1      41.633  25.663  27.523  1.00  0.00     0.010 A 
ATOM     33  C   UNL A   1      42.117  26.964  27.731  1.00  0.00    -0.014 A 
BRANCH  33  34
ATOM     34  C   UNL A   1      41.611  27.754  28.872  1.00  0.00     0.031 A 
ATOM     35  C   UNL A   1      42.318  27.613  30.192  1.00  0.00     0.074 A 
ATOM     36  C   UNL A   1      40.557  28.573  28.739  1.00  0.00     0.049 A 
ATOM     37  N   UNL A   1      42.060  28.187  31.337  1.00  0.00    -0.248 NA
ATOM     38  C   UNL A   1      43.470  26.694  30.222  1.00  0.00     0.031 C 
ATOM     39  C   UNL A   1      39.799  28.791  27.508  1.00  0.00     0.029 A 
ATOM     40  N   UNL A   1      39.934  29.372  29.665  1.00  0.00    -0.354 N 
ATOM     41  C   UNL A   1      43.025  27.713  32.217  1.00  0.00     0.074 A 
ATOM     42  C   UNL A   1      43.842  26.767  31.491  1.00  0.00     0.031 C 
ATOM     43  C   UNL A   1      38.800  29.655  27.759  1.00  0.00     0.029 A 
ATOM     44  C   UNL A   1      38.844  30.042  29.169  1.00  0.00     0.049 A 
ATOM     45  H   UNL A   1      40.240  29.455  30.597  1.00  0.00     0.167 HD
ATOM     46  C   UNL A   1      43.224  28.050  33.512  1.00  0.00     0.037 A 
ATOM     47  C   UNL A   1      37.981  30.865  29.792  1.00  0.00     0.037 A 
ATOM     48  C   UNL A   1      42.399  28.976  34.238  1.00  0.00     0.049 A 
ATOM     49  C   UNL A   1      38.193  31.185  31.248  1.00  0.00     0.074 A 
ATOM     50  C   UNL A   1      42.509  29.384  35.555  1.00  0.00     0.029 A 
ATOM     51  N   UNL A   1      41.302  29.635  33.702  1.00  0.00    -0.354 N 
ATOM     52  N   UNL A   1      39.131  30.763  32.062  1.00  0.00    -0.248 NA
ATOM     53  C   UNL A   1      37.234  32.109  31.870  1.00  0.00     0.031 C 
ATOM     54  C   UNL A   1      41.458  30.266  35.826  1.00  0.00     0.029 A 
ATOM     55  C   UNL A   1      40.717  30.437  34.665  1.00  0.00     0.049 A 
ATOM     56  H   UNL A   1      40.987  29.544  32.774  1.00  0.00     0.167 HD
ATOM     57  C   UNL A   1      38.890  31.386  33.280  1.00  0.00     0.074 A 
ATOM     58  C   UNL A   1      37.728  32.229  33.093  1.00  0.00     0.031 C 
ATOM     59  C   UNL A   1      39.563  31.270  34.451  1.00  0.00     0.037 A 
BRANCH  46  60
ATOM     60  C   UNL A   1      44.380  27.408  34.216  1.00  0.00     0.057 A 
ATOM     61  C   UNL A   1      44.240  26.183  34.885  1.00  0.00     0.134 A 
ATOM     62  C   UNL A   1      45.645  28.005  34.216  1.00  0.00     0.134 A 
ATOM     63  F   UNL A   1      43.048  25.571  34.939  1.00  0.00    -0.206 F 
ATOM     64  C   UNL A   1      45.316  25.585  35.541  1.00  0.00     0.040 A 
ATOM     65  C   UNL A   1      46.734  27.406  34.851  1.00  0.00     0.040 A 
ATOM     66  F   UNL A   1      45.844  29.179  33.598  1.00  0.00    -0.206 F 
ATOM     67  C   UNL A   1      46.570  26.194  35.520  1.00  0.00     0.006 A 
ENDBRANCH  46  60
BRANCH  47  68
ATOM     68  C   UNL A   1      36.835  31.449  29.052  1.00  0.00     0.057 A 
ATOM     69  C   UNL A   1      36.847  32.782  28.627  1.00  0.00     0.134 A 
ATOM     70  C   UNL A   1      35.682  30.699  28.788  1.00  0.00     0.134 A 
ATOM     71  F   UNL A   1      37.913  33.559  28.871  1.00  0.00    -0.206 F 
ATOM     72  C   UNL A   1      35.745  33.358  27.990  1.00  0.00     0.040 A 
ATOM     73  C   UNL A   1      34.583  31.254  28.132  1.00  0.00     0.040 A 
ATOM     74  F   UNL A   1      35.608  29.415  29.169  1.00  0.00    -0.206 F 
ATOM     75  C   UNL A   1      34.609  32.591  27.739  1.00  0.00     0.006 A 
ENDBRANCH  47  68
BRANCH  59  76
ATOM     76  C   UNL A   1      39.072  32.095  35.604  1.00  0.00     0.057 A 
ATOM     77  C   UNL A   1      38.255  31.551  36.603  1.00  0.00     0.134 A 
ATOM     78  C   UNL A   1      39.444  33.439  35.729  1.00  0.00     0.134 A 
ATOM     79  F   UNL A   1      37.856  30.272  36.533  1.00  0.00    -0.206 F 
ATOM     80  C   UNL A   1      37.802  32.325  37.672  1.00  0.00     0.040 A 
ATOM     81  C   UNL A   1      39.018  34.215  36.806  1.00  0.00     0.040 A 
ATOM     82  F   UNL A   1      40.235  34.016  34.810  1.00  0.00    -0.206 F 
ATOM     83  C   UNL A   1      38.187  33.660  37.778  1.00  0.00     0.006 A 
ENDBRANCH  59  76
ENDBRANCH  33  34
ENDBRANCH  26  28
ENDBRANCH  25  26
ENDBRANCH  24  25
ENDBRANCH   1  24
TORSDOF 14
ENDMDL
MODEL 2
REMARK VINA RESULT:     -11.9      4.939     10.249
REMARK SMILES O=C(CCC(=O)N1CCC(c2nnc3ccccn23)CC1)OCCOC(=O)c1ccc(-c2c3nc(c(-c4c(F)cccc4F)c4ccc([nH]4)c(-c4c(F)cccc4F)c4nc(c(-c5c(F)cccc5F)c5ccc2[nH]5)C=C4)C=C3)cc1
REMARK SMILES IDX 23 1 22 2 2 3 1 4 3 5 4 6 5 7 6 8 7 9 8 10 21 11 9 12 20 13
REMARK SMILES IDX 10 14 11 15 12 16 19 17 13 18 14 19 18 20 15 21 17 22 16 23
REMARK SMILES IDX 24 24 25 25 26 26 27 27 28 28 29 29 81 30 30 31 80 32 31 33
REMARK SMILES IDX 32 34 33 35 74 36 34 37 79 38 73 39 75 40 35 41 78 42 72 43
REMARK SMILES IDX 71 44 36 46 62 47 45 48 61 49 46 50 49 51 60 52 76 53 47 54
REMARK SMILES IDX 48 55 59 57 77 58 50 59 37 60 38 61 43 62 39 63 40 64 42 65
REMARK SMILES IDX 44 66 41 67 63 68 64 69 69 70 65 71 66 72 68 73 70 74 67 75
REMARK SMILES IDX 51 76 52 77 57 78 53 79 54 80 56 81 58 82 55 83
REMARK H PARENT 75 45 49 56
REMARK Flexibility Score: inf
ROOT
ATOM      1  C   UNL A   1      33.873  34.678  32.348  1.00  0.00     0.274 C 
ENDROOT
BRANCH   1   2
ATOM      2  O   UNL A   1      34.490  34.539  31.044  1.00  0.00    -0.462 OA
BRANCH   2   3
ATOM      3  C   UNL A   1      33.861  34.348  29.868  1.00  0.00     0.306 C 
ATOM      4  O   UNL A   1      32.755  34.846  29.665  1.00  0.00    -0.252 OA
BRANCH   3   5
ATOM      5  C   UNL A   1      34.604  33.690  28.747  1.00  0.00     0.132 C 
BRANCH   5   6
ATOM      6  C   UNL A   1      33.643  32.783  28.001  1.00  0.00     0.112 C 
BRANCH   6   7
ATOM      7  C   UNL A   1      34.298  31.475  27.619  1.00  0.00     0.223 C 
ATOM      8  O   UNL A   1      35.528  31.390  27.634  1.00  0.00    -0.275 OA
ATOM      9  N   UNL A   1      33.490  30.393  27.320  1.00  0.00    -0.343 N 
ATOM     10  C   UNL A   1      34.064  29.063  27.422  1.00  0.00     0.120 C 
ATOM     11  C   UNL A   1      32.165  30.441  26.689  1.00  0.00     0.120 C 
ATOM     12  C   UNL A   1      34.214  28.450  26.044  1.00  0.00     0.033 C 
ATOM     13  C   UNL A   1      32.205  29.792  25.292  1.00  0.00     0.033 C 
ATOM     14  C   UNL A   1      32.849  28.395  25.334  1.00  0.00     0.062 C 
BRANCH  14  15
ATOM     15  C   UNL A   1      33.039  27.792  23.976  1.00  0.00     0.140 A 
ATOM     16  N   UNL A   1      33.657  28.326  22.940  1.00  0.00    -0.134 NA
ATOM     17  N   UNL A   1      32.699  26.487  23.676  1.00  0.00    -0.286 N 
ATOM     18  N   UNL A   1      33.756  27.369  21.952  1.00  0.00    -0.130 NA
ATOM     19  C   UNL A   1      33.204  26.264  22.404  1.00  0.00     0.160 A 
ATOM     20  C   UNL A   1      32.047  25.507  24.424  1.00  0.00     0.095 A 
ATOM     21  C   UNL A   1      33.061  24.957  21.862  1.00  0.00     0.050 A 
ATOM     22  C   UNL A   1      31.907  24.274  23.909  1.00  0.00     0.019 A 
ATOM     23  C   UNL A   1      32.444  24.000  22.584  1.00  0.00     0.005 A 
ENDBRANCH  14  15
ENDBRANCH   6   7
ENDBRANCH   5   6
ENDBRANCH   3   5
ENDBRANCH   2   3
ENDBRANCH   1   2
BRANCH   1  24
ATOM     24  C   UNL A   1      34.097  33.380  33.122  1.00  0.00     0.275 C 
BRANCH  24  25
ATOM     25  O   UNL A   1      35.151  32.663  32.456  1.00  0.00    -0.458 OA
BRANCH  25  26
ATOM     26  C   UNL A   1      36.240  32.398  33.223  1.00  0.00     0.338 C 
ATOM     27  O   UNL A   1      36.359  32.574  34.418  1.00  0.00    -0.246 OA
BRANCH  26  28
ATOM     28  C   UNL A   1      37.212  31.652  32.388  1.00  0.00     0.060 A 
ATOM     29  C   UNL A   1      38.166  30.858  33.037  1.00  0.00     0.016 A 
ATOM     30  C   UNL A   1      37.166  31.701  30.990  1.00  0.00     0.016 A 
ATOM     31  C   UNL A   1      39.107  30.150  32.291  1.00  0.00     0.010 A 
ATOM     32  C   UNL A   1      38.107  30.994  30.244  1.00  0.00     0.010 A 
ATOM     33  C   UNL A   1      39.105  30.250  30.894  1.00  0.00    -0.014 A 
BRANCH  33  34
ATOM     34  C   UNL A   1      40.264  29.758  30.122  1.00  0.00     0.031 A 
ATOM     35  C   UNL A   1      41.388  30.720  29.854  1.00  0.00     0.074 A 
ATOM     36  C   UNL A   1      40.317  28.494  29.675  1.00  0.00     0.049 A 
ATOM     37  N   UNL A   1      42.501  30.532  29.194  1.00  0.00    -0.248 NA
ATOM     38  C   UNL A   1      41.231  32.079  30.399  1.00  0.00     0.031 C 
ATOM     39  C   UNL A   1      39.288  27.476  29.881  1.00  0.00     0.029 A 
ATOM     40  N   UNL A   1      41.284  27.854  28.942  1.00  0.00    -0.354 N 
ATOM     41  C   UNL A   1      43.181  31.742  29.261  1.00  0.00     0.074 A 
ATOM     42  C   UNL A   1      42.338  32.671  29.979  1.00  0.00     0.031 C 
ATOM     43  C   UNL A   1      39.672  26.340  29.271  1.00  0.00     0.029 A 
ATOM     44  C   UNL A   1      40.967  26.557  28.627  1.00  0.00     0.049 A 
ATOM     45  H   UNL A   1      42.125  28.285  28.666  1.00  0.00     0.167 HD
ATOM     46  C   UNL A   1      44.410  32.047  28.782  1.00  0.00     0.037 A 
ATOM     47  C   UNL A   1      41.647  25.657  27.893  1.00  0.00     0.037 A 
ATOM     48  C   UNL A   1      45.239  31.127  28.053  1.00  0.00     0.049 A 
ATOM     49  C   UNL A   1      42.990  26.036  27.326  1.00  0.00     0.074 A 
ATOM     50  C   UNL A   1      46.497  31.335  27.518  1.00  0.00     0.029 A 
ATOM     51  N   UNL A   1      44.883  29.821  27.751  1.00  0.00    -0.354 N 
ATOM     52  N   UNL A   1      43.642  27.169  27.428  1.00  0.00    -0.248 NA
ATOM     53  C   UNL A   1      43.698  25.005  26.554  1.00  0.00     0.031 C 
ATOM     54  C   UNL A   1      46.890  30.163  26.863  1.00  0.00     0.029 A 
ATOM     55  C   UNL A   1      45.892  29.213  27.026  1.00  0.00     0.049 A 
ATOM     56  H   UNL A   1      44.037  29.390  28.014  1.00  0.00     0.167 HD
ATOM     57  C   UNL A   1      44.844  26.980  26.755  1.00  0.00     0.074 A 
ATOM     58  C   UNL A   1      44.837  25.617  26.266  1.00  0.00     0.031 C 
ATOM     59  C   UNL A   1      45.861  27.853  26.555  1.00  0.00     0.037 A 
BRANCH  46  60
ATOM     60  C   UNL A   1      44.919  33.432  29.038  1.00  0.00     0.057 A 
ATOM     61  C   UNL A   1      45.699  33.728  30.164  1.00  0.00     0.134 A 
ATOM     62  C   UNL A   1      44.644  34.476  28.148  1.00  0.00     0.134 A 
ATOM     63  F   UNL A   1      45.980  32.775  31.066  1.00  0.00    -0.206 F 
ATOM     64  C   UNL A   1      46.174  35.018  30.403  1.00  0.00     0.040 A 
ATOM     65  C   UNL A   1      45.131  35.766  28.365  1.00  0.00     0.040 A 
ATOM     66  F   UNL A   1      43.899  34.259  27.053  1.00  0.00    -0.206 F 
ATOM     67  C   UNL A   1      45.895  36.040  29.498  1.00  0.00     0.006 A 
ENDBRANCH  46  60
BRANCH  47  68
ATOM     68  C   UNL A   1      41.079  24.308  27.646  1.00  0.00     0.057 A 
ATOM     69  C   UNL A   1      41.564  23.180  28.319  1.00  0.00     0.134 A 
ATOM     70  C   UNL A   1      40.066  24.108  26.700  1.00  0.00     0.134 A 
ATOM     71  F   UNL A   1      42.551  23.304  29.219  1.00  0.00    -0.206 F 
ATOM     72  C   UNL A   1      41.082  21.899  28.043  1.00  0.00     0.040 A 
ATOM     73  C   UNL A   1      39.558  22.836  26.431  1.00  0.00     0.040 A 
ATOM     74  F   UNL A   1      39.558  25.147  26.022  1.00  0.00    -0.206 F 
ATOM     75  C   UNL A   1      40.073  21.726  27.097  1.00  0.00     0.006 A 
ENDBRANCH  47  68
BRANCH  59  76
ATOM     76  C   UNL A   1      47.054  27.348  25.799  1.00  0.00     0.057 A 
ATOM     77  C   UNL A   1      47.189  27.545  24.419  1.00  0.00     0.134 A 
ATOM     78  C   UNL A   1      48.089  26.681  26.464  1.00  0.00     0.134 A 
ATOM     79  F   UNL A   1      46.225  28.168  23.724  1.00  0.00    -0.206 F 
ATOM     80  C   UNL A   1      48.301  27.072  23.722  1.00  0.00     0.040 A 
ATOM     81  C   UNL A   1      49.217  26.225  25.783  1.00  0.00     0.040 A 
ATOM     82  F   UNL A   1      48.025  26.470  27.788  1.00  0.00    -0.206 F 
ATOM     83  C   UNL A   1      49.322  26.414  24.406  1.00  0.00     0.006 A 
ENDBRANCH  59  76
ENDBRANCH  33  34
ENDBRANCH  26  28
ENDBRANCH  25  26
ENDBRANCH  24  25
ENDBRANCH   1  24
TORSDOF 14
ENDMDL
MODEL 3
REMARK VINA RESULT:     -11.7      1.083      1.822
REMARK SMILES O=C(CCC(=O)N1CCC(c2nnc3ccccn23)CC1)OCCOC(=O)c1ccc(-c2c3nc(c(-c4c(F)cccc4F)c4ccc([nH]4)c(-c4c(F)cccc4F)c4nc(c(-c5c(F)cccc5F)c5ccc2[nH]5)C=C4)C=C3)cc1
REMARK SMILES IDX 23 1 22 2 2 3 1 4 3 5 4 6 5 7 6 8 7 9 8 10 21 11 9 12 20 13
REMARK SMILES IDX 10 14 11 15 12 16 19 17 13 18 14 19 18 20 15 21 17 22 16 23
REMARK SMILES IDX 24 24 25 25 26 26 27 27 28 28 29 29 81 30 30 31 80 32 31 33
REMARK SMILES IDX 32 34 33 35 74 36 34 37 79 38 73 39 75 40 35 41 78 42 72 43
REMARK SMILES IDX 71 44 36 46 62 47 45 48 61 49 46 50 49 51 60 52 76 53 47 54
REMARK SMILES IDX 48 55 59 57 77 58 50 59 37 60 38 61 43 62 39 63 40 64 42 65
REMARK SMILES IDX 44 66 41 67 63 68 64 69 69 70 65 71 66 72 68 73 70 74 67 75
REMARK SMILES IDX 51 76 52 77 57 78 53 79 54 80 56 81 58 82 55 83
REMARK H PARENT 75 45 49 56
REMARK Flexibility Score: inf
ROOT
ATOM      1  C   UNL A   1      43.222  21.237  26.077  1.00  0.00     0.274 C 
ENDROOT
BRANCH   1   2
ATOM      2  O   UNL A   1      41.820  21.590  25.986  1.00  0.00    -0.462 OA
BRANCH   2   3
ATOM      3  C   UNL A   1      40.798  21.019  26.652  1.00  0.00     0.306 C 
ATOM      4  O   UNL A   1      40.810  20.958  27.880  1.00  0.00    -0.252 OA
BRANCH   3   5
ATOM      5  C   UNL A   1      39.564  20.635  25.895  1.00  0.00     0.132 C 
BRANCH   5   6
ATOM      6  C   UNL A   1      38.568  21.777  25.987  1.00  0.00     0.112 C 
BRANCH   6   7
ATOM      7  C   UNL A   1      37.343  21.515  25.141  1.00  0.00     0.223 C 
ATOM      8  O   UNL A   1      37.408  20.690  24.227  1.00  0.00    -0.275 OA
ATOM      9  N   UNL A   1      36.167  22.170  25.459  1.00  0.00    -0.343 N 
ATOM     10  C   UNL A   1      34.918  21.595  24.991  1.00  0.00     0.120 C 
ATOM     11  C   UNL A   1      36.045  23.515  26.034  1.00  0.00     0.120 C 
ATOM     12  C   UNL A   1      34.307  22.475  23.919  1.00  0.00     0.033 C 
ATOM     13  C   UNL A   1      35.384  24.477  25.029  1.00  0.00     0.033 C 
ATOM     14  C   UNL A   1      34.077  23.897  24.464  1.00  0.00     0.062 C 
BRANCH  14  15
ATOM     15  C   UNL A   1      33.480  24.736  23.376  1.00  0.00     0.140 A 
ATOM     16  N   UNL A   1      33.635  24.590  22.073  1.00  0.00    -0.134 NA
ATOM     17  N   UNL A   1      32.540  25.720  23.611  1.00  0.00    -0.286 N 
ATOM     18  N   UNL A   1      32.776  25.459  21.433  1.00  0.00    -0.130 NA
ATOM     19  C   UNL A   1      32.107  26.116  22.354  1.00  0.00     0.160 A 
ATOM     20  C   UNL A   1      32.025  26.241  24.798  1.00  0.00     0.095 A 
ATOM     21  C   UNL A   1      31.066  27.085  22.295  1.00  0.00     0.050 A 
ATOM     22  C   UNL A   1      31.046  27.160  24.741  1.00  0.00     0.019 A 
ATOM     23  C   UNL A   1      30.553  27.582  23.439  1.00  0.00     0.005 A 
ENDBRANCH  14  15
ENDBRANCH   6   7
ENDBRANCH   5   6
ENDBRANCH   3   5
ENDBRANCH   2   3
ENDBRANCH   1   2
BRANCH   1  24
ATOM     24  C   UNL A   1      43.979  22.006  24.996  1.00  0.00     0.275 C 
BRANCH  24  25
ATOM     25  O   UNL A   1      43.352  23.294  24.871  1.00  0.00    -0.458 OA
BRANCH  25  26
ATOM     26  C   UNL A   1      44.154  24.355  25.146  1.00  0.00     0.338 C 
ATOM     27  O   UNL A   1      45.206  24.639  24.612  1.00  0.00    -0.246 OA
BRANCH  26  28
ATOM     28  C   UNL A   1      43.426  25.244  26.082  1.00  0.00     0.060 A 
ATOM     29  C   UNL A   1      43.904  26.548  26.261  1.00  0.00     0.016 A 
ATOM     30  C   UNL A   1      42.269  24.819  26.747  1.00  0.00     0.016 A 
ATOM     31  C   UNL A   1      43.258  27.413  27.141  1.00  0.00     0.010 A 
ATOM     32  C   UNL A   1      41.623  25.683  27.628  1.00  0.00     0.010 A 
ATOM     33  C   UNL A   1      42.140  26.969  27.858  1.00  0.00    -0.014 A 
BRANCH  33  34
ATOM     34  C   UNL A   1      41.638  27.760  28.999  1.00  0.00     0.031 A 
ATOM     35  C   UNL A   1      42.349  27.621  30.317  1.00  0.00     0.074 A 
ATOM     36  C   UNL A   1      40.583  28.580  28.869  1.00  0.00     0.049 A 
ATOM     37  N   UNL A   1      42.094  28.196  31.462  1.00  0.00    -0.248 NA
ATOM     38  C   UNL A   1      43.500  26.701  30.345  1.00  0.00     0.031 C 
ATOM     39  C   UNL A   1      39.822  28.796  27.640  1.00  0.00     0.029 A 
ATOM     40  N   UNL A   1      39.964  29.380  29.796  1.00  0.00    -0.354 N 
ATOM     41  C   UNL A   1      43.062  27.723  32.340  1.00  0.00     0.074 A 
ATOM     42  C   UNL A   1      43.877  26.776  31.612  1.00  0.00     0.031 C 
ATOM     43  C   UNL A   1      38.824  29.662  27.893  1.00  0.00     0.029 A 
ATOM     44  C   UNL A   1      38.874  30.050  29.302  1.00  0.00     0.049 A 
ATOM     45  H   UNL A   1      40.273  29.465  30.726  1.00  0.00     0.167 HD
ATOM     46  C   UNL A   1      43.266  28.061  33.634  1.00  0.00     0.037 A 
ATOM     47  C   UNL A   1      38.013  30.875  29.927  1.00  0.00     0.037 A 
ATOM     48  C   UNL A   1      42.444  28.989  34.361  1.00  0.00     0.049 A 
ATOM     49  C   UNL A   1      38.230  31.197  31.382  1.00  0.00     0.074 A 
ATOM     50  C   UNL A   1      42.558  29.399  35.677  1.00  0.00     0.029 A 
ATOM     51  N   UNL A   1      41.346  29.648  33.828  1.00  0.00    -0.354 N 
ATOM     52  N   UNL A   1      39.170  30.775  32.193  1.00  0.00    -0.248 NA
ATOM     53  C   UNL A   1      37.273  32.122  32.005  1.00  0.00     0.031 C 
ATOM     54  C   UNL A   1      41.509  30.282  35.950  1.00  0.00     0.029 A 
ATOM     55  C   UNL A   1      40.765  30.452  34.792  1.00  0.00     0.049 A 
ATOM     56  H   UNL A   1      41.027  29.556  32.900  1.00  0.00     0.167 HD
ATOM     57  C   UNL A   1      38.933  31.400  33.411  1.00  0.00     0.074 A 
ATOM     58  C   UNL A   1      37.771  32.244  33.227  1.00  0.00     0.031 C 
ATOM     59  C   UNL A   1      39.610  31.286  34.580  1.00  0.00     0.037 A 
BRANCH  46  60
ATOM     60  C   UNL A   1      44.423  27.420  34.335  1.00  0.00     0.057 A 
ATOM     61  C   UNL A   1      44.298  26.173  34.963  1.00  0.00     0.134 A 
ATOM     62  C   UNL A   1      45.677  28.040  34.372  1.00  0.00     0.134 A 
ATOM     63  F   UNL A   1      43.117  25.537  34.981  1.00  0.00    -0.206 F 
ATOM     64  C   UNL A   1      45.375  25.574  35.617  1.00  0.00     0.040 A 
ATOM     65  C   UNL A   1      46.768  27.441  35.004  1.00  0.00     0.040 A 
ATOM     66  F   UNL A   1      45.862  29.236  33.792  1.00  0.00    -0.206 F 
ATOM     67  C   UNL A   1      46.617  26.207  35.633  1.00  0.00     0.006 A 
ENDBRANCH  46  60
BRANCH  47  68
ATOM     68  C   UNL A   1      36.864  31.459  29.190  1.00  0.00     0.057 A 
ATOM     69  C   UNL A   1      35.748  30.684  28.853  1.00  0.00     0.134 A 
ATOM     70  C   UNL A   1      36.874  32.794  28.768  1.00  0.00     0.134 A 
ATOM     71  F   UNL A   1      35.691  29.392  29.207  1.00  0.00    -0.206 F 
ATOM     72  C   UNL A   1      34.694  31.208  28.101  1.00  0.00     0.040 A 
ATOM     73  C   UNL A   1      35.817  33.337  28.036  1.00  0.00     0.040 A 
ATOM     74  F   UNL A   1      37.913  33.588  29.059  1.00  0.00    -0.206 F 
ATOM     75  C   UNL A   1      34.727  32.540  27.692  1.00  0.00     0.006 A 
ENDBRANCH  47  68
BRANCH  59  76
ATOM     76  C   UNL A   1      39.124  32.112  35.733  1.00  0.00     0.057 A 
ATOM     77  C   UNL A   1      38.275  31.582  36.713  1.00  0.00     0.134 A 
ATOM     78  C   UNL A   1      39.531  33.443  35.878  1.00  0.00     0.134 A 
ATOM     79  F   UNL A   1      37.842  30.315  36.623  1.00  0.00    -0.206 F 
ATOM     80  C   UNL A   1      37.826  32.356  37.782  1.00  0.00     0.040 A 
ATOM     81  C   UNL A   1      39.108  34.220  36.956  1.00  0.00     0.040 A 
ATOM     82  F   UNL A   1      40.352  34.007  34.979  1.00  0.00    -0.206 F 
ATOM     83  C   UNL A   1      38.247  33.679  37.909  1.00  0.00     0.006 A 
ENDBRANCH  59  76
ENDBRANCH  33  34
ENDBRANCH  26  28
ENDBRANCH  25  26
ENDBRANCH  24  25
ENDBRANCH   1  24
TORSDOF 14
ENDMDL
