MODEL 1
REMARK VINA RESULT:     -11.9      0.000      0.000
REMARK SMILES O=C(CC1(CN2CC3(CCCCC3)CC2=O)CCCCC1)OCCOC(=O)c1ccc(-c2c3nc(c(-c4c(F)cccc4F)c4ccc([nH]4)c(-c4c(F)cccc4F)c4nc(c(-c5c(F)cccc5F)c5ccc2[nH]5)C=C4)C=C3)cc1
REMARK SMILES IDX 23 1 22 2 2 3 1 4 3 5 4 6 17 7 21 8 18 9 20 10 19 11 5 12
REMARK SMILES IDX 6 13 7 14 15 15 8 16 14 17 16 18 9 19 13 20 10 21 12 22
REMARK SMILES IDX 11 23 24 24 25 25 26 26 27 27 28 28 29 29 81 30 30 31 80 32
REMARK SMILES IDX 31 33 32 34 33 35 74 36 34 37 79 38 73 39 75 40 35 41 78 42
REMARK SMILES IDX 72 43 71 44 36 46 62 47 45 48 61 49 46 50 49 51 60 52 76 53
REMARK SMILES IDX 47 54 48 55 59 57 77 58 50 59 37 60 38 61 43 62 39 63 40 64
REMARK SMILES IDX 42 65 44 66 41 67 63 68 64 69 69 70 65 71 66 72 68 73 70 74
REMARK SMILES IDX 67 75 51 76 52 77 57 78 53 79 54 80 56 81 58 82 55 83
REMARK H PARENT 75 45 49 56
REMARK Flexibility Score: inf
ROOT
ATOM      1  C   UNL A   1      31.796  30.934  26.432  1.00  0.00     0.274 C 
ENDROOT
BRANCH   1   2
ATOM      2  O   UNL A   1      32.212  29.987  27.431  1.00  0.00    -0.462 OA
BRANCH   2   3
ATOM      3  C   UNL A   1      32.052  28.646  27.370  1.00  0.00     0.306 C 
ATOM      4  O   UNL A   1      31.105  28.119  27.954  1.00  0.00    -0.252 OA
BRANCH   3   5
ATOM      5  C   UNL A   1      33.087  27.786  26.661  1.00  0.00     0.131 C 
BRANCH   5   6
ATOM      6  C   UNL A   1      32.893  27.483  25.146  1.00  0.00    -0.002 C 
ATOM      7  C   UNL A   1      31.477  27.934  24.642  1.00  0.00     0.009 C 
ATOM      8  C   UNL A   1      33.934  28.304  24.331  1.00  0.00     0.009 C 
ATOM      9  C   UNL A   1      31.319  27.968  23.115  1.00  0.00     0.001 C 
ATOM     10  C   UNL A   1      33.741  28.364  22.822  1.00  0.00     0.001 C 
ATOM     11  C   UNL A   1      32.359  28.879  22.481  1.00  0.00     0.000 C 
BRANCH   6  12
ATOM     12  C   UNL A   1      32.953  25.918  24.967  1.00  0.00     0.127 C 
BRANCH  12  13
ATOM     13  N   UNL A   1      32.986  24.952  26.080  1.00  0.00    -0.342 N 
ATOM     14  C   UNL A   1      33.937  23.887  26.297  1.00  0.00     0.127 C 
ATOM     15  C   UNL A   1      31.717  24.462  26.500  1.00  0.00     0.223 C 
ATOM     16  C   UNL A   1      33.126  22.626  25.964  1.00  0.00    -0.003 C 
ATOM     17  C   UNL A   1      31.857  22.966  26.773  1.00  0.00     0.109 C 
ATOM     18  O   UNL A   1      30.667  25.083  26.515  1.00  0.00    -0.275 OA
ATOM     19  C   UNL A   1      32.840  22.591  24.445  1.00  0.00     0.009 C 
ATOM     20  C   UNL A   1      33.848  21.338  26.394  1.00  0.00     0.009 C 
ATOM     21  C   UNL A   1      32.181  21.324  23.939  1.00  0.00     0.001 C 
ATOM     22  C   UNL A   1      33.278  20.052  25.776  1.00  0.00     0.001 C 
ATOM     23  C   UNL A   1      33.073  20.146  24.267  1.00  0.00     0.000 C 
ENDBRANCH  12  13
ENDBRANCH   6  12
ENDBRANCH   5   6
ENDBRANCH   3   5
ENDBRANCH   2   3
ENDBRANCH   1   2
BRANCH   1  24
ATOM     24  C   UNL A   1      31.586  32.348  26.973  1.00  0.00     0.275 C 
BRANCH  24  25
ATOM     25  O   UNL A   1      32.765  33.152  26.814  1.00  0.00    -0.458 OA
BRANCH  25  26
ATOM     26  C   UNL A   1      33.191  33.755  27.958  1.00  0.00     0.338 C 
ATOM     27  O   UNL A   1      32.595  34.581  28.609  1.00  0.00    -0.246 OA
BRANCH  26  28
ATOM     28  C   UNL A   1      34.459  33.125  28.393  1.00  0.00     0.060 A 
ATOM     29  C   UNL A   1      34.393  31.859  28.992  1.00  0.00     0.016 A 
ATOM     30  C   UNL A   1      35.688  33.767  28.232  1.00  0.00     0.016 A 
ATOM     31  C   UNL A   1      35.553  31.249  29.471  1.00  0.00     0.010 A 
ATOM     32  C   UNL A   1      36.846  33.164  28.726  1.00  0.00     0.010 A 
ATOM     33  C   UNL A   1      36.778  31.918  29.379  1.00  0.00    -0.014 A 
BRANCH  33  34
ATOM     34  C   UNL A   1      37.966  31.441  30.124  1.00  0.00     0.031 A 
ATOM     35  C   UNL A   1      38.829  30.387  29.494  1.00  0.00     0.074 A 
ATOM     36  C   UNL A   1      38.246  31.877  31.363  1.00  0.00     0.049 A 
ATOM     37  N   UNL A   1      39.823  29.710  30.006  1.00  0.00    -0.248 NA
ATOM     38  C   UNL A   1      38.522  30.052  28.095  1.00  0.00     0.031 C 
ATOM     39  C   UNL A   1      37.533  32.935  32.066  1.00  0.00     0.029 A 
ATOM     40  N   UNL A   1      39.190  31.444  32.262  1.00  0.00    -0.354 N 
ATOM     41  C   UNL A   1      40.266  28.875  28.992  1.00  0.00     0.074 A 
ATOM     42  C   UNL A   1      39.405  29.098  27.850  1.00  0.00     0.031 C 
ATOM     43  C   UNL A   1      38.015  33.023  33.319  1.00  0.00     0.029 A 
ATOM     44  C   UNL A   1      39.056  32.014  33.504  1.00  0.00     0.049 A 
ATOM     45  H   UNL A   1      39.893  30.791  32.039  1.00  0.00     0.167 HD
ATOM     46  C   UNL A   1      41.305  28.008  29.005  1.00  0.00     0.037 A 
ATOM     47  C   UNL A   1      39.675  31.727  34.666  1.00  0.00     0.037 A 
ATOM     48  C   UNL A   1      42.152  27.772  30.142  1.00  0.00     0.049 A 
ATOM     49  C   UNL A   1      40.753  30.677  34.699  1.00  0.00     0.074 A 
ATOM     50  C   UNL A   1      43.254  26.941  30.239  1.00  0.00     0.029 A 
ATOM     51  N   UNL A   1      41.979  28.356  31.388  1.00  0.00    -0.354 N 
ATOM     52  N   UNL A   1      41.201  29.923  33.724  1.00  0.00    -0.248 NA
ATOM     53  C   UNL A   1      41.421  30.446  35.988  1.00  0.00     0.031 C 
ATOM     54  C   UNL A   1      43.714  26.980  31.561  1.00  0.00     0.029 A 
ATOM     55  C   UNL A   1      42.930  27.875  32.272  1.00  0.00     0.049 A 
ATOM     56  H   UNL A   1      41.283  29.016  31.610  1.00  0.00     0.167 HD
ATOM     57  C   UNL A   1      42.233  29.165  34.269  1.00  0.00     0.074 A 
ATOM     58  C   UNL A   1      42.333  29.538  35.664  1.00  0.00     0.031 C 
ATOM     59  C   UNL A   1      43.032  28.258  33.658  1.00  0.00     0.037 A 
BRANCH  46  60
ATOM     60  C   UNL A   1      41.551  27.231  27.748  1.00  0.00     0.057 A 
ATOM     61  C   UNL A   1      42.352  27.733  26.713  1.00  0.00     0.134 A 
ATOM     62  C   UNL A   1      40.959  25.977  27.560  1.00  0.00     0.134 A 
ATOM     63  F   UNL A   1      42.930  28.940  26.826  1.00  0.00    -0.206 F 
ATOM     64  C   UNL A   1      42.529  27.030  25.522  1.00  0.00     0.040 A 
ATOM     65  C   UNL A   1      41.150  25.252  26.383  1.00  0.00     0.040 A 
ATOM     66  F   UNL A   1      40.181  25.440  28.511  1.00  0.00    -0.206 F 
ATOM     67  C   UNL A   1      41.928  25.783  25.355  1.00  0.00     0.006 A 
ENDBRANCH  46  60
BRANCH  47  68
ATOM     68  C   UNL A   1      39.266  32.436  35.903  1.00  0.00     0.057 A 
ATOM     69  C   UNL A   1      38.331  31.885  36.784  1.00  0.00     0.134 A 
ATOM     70  C   UNL A   1      39.810  33.684  36.232  1.00  0.00     0.134 A 
ATOM     71  F   UNL A   1      37.758  30.705  36.507  1.00  0.00    -0.206 F 
ATOM     72  C   UNL A   1      37.942  32.554  37.946  1.00  0.00     0.040 A 
ATOM     73  C   UNL A   1      39.445  34.356  37.400  1.00  0.00     0.040 A 
ATOM     74  F   UNL A   1      40.711  34.266  35.427  1.00  0.00    -0.206 F 
ATOM     75  C   UNL A   1      38.504  33.791  38.259  1.00  0.00     0.006 A 
ENDBRANCH  47  68
BRANCH  59  76
ATOM     76  C   UNL A   1      44.127  27.631  34.471  1.00  0.00     0.057 A 
ATOM     77  C   UNL A   1      43.964  26.397  35.113  1.00  0.00     0.134 A 
ATOM     78  C   UNL A   1      45.388  28.239  34.549  1.00  0.00     0.134 A 
ATOM     79  F   UNL A   1      42.779  25.769  35.087  1.00  0.00    -0.206 F 
ATOM     80  C   UNL A   1      45.013  25.795  35.811  1.00  0.00     0.040 A 
ATOM     81  C   UNL A   1      46.450  27.635  35.223  1.00  0.00     0.040 A 
ATOM     82  F   UNL A   1      45.614  29.416  33.948  1.00  0.00    -0.206 F 
ATOM     83  C   UNL A   1      46.263  26.409  35.858  1.00  0.00     0.006 A 
ENDBRANCH  59  76
ENDBRANCH  33  34
ENDBRANCH  26  28
ENDBRANCH  25  26
ENDBRANCH  24  25
ENDBRANCH   1  24
TORSDOF 14
ENDMDL
MODEL 2
REMARK VINA RESULT:     -11.9      4.805      9.083
REMARK SMILES O=C(CC1(CN2CC3(CCCCC3)CC2=O)CCCCC1)OCCOC(=O)c1ccc(-c2c3nc(c(-c4c(F)cccc4F)c4ccc([nH]4)c(-c4c(F)cccc4F)c4nc(c(-c5c(F)cccc5F)c5ccc2[nH]5)C=C4)C=C3)cc1
REMARK SMILES IDX 23 1 22 2 2 3 1 4 3 5 4 6 17 7 21 8 18 9 20 10 19 11 5 12
REMARK SMILES IDX 6 13 7 14 15 15 8 16 14 17 16 18 9 19 13 20 10 21 12 22
REMARK SMILES IDX 11 23 24 24 25 25 26 26 27 27 28 28 29 29 81 30 30 31 80 32
REMARK SMILES IDX 31 33 32 34 33 35 74 36 34 37 79 38 73 39 75 40 35 41 78 42
REMARK SMILES IDX 72 43 71 44 36 46 62 47 45 48 61 49 46 50 49 51 60 52 76 53
REMARK SMILES IDX 47 54 48 55 59 57 77 58 50 59 37 60 38 61 43 62 39 63 40 64
REMARK SMILES IDX 42 65 44 66 41 67 63 68 64 69 69 70 65 71 66 72 68 73 70 74
REMARK SMILES IDX 67 75 51 76 52 77 57 78 53 79 54 80 56 81 58 82 55 83
REMARK H PARENT 75 45 49 56
REMARK Flexibility Score: inf
ROOT
ATOM      1  C   UNL A   1      37.824  19.698  24.787  1.00  0.00     0.274 C 
ENDROOT
BRANCH   1   2
ATOM      2  O   UNL A   1      37.756  21.126  24.629  1.00  0.00    -0.462 OA
BRANCH   2   3
ATOM      3  C   UNL A   1      37.469  22.020  25.602  1.00  0.00     0.306 C 
ATOM      4  O   UNL A   1      38.339  22.801  25.986  1.00  0.00    -0.252 OA
BRANCH   3   5
ATOM      5  C   UNL A   1      36.109  21.997  26.281  1.00  0.00     0.131 C 
BRANCH   5   6
ATOM      6  C   UNL A   1      34.939  22.795  25.633  1.00  0.00    -0.002 C 
ATOM      7  C   UNL A   1      33.820  23.134  26.680  1.00  0.00     0.009 C 
ATOM      8  C   UNL A   1      35.485  24.156  25.113  1.00  0.00     0.009 C 
ATOM      9  C   UNL A   1      32.797  24.179  26.211  1.00  0.00     0.001 C 
ATOM     10  C   UNL A   1      34.458  25.199  24.691  1.00  0.00     0.001 C 
ATOM     11  C   UNL A   1      33.487  25.477  25.819  1.00  0.00     0.000 C 
BRANCH   6  12
ATOM     12  C   UNL A   1      34.272  21.859  24.554  1.00  0.00     0.127 C 
BRANCH  12  13
ATOM     13  N   UNL A   1      33.096  21.005  24.803  1.00  0.00    -0.342 N 
ATOM     14  C   UNL A   1      32.950  19.973  25.803  1.00  0.00     0.127 C 
ATOM     15  C   UNL A   1      32.419  20.547  23.637  1.00  0.00     0.223 C 
ATOM     16  C   UNL A   1      33.019  18.680  24.978  1.00  0.00    -0.003 C 
ATOM     17  C   UNL A   1      32.036  19.086  23.860  1.00  0.00     0.109 C 
ATOM     18  O   UNL A   1      32.279  21.158  22.591  1.00  0.00    -0.275 OA
ATOM     19  C   UNL A   1      34.455  18.496  24.436  1.00  0.00     0.009 C 
ATOM     20  C   UNL A   1      32.602  17.445  25.795  1.00  0.00     0.009 C 
ATOM     21  C   UNL A   1      34.718  17.182  23.731  1.00  0.00     0.001 C 
ATOM     22  C   UNL A   1      32.989  16.101  25.160  1.00  0.00     0.001 C 
ATOM     23  C   UNL A   1      34.442  16.048  24.695  1.00  0.00     0.000 C 
ENDBRANCH  12  13
ENDBRANCH   6  12
ENDBRANCH   5   6
ENDBRANCH   3   5
ENDBRANCH   2   3
ENDBRANCH   1   2
BRANCH   1  24
ATOM     24  C   UNL A   1      38.956  19.232  25.702  1.00  0.00     0.275 C 
BRANCH  24  25
ATOM     25  O   UNL A   1      40.240  19.427  25.090  1.00  0.00    -0.458 OA
BRANCH  25  26
ATOM     26  C   UNL A   1      41.285  19.423  25.963  1.00  0.00     0.338 C 
ATOM     27  O   UNL A   1      42.057  18.515  26.167  1.00  0.00    -0.246 OA
BRANCH  26  28
ATOM     28  C   UNL A   1      41.446  20.781  26.531  1.00  0.00     0.060 A 
ATOM     29  C   UNL A   1      41.822  21.817  25.664  1.00  0.00     0.016 A 
ATOM     30  C   UNL A   1      41.247  21.034  27.889  1.00  0.00     0.016 A 
ATOM     31  C   UNL A   1      42.043  23.102  26.161  1.00  0.00     0.010 A 
ATOM     32  C   UNL A   1      41.484  22.316  28.388  1.00  0.00     0.010 A 
ATOM     33  C   UNL A   1      41.916  23.347  27.532  1.00  0.00    -0.014 A 
BRANCH  33  34
ATOM     34  C   UNL A   1      42.417  24.606  28.132  1.00  0.00     0.031 A 
ATOM     35  C   UNL A   1      41.442  25.723  28.363  1.00  0.00     0.074 A 
ATOM     36  C   UNL A   1      43.718  24.790  28.407  1.00  0.00     0.049 A 
ATOM     37  N   UNL A   1      41.664  26.958  28.729  1.00  0.00    -0.248 NA
ATOM     38  C   UNL A   1      40.024  25.399  28.146  1.00  0.00     0.031 C 
ATOM     39  C   UNL A   1      44.757  23.775  28.289  1.00  0.00     0.029 A 
ATOM     40  N   UNL A   1      44.388  25.921  28.805  1.00  0.00    -0.354 N 
ATOM     41  C   UNL A   1      40.416  27.557  28.795  1.00  0.00     0.074 A 
ATOM     42  C   UNL A   1      39.445  26.564  28.388  1.00  0.00     0.031 C 
ATOM     43  C   UNL A   1      45.949  24.347  28.537  1.00  0.00     0.029 A 
ATOM     44  C   UNL A   1      45.752  25.768  28.813  1.00  0.00     0.049 A 
ATOM     45  H   UNL A   1      43.935  26.758  29.061  1.00  0.00     0.167 HD
ATOM     46  C   UNL A   1      40.102  28.818  29.174  1.00  0.00     0.037 A 
ATOM     47  C   UNL A   1      46.730  26.680  28.983  1.00  0.00     0.037 A 
ATOM     48  C   UNL A   1      41.065  29.812  29.563  1.00  0.00     0.049 A 
ATOM     49  C   UNL A   1      46.374  28.110  29.290  1.00  0.00     0.074 A 
ATOM     50  C   UNL A   1      40.840  31.106  29.999  1.00  0.00     0.029 A 
ATOM     51  N   UNL A   1      42.439  29.627  29.546  1.00  0.00    -0.354 N 
ATOM     52  N   UNL A   1      45.189  28.660  29.398  1.00  0.00    -0.248 NA
ATOM     53  C   UNL A   1      47.489  29.043  29.511  1.00  0.00     0.031 C 
ATOM     54  C   UNL A   1      42.082  31.722  30.192  1.00  0.00     0.029 A 
ATOM     55  C   UNL A   1      43.078  30.795  29.926  1.00  0.00     0.049 A 
ATOM     56  H   UNL A   1      42.893  28.788  29.300  1.00  0.00     0.167 HD
ATOM     57  C   UNL A   1      45.414  29.988  29.747  1.00  0.00     0.074 A 
ATOM     58  C   UNL A   1      46.849  30.165  29.816  1.00  0.00     0.031 C 
ATOM     59  C   UNL A   1      44.508  30.963  30.004  1.00  0.00     0.037 A 
BRANCH  46  60
ATOM     60  C   UNL A   1      38.651  29.189  29.148  1.00  0.00     0.057 A 
ATOM     61  C   UNL A   1      38.029  29.658  27.982  1.00  0.00     0.134 A 
ATOM     62  C   UNL A   1      37.873  29.098  30.307  1.00  0.00     0.134 A 
ATOM     63  F   UNL A   1      38.727  29.786  26.843  1.00  0.00    -0.206 F 
ATOM     64  C   UNL A   1      36.693  30.057  27.980  1.00  0.00     0.040 A 
ATOM     65  C   UNL A   1      36.528  29.470  30.312  1.00  0.00     0.040 A 
ATOM     66  F   UNL A   1      38.408  28.657  31.455  1.00  0.00    -0.206 F 
ATOM     67  C   UNL A   1      35.937  29.960  29.148  1.00  0.00     0.006 A 
ENDBRANCH  46  60
BRANCH  47  68
ATOM     68  C   UNL A   1      48.146  26.262  28.841  1.00  0.00     0.057 A 
ATOM     69  C   UNL A   1      48.805  26.326  27.611  1.00  0.00     0.134 A 
ATOM     70  C   UNL A   1      48.873  25.793  29.943  1.00  0.00     0.134 A 
ATOM     71  F   UNL A   1      48.151  26.742  26.516  1.00  0.00    -0.206 F 
ATOM     72  C   UNL A   1      50.137  25.928  27.475  1.00  0.00     0.040 A 
ATOM     73  C   UNL A   1      50.211  25.411  29.826  1.00  0.00     0.040 A 
ATOM     74  F   UNL A   1      48.297  25.707  31.151  1.00  0.00    -0.206 F 
ATOM     75  C   UNL A   1      50.845  25.475  28.587  1.00  0.00     0.006 A 
ENDBRANCH  47  68
BRANCH  59  76
ATOM     76  C   UNL A   1      45.027  32.304  30.434  1.00  0.00     0.057 A 
ATOM     77  C   UNL A   1      45.320  32.594  31.772  1.00  0.00     0.134 A 
ATOM     78  C   UNL A   1      45.305  33.293  29.481  1.00  0.00     0.134 A 
ATOM     79  F   UNL A   1      45.066  31.694  32.734  1.00  0.00    -0.206 F 
ATOM     80  C   UNL A   1      45.865  33.823  32.148  1.00  0.00     0.040 A 
ATOM     81  C   UNL A   1      45.872  34.517  29.842  1.00  0.00     0.040 A 
ATOM     82  F   UNL A   1      45.056  33.077  28.181  1.00  0.00    -0.206 F 
ATOM     83  C   UNL A   1      46.152  34.785  31.180  1.00  0.00     0.006 A 
ENDBRANCH  59  76
ENDBRANCH  33  34
ENDBRANCH  26  28
ENDBRANCH  25  26
ENDBRANCH  24  25
ENDBRANCH   1  24
TORSDOF 14
ENDMDL
MODEL 3
REMARK VINA RESULT:     -11.8      1.564      7.149
REMARK SMILES O=C(CC1(CN2CC3(CCCCC3)CC2=O)CCCCC1)OCCOC(=O)c1ccc(-c2c3nc(c(-c4c(F)cccc4F)c4ccc([nH]4)c(-c4c(F)cccc4F)c4nc(c(-c5c(F)cccc5F)c5ccc2[nH]5)C=C4)C=C3)cc1
REMARK SMILES IDX 23 1 22 2 2 3 1 4 3 5 4 6 17 7 21 8 18 9 20 10 19 11 5 12
REMARK SMILES IDX 6 13 7 14 15 15 8 16 14 17 16 18 9 19 13 20 10 21 12 22
REMARK SMILES IDX 11 23 24 24 25 25 26 26 27 27 28 28 29 29 81 30 30 31 80 32
REMARK SMILES IDX 31 33 32 34 33 35 74 36 34 37 79 38 73 39 75 40 35 41 78 42
REMARK SMILES IDX 72 43 71 44 36 46 62 47 45 48 61 49 46 50 49 51 60 52 76 53
REMARK SMILES IDX 47 54 48 55 59 57 77 58 50 59 37 60 38 61 43 62 39 63 40 64
REMARK SMILES IDX 42 65 44 66 41 67 63 68 64 69 69 70 65 71 66 72 68 73 70 74
REMARK SMILES IDX 67 75 51 76 52 77 57 78 53 79 54 80 56 81 58 82 55 83
REMARK H PARENT 75 45 49 56
REMARK Flexibility Score: inf
ROOT
ATOM      1  C   UNL A   1      31.388  32.294  26.906  1.00  0.00     0.274 C 
ENDROOT
BRANCH   1   2
ATOM      2  O   UNL A   1      31.740  31.213  26.026  1.00  0.00    -0.462 OA
BRANCH   2   3
ATOM      3  C   UNL A   1      32.550  30.174  26.328  1.00  0.00     0.306 C 
ATOM      4  O   UNL A   1      32.742  29.874  27.506  1.00  0.00    -0.252 OA
BRANCH   3   5
ATOM      5  C   UNL A   1      33.293  29.441  25.222  1.00  0.00     0.131 C 
BRANCH   5   6
ATOM      6  C   UNL A   1      32.935  27.951  24.944  1.00  0.00    -0.002 C 
ATOM      7  C   UNL A   1      33.570  27.444  23.601  1.00  0.00     0.009 C 
ATOM      8  C   UNL A   1      33.536  27.069  26.077  1.00  0.00     0.009 C 
ATOM      9  C   UNL A   1      33.538  25.921  23.410  1.00  0.00     0.001 C 
ATOM     10  C   UNL A   1      33.536  25.563  25.856  1.00  0.00     0.001 C 
ATOM     11  C   UNL A   1      34.238  25.214  24.561  1.00  0.00     0.000 C 
BRANCH   6  12
ATOM     12  C   UNL A   1      31.372  27.869  24.758  1.00  0.00     0.127 C 
BRANCH  12  13
ATOM     13  N   UNL A   1      30.685  27.882  23.453  1.00  0.00    -0.342 N 
ATOM     14  C   UNL A   1      30.816  28.856  22.395  1.00  0.00     0.127 C 
ATOM     15  C   UNL A   1      29.318  27.486  23.481  1.00  0.00     0.223 C 
ATOM     16  C   UNL A   1      29.492  29.630  22.472  1.00  0.00    -0.003 C 
ATOM     17  C   UNL A   1      28.540  28.418  22.555  1.00  0.00     0.109 C 
ATOM     18  O   UNL A   1      28.820  26.644  24.209  1.00  0.00    -0.275 OA
ATOM     19  C   UNL A   1      29.465  30.467  23.772  1.00  0.00     0.009 C 
ATOM     20  C   UNL A   1      29.279  30.543  21.253  1.00  0.00     0.009 C 
ATOM     21  C   UNL A   1      28.286  31.406  23.912  1.00  0.00     0.001 C 
ATOM     22  C   UNL A   1      28.178  31.599  21.433  1.00  0.00     0.001 C 
ATOM     23  C   UNL A   1      28.288  32.370  22.745  1.00  0.00     0.000 C 
ENDBRANCH  12  13
ENDBRANCH   6  12
ENDBRANCH   5   6
ENDBRANCH   3   5
ENDBRANCH   2   3
ENDBRANCH   1   2
BRANCH   1  24
ATOM     24  C   UNL A   1      32.396  33.444  26.904  1.00  0.00     0.275 C 
BRANCH  24  25
ATOM     25  O   UNL A   1      32.465  34.083  28.187  1.00  0.00    -0.458 OA
BRANCH  25  26
ATOM     26  C   UNL A   1      33.628  34.753  28.419  1.00  0.00     0.338 C 
ATOM     27  O   UNL A   1      33.778  35.951  28.469  1.00  0.00    -0.246 OA
BRANCH  26  28
ATOM     28  C   UNL A   1      34.687  33.778  28.767  1.00  0.00     0.060 A 
ATOM     29  C   UNL A   1      34.294  32.542  29.301  1.00  0.00     0.016 A 
ATOM     30  C   UNL A   1      36.040  34.072  28.589  1.00  0.00     0.016 A 
ATOM     31  C   UNL A   1      35.256  31.613  29.699  1.00  0.00     0.010 A 
ATOM     32  C   UNL A   1      37.002  33.148  29.001  1.00  0.00     0.010 A 
ATOM     33  C   UNL A   1      36.614  31.930  29.590  1.00  0.00    -0.014 A 
BRANCH  33  34
ATOM     34  C   UNL A   1      37.646  31.104  30.259  1.00  0.00     0.031 A 
ATOM     35  C   UNL A   1      37.981  31.402  31.691  1.00  0.00     0.074 A 
ATOM     36  C   UNL A   1      38.327  30.151  29.601  1.00  0.00     0.049 A 
ATOM     37  N   UNL A   1      38.943  30.925  32.438  1.00  0.00    -0.248 NA
ATOM     38  C   UNL A   1      37.112  32.376  32.370  1.00  0.00     0.031 C 
ATOM     39  C   UNL A   1      38.065  29.719  28.235  1.00  0.00     0.029 A 
ATOM     40  N   UNL A   1      39.411  29.406  29.994  1.00  0.00    -0.354 N 
ATOM     41  C   UNL A   1      38.791  31.532  33.675  1.00  0.00     0.074 A 
ATOM     42  C   UNL A   1      37.673  32.446  33.566  1.00  0.00     0.031 C 
ATOM     43  C   UNL A   1      39.010  28.833  27.873  1.00  0.00     0.029 A 
ATOM     44  C   UNL A   1      39.949  28.655  28.978  1.00  0.00     0.049 A 
ATOM     45  H   UNL A   1      39.767  29.408  30.913  1.00  0.00     0.167 HD
ATOM     46  C   UNL A   1      39.508  31.339  34.805  1.00  0.00     0.037 A 
ATOM     47  C   UNL A   1      41.089  27.938  28.934  1.00  0.00     0.037 A 
ATOM     48  C   UNL A   1      40.629  30.444  34.913  1.00  0.00     0.049 A 
ATOM     49  C   UNL A   1      41.948  27.821  30.165  1.00  0.00     0.074 A 
ATOM     50  C   UNL A   1      41.395  30.152  36.027  1.00  0.00     0.029 A 
ATOM     51  N   UNL A   1      41.154  29.711  33.860  1.00  0.00    -0.354 N 
ATOM     52  N   UNL A   1      41.772  28.360  31.347  1.00  0.00    -0.248 NA
ATOM     53  C   UNL A   1      43.153  26.986  30.062  1.00  0.00     0.031 C 
ATOM     54  C   UNL A   1      42.420  29.284  35.635  1.00  0.00     0.029 A 
ATOM     55  C   UNL A   1      42.260  28.995  34.289  1.00  0.00     0.049 A 
ATOM     56  H   UNL A   1      40.794  29.700  32.944  1.00  0.00     0.167 HD
ATOM     57  C   UNL A   1      42.815  27.893  32.140  1.00  0.00     0.074 A 
ATOM     58  C   UNL A   1      43.628  27.040  31.300  1.00  0.00     0.031 C 
ATOM     59  C   UNL A   1      43.060  28.138  33.450  1.00  0.00     0.037 A 
BRANCH  46  60
ATOM     60  C   UNL A   1      39.109  32.144  36.004  1.00  0.00     0.057 A 
ATOM     61  C   UNL A   1      38.228  31.642  36.971  1.00  0.00     0.134 A 
ATOM     62  C   UNL A   1      39.593  33.445  36.180  1.00  0.00     0.134 A 
ATOM     63  F   UNL A   1      37.713  30.408  36.848  1.00  0.00    -0.206 F 
ATOM     64  C   UNL A   1      37.815  32.419  38.053  1.00  0.00     0.040 A 
ATOM     65  C   UNL A   1      39.208  34.223  37.272  1.00  0.00     0.040 A 
ATOM     66  F   UNL A   1      40.440  33.984  35.290  1.00  0.00    -0.206 F 
ATOM     67  C   UNL A   1      38.308  33.713  38.208  1.00  0.00     0.006 A 
ENDBRANCH  46  60
BRANCH  47  68
ATOM     68  C   UNL A   1      41.495  27.295  27.660  1.00  0.00     0.057 A 
ATOM     69  C   UNL A   1      41.181  25.961  27.385  1.00  0.00     0.134 A 
ATOM     70  C   UNL A   1      42.204  28.009  26.686  1.00  0.00     0.134 A 
ATOM     71  F   UNL A   1      40.527  25.221  28.292  1.00  0.00    -0.206 F 
ATOM     72  C   UNL A   1      41.567  25.354  26.189  1.00  0.00     0.040 A 
ATOM     73  C   UNL A   1      42.579  27.421  25.477  1.00  0.00     0.040 A 
ATOM     74  F   UNL A   1      42.535  29.293  26.891  1.00  0.00    -0.206 F 
ATOM     75  C   UNL A   1      42.263  26.086  25.228  1.00  0.00     0.006 A 
ENDBRANCH  47  68
BRANCH  59  76
ATOM     76  C   UNL A   1      44.228  27.440  34.086  1.00  0.00     0.057 A 
ATOM     77  C   UNL A   1      45.490  28.038  34.181  1.00  0.00     0.134 A 
ATOM     78  C   UNL A   1      44.062  26.180  34.676  1.00  0.00     0.134 A 
ATOM     79  F   UNL A   1      45.717  29.239  33.627  1.00  0.00    -0.206 F 
ATOM     80  C   UNL A   1      46.549  27.404  34.834  1.00  0.00     0.040 A 
ATOM     81  C   UNL A   1      45.107  25.547  35.352  1.00  0.00     0.040 A 
ATOM     82  F   UNL A   1      42.876  25.556  34.629  1.00  0.00    -0.206 F 
ATOM     83  C   UNL A   1      46.356  26.159  35.431  1.00  0.00     0.006 A 
ENDBRANCH  59  76
ENDBRANCH  33  34
ENDBRANCH  26  28
ENDBRANCH  25  26
ENDBRANCH  24  25
ENDBRANCH   1  24
TORSDOF 14
ENDMDL
