MODEL 1
REMARK VINA RESULT:     -12.8      0.000      0.000
REMARK SMILES C[C@H](NC(=O)c1cccc(NC(=O)c2ccccc2C(=O)OCCOC(=O)c2ccc(-c3c4nc(c(-c5c(F)cccc5F)c5ccc([nH]5)c(-c5c(F)cccc5F)c5nc(c(-c6c(F)cccc6F)c6ccc3[nH]6)C=C5)C=C4)cc2)c1)c1ccccc1
REMARK SMILES IDX 22 1 20 2 21 3 19 4 14 5 15 6 16 7 18 8 17 9 12 10 11 11
REMARK SMILES IDX 13 13 10 14 6 15 7 16 82 17 8 18 9 19 4 20 3 21 5 23 2 24
REMARK SMILES IDX 1 25 83 26 84 27 88 28 85 29 87 30 86 31 23 32 24 33 25 34
REMARK SMILES IDX 26 35 27 36 28 37 29 38 81 39 30 40 80 41 31 42 32 43 33 44
REMARK SMILES IDX 74 45 34 46 79 47 73 48 75 49 35 50 78 51 72 52 71 53 36 55
REMARK SMILES IDX 62 56 45 57 61 58 46 59 49 60 60 61 76 62 47 63 48 64 59 66
REMARK SMILES IDX 77 67 50 68 37 69 38 70 43 71 39 72 40 73 42 74 44 75 41 76
REMARK SMILES IDX 63 77 64 78 69 79 65 80 66 81 68 82 70 83 67 84 51 85 52 86
REMARK SMILES IDX 57 87 53 88 54 89 56 90 58 91 55 92
REMARK H PARENT 11 12 3 22 75 54 49 65
REMARK Flexibility Score: inf
ROOT
ATOM      1  O   UNL A   1      34.813  22.599  26.004  1.00  0.00    -0.458 OA
ENDROOT
BRANCH   1   2
ATOM      2  C   UNL A   1      33.530  22.304  26.326  1.00  0.00     0.339 C 
ATOM      3  O   UNL A   1      33.124  21.904  27.401  1.00  0.00    -0.246 OA
BRANCH   2   4
ATOM      4  C   UNL A   1      32.613  22.483  25.196  1.00  0.00     0.072 A 
ATOM      5  C   UNL A   1      31.497  23.315  25.289  1.00  0.00     0.054 A 
ATOM      6  C   UNL A   1      30.699  23.512  24.150  1.00  0.00     0.015 A 
ATOM      7  C   UNL A   1      31.067  22.964  22.916  1.00  0.00     0.001 A 
ATOM      8  C   UNL A   1      32.975  21.932  23.955  1.00  0.00     0.016 A 
ATOM      9  C   UNL A   1      32.215  22.185  22.816  1.00  0.00     0.001 A 
BRANCH   5  10
ATOM     10  C   UNL A   1      31.048  23.937  26.552  1.00  0.00     0.256 C 
ATOM     11  N   UNL A   1      31.457  25.173  27.009  1.00  0.00    -0.322 N 
ATOM     12  H   UNL A   1      31.174  25.353  27.934  1.00  0.00     0.170 HD
ATOM     13  O   UNL A   1      30.275  23.279  27.250  1.00  0.00    -0.269 OA
BRANCH  11  14
ATOM     14  C   UNL A   1      32.192  26.238  26.446  1.00  0.00     0.042 A 
ATOM     15  C   UNL A   1      32.182  28.589  25.767  1.00  0.00     0.041 A 
ATOM     16  C   UNL A   1      33.570  28.525  25.592  1.00  0.00     0.014 A 
ATOM     17  C   UNL A   1      31.491  27.431  26.158  1.00  0.00     0.040 A 
ATOM     18  C   UNL A   1      34.252  27.324  25.782  1.00  0.00     0.003 A 
ATOM     19  C   UNL A   1      33.560  26.178  26.181  1.00  0.00     0.026 A 
BRANCH  15  20
ATOM     20  C   UNL A   1      31.530  29.887  25.437  1.00  0.00     0.251 C 
ATOM     21  N   UNL A   1      30.679  30.082  24.374  1.00  0.00    -0.346 N 
ATOM     22  H   UNL A   1      30.281  30.982  24.347  1.00  0.00     0.164 HD
ATOM     23  O   UNL A   1      31.719  30.830  26.207  1.00  0.00    -0.269 OA
BRANCH  21  24
ATOM     24  C   UNL A   1      30.250  29.223  23.281  1.00  0.00     0.109 C 
ATOM     25  C   UNL A   1      29.638  29.994  22.128  1.00  0.00     0.036 C 
BRANCH  24  26
ATOM     26  C   UNL A   1      31.380  28.393  22.686  1.00  0.00    -0.026 A 
ATOM     27  C   UNL A   1      31.297  26.990  22.633  1.00  0.00     0.006 A 
ATOM     28  C   UNL A   1      32.607  29.005  22.383  1.00  0.00     0.006 A 
ATOM     29  C   UNL A   1      32.430  26.221  22.356  1.00  0.00     0.000 A 
ATOM     30  C   UNL A   1      33.735  28.232  22.096  1.00  0.00     0.000 A 
ATOM     31  C   UNL A   1      33.650  26.842  22.101  1.00  0.00     0.000 A 
ENDBRANCH  24  26
ENDBRANCH  21  24
ENDBRANCH  15  20
ENDBRANCH  11  14
ENDBRANCH   5  10
ENDBRANCH   2   4
ENDBRANCH   1   2
BRANCH   1  32
ATOM     32  C   UNL A   1      35.693  21.469  26.115  1.00  0.00     0.275 C 
BRANCH  32  33
ATOM     33  C   UNL A   1      36.522  21.146  24.875  1.00  0.00     0.275 C 
BRANCH  33  34
ATOM     34  O   UNL A   1      37.723  21.936  24.832  1.00  0.00    -0.458 OA
BRANCH  34  35
ATOM     35  C   UNL A   1      38.685  21.492  25.662  1.00  0.00     0.338 C 
ATOM     36  O   UNL A   1      39.202  20.383  25.675  1.00  0.00    -0.246 OA
BRANCH  35  37
ATOM     37  C   UNL A   1      39.150  22.551  26.558  1.00  0.00     0.060 A 
ATOM     38  C   UNL A   1      38.631  23.828  26.367  1.00  0.00     0.016 A 
ATOM     39  C   UNL A   1      40.285  22.358  27.337  1.00  0.00     0.016 A 
ATOM     40  C   UNL A   1      39.326  24.938  26.802  1.00  0.00     0.010 A 
ATOM     41  C   UNL A   1      40.927  23.473  27.875  1.00  0.00     0.010 A 
ATOM     42  C   UNL A   1      40.485  24.772  27.558  1.00  0.00    -0.014 A 
BRANCH  42  43
ATOM     43  C   UNL A   1      41.272  25.962  27.941  1.00  0.00     0.031 A 
ATOM     44  C   UNL A   1      40.622  27.037  28.762  1.00  0.00     0.074 A 
ATOM     45  C   UNL A   1      42.564  26.054  27.575  1.00  0.00     0.049 A 
ATOM     46  N   UNL A   1      41.034  28.252  29.005  1.00  0.00    -0.248 NA
ATOM     47  C   UNL A   1      39.322  26.709  29.375  1.00  0.00     0.031 C 
ATOM     48  C   UNL A   1      43.319  25.026  26.852  1.00  0.00     0.029 A 
ATOM     49  N   UNL A   1      43.471  27.065  27.752  1.00  0.00    -0.354 N 
ATOM     50  C   UNL A   1      40.018  28.855  29.736  1.00  0.00     0.074 A 
ATOM     51  C   UNL A   1      38.970  27.873  29.903  1.00  0.00     0.031 C 
ATOM     52  C   UNL A   1      44.573  25.456  26.653  1.00  0.00     0.029 A 
ATOM     53  C   UNL A   1      44.675  26.826  27.136  1.00  0.00     0.049 A 
ATOM     54  H   UNL A   1      43.279  27.882  28.268  1.00  0.00     0.167 HD
ATOM     55  C   UNL A   1      39.972  30.122  30.207  1.00  0.00     0.037 A 
ATOM     56  C   UNL A   1      45.717  27.647  26.919  1.00  0.00     0.037 A 
ATOM     57  C   UNL A   1      41.057  31.058  30.064  1.00  0.00     0.049 A 
ATOM     58  C   UNL A   1      45.620  29.061  27.409  1.00  0.00     0.074 A 
ATOM     59  C   UNL A   1      41.137  32.362  30.519  1.00  0.00     0.029 A 
ATOM     60  N   UNL A   1      42.257  30.780  29.424  1.00  0.00    -0.354 N 
ATOM     61  N   UNL A   1      44.639  29.647  28.055  1.00  0.00    -0.248 NA
ATOM     62  C   UNL A   1      46.764  29.935  27.130  1.00  0.00     0.031 C 
ATOM     63  C   UNL A   1      42.366  32.888  30.108  1.00  0.00     0.029 A 
ATOM     64  C   UNL A   1      43.076  31.894  29.453  1.00  0.00     0.049 A 
ATOM     65  H   UNL A   1      42.491  29.917  29.011  1.00  0.00     0.167 HD
ATOM     66  C   UNL A   1      45.058  30.949  28.282  1.00  0.00     0.074 A 
ATOM     67  C   UNL A   1      46.389  31.060  27.720  1.00  0.00     0.031 C 
ATOM     68  C   UNL A   1      44.403  31.966  28.896  1.00  0.00     0.037 A 
BRANCH  55  69
ATOM     69  C   UNL A   1      38.708  30.584  30.871  1.00  0.00     0.057 A 
ATOM     70  C   UNL A   1      37.662  31.186  30.162  1.00  0.00     0.134 A 
ATOM     71  C   UNL A   1      38.519  30.377  32.245  1.00  0.00     0.134 A 
ATOM     72  F   UNL A   1      37.782  31.431  28.848  1.00  0.00    -0.206 F 
ATOM     73  C   UNL A   1      36.480  31.576  30.797  1.00  0.00     0.040 A 
ATOM     74  C   UNL A   1      37.332  30.737  32.884  1.00  0.00     0.040 A 
ATOM     75  F   UNL A   1      39.481  29.805  32.986  1.00  0.00    -0.206 F 
ATOM     76  C   UNL A   1      36.309  31.343  32.160  1.00  0.00     0.006 A 
ENDBRANCH  55  69
BRANCH  56  77
ATOM     77  C   UNL A   1      46.894  27.171  26.149  1.00  0.00     0.057 A 
ATOM     78  C   UNL A   1      47.964  26.528  26.781  1.00  0.00     0.134 A 
ATOM     79  C   UNL A   1      46.982  27.351  24.761  1.00  0.00     0.134 A 
ATOM     80  F   UNL A   1      47.947  26.338  28.108  1.00  0.00    -0.206 F 
ATOM     81  C   UNL A   1      49.085  26.102  26.068  1.00  0.00     0.040 A 
ATOM     82  C   UNL A   1      48.081  26.900  24.031  1.00  0.00     0.040 A 
ATOM     83  F   UNL A   1      45.987  27.952  24.090  1.00  0.00    -0.206 F 
ATOM     84  C   UNL A   1      49.143  26.283  24.686  1.00  0.00     0.006 A 
ENDBRANCH  56  77
BRANCH  68  85
ATOM     85  C   UNL A   1      45.146  33.260  29.036  1.00  0.00     0.057 A 
ATOM     86  C   UNL A   1      45.992  33.517  30.121  1.00  0.00     0.134 A 
ATOM     87  C   UNL A   1      45.032  34.249  28.051  1.00  0.00     0.134 A 
ATOM     88  F   UNL A   1      46.129  32.616  31.105  1.00  0.00    -0.206 F 
ATOM     89  C   UNL A   1      46.678  34.726  30.236  1.00  0.00     0.040 A 
ATOM     90  C   UNL A   1      45.738  35.447  28.137  1.00  0.00     0.040 A 
ATOM     91  F   UNL A   1      44.244  34.058  26.980  1.00  0.00    -0.206 F 
ATOM     92  C   UNL A   1      46.558  35.691  29.237  1.00  0.00     0.006 A 
ENDBRANCH  68  85
ENDBRANCH  42  43
ENDBRANCH  35  37
ENDBRANCH  34  35
ENDBRANCH  33  34
ENDBRANCH  32  33
ENDBRANCH   1  32
TORSDOF 16
ENDMDL
MODEL 2
REMARK VINA RESULT:     -12.5      2.468      7.239
REMARK SMILES C[C@H](NC(=O)c1cccc(NC(=O)c2ccccc2C(=O)OCCOC(=O)c2ccc(-c3c4nc(c(-c5c(F)cccc5F)c5ccc([nH]5)c(-c5c(F)cccc5F)c5nc(c(-c6c(F)cccc6F)c6ccc3[nH]6)C=C5)C=C4)cc2)c1)c1ccccc1
REMARK SMILES IDX 22 1 20 2 21 3 19 4 14 5 15 6 16 7 18 8 17 9 12 10 11 11
REMARK SMILES IDX 13 13 10 14 6 15 7 16 82 17 8 18 9 19 4 20 3 21 5 23 2 24
REMARK SMILES IDX 1 25 83 26 84 27 88 28 85 29 87 30 86 31 23 32 24 33 25 34
REMARK SMILES IDX 26 35 27 36 28 37 29 38 81 39 30 40 80 41 31 42 32 43 33 44
REMARK SMILES IDX 74 45 34 46 79 47 73 48 75 49 35 50 78 51 72 52 71 53 36 55
REMARK SMILES IDX 62 56 45 57 61 58 46 59 49 60 60 61 76 62 47 63 48 64 59 66
REMARK SMILES IDX 77 67 50 68 37 69 38 70 43 71 39 72 40 73 42 74 44 75 41 76
REMARK SMILES IDX 63 77 64 78 69 79 65 80 66 81 68 82 70 83 67 84 51 85 52 86
REMARK SMILES IDX 57 87 53 88 54 89 56 90 58 91 55 92
REMARK H PARENT 11 12 3 22 75 54 49 65
REMARK Flexibility Score: inf
ROOT
ATOM      1  O   UNL A   1      32.634  30.184  26.074  1.00  0.00    -0.458 OA
ENDROOT
BRANCH   1   2
ATOM      2  C   UNL A   1      33.008  29.102  25.349  1.00  0.00     0.339 C 
ATOM      3  O   UNL A   1      34.103  28.572  25.345  1.00  0.00    -0.246 OA
BRANCH   2   4
ATOM      4  C   UNL A   1      31.931  28.606  24.485  1.00  0.00     0.072 A 
ATOM      5  C   UNL A   1      31.099  27.561  24.888  1.00  0.00     0.054 A 
ATOM      6  C   UNL A   1      30.033  27.182  24.054  1.00  0.00     0.015 A 
ATOM      7  C   UNL A   1      29.748  27.899  22.886  1.00  0.00     0.001 A 
ATOM      8  C   UNL A   1      31.643  29.319  23.310  1.00  0.00     0.016 A 
ATOM      9  C   UNL A   1      30.546  28.978  22.522  1.00  0.00     0.001 A 
BRANCH   5  10
ATOM     10  C   UNL A   1      31.326  26.762  26.109  1.00  0.00     0.256 C 
ATOM     11  N   UNL A   1      31.965  25.539  26.142  1.00  0.00    -0.322 N 
ATOM     12  H   UNL A   1      31.888  25.089  27.014  1.00  0.00     0.170 HD
ATOM     13  O   UNL A   1      30.880  27.220  27.162  1.00  0.00    -0.269 OA
BRANCH  11  14
ATOM     14  C   UNL A   1      32.705  24.790  25.204  1.00  0.00     0.042 A 
ATOM     15  C   UNL A   1      32.759  22.820  23.752  1.00  0.00     0.041 A 
ATOM     16  C   UNL A   1      33.916  23.323  23.144  1.00  0.00     0.014 A 
ATOM     17  C   UNL A   1      32.178  23.539  24.808  1.00  0.00     0.040 A 
ATOM     18  C   UNL A   1      34.495  24.508  23.596  1.00  0.00     0.003 A 
ATOM     19  C   UNL A   1      33.905  25.224  24.640  1.00  0.00     0.026 A 
BRANCH  15  20
ATOM     20  C   UNL A   1      32.278  21.495  23.272  1.00  0.00     0.251 C 
ATOM     21  N   UNL A   1      32.275  20.347  24.029  1.00  0.00    -0.346 N 
ATOM     22  H   UNL A   1      31.855  19.578  23.579  1.00  0.00     0.164 HD
ATOM     23  O   UNL A   1      31.792  21.443  22.140  1.00  0.00    -0.269 OA
BRANCH  21  24
ATOM     24  C   UNL A   1      32.770  20.042  25.362  1.00  0.00     0.109 C 
ATOM     25  C   UNL A   1      32.858  18.553  25.634  1.00  0.00     0.036 C 
BRANCH  24  26
ATOM     26  C   UNL A   1      34.159  20.606  25.635  1.00  0.00    -0.026 A 
ATOM     27  C   UNL A   1      34.343  21.671  26.536  1.00  0.00     0.006 A 
ATOM     28  C   UNL A   1      35.239  20.216  24.828  1.00  0.00     0.006 A 
ATOM     29  C   UNL A   1      35.552  22.369  26.574  1.00  0.00     0.000 A 
ATOM     30  C   UNL A   1      36.450  20.911  24.876  1.00  0.00     0.000 A 
ATOM     31  C   UNL A   1      36.599  21.998  25.735  1.00  0.00     0.000 A 
ENDBRANCH  24  26
ENDBRANCH  21  24
ENDBRANCH  15  20
ENDBRANCH  11  14
ENDBRANCH   5  10
ENDBRANCH   2   4
ENDBRANCH   1   2
BRANCH   1  32
ATOM     32  C   UNL A   1      33.252  30.231  27.370  1.00  0.00     0.275 C 
BRANCH  32  33
ATOM     33  C   UNL A   1      33.895  31.560  27.753  1.00  0.00     0.275 C 
BRANCH  33  34
ATOM     34  O   UNL A   1      35.329  31.453  27.789  1.00  0.00    -0.458 OA
BRANCH  34  35
ATOM     35  C   UNL A   1      35.803  31.022  28.973  1.00  0.00     0.338 C 
ATOM     36  O   UNL A   1      35.384  31.302  30.088  1.00  0.00    -0.246 OA
BRANCH  35  37
ATOM     37  C   UNL A   1      36.886  30.055  28.797  1.00  0.00     0.060 A 
ATOM     38  C   UNL A   1      37.472  29.530  29.944  1.00  0.00     0.016 A 
ATOM     39  C   UNL A   1      37.509  29.921  27.561  1.00  0.00     0.016 A 
ATOM     40  C   UNL A   1      38.754  29.022  29.906  1.00  0.00     0.010 A 
ATOM     41  C   UNL A   1      38.757  29.302  27.501  1.00  0.00     0.010 A 
ATOM     42  C   UNL A   1      39.412  28.906  28.683  1.00  0.00    -0.014 A 
BRANCH  42  43
ATOM     43  C   UNL A   1      40.817  28.447  28.661  1.00  0.00     0.031 A 
ATOM     44  C   UNL A   1      41.915  29.437  28.917  1.00  0.00     0.074 A 
ATOM     45  C   UNL A   1      41.091  27.147  28.441  1.00  0.00     0.049 A 
ATOM     46  N   UNL A   1      43.199  29.314  28.713  1.00  0.00    -0.248 NA
ATOM     47  C   UNL A   1      41.514  30.749  29.454  1.00  0.00     0.031 C 
ATOM     48  C   UNL A   1      40.095  26.085  28.269  1.00  0.00     0.029 A 
ATOM     49  N   UNL A   1      42.290  26.498  28.314  1.00  0.00    -0.354 N 
ATOM     50  C   UNL A   1      43.749  30.551  29.029  1.00  0.00     0.074 A 
ATOM     51  C   UNL A   1      42.663  31.410  29.443  1.00  0.00     0.031 C 
ATOM     52  C   UNL A   1      40.724  24.919  28.065  1.00  0.00     0.029 A 
ATOM     53  C   UNL A   1      42.155  25.172  27.984  1.00  0.00     0.049 A 
ATOM     54  H   UNL A   1      43.161  26.939  28.445  1.00  0.00     0.167 HD
ATOM     55  C   UNL A   1      45.047  30.925  28.960  1.00  0.00     0.037 A 
ATOM     56  C   UNL A   1      43.078  24.279  27.587  1.00  0.00     0.037 A 
ATOM     57  C   UNL A   1      46.110  30.027  28.591  1.00  0.00     0.049 A 
ATOM     58  C   UNL A   1      44.503  24.733  27.472  1.00  0.00     0.074 A 
ATOM     59  C   UNL A   1      47.466  30.283  28.507  1.00  0.00     0.029 A 
ATOM     60  N   UNL A   1      45.931  28.692  28.253  1.00  0.00    -0.354 N 
ATOM     61  N   UNL A   1      45.016  25.915  27.720  1.00  0.00    -0.248 NA
ATOM     62  C   UNL A   1      45.476  23.738  27.010  1.00  0.00     0.031 C 
ATOM     63  C   UNL A   1      48.101  29.117  28.070  1.00  0.00     0.029 A 
ATOM     64  C   UNL A   1      47.149  28.117  27.941  1.00  0.00     0.049 A 
ATOM     65  H   UNL A   1      45.064  28.224  28.239  1.00  0.00     0.167 HD
ATOM     66  C   UNL A   1      46.374  25.800  27.469  1.00  0.00     0.074 A 
ATOM     67  C   UNL A   1      46.606  24.427  27.067  1.00  0.00     0.031 C 
ATOM     68  C   UNL A   1      47.346  26.742  27.558  1.00  0.00     0.037 A 
BRANCH  55  69
ATOM     69  C   UNL A   1      45.385  32.360  29.240  1.00  0.00     0.057 A 
ATOM     70  C   UNL A   1      45.366  33.346  28.246  1.00  0.00     0.134 A 
ATOM     71  C   UNL A   1      45.690  32.769  30.546  1.00  0.00     0.134 A 
ATOM     72  F   UNL A   1      45.099  33.023  26.971  1.00  0.00    -0.206 F 
ATOM     73  C   UNL A   1      45.650  34.683  28.538  1.00  0.00     0.040 A 
ATOM     74  C   UNL A   1      45.949  34.105  30.855  1.00  0.00     0.040 A 
ATOM     75  F   UNL A   1      45.727  31.876  31.548  1.00  0.00    -0.206 F 
ATOM     76  C   UNL A   1      45.933  35.066  29.848  1.00  0.00     0.006 A 
ENDBRANCH  55  69
BRANCH  56  77
ATOM     77  C   UNL A   1      42.668  22.903  27.205  1.00  0.00     0.057 A 
ATOM     78  C   UNL A   1      42.349  21.946  28.174  1.00  0.00     0.134 A 
ATOM     79  C   UNL A   1      42.591  22.509  25.862  1.00  0.00     0.134 A 
ATOM     80  F   UNL A   1      42.418  22.256  29.477  1.00  0.00    -0.206 F 
ATOM     81  C   UNL A   1      41.990  20.643  27.823  1.00  0.00     0.040 A 
ATOM     82  C   UNL A   1      42.200  21.221  25.496  1.00  0.00     0.040 A 
ATOM     83  F   UNL A   1      42.874  23.381  24.882  1.00  0.00    -0.206 F 
ATOM     84  C   UNL A   1      41.909  20.280  26.480  1.00  0.00     0.006 A 
ENDBRANCH  56  77
BRANCH  68  85
ATOM     85  C   UNL A   1      48.747  26.296  27.268  1.00  0.00     0.057 A 
ATOM     86  C   UNL A   1      49.314  26.411  25.993  1.00  0.00     0.134 A 
ATOM     87  C   UNL A   1      49.547  25.771  28.290  1.00  0.00     0.134 A 
ATOM     88  F   UNL A   1      48.593  26.890  24.968  1.00  0.00    -0.206 F 
ATOM     89  C   UNL A   1      50.621  25.993  25.739  1.00  0.00     0.040 A 
ATOM     90  C   UNL A   1      50.865  25.381  28.057  1.00  0.00     0.040 A 
ATOM     91  F   UNL A   1      49.065  25.644  29.537  1.00  0.00    -0.206 F 
ATOM     92  C   UNL A   1      51.401  25.484  26.775  1.00  0.00     0.006 A 
ENDBRANCH  68  85
ENDBRANCH  42  43
ENDBRANCH  35  37
ENDBRANCH  34  35
ENDBRANCH  33  34
ENDBRANCH  32  33
ENDBRANCH   1  32
TORSDOF 16
ENDMDL
MODEL 3
REMARK VINA RESULT:     -12.4      1.884      2.723
REMARK SMILES C[C@H](NC(=O)c1cccc(NC(=O)c2ccccc2C(=O)OCCOC(=O)c2ccc(-c3c4nc(c(-c5c(F)cccc5F)c5ccc([nH]5)c(-c5c(F)cccc5F)c5nc(c(-c6c(F)cccc6F)c6ccc3[nH]6)C=C5)C=C4)cc2)c1)c1ccccc1
REMARK SMILES IDX 22 1 20 2 21 3 19 4 14 5 15 6 16 7 18 8 17 9 12 10 11 11
REMARK SMILES IDX 13 13 10 14 6 15 7 16 82 17 8 18 9 19 4 20 3 21 5 23 2 24
REMARK SMILES IDX 1 25 83 26 84 27 88 28 85 29 87 30 86 31 23 32 24 33 25 34
REMARK SMILES IDX 26 35 27 36 28 37 29 38 81 39 30 40 80 41 31 42 32 43 33 44
REMARK SMILES IDX 74 45 34 46 79 47 73 48 75 49 35 50 78 51 72 52 71 53 36 55
REMARK SMILES IDX 62 56 45 57 61 58 46 59 49 60 60 61 76 62 47 63 48 64 59 66
REMARK SMILES IDX 77 67 50 68 37 69 38 70 43 71 39 72 40 73 42 74 44 75 41 76
REMARK SMILES IDX 63 77 64 78 69 79 65 80 66 81 68 82 70 83 67 84 51 85 52 86
REMARK SMILES IDX 57 87 53 88 54 89 56 90 58 91 55 92
REMARK H PARENT 11 12 3 22 75 54 49 65
REMARK Flexibility Score: inf
ROOT
ATOM      1  O   UNL A   1      36.260  20.171  24.965  1.00  0.00    -0.458 OA
ENDROOT
BRANCH   1   2
ATOM      2  C   UNL A   1      35.342  21.035  25.464  1.00  0.00     0.339 C 
ATOM      3  O   UNL A   1      35.360  21.562  26.561  1.00  0.00    -0.246 OA
BRANCH   2   4
ATOM      4  C   UNL A   1      34.234  21.276  24.533  1.00  0.00     0.072 A 
ATOM      5  C   UNL A   1      34.244  22.361  23.656  1.00  0.00     0.054 A 
ATOM      6  C   UNL A   1      33.196  22.496  22.731  1.00  0.00     0.015 A 
ATOM      7  C   UNL A   1      32.208  21.511  22.621  1.00  0.00     0.001 A 
ATOM      8  C   UNL A   1      33.238  20.292  24.421  1.00  0.00     0.016 A 
ATOM      9  C   UNL A   1      32.237  20.400  23.458  1.00  0.00     0.001 A 
BRANCH   5  10
ATOM     10  C   UNL A   1      35.255  23.437  23.702  1.00  0.00     0.256 C 
ATOM     11  N   UNL A   1      35.072  24.663  24.308  1.00  0.00    -0.322 N 
ATOM     12  H   UNL A   1      35.793  25.303  24.105  1.00  0.00     0.170 HD
ATOM     13  O   UNL A   1      36.323  23.220  23.127  1.00  0.00    -0.269 OA
BRANCH  11  14
ATOM     14  C   UNL A   1      34.082  25.206  25.154  1.00  0.00     0.042 A 
ATOM     15  C   UNL A   1      32.814  27.199  25.793  1.00  0.00     0.041 A 
ATOM     16  C   UNL A   1      31.967  26.391  26.562  1.00  0.00     0.014 A 
ATOM     17  C   UNL A   1      33.894  26.607  25.120  1.00  0.00     0.040 A 
ATOM     18  C   UNL A   1      32.207  25.022  26.676  1.00  0.00     0.003 A 
ATOM     19  C   UNL A   1      33.277  24.437  25.995  1.00  0.00     0.026 A 
BRANCH  15  20
ATOM     20  C   UNL A   1      32.541  28.663  25.822  1.00  0.00     0.251 C 
ATOM     21  N   UNL A   1      32.073  29.388  24.751  1.00  0.00    -0.346 N 
ATOM     22  H   UNL A   1      31.878  30.329  24.966  1.00  0.00     0.164 HD
ATOM     23  O   UNL A   1      32.685  29.246  26.898  1.00  0.00    -0.269 OA
BRANCH  21  24
ATOM     24  C   UNL A   1      31.810  29.042  23.363  1.00  0.00     0.109 C 
ATOM     25  C   UNL A   1      33.073  28.929  22.532  1.00  0.00     0.036 C 
BRANCH  24  26
ATOM     26  C   UNL A   1      31.073  27.719  23.199  1.00  0.00    -0.026 A 
ATOM     27  C   UNL A   1      29.858  27.480  23.865  1.00  0.00     0.006 A 
ATOM     28  C   UNL A   1      31.708  26.644  22.557  1.00  0.00     0.006 A 
ATOM     29  C   UNL A   1      29.332  26.189  23.945  1.00  0.00     0.000 A 
ATOM     30  C   UNL A   1      31.174  25.355  22.630  1.00  0.00     0.000 A 
ATOM     31  C   UNL A   1      29.998  25.125  23.340  1.00  0.00     0.000 A 
ENDBRANCH  24  26
ENDBRANCH  21  24
ENDBRANCH  15  20
ENDBRANCH  11  14
ENDBRANCH   5  10
ENDBRANCH   2   4
ENDBRANCH   1   2
BRANCH   1  32
ATOM     32  C   UNL A   1      37.586  20.720  24.934  1.00  0.00     0.275 C 
BRANCH  32  33
ATOM     33  C   UNL A   1      38.715  19.755  25.287  1.00  0.00     0.275 C 
BRANCH  33  34
ATOM     34  O   UNL A   1      39.651  20.360  26.197  1.00  0.00    -0.458 OA
BRANCH  34  35
ATOM     35  C   UNL A   1      40.906  19.896  26.058  1.00  0.00     0.338 C 
ATOM     36  O   UNL A   1      41.252  18.799  25.641  1.00  0.00    -0.246 OA
BRANCH  35  37
ATOM     37  C   UNL A   1      41.896  20.920  26.394  1.00  0.00     0.060 A 
ATOM     38  C   UNL A   1      42.190  21.113  27.740  1.00  0.00     0.016 A 
ATOM     39  C   UNL A   1      42.274  21.864  25.446  1.00  0.00     0.016 A 
ATOM     40  C   UNL A   1      42.704  22.315  28.179  1.00  0.00     0.010 A 
ATOM     41  C   UNL A   1      42.900  23.034  25.876  1.00  0.00     0.010 A 
ATOM     42  C   UNL A   1      43.061  23.291  27.251  1.00  0.00    -0.014 A 
BRANCH  42  43
ATOM     43  C   UNL A   1      43.525  24.609  27.733  1.00  0.00     0.031 A 
ATOM     44  C   UNL A   1      42.514  25.614  28.202  1.00  0.00     0.074 A 
ATOM     45  C   UNL A   1      44.843  24.880  27.771  1.00  0.00     0.049 A 
ATOM     46  N   UNL A   1      42.667  26.889  28.434  1.00  0.00    -0.248 NA
ATOM     47  C   UNL A   1      41.142  25.123  28.420  1.00  0.00     0.031 C 
ATOM     48  C   UNL A   1      45.915  23.942  27.422  1.00  0.00     0.029 A 
ATOM     49  N   UNL A   1      45.507  26.028  28.112  1.00  0.00    -0.354 N 
ATOM     50  C   UNL A   1      41.402  27.367  28.755  1.00  0.00     0.074 A 
ATOM     51  C   UNL A   1      40.492  26.246  28.694  1.00  0.00     0.031 C 
ATOM     52  C   UNL A   1      47.100  24.550  27.572  1.00  0.00     0.029 A 
ATOM     53  C   UNL A   1      46.865  25.944  27.921  1.00  0.00     0.049 A 
ATOM     54  H   UNL A   1      45.057  26.832  28.459  1.00  0.00     0.167 HD
ATOM     55  C   UNL A   1      41.045  28.636  29.058  1.00  0.00     0.037 A 
ATOM     56  C   UNL A   1      47.806  26.904  27.949  1.00  0.00     0.037 A 
ATOM     57  C   UNL A   1      41.988  29.720  29.158  1.00  0.00     0.049 A 
ATOM     58  C   UNL A   1      47.375  28.311  28.239  1.00  0.00     0.074 A 
ATOM     59  C   UNL A   1      41.750  31.044  29.480  1.00  0.00     0.029 A 
ATOM     60  N   UNL A   1      43.354  29.597  28.946  1.00  0.00    -0.354 N 
ATOM     61  N   UNL A   1      46.173  28.772  28.492  1.00  0.00    -0.248 NA
ATOM     62  C   UNL A   1      48.426  29.335  28.235  1.00  0.00     0.031 C 
ATOM     63  C   UNL A   1      42.965  31.731  29.412  1.00  0.00     0.029 A 
ATOM     64  C   UNL A   1      43.970  30.825  29.110  1.00  0.00     0.049 A 
ATOM     65  H   UNL A   1      43.817  28.759  28.714  1.00  0.00     0.167 HD
ATOM     66  C   UNL A   1      46.325  30.134  28.702  1.00  0.00     0.074 A 
ATOM     67  C   UNL A   1      47.740  30.419  28.564  1.00  0.00     0.031 C 
ATOM     68  C   UNL A   1      45.384  31.070  28.980  1.00  0.00     0.037 A 
BRANCH  55  69
ATOM     69  C   UNL A   1      39.587  28.933  29.253  1.00  0.00     0.057 A 
ATOM     70  C   UNL A   1      38.751  29.327  28.202  1.00  0.00     0.134 A 
ATOM     71  C   UNL A   1      39.001  28.773  30.517  1.00  0.00     0.134 A 
ATOM     72  F   UNL A   1      39.249  29.516  26.971  1.00  0.00    -0.206 F 
ATOM     73  C   UNL A   1      37.388  29.564  28.403  1.00  0.00     0.040 A 
ATOM     74  C   UNL A   1      37.636  28.981  30.724  1.00  0.00     0.040 A 
ATOM     75  F   UNL A   1      39.743  28.398  31.570  1.00  0.00    -0.206 F 
ATOM     76  C   UNL A   1      36.826  29.381  29.664  1.00  0.00     0.006 A 
ENDBRANCH  55  69
BRANCH  56  77
ATOM     77  C   UNL A   1      49.218  26.574  27.627  1.00  0.00     0.057 A 
ATOM     78  C   UNL A   1      50.126  26.217  28.629  1.00  0.00     0.134 A 
ATOM     79  C   UNL A   1      49.696  26.612  26.310  1.00  0.00     0.134 A 
ATOM     80  F   UNL A   1      49.735  26.177  29.911  1.00  0.00    -0.206 F 
ATOM     81  C   UNL A   1      51.461  25.933  28.338  1.00  0.00     0.040 A 
ATOM     82  C   UNL A   1      51.018  26.296  26.000  1.00  0.00     0.040 A 
ATOM     83  F   UNL A   1      48.875  26.937  25.299  1.00  0.00    -0.206 F 
ATOM     84  C   UNL A   1      51.909  25.967  27.018  1.00  0.00     0.006 A 
ENDBRANCH  56  77
BRANCH  68  85
ATOM     85  C   UNL A   1      45.869  32.470  29.206  1.00  0.00     0.057 A 
ATOM     86  C   UNL A   1      46.278  32.919  30.468  1.00  0.00     0.134 A 
ATOM     87  C   UNL A   1      45.954  33.369  28.137  1.00  0.00     0.134 A 
ATOM     88  F   UNL A   1      46.205  32.109  31.535  1.00  0.00    -0.206 F 
ATOM     89  C   UNL A   1      46.730  34.224  30.662  1.00  0.00     0.040 A 
ATOM     90  C   UNL A   1      46.434  34.666  28.312  1.00  0.00     0.040 A 
ATOM     91  F   UNL A   1      45.585  32.997  26.900  1.00  0.00    -0.206 F 
ATOM     92  C   UNL A   1      46.816  35.098  29.580  1.00  0.00     0.006 A 
ENDBRANCH  68  85
ENDBRANCH  42  43
ENDBRANCH  35  37
ENDBRANCH  34  35
ENDBRANCH  33  34
ENDBRANCH  32  33
ENDBRANCH   1  32
TORSDOF 16
ENDMDL
