MODEL 1
REMARK VINA RESULT:     -11.1      0.000      0.000
REMARK SMILES N#Cc1cc([N+](=O)[O-])cnc1Oc1csc(C(=O)OCCOC(=O)c2ccc(-c3c4nc(c(-c5c(F)cccc5F)c5ccc([nH]5)c(-c5c(F)cccc5F)c5nc(c(-c6c(F)cccc6F)c6ccc3[nH]6)C=C5)C=C4)cc2)c1
REMARK SMILES IDX 20 1 19 2 17 3 18 4 16 5 13 6 14 7 79 8 15 9 12 10 11 11
REMARK SMILES IDX 3 12 4 13 5 14 10 15 9 16 2 17 1 18 6 19 7 20 8 21 21 22
REMARK SMILES IDX 22 23 23 24 24 25 25 26 26 27 78 28 27 29 77 30 28 31 29 32
REMARK SMILES IDX 30 33 71 34 31 35 76 36 70 37 72 38 32 39 75 40 69 41 68 42
REMARK SMILES IDX 33 44 59 45 42 46 58 47 43 48 46 49 57 50 73 51 44 52 45 53
REMARK SMILES IDX 56 55 74 56 47 57 34 58 35 59 40 60 36 61 37 62 39 63 41 64
REMARK SMILES IDX 38 65 60 66 61 67 66 68 62 69 63 70 65 71 67 72 64 73 48 74
REMARK SMILES IDX 49 75 54 76 50 77 51 78 53 79 55 80 52 81
REMARK H PARENT 72 43 46 54
REMARK Flexibility Score: inf
ROOT
ATOM      1  C   UNL A   1      35.822  21.383  25.600  1.00  0.00     0.275 C 
ENDROOT
BRANCH   1   2
ATOM      2  O   UNL A   1      34.696  21.316  24.704  1.00  0.00    -0.458 OA
BRANCH   2   3
ATOM      3  C   UNL A   1      33.498  20.936  25.243  1.00  0.00     0.348 C 
ATOM      4  O   UNL A   1      33.284  19.833  25.733  1.00  0.00    -0.245 OA
BRANCH   3   5
ATOM      5  C   UNL A   1      32.559  22.045  25.191  1.00  0.00     0.116 A 
ATOM      6  C   UNL A   1      31.176  23.763  24.430  1.00  0.00     0.141 A 
ATOM      7  C   UNL A   1      31.217  24.053  25.773  1.00  0.00     0.112 A 
ATOM      8  C   UNL A   1      31.908  22.590  24.102  1.00  0.00     0.074 A 
ATOM      9  S   UNL A   1      32.134  22.885  26.632  1.00  0.00    -0.133 S 
BRANCH   6  10
ATOM     10  O   UNL A   1      30.464  24.432  23.500  1.00  0.00    -0.437 OA
BRANCH  10  11
ATOM     11  C   UNL A   1      30.434  25.794  23.352  1.00  0.00     0.237 A 
ATOM     12  C   UNL A   1      31.371  26.550  22.645  1.00  0.00     0.121 A 
ATOM     13  C   UNL A   1      31.069  27.894  22.368  1.00  0.00     0.112 A 
ATOM     14  C   UNL A   1      29.847  28.425  22.790  1.00  0.00     0.289 A 
ATOM     15  N   UNL A   1      29.256  26.321  23.783  1.00  0.00    -0.213 NA
ATOM     16  C   UNL A   1      28.981  27.617  23.501  1.00  0.00     0.200 A 
BRANCH  12  17
ATOM     17  C   UNL A   1      32.605  26.021  22.147  1.00  0.00     0.105 C 
ATOM     18  N   UNL A   1      33.571  25.581  21.689  1.00  0.00    -0.192 NA
ENDBRANCH  12  17
BRANCH  14  19
ATOM     19  N   UNL A   1      29.460  29.789  22.459  1.00  0.00     0.064 N 
ATOM     20  O   UNL A   1      29.250  30.056  21.269  1.00  0.00    -0.258 OA
ATOM     21  O   UNL A   1      29.378  30.600  23.392  1.00  0.00    -0.258 OA
ENDBRANCH  14  19
ENDBRANCH  10  11
ENDBRANCH   6  10
ENDBRANCH   3   5
ENDBRANCH   2   3
ENDBRANCH   1   2
BRANCH   1  22
ATOM     22  C   UNL A   1      37.007  20.545  25.104  1.00  0.00     0.275 C 
BRANCH  22  23
ATOM     23  O   UNL A   1      38.214  21.323  25.000  1.00  0.00    -0.458 OA
BRANCH  23  24
ATOM     24  C   UNL A   1      39.154  21.014  25.925  1.00  0.00     0.338 C 
ATOM     25  O   UNL A   1      39.651  19.916  26.119  1.00  0.00    -0.246 OA
BRANCH  24  26
ATOM     26  C   UNL A   1      39.635  22.227  26.604  1.00  0.00     0.060 A 
ATOM     27  C   UNL A   1      39.066  23.437  26.209  1.00  0.00     0.016 A 
ATOM     28  C   UNL A   1      40.709  22.215  27.495  1.00  0.00     0.016 A 
ATOM     29  C   UNL A   1      39.588  24.643  26.657  1.00  0.00     0.010 A 
ATOM     30  C   UNL A   1      41.227  23.434  27.961  1.00  0.00     0.010 A 
ATOM     31  C   UNL A   1      40.692  24.659  27.517  1.00  0.00    -0.014 A 
BRANCH  31  32
ATOM     32  C   UNL A   1      41.330  25.965  27.836  1.00  0.00     0.031 A 
ATOM     33  C   UNL A   1      42.723  26.260  27.343  1.00  0.00     0.074 A 
ATOM     34  C   UNL A   1      40.635  26.921  28.481  1.00  0.00     0.049 A 
ATOM     35  N   UNL A   1      43.462  27.326  27.528  1.00  0.00    -0.248 NA
ATOM     36  C   UNL A   1      43.373  25.215  26.537  1.00  0.00     0.031 C 
ATOM     37  C   UNL A   1      39.262  26.783  28.969  1.00  0.00     0.029 A 
ATOM     38  N   UNL A   1      40.984  28.204  28.826  1.00  0.00    -0.354 N 
ATOM     39  C   UNL A   1      44.664  27.074  26.875  1.00  0.00     0.074 A 
ATOM     40  C   UNL A   1      44.572  25.737  26.330  1.00  0.00     0.031 C 
ATOM     41  C   UNL A   1      38.880  27.939  29.537  1.00  0.00     0.029 A 
ATOM     42  C   UNL A   1      39.996  28.879  29.503  1.00  0.00     0.049 A 
ATOM     43  H   UNL A   1      41.858  28.602  28.610  1.00  0.00     0.167 HD
ATOM     44  C   UNL A   1      45.738  27.888  26.727  1.00  0.00     0.037 A 
ATOM     45  C   UNL A   1      39.998  30.106  30.058  1.00  0.00     0.037 A 
ATOM     46  C   UNL A   1      45.822  29.224  27.259  1.00  0.00     0.049 A 
ATOM     47  C   UNL A   1      41.228  30.965  29.934  1.00  0.00     0.074 A 
ATOM     48  C   UNL A   1      46.873  30.122  27.176  1.00  0.00     0.029 A 
ATOM     49  N   UNL A   1      44.813  29.860  27.968  1.00  0.00    -0.354 N 
ATOM     50  N   UNL A   1      42.365  30.707  29.332  1.00  0.00    -0.248 NA
ATOM     51  C   UNL A   1      41.171  32.292  30.560  1.00  0.00     0.031 C 
ATOM     52  C   UNL A   1      46.518  31.280  27.875  1.00  0.00     0.029 A 
ATOM     53  C   UNL A   1      45.220  31.132  28.336  1.00  0.00     0.049 A 
ATOM     54  H   UNL A   1      43.936  29.464  28.177  1.00  0.00     0.167 HD
ATOM     55  C   UNL A   1      43.141  31.850  29.478  1.00  0.00     0.074 A 
ATOM     56  C   UNL A   1      42.337  32.809  30.205  1.00  0.00     0.031 C 
ATOM     57  C   UNL A   1      44.408  32.085  29.052  1.00  0.00     0.037 A 
BRANCH  44  58
ATOM     58  C   UNL A   1      46.919  27.344  25.972  1.00  0.00     0.057 A 
ATOM     59  C   UNL A   1      47.043  27.484  24.583  1.00  0.00     0.134 A 
ATOM     60  C   UNL A   1      47.962  26.696  26.648  1.00  0.00     0.134 A 
ATOM     61  F   UNL A   1      46.077  28.083  23.872  1.00  0.00    -0.206 F 
ATOM     62  C   UNL A   1      48.144  26.975  23.891  1.00  0.00     0.040 A 
ATOM     63  C   UNL A   1      49.083  26.210  25.972  1.00  0.00     0.040 A 
ATOM     64  F   UNL A   1      47.915  26.533  27.979  1.00  0.00    -0.206 F 
ATOM     65  C   UNL A   1      49.172  26.341  24.588  1.00  0.00     0.006 A 
ENDBRANCH  44  58
BRANCH  45  66
ATOM     66  C   UNL A   1      38.812  30.589  30.812  1.00  0.00     0.057 A 
ATOM     67  C   UNL A   1      38.664  30.347  32.183  1.00  0.00     0.134 A 
ATOM     68  C   UNL A   1      37.772  31.269  30.165  1.00  0.00     0.134 A 
ATOM     69  F   UNL A   1      39.612  29.680  32.858  1.00  0.00    -0.206 F 
ATOM     70  C   UNL A   1      37.514  30.734  32.875  1.00  0.00     0.040 A 
ATOM     71  C   UNL A   1      36.633  31.693  30.851  1.00  0.00     0.040 A 
ATOM     72  F   UNL A   1      37.851  31.536  28.854  1.00  0.00    -0.206 F 
ATOM     73  C   UNL A   1      36.496  31.414  32.209  1.00  0.00     0.006 A 
ENDBRANCH  45  66
BRANCH  57  74
ATOM     74  C   UNL A   1      44.972  33.454  29.308  1.00  0.00     0.057 A 
ATOM     75  C   UNL A   1      44.809  34.514  28.405  1.00  0.00     0.134 A 
ATOM     76  C   UNL A   1      45.696  33.715  30.479  1.00  0.00     0.134 A 
ATOM     77  F   UNL A   1      44.135  34.334  27.259  1.00  0.00    -0.206 F 
ATOM     78  C   UNL A   1      45.388  35.765  28.633  1.00  0.00     0.040 A 
ATOM     79  C   UNL A   1      46.249  34.970  30.736  1.00  0.00     0.040 A 
ATOM     80  F   UNL A   1      45.881  32.753  31.396  1.00  0.00    -0.206 F 
ATOM     81  C   UNL A   1      46.108  35.996  29.803  1.00  0.00     0.006 A 
ENDBRANCH  57  74
ENDBRANCH  31  32
ENDBRANCH  24  26
ENDBRANCH  23  24
ENDBRANCH  22  23
ENDBRANCH   1  22
TORSDOF 15
ENDMDL
MODEL 2
REMARK VINA RESULT:     -11.0      4.133      9.472
REMARK SMILES N#Cc1cc([N+](=O)[O-])cnc1Oc1csc(C(=O)OCCOC(=O)c2ccc(-c3c4nc(c(-c5c(F)cccc5F)c5ccc([nH]5)c(-c5c(F)cccc5F)c5nc(c(-c6c(F)cccc6F)c6ccc3[nH]6)C=C5)C=C4)cc2)c1
REMARK SMILES IDX 20 1 19 2 17 3 18 4 16 5 13 6 14 7 79 8 15 9 12 10 11 11
REMARK SMILES IDX 3 12 4 13 5 14 10 15 9 16 2 17 1 18 6 19 7 20 8 21 21 22
REMARK SMILES IDX 22 23 23 24 24 25 25 26 26 27 78 28 27 29 77 30 28 31 29 32
REMARK SMILES IDX 30 33 71 34 31 35 76 36 70 37 72 38 32 39 75 40 69 41 68 42
REMARK SMILES IDX 33 44 59 45 42 46 58 47 43 48 46 49 57 50 73 51 44 52 45 53
REMARK SMILES IDX 56 55 74 56 47 57 34 58 35 59 40 60 36 61 37 62 39 63 41 64
REMARK SMILES IDX 38 65 60 66 61 67 66 68 62 69 63 70 65 71 67 72 64 73 48 74
REMARK SMILES IDX 49 75 54 76 50 77 51 78 53 79 55 80 52 81
REMARK H PARENT 72 43 46 54
REMARK Flexibility Score: inf
ROOT
ATOM      1  C   UNL A   1      31.567  30.819  25.942  1.00  0.00     0.275 C 
ENDROOT
BRANCH   1   2
ATOM      2  O   UNL A   1      32.560  29.797  26.159  1.00  0.00    -0.458 OA
BRANCH   2   3
ATOM      3  C   UNL A   1      32.859  28.990  25.096  1.00  0.00     0.348 C 
ATOM      4  O   UNL A   1      33.218  29.405  24.000  1.00  0.00    -0.245 OA
BRANCH   3   5
ATOM      5  C   UNL A   1      32.738  27.595  25.484  1.00  0.00     0.116 A 
ATOM      6  C   UNL A   1      33.166  25.324  25.810  1.00  0.00     0.141 A 
ATOM      7  C   UNL A   1      31.820  25.366  26.089  1.00  0.00     0.112 A 
ATOM      8  C   UNL A   1      33.701  26.605  25.506  1.00  0.00     0.074 A 
ATOM      9  S   UNL A   1      31.218  26.970  25.995  1.00  0.00    -0.133 S 
BRANCH   6  10
ATOM     10  O   UNL A   1      33.954  24.233  25.888  1.00  0.00    -0.437 OA
BRANCH  10  11
ATOM     11  C   UNL A   1      33.588  22.962  25.529  1.00  0.00     0.237 A 
ATOM     12  C   UNL A   1      33.499  22.487  24.219  1.00  0.00     0.121 A 
ATOM     13  C   UNL A   1      33.361  21.103  24.022  1.00  0.00     0.112 A 
ATOM     14  C   UNL A   1      33.331  20.250  25.128  1.00  0.00     0.289 A 
ATOM     15  N   UNL A   1      33.533  22.131  26.606  1.00  0.00    -0.213 NA
ATOM     16  C   UNL A   1      33.405  20.799  26.393  1.00  0.00     0.200 A 
BRANCH  12  17
ATOM     17  C   UNL A   1      33.586  23.327  23.063  1.00  0.00     0.105 C 
ATOM     18  N   UNL A   1      33.593  23.997  22.120  1.00  0.00    -0.192 NA
ENDBRANCH  12  17
BRANCH  14  19
ATOM     19  N   UNL A   1      33.266  18.804  24.967  1.00  0.00     0.064 N 
ATOM     20  O   UNL A   1      34.266  18.228  24.520  1.00  0.00    -0.258 OA
ATOM     21  O   UNL A   1      32.206  18.244  25.278  1.00  0.00    -0.258 OA
ENDBRANCH  14  19
ENDBRANCH  10  11
ENDBRANCH   6  10
ENDBRANCH   3   5
ENDBRANCH   2   3
ENDBRANCH   1   2
BRANCH   1  22
ATOM     22  C   UNL A   1      31.617  31.911  27.017  1.00  0.00     0.275 C 
BRANCH  22  23
ATOM     23  O   UNL A   1      32.565  32.946  26.694  1.00  0.00    -0.458 OA
BRANCH  23  24
ATOM     24  C   UNL A   1      33.118  33.547  27.774  1.00  0.00     0.338 C 
ATOM     25  O   UNL A   1      32.598  34.396  28.480  1.00  0.00    -0.246 OA
BRANCH  24  26
ATOM     26  C   UNL A   1      34.416  32.937  28.103  1.00  0.00     0.060 A 
ATOM     27  C   UNL A   1      34.397  31.607  28.519  1.00  0.00     0.016 A 
ATOM     28  C   UNL A   1      35.603  33.670  28.147  1.00  0.00     0.016 A 
ATOM     29  C   UNL A   1      35.543  31.010  29.027  1.00  0.00     0.010 A 
ATOM     30  C   UNL A   1      36.766  33.062  28.645  1.00  0.00     0.010 A 
ATOM     31  C   UNL A   1      36.736  31.737  29.122  1.00  0.00    -0.014 A 
BRANCH  31  32
ATOM     32  C   UNL A   1      37.892  31.122  29.829  1.00  0.00     0.031 A 
ATOM     33  C   UNL A   1      38.130  31.426  31.285  1.00  0.00     0.074 A 
ATOM     34  C   UNL A   1      38.672  30.222  29.200  1.00  0.00     0.049 A 
ATOM     35  N   UNL A   1      39.087  31.010  32.077  1.00  0.00    -0.248 NA
ATOM     36  C   UNL A   1      37.162  32.322  31.939  1.00  0.00     0.031 C 
ATOM     37  C   UNL A   1      38.521  29.800  27.807  1.00  0.00     0.029 A 
ATOM     38  N   UNL A   1      39.740  29.489  29.657  1.00  0.00    -0.354 N 
ATOM     39  C   UNL A   1      38.845  31.602  33.311  1.00  0.00     0.074 A 
ATOM     40  C   UNL A   1      37.679  32.443  33.152  1.00  0.00     0.031 C 
ATOM     41  C   UNL A   1      39.452  28.874  27.526  1.00  0.00     0.029 A 
ATOM     42  C   UNL A   1      40.298  28.675  28.699  1.00  0.00     0.049 A 
ATOM     43  H   UNL A   1      40.075  29.541  30.581  1.00  0.00     0.167 HD
ATOM     44  C   UNL A   1      39.522  31.446  34.476  1.00  0.00     0.037 A 
ATOM     45  C   UNL A   1      41.384  27.881  28.751  1.00  0.00     0.037 A 
ATOM     46  C   UNL A   1      40.675  30.598  34.637  1.00  0.00     0.049 A 
ATOM     47  C   UNL A   1      42.154  27.776  30.039  1.00  0.00     0.074 A 
ATOM     48  C   UNL A   1      41.439  30.386  35.772  1.00  0.00     0.029 A 
ATOM     49  N   UNL A   1      41.230  29.816  33.634  1.00  0.00    -0.354 N 
ATOM     50  N   UNL A   1      41.927  28.356  31.194  1.00  0.00    -0.248 NA
ATOM     51  C   UNL A   1      43.330  26.895  30.034  1.00  0.00     0.031 C 
ATOM     52  C   UNL A   1      42.482  29.513  35.443  1.00  0.00     0.029 A 
ATOM     53  C   UNL A   1      42.330  29.129  34.121  1.00  0.00     0.049 A 
ATOM     54  H   UNL A   1      40.890  29.759  32.712  1.00  0.00     0.167 HD
ATOM     55  C   UNL A   1      42.909  27.885  32.057  1.00  0.00     0.074 A 
ATOM     56  C   UNL A   1      43.717  26.954  31.299  1.00  0.00     0.031 C 
ATOM     57  C   UNL A   1      43.124  28.196  33.361  1.00  0.00     0.037 A 
BRANCH  44  58
ATOM     58  C   UNL A   1      39.037  32.227  35.667  1.00  0.00     0.057 A 
ATOM     59  C   UNL A   1      38.204  31.659  36.639  1.00  0.00     0.134 A 
ATOM     60  C   UNL A   1      39.435  33.557  35.858  1.00  0.00     0.134 A 
ATOM     61  F   UNL A   1      37.776  30.394  36.514  1.00  0.00    -0.206 F 
ATOM     62  C   UNL A   1      37.760  32.393  37.742  1.00  0.00     0.040 A 
ATOM     63  C   UNL A   1      39.023  34.291  36.972  1.00  0.00     0.040 A 
ATOM     64  F   UNL A   1      40.239  34.163  34.971  1.00  0.00    -0.206 F 
ATOM     65  C   UNL A   1      38.176  33.712  37.913  1.00  0.00     0.006 A 
ENDBRANCH  44  58
BRANCH  45  66
ATOM     66  C   UNL A   1      41.833  27.147  27.539  1.00  0.00     0.057 A 
ATOM     67  C   UNL A   1      42.632  27.756  26.564  1.00  0.00     0.134 A 
ATOM     68  C   UNL A   1      41.435  25.824  27.307  1.00  0.00     0.134 A 
ATOM     69  F   UNL A   1      43.029  29.028  26.714  1.00  0.00    -0.206 F 
ATOM     70  C   UNL A   1      42.990  27.089  25.389  1.00  0.00     0.040 A 
ATOM     71  C   UNL A   1      41.814  25.134  26.155  1.00  0.00     0.040 A 
ATOM     72  F   UNL A   1      40.671  25.180  28.201  1.00  0.00    -0.206 F 
ATOM     73  C   UNL A   1      42.584  25.772  25.185  1.00  0.00     0.006 A 
ENDBRANCH  45  66
BRANCH  57  74
ATOM     74  C   UNL A   1      44.240  27.473  34.060  1.00  0.00     0.057 A 
ATOM     75  C   UNL A   1      45.541  27.990  34.131  1.00  0.00     0.134 A 
ATOM     76  C   UNL A   1      44.009  26.233  34.670  1.00  0.00     0.134 A 
ATOM     77  F   UNL A   1      45.837  29.169  33.561  1.00  0.00    -0.206 F 
ATOM     78  C   UNL A   1      46.580  27.279  34.737  1.00  0.00     0.040 A 
ATOM     79  C   UNL A   1      45.030  25.528  35.310  1.00  0.00     0.040 A 
ATOM     80  F   UNL A   1      42.786  25.682  34.655  1.00  0.00    -0.206 F 
ATOM     81  C   UNL A   1      46.324  26.045  35.331  1.00  0.00     0.006 A 
ENDBRANCH  57  74
ENDBRANCH  31  32
ENDBRANCH  24  26
ENDBRANCH  23  24
ENDBRANCH  22  23
ENDBRANCH   1  22
TORSDOF 15
ENDMDL
MODEL 3
REMARK VINA RESULT:     -11.0      3.442      8.298
REMARK SMILES N#Cc1cc([N+](=O)[O-])cnc1Oc1csc(C(=O)OCCOC(=O)c2ccc(-c3c4nc(c(-c5c(F)cccc5F)c5ccc([nH]5)c(-c5c(F)cccc5F)c5nc(c(-c6c(F)cccc6F)c6ccc3[nH]6)C=C5)C=C4)cc2)c1
REMARK SMILES IDX 20 1 19 2 17 3 18 4 16 5 13 6 14 7 79 8 15 9 12 10 11 11
REMARK SMILES IDX 3 12 4 13 5 14 10 15 9 16 2 17 1 18 6 19 7 20 8 21 21 22
REMARK SMILES IDX 22 23 23 24 24 25 25 26 26 27 78 28 27 29 77 30 28 31 29 32
REMARK SMILES IDX 30 33 71 34 31 35 76 36 70 37 72 38 32 39 75 40 69 41 68 42
REMARK SMILES IDX 33 44 59 45 42 46 58 47 43 48 46 49 57 50 73 51 44 52 45 53
REMARK SMILES IDX 56 55 74 56 47 57 34 58 35 59 40 60 36 61 37 62 39 63 41 64
REMARK SMILES IDX 38 65 60 66 61 67 66 68 62 69 63 70 65 71 67 72 64 73 48 74
REMARK SMILES IDX 49 75 54 76 50 77 51 78 53 79 55 80 52 81
REMARK H PARENT 72 43 46 54
REMARK Flexibility Score: inf
ROOT
ATOM      1  C   UNL A   1      34.728  34.350  31.410  1.00  0.00     0.275 C 
ENDROOT
BRANCH   1   2
ATOM      2  O   UNL A   1      34.028  33.874  30.243  1.00  0.00    -0.458 OA
BRANCH   2   3
ATOM      3  C   UNL A   1      34.778  33.653  29.121  1.00  0.00     0.348 C 
ATOM      4  O   UNL A   1      35.861  34.183  28.904  1.00  0.00    -0.245 OA
BRANCH   3   5
ATOM      5  C   UNL A   1      34.121  32.671  28.275  1.00  0.00     0.116 A 
ATOM      6  C   UNL A   1      33.703  30.824  26.911  1.00  0.00     0.141 A 
ATOM      7  C   UNL A   1      32.565  31.561  26.687  1.00  0.00     0.112 A 
ATOM      8  C   UNL A   1      34.575  31.436  27.852  1.00  0.00     0.074 A 
ATOM      9  S   UNL A   1      32.555  32.990  27.637  1.00  0.00    -0.133 S 
BRANCH   6  10
ATOM     10  O   UNL A   1      33.972  29.608  26.391  1.00  0.00    -0.437 OA
BRANCH  10  11
ATOM     11  C   UNL A   1      33.178  28.934  25.500  1.00  0.00     0.237 A 
ATOM     12  C   UNL A   1      31.989  28.275  25.816  1.00  0.00     0.121 A 
ATOM     13  C   UNL A   1      31.163  27.852  24.762  1.00  0.00     0.112 A 
ATOM     14  C   UNL A   1      31.543  28.112  23.443  1.00  0.00     0.289 A 
ATOM     15  N   UNL A   1      33.559  29.163  24.214  1.00  0.00    -0.213 NA
ATOM     16  C   UNL A   1      32.745  28.753  23.212  1.00  0.00     0.200 A 
BRANCH  12  17
ATOM     17  C   UNL A   1      31.541  28.046  27.157  1.00  0.00     0.105 C 
ATOM     18  N   UNL A   1      31.150  27.918  28.238  1.00  0.00    -0.192 NA
ENDBRANCH  12  17
BRANCH  14  19
ATOM     19  N   UNL A   1      30.682  27.760  22.323  1.00  0.00     0.064 N 
ATOM     20  O   UNL A   1      31.122  26.958  21.489  1.00  0.00    -0.258 OA
ATOM     21  O   UNL A   1      29.567  28.295  22.271  1.00  0.00    -0.258 OA
ENDBRANCH  14  19
ENDBRANCH  10  11
ENDBRANCH   6  10
ENDBRANCH   3   5
ENDBRANCH   2   3
ENDBRANCH   1   2
BRANCH   1  22
ATOM     22  C   UNL A   1      34.353  33.562  32.671  1.00  0.00     0.275 C 
BRANCH  22  23
ATOM     23  O   UNL A   1      34.907  32.233  32.664  1.00  0.00    -0.458 OA
BRANCH  23  24
ATOM     24  C   UNL A   1      36.140  32.143  33.216  1.00  0.00     0.338 C 
ATOM     25  O   UNL A   1      36.462  32.499  34.338  1.00  0.00    -0.246 OA
BRANCH  24  26
ATOM     26  C   UNL A   1      37.056  31.406  32.331  1.00  0.00     0.060 A 
ATOM     27  C   UNL A   1      38.146  30.781  32.935  1.00  0.00     0.016 A 
ATOM     28  C   UNL A   1      36.947  31.439  30.940  1.00  0.00     0.016 A 
ATOM     29  C   UNL A   1      39.158  30.226  32.163  1.00  0.00     0.010 A 
ATOM     30  C   UNL A   1      37.962  30.865  30.159  1.00  0.00     0.010 A 
ATOM     31  C   UNL A   1      39.094  30.285  30.766  1.00  0.00    -0.014 A 
BRANCH  31  32
ATOM     32  C   UNL A   1      40.275  29.838  29.978  1.00  0.00     0.031 A 
ATOM     33  C   UNL A   1      41.423  30.784  29.744  1.00  0.00     0.074 A 
ATOM     34  C   UNL A   1      40.364  28.563  29.553  1.00  0.00     0.049 A 
ATOM     35  N   UNL A   1      42.531  30.597  29.070  1.00  0.00    -0.248 NA
ATOM     36  C   UNL A   1      41.308  32.122  30.346  1.00  0.00     0.031 C 
ATOM     37  C   UNL A   1      39.346  27.532  29.755  1.00  0.00     0.029 A 
ATOM     38  N   UNL A   1      41.366  27.914  28.873  1.00  0.00    -0.354 N 
ATOM     39  C   UNL A   1      43.236  31.793  29.156  1.00  0.00     0.074 A 
ATOM     40  C   UNL A   1      42.409  32.714  29.907  1.00  0.00     0.031 C 
ATOM     41  C   UNL A   1      39.781  26.377  29.224  1.00  0.00     0.029 A 
ATOM     42  C   UNL A   1      41.080  26.597  28.599  1.00  0.00     0.049 A 
ATOM     43  H   UNL A   1      42.208  28.350  28.608  1.00  0.00     0.167 HD
ATOM     44  C   UNL A   1      44.466  32.092  28.671  1.00  0.00     0.037 A 
ATOM     45  C   UNL A   1      41.774  25.680  27.897  1.00  0.00     0.037 A 
ATOM     46  C   UNL A   1      45.293  31.170  27.935  1.00  0.00     0.049 A 
ATOM     47  C   UNL A   1      43.109  26.058  27.314  1.00  0.00     0.074 A 
ATOM     48  C   UNL A   1      46.547  31.383  27.388  1.00  0.00     0.029 A 
ATOM     49  N   UNL A   1      44.953  29.856  27.648  1.00  0.00    -0.354 N 
ATOM     50  N   UNL A   1      43.754  27.198  27.385  1.00  0.00    -0.248 NA
ATOM     51  C   UNL A   1      43.817  25.016  26.559  1.00  0.00     0.031 C 
ATOM     52  C   UNL A   1      46.944  30.214  26.730  1.00  0.00     0.029 A 
ATOM     53  C   UNL A   1      45.968  29.250  26.925  1.00  0.00     0.049 A 
ATOM     54  H   UNL A   1      44.114  29.419  27.920  1.00  0.00     0.167 HD
ATOM     55  C   UNL A   1      44.955  26.998  26.716  1.00  0.00     0.074 A 
ATOM     56  C   UNL A   1      44.957  25.622  26.267  1.00  0.00     0.031 C 
ATOM     57  C   UNL A   1      45.966  27.876  26.490  1.00  0.00     0.037 A 
BRANCH  44  58
ATOM     58  C   UNL A   1      44.982  33.485  28.906  1.00  0.00     0.057 A 
ATOM     59  C   UNL A   1      44.701  34.540  28.029  1.00  0.00     0.134 A 
ATOM     60  C   UNL A   1      45.747  33.780  30.043  1.00  0.00     0.134 A 
ATOM     61  F   UNL A   1      43.984  34.327  26.916  1.00  0.00    -0.206 F 
ATOM     62  C   UNL A   1      45.186  35.831  28.257  1.00  0.00     0.040 A 
ATOM     63  C   UNL A   1      46.211  35.071  30.298  1.00  0.00     0.040 A 
ATOM     64  F   UNL A   1      46.048  32.819  30.931  1.00  0.00    -0.206 F 
ATOM     65  C   UNL A   1      45.938  36.100  29.399  1.00  0.00     0.006 A 
ENDBRANCH  44  58
BRANCH  45  66
ATOM     66  C   UNL A   1      41.208  24.324  27.675  1.00  0.00     0.057 A 
ATOM     67  C   UNL A   1      41.683  23.207  28.373  1.00  0.00     0.134 A 
ATOM     68  C   UNL A   1      40.203  24.106  26.724  1.00  0.00     0.134 A 
ATOM     69  F   UNL A   1      42.660  23.342  29.281  1.00  0.00    -0.206 F 
ATOM     70  C   UNL A   1      41.205  21.921  28.108  1.00  0.00     0.040 A 
ATOM     71  C   UNL A   1      39.691  22.832  26.475  1.00  0.00     0.040 A 
ATOM     72  F   UNL A   1      39.701  25.133  26.022  1.00  0.00    -0.206 F 
ATOM     73  C   UNL A   1      40.201  21.732  27.160  1.00  0.00     0.006 A 
ENDBRANCH  45  66
BRANCH  57  74
ATOM     74  C   UNL A   1      47.181  27.350  25.778  1.00  0.00     0.057 A 
ATOM     75  C   UNL A   1      48.232  26.717  26.457  1.00  0.00     0.134 A 
ATOM     76  C   UNL A   1      47.302  27.483  24.389  1.00  0.00     0.134 A 
ATOM     77  F   UNL A   1      48.188  26.563  27.789  1.00  0.00    -0.206 F 
ATOM     78  C   UNL A   1      49.379  26.285  25.787  1.00  0.00     0.040 A 
ATOM     79  C   UNL A   1      48.427  27.022  23.703  1.00  0.00     0.040 A 
ATOM     80  F   UNL A   1      46.328  28.065  23.672  1.00  0.00    -0.206 F 
ATOM     81  C   UNL A   1      49.477  26.434  24.405  1.00  0.00     0.006 A 
ENDBRANCH  57  74
ENDBRANCH  31  32
ENDBRANCH  24  26
ENDBRANCH  23  24
ENDBRANCH  22  23
ENDBRANCH   1  22
TORSDOF 15
ENDMDL
