MODEL 1
REMARK VINA RESULT:     -12.4      0.000      0.000
REMARK SMILES Cc1c(CC(=O)OCCOC(=O)c2ccc(-c3c4nc(c(-c5c(F)cccc5F)c5ccc([nH]5)c(-c5c(F)cccc5F)c5nc(c(-c6c(F)cccc6F)c6ccc3[nH]6)C=C5)C=C4)cc2)c2cc(O)ccc2n1C(=O)c1ccc(Cl)cc1
REMARK SMILES IDX 8 1 7 2 5 3 6 4 4 5 3 6 1 7 2 8 74 9 67 10 73 11 68 12 72 13
REMARK SMILES IDX 69 14 71 15 75 16 76 17 77 18 78 19 83 20 79 21 82 22 80 23
REMARK SMILES IDX 81 24 70 25 9 27 10 28 11 29 12 30 13 31 14 32 66 33 15 34
REMARK SMILES IDX 65 35 16 36 17 37 18 38 59 39 19 40 64 41 58 42 60 43 20 44
REMARK SMILES IDX 63 45 57 46 56 47 21 49 47 50 30 51 46 52 31 53 34 54 45 55
REMARK SMILES IDX 61 56 32 57 33 58 44 60 62 61 35 62 22 63 23 64 28 65 24 66
REMARK SMILES IDX 25 67 27 68 29 69 26 70 48 71 49 72 54 73 50 74 51 75 53 76
REMARK SMILES IDX 55 77 52 78 36 79 37 80 42 81 38 82 39 83 41 84 43 85 40 86
REMARK H PARENT 70 26 60 48 34 59
REMARK Flexibility Score: inf
ROOT
ATOM      1  C   UNL A   1      32.816  30.270  26.392  1.00  0.00     0.274 C 
ENDROOT
BRANCH   1   2
ATOM      2  O   UNL A   1      32.884  29.084  27.214  1.00  0.00    -0.462 OA
BRANCH   2   3
ATOM      3  C   UNL A   1      31.766  28.321  27.215  1.00  0.00     0.310 C 
ATOM      4  O   UNL A   1      31.110  28.058  28.220  1.00  0.00    -0.252 OA
BRANCH   3   5
ATOM      5  C   UNL A   1      31.412  27.703  25.895  1.00  0.00     0.160 C 
BRANCH   5   6
ATOM      6  C   UNL A   1      31.944  26.364  25.460  1.00  0.00    -0.008 A 
ATOM      7  C   UNL A   1      34.083  27.300  24.309  1.00  0.00     0.065 C 
ATOM      8  C   UNL A   1      33.147  26.226  24.774  1.00  0.00     0.028 A 
ATOM      9  N   UNL A   1      33.396  24.875  24.545  1.00  0.00    -0.280 N 
ATOM     10  C   UNL A   1      31.520  25.032  25.800  1.00  0.00     0.008 A 
ATOM     11  C   UNL A   1      32.486  24.138  25.316  1.00  0.00     0.057 A 
ATOM     12  C   UNL A   1      30.436  24.479  26.522  1.00  0.00     0.056 A 
ATOM     13  C   UNL A   1      32.419  22.757  25.634  1.00  0.00     0.031 A 
ATOM     14  C   UNL A   1      30.384  23.118  26.832  1.00  0.00     0.116 A 
ATOM     15  C   UNL A   1      31.366  22.258  26.396  1.00  0.00     0.048 A 
BRANCH   9  16
ATOM     16  C   UNL A   1      34.412  24.355  23.700  1.00  0.00     0.262 C 
ATOM     17  O   UNL A   1      34.284  24.428  22.479  1.00  0.00    -0.268 OA
BRANCH  16  18
ATOM     18  C   UNL A   1      35.639  23.716  24.182  1.00  0.00     0.040 A 
ATOM     19  C   UNL A   1      36.174  22.615  23.502  1.00  0.00     0.015 A 
ATOM     20  C   UNL A   1      36.203  24.181  25.374  1.00  0.00     0.015 A 
ATOM     21  C   UNL A   1      37.251  21.933  24.065  1.00  0.00     0.021 A 
ATOM     22  C   UNL A   1      37.281  23.495  25.927  1.00  0.00     0.021 A 
ATOM     23  C   UNL A   1      37.790  22.367  25.279  1.00  0.00     0.041 A 
ATOM     24  Cl  UNL A   1      39.075  21.483  26.001  1.00  0.00    -0.084 Cl
ENDBRANCH  16  18
ENDBRANCH   9  16
BRANCH  14  25
ATOM     25  O   UNL A   1      29.349  22.669  27.596  1.00  0.00    -0.508 OA
ATOM     26  H   UNL A   1      28.467  22.888  27.365  1.00  0.00     0.293 HD
ENDBRANCH  14  25
ENDBRANCH   5   6
ENDBRANCH   3   5
ENDBRANCH   2   3
ENDBRANCH   1   2
BRANCH   1  27
ATOM     27  C   UNL A   1      32.975  31.531  27.245  1.00  0.00     0.275 C 
BRANCH  27  28
ATOM     28  O   UNL A   1      34.048  31.326  28.177  1.00  0.00    -0.458 OA
BRANCH  28  29
ATOM     29  C   UNL A   1      35.181  32.043  27.979  1.00  0.00     0.338 C 
ATOM     30  O   UNL A   1      35.271  33.229  27.716  1.00  0.00    -0.246 OA
BRANCH  29  31
ATOM     31  C   UNL A   1      36.279  31.198  28.481  1.00  0.00     0.060 A 
ATOM     32  C   UNL A   1      37.445  31.776  28.980  1.00  0.00     0.016 A 
ATOM     33  C   UNL A   1      36.217  29.822  28.228  1.00  0.00     0.016 A 
ATOM     34  C   UNL A   1      38.584  30.992  29.092  1.00  0.00     0.010 A 
ATOM     35  C   UNL A   1      37.369  29.056  28.279  1.00  0.00     0.010 A 
ATOM     36  C   UNL A   1      38.560  29.653  28.666  1.00  0.00    -0.014 A 
BRANCH  36  37
ATOM     37  C   UNL A   1      39.715  28.814  28.936  1.00  0.00     0.031 A 
ATOM     38  C   UNL A   1      39.991  28.718  30.386  1.00  0.00     0.074 A 
ATOM     39  C   UNL A   1      40.454  28.077  28.089  1.00  0.00     0.049 A 
ATOM     40  N   UNL A   1      40.876  29.387  31.042  1.00  0.00    -0.248 NA
ATOM     41  C   UNL A   1      39.093  27.910  31.217  1.00  0.00     0.031 C 
ATOM     42  C   UNL A   1      40.223  27.711  26.695  1.00  0.00     0.029 A 
ATOM     43  N   UNL A   1      41.634  27.455  28.385  1.00  0.00    -0.354 N 
ATOM     44  C   UNL A   1      40.770  28.964  32.357  1.00  0.00     0.074 A 
ATOM     45  C   UNL A   1      39.564  28.180  32.435  1.00  0.00     0.031 C 
ATOM     46  C   UNL A   1      41.157  26.803  26.313  1.00  0.00     0.029 A 
ATOM     47  C   UNL A   1      42.138  26.648  27.379  1.00  0.00     0.049 A 
ATOM     48  H   UNL A   1      42.091  27.571  29.249  1.00  0.00     0.167 HD
ATOM     49  C   UNL A   1      41.803  29.129  33.223  1.00  0.00     0.037 A 
ATOM     50  C   UNL A   1      43.280  25.918  27.444  1.00  0.00     0.037 A 
ATOM     51  C   UNL A   1      42.768  30.080  32.719  1.00  0.00     0.049 A 
ATOM     52  C   UNL A   1      44.136  26.514  28.500  1.00  0.00     0.074 A 
ATOM     53  C   UNL A   1      42.712  31.402  32.317  1.00  0.00     0.029 A 
ATOM     54  N   UNL A   1      43.941  29.593  32.197  1.00  0.00    -0.354 N 
ATOM     55  N   UNL A   1      44.752  27.656  28.385  1.00  0.00    -0.248 NA
ATOM     56  C   UNL A   1      44.020  26.006  29.858  1.00  0.00     0.031 C 
ATOM     57  C   UNL A   1      43.579  31.485  31.184  1.00  0.00     0.029 A 
ATOM     58  C   UNL A   1      44.137  30.221  30.992  1.00  0.00     0.049 A 
ATOM     59  H   UNL A   1      44.530  28.921  32.608  1.00  0.00     0.167 HD
ATOM     60  C   UNL A   1      44.703  28.213  29.653  1.00  0.00     0.074 A 
ATOM     61  C   UNL A   1      44.352  27.107  30.538  1.00  0.00     0.031 C 
ATOM     62  C   UNL A   1      44.684  29.567  29.827  1.00  0.00     0.037 A 
BRANCH  49  63
ATOM     63  C   UNL A   1      42.124  28.170  34.337  1.00  0.00     0.057 A 
ATOM     64  C   UNL A   1      41.645  28.294  35.657  1.00  0.00     0.134 A 
ATOM     65  C   UNL A   1      42.681  26.919  34.018  1.00  0.00     0.134 A 
ATOM     66  F   UNL A   1      41.021  29.393  36.098  1.00  0.00    -0.206 F 
ATOM     67  C   UNL A   1      41.685  27.246  36.579  1.00  0.00     0.040 A 
ATOM     68  C   UNL A   1      42.677  25.846  34.915  1.00  0.00     0.040 A 
ATOM     69  F   UNL A   1      43.168  26.676  32.792  1.00  0.00    -0.206 F 
ATOM     70  C   UNL A   1      42.167  26.004  36.198  1.00  0.00     0.006 A 
ENDBRANCH  49  63
BRANCH  50  71
ATOM     71  C   UNL A   1      43.658  24.644  26.797  1.00  0.00     0.057 A 
ATOM     72  C   UNL A   1      44.213  24.627  25.507  1.00  0.00     0.134 A 
ATOM     73  C   UNL A   1      43.195  23.414  27.289  1.00  0.00     0.134 A 
ATOM     74  F   UNL A   1      44.631  25.758  24.922  1.00  0.00    -0.206 F 
ATOM     75  C   UNL A   1      44.262  23.460  24.734  1.00  0.00     0.040 A 
ATOM     76  C   UNL A   1      43.235  22.241  26.525  1.00  0.00     0.040 A 
ATOM     77  F   UNL A   1      42.623  23.333  28.499  1.00  0.00    -0.206 F 
ATOM     78  C   UNL A   1      43.754  22.266  25.235  1.00  0.00     0.006 A 
ENDBRANCH  50  71
BRANCH  62  79
ATOM     79  C   UNL A   1      45.018  30.422  28.636  1.00  0.00     0.057 A 
ATOM     80  C   UNL A   1      46.316  30.932  28.514  1.00  0.00     0.134 A 
ATOM     81  C   UNL A   1      44.089  30.822  27.663  1.00  0.00     0.134 A 
ATOM     82  F   UNL A   1      47.248  30.643  29.435  1.00  0.00    -0.206 F 
ATOM     83  C   UNL A   1      46.683  31.772  27.458  1.00  0.00     0.040 A 
ATOM     84  C   UNL A   1      44.453  31.630  26.581  1.00  0.00     0.040 A 
ATOM     85  F   UNL A   1      42.798  30.474  27.751  1.00  0.00    -0.206 F 
ATOM     86  C   UNL A   1      45.755  32.109  26.478  1.00  0.00     0.006 A 
ENDBRANCH  62  79
ENDBRANCH  36  37
ENDBRANCH  29  31
ENDBRANCH  28  29
ENDBRANCH  27  28
ENDBRANCH   1  27
TORSDOF 15
ENDMDL
MODEL 2
REMARK VINA RESULT:     -12.0      1.550      2.558
REMARK SMILES Cc1c(CC(=O)OCCOC(=O)c2ccc(-c3c4nc(c(-c5c(F)cccc5F)c5ccc([nH]5)c(-c5c(F)cccc5F)c5nc(c(-c6c(F)cccc6F)c6ccc3[nH]6)C=C5)C=C4)cc2)c2cc(O)ccc2n1C(=O)c1ccc(Cl)cc1
REMARK SMILES IDX 8 1 7 2 5 3 6 4 4 5 3 6 1 7 2 8 74 9 67 10 73 11 68 12 72 13
REMARK SMILES IDX 69 14 71 15 75 16 76 17 77 18 78 19 83 20 79 21 82 22 80 23
REMARK SMILES IDX 81 24 70 25 9 27 10 28 11 29 12 30 13 31 14 32 66 33 15 34
REMARK SMILES IDX 65 35 16 36 17 37 18 38 59 39 19 40 64 41 58 42 60 43 20 44
REMARK SMILES IDX 63 45 57 46 56 47 21 49 47 50 30 51 46 52 31 53 34 54 45 55
REMARK SMILES IDX 61 56 32 57 33 58 44 60 62 61 35 62 22 63 23 64 28 65 24 66
REMARK SMILES IDX 25 67 27 68 29 69 26 70 48 71 49 72 54 73 50 74 51 75 53 76
REMARK SMILES IDX 55 77 52 78 36 79 37 80 42 81 38 82 39 83 41 84 43 85 40 86
REMARK H PARENT 70 26 60 48 34 59
REMARK Flexibility Score: inf
ROOT
ATOM      1  C   UNL A   1      32.059  30.137  26.827  1.00  0.00     0.274 C 
ENDROOT
BRANCH   1   2
ATOM      2  O   UNL A   1      32.506  29.045  27.659  1.00  0.00    -0.462 OA
BRANCH   2   3
ATOM      3  C   UNL A   1      32.424  27.819  27.092  1.00  0.00     0.310 C 
ATOM      4  O   UNL A   1      31.450  27.076  27.193  1.00  0.00    -0.252 OA
BRANCH   3   5
ATOM      5  C   UNL A   1      33.667  27.352  26.395  1.00  0.00     0.160 C 
BRANCH   5   6
ATOM      6  C   UNL A   1      33.626  26.455  25.186  1.00  0.00    -0.008 A 
ATOM      7  C   UNL A   1      34.897  24.473  26.297  1.00  0.00     0.065 C 
ATOM      8  C   UNL A   1      34.168  25.173  25.190  1.00  0.00     0.028 A 
ATOM      9  N   UNL A   1      33.945  24.573  23.953  1.00  0.00    -0.280 N 
ATOM     10  C   UNL A   1      32.906  26.584  23.948  1.00  0.00     0.008 A 
ATOM     11  C   UNL A   1      33.030  25.372  23.252  1.00  0.00     0.057 A 
ATOM     12  C   UNL A   1      32.106  27.587  23.353  1.00  0.00     0.056 A 
ATOM     13  C   UNL A   1      32.296  25.142  22.060  1.00  0.00     0.031 A 
ATOM     14  C   UNL A   1      31.384  27.347  22.181  1.00  0.00     0.116 A 
ATOM     15  C   UNL A   1      31.473  26.136  21.535  1.00  0.00     0.048 A 
BRANCH   9  16
ATOM     16  C   UNL A   1      34.526  23.355  23.510  1.00  0.00     0.262 C 
ATOM     17  O   UNL A   1      35.474  23.384  22.728  1.00  0.00    -0.268 OA
BRANCH  16  18
ATOM     18  C   UNL A   1      34.070  22.025  23.921  1.00  0.00     0.040 A 
ATOM     19  C   UNL A   1      34.938  21.161  24.597  1.00  0.00     0.015 A 
ATOM     20  C   UNL A   1      32.785  21.622  23.546  1.00  0.00     0.015 A 
ATOM     21  C   UNL A   1      34.532  19.850  24.840  1.00  0.00     0.021 A 
ATOM     22  C   UNL A   1      32.385  20.312  23.796  1.00  0.00     0.021 A 
ATOM     23  C   UNL A   1      33.265  19.429  24.427  1.00  0.00     0.041 A 
ATOM     24  Cl  UNL A   1      32.793  17.794  24.671  1.00  0.00    -0.084 Cl
ENDBRANCH  16  18
ENDBRANCH   9  16
BRANCH  14  25
ATOM     25  O   UNL A   1      30.575  28.336  21.708  1.00  0.00    -0.508 OA
ATOM     26  H   UNL A   1      30.863  29.228  21.730  1.00  0.00     0.293 HD
ENDBRANCH  14  25
ENDBRANCH   5   6
ENDBRANCH   3   5
ENDBRANCH   2   3
ENDBRANCH   1   2
BRANCH   1  27
ATOM     27  C   UNL A   1      33.074  31.283  26.843  1.00  0.00     0.275 C 
BRANCH  27  28
ATOM     28  O   UNL A   1      33.990  31.071  27.928  1.00  0.00    -0.458 OA
BRANCH  28  29
ATOM     29  C   UNL A   1      35.047  31.915  28.015  1.00  0.00     0.338 C 
ATOM     30  O   UNL A   1      35.027  33.133  27.982  1.00  0.00    -0.246 OA
BRANCH  29  31
ATOM     31  C   UNL A   1      36.171  31.096  28.502  1.00  0.00     0.060 A 
ATOM     32  C   UNL A   1      37.335  31.701  28.972  1.00  0.00     0.016 A 
ATOM     33  C   UNL A   1      36.131  29.717  28.261  1.00  0.00     0.016 A 
ATOM     34  C   UNL A   1      38.492  30.939  29.068  1.00  0.00     0.010 A 
ATOM     35  C   UNL A   1      37.298  28.974  28.295  1.00  0.00     0.010 A 
ATOM     36  C   UNL A   1      38.485  29.597  28.653  1.00  0.00    -0.014 A 
BRANCH  36  37
ATOM     37  C   UNL A   1      39.662  28.783  28.906  1.00  0.00     0.031 A 
ATOM     38  C   UNL A   1      39.923  28.638  30.355  1.00  0.00     0.074 A 
ATOM     39  C   UNL A   1      40.433  28.101  28.041  1.00  0.00     0.049 A 
ATOM     40  N   UNL A   1      40.779  29.307  31.048  1.00  0.00    -0.248 NA
ATOM     41  C   UNL A   1      39.038  27.773  31.142  1.00  0.00     0.031 C 
ATOM     42  C   UNL A   1      40.230  27.783  26.632  1.00  0.00     0.029 A 
ATOM     43  N   UNL A   1      41.627  27.503  28.329  1.00  0.00    -0.354 N 
ATOM     44  C   UNL A   1      40.669  28.831  32.344  1.00  0.00     0.074 A 
ATOM     45  C   UNL A   1      39.486  28.008  32.376  1.00  0.00     0.031 C 
ATOM     46  C   UNL A   1      41.196  26.918  26.227  1.00  0.00     0.029 A 
ATOM     47  C   UNL A   1      42.168  26.751  27.300  1.00  0.00     0.049 A 
ATOM     48  H   UNL A   1      42.070  27.600  29.203  1.00  0.00     0.167 HD
ATOM     49  C   UNL A   1      41.686  28.993  33.230  1.00  0.00     0.037 A 
ATOM     50  C   UNL A   1      43.330  26.053  27.352  1.00  0.00     0.037 A 
ATOM     51  C   UNL A   1      42.628  29.990  32.776  1.00  0.00     0.049 A 
ATOM     52  C   UNL A   1      44.155  26.633  28.442  1.00  0.00     0.074 A 
ATOM     53  C   UNL A   1      42.537  31.325  32.424  1.00  0.00     0.029 A 
ATOM     54  N   UNL A   1      43.822  29.559  32.251  1.00  0.00    -0.354 N 
ATOM     55  N   UNL A   1      44.737  27.796  28.380  1.00  0.00    -0.248 NA
ATOM     56  C   UNL A   1      44.037  26.070  29.778  1.00  0.00     0.031 C 
ATOM     57  C   UNL A   1      43.415  31.477  31.307  1.00  0.00     0.029 A 
ATOM     58  C   UNL A   1      44.013  30.239  31.074  1.00  0.00     0.049 A 
ATOM     59  H   UNL A   1      44.425  28.889  32.645  1.00  0.00     0.167 HD
ATOM     60  C   UNL A   1      44.656  28.302  29.666  1.00  0.00     0.074 A 
ATOM     61  C   UNL A   1      44.327  27.152  30.504  1.00  0.00     0.031 C 
ATOM     62  C   UNL A   1      44.594  29.647  29.893  1.00  0.00     0.037 A 
BRANCH  49  63
ATOM     63  C   UNL A   1      42.022  28.000  34.310  1.00  0.00     0.057 A 
ATOM     64  C   UNL A   1      42.785  26.832  34.108  1.00  0.00     0.134 A 
ATOM     65  C   UNL A   1      41.836  28.369  35.654  1.00  0.00     0.134 A 
ATOM     66  F   UNL A   1      43.115  26.387  32.889  1.00  0.00    -0.206 F 
ATOM     67  C   UNL A   1      43.350  26.106  35.158  1.00  0.00     0.040 A 
ATOM     68  C   UNL A   1      42.442  27.680  36.710  1.00  0.00     0.040 A 
ATOM     69  F   UNL A   1      41.131  29.464  35.976  1.00  0.00    -0.206 F 
ATOM     70  C   UNL A   1      43.211  26.550  36.463  1.00  0.00     0.006 A 
ENDBRANCH  49  63
BRANCH  50  71
ATOM     71  C   UNL A   1      43.755  24.818  26.662  1.00  0.00     0.057 A 
ATOM     72  C   UNL A   1      44.380  24.871  25.406  1.00  0.00     0.134 A 
ATOM     73  C   UNL A   1      43.276  23.561  27.063  1.00  0.00     0.134 A 
ATOM     74  F   UNL A   1      44.820  26.034  24.904  1.00  0.00    -0.206 F 
ATOM     75  C   UNL A   1      44.482  23.747  24.577  1.00  0.00     0.040 A 
ATOM     76  C   UNL A   1      43.368  22.430  26.242  1.00  0.00     0.040 A 
ATOM     77  F   UNL A   1      42.638  23.413  28.233  1.00  0.00    -0.206 F 
ATOM     78  C   UNL A   1      43.958  22.525  24.986  1.00  0.00     0.006 A 
ENDBRANCH  50  71
BRANCH  62  79
ATOM     79  C   UNL A   1      44.917  30.557  28.740  1.00  0.00     0.057 A 
ATOM     80  C   UNL A   1      43.894  30.917  27.856  1.00  0.00     0.134 A 
ATOM     81  C   UNL A   1      46.207  31.016  28.431  1.00  0.00     0.134 A 
ATOM     82  F   UNL A   1      42.642  30.471  28.050  1.00  0.00    -0.206 F 
ATOM     83  C   UNL A   1      44.132  31.721  26.737  1.00  0.00     0.040 A 
ATOM     84  C   UNL A   1      46.453  31.851  27.336  1.00  0.00     0.040 A 
ATOM     85  F   UNL A   1      47.271  30.638  29.154  1.00  0.00    -0.206 F 
ATOM     86  C   UNL A   1      45.411  32.205  26.484  1.00  0.00     0.006 A 
ENDBRANCH  62  79
ENDBRANCH  36  37
ENDBRANCH  29  31
ENDBRANCH  28  29
ENDBRANCH  27  28
ENDBRANCH   1  27
TORSDOF 15
ENDMDL
MODEL 3
REMARK VINA RESULT:     -12.0      2.819      8.006
REMARK SMILES Cc1c(CC(=O)OCCOC(=O)c2ccc(-c3c4nc(c(-c5c(F)cccc5F)c5ccc([nH]5)c(-c5c(F)cccc5F)c5nc(c(-c6c(F)cccc6F)c6ccc3[nH]6)C=C5)C=C4)cc2)c2cc(O)ccc2n1C(=O)c1ccc(Cl)cc1
REMARK SMILES IDX 8 1 7 2 5 3 6 4 4 5 3 6 1 7 2 8 74 9 67 10 73 11 68 12 72 13
REMARK SMILES IDX 69 14 71 15 75 16 76 17 77 18 78 19 83 20 79 21 82 22 80 23
REMARK SMILES IDX 81 24 70 25 9 27 10 28 11 29 12 30 13 31 14 32 66 33 15 34
REMARK SMILES IDX 65 35 16 36 17 37 18 38 59 39 19 40 64 41 58 42 60 43 20 44
REMARK SMILES IDX 63 45 57 46 56 47 21 49 47 50 30 51 46 52 31 53 34 54 45 55
REMARK SMILES IDX 61 56 32 57 33 58 44 60 62 61 35 62 22 63 23 64 28 65 24 66
REMARK SMILES IDX 25 67 27 68 29 69 26 70 48 71 49 72 54 73 50 74 51 75 53 76
REMARK SMILES IDX 55 77 52 78 36 79 37 80 42 81 38 82 39 83 41 84 43 85 40 86
REMARK H PARENT 70 26 60 48 34 59
REMARK Flexibility Score: inf
ROOT
ATOM      1  C   UNL A   1      37.701  21.127  24.612  1.00  0.00     0.274 C 
ENDROOT
BRANCH   1   2
ATOM      2  O   UNL A   1      36.848  22.289  24.709  1.00  0.00    -0.462 OA
BRANCH   2   3
ATOM      3  C   UNL A   1      36.127  22.567  23.598  1.00  0.00     0.310 C 
ATOM      4  O   UNL A   1      36.614  22.954  22.538  1.00  0.00    -0.252 OA
BRANCH   3   5
ATOM      5  C   UNL A   1      34.639  22.475  23.761  1.00  0.00     0.160 C 
BRANCH   5   6
ATOM      6  C   UNL A   1      33.771  23.689  23.963  1.00  0.00    -0.008 A 
ATOM      7  C   UNL A   1      34.288  23.951  26.502  1.00  0.00     0.065 C 
ATOM      8  C   UNL A   1      33.659  24.328  25.194  1.00  0.00     0.028 A 
ATOM      9  N   UNL A   1      32.825  25.436  25.065  1.00  0.00    -0.280 N 
ATOM     10  C   UNL A   1      33.103  24.533  23.009  1.00  0.00     0.008 A 
ATOM     11  C   UNL A   1      32.620  25.656  23.696  1.00  0.00     0.057 A 
ATOM     12  C   UNL A   1      32.899  24.497  21.610  1.00  0.00     0.056 A 
ATOM     13  C   UNL A   1      32.046  26.745  22.990  1.00  0.00     0.031 A 
ATOM     14  C   UNL A   1      32.336  25.578  20.926  1.00  0.00     0.116 A 
ATOM     15  C   UNL A   1      31.912  26.697  21.605  1.00  0.00     0.048 A 
BRANCH   9  16
ATOM     16  C   UNL A   1      32.309  26.210  26.138  1.00  0.00     0.262 C 
ATOM     17  O   UNL A   1      31.435  25.737  26.863  1.00  0.00    -0.268 OA
BRANCH  16  18
ATOM     18  C   UNL A   1      32.745  27.571  26.460  1.00  0.00     0.040 A 
ATOM     19  C   UNL A   1      34.110  27.880  26.504  1.00  0.00     0.015 A 
ATOM     20  C   UNL A   1      31.772  28.515  26.799  1.00  0.00     0.015 A 
ATOM     21  C   UNL A   1      34.502  29.137  26.961  1.00  0.00     0.021 A 
ATOM     22  C   UNL A   1      32.172  29.770  27.251  1.00  0.00     0.021 A 
ATOM     23  C   UNL A   1      33.534  30.070  27.344  1.00  0.00     0.041 A 
ATOM     24  Cl  UNL A   1      34.023  31.595  27.967  1.00  0.00    -0.084 Cl
ENDBRANCH  16  18
ENDBRANCH   9  16
BRANCH  14  25
ATOM     25  O   UNL A   1      32.239  25.503  19.569  1.00  0.00    -0.508 OA
ATOM     26  H   UNL A   1      33.016  25.466  19.045  1.00  0.00     0.293 HD
ENDBRANCH  14  25
ENDBRANCH   5   6
ENDBRANCH   3   5
ENDBRANCH   2   3
ENDBRANCH   1   2
BRANCH   1  27
ATOM     27  C   UNL A   1      38.631  21.034  25.824  1.00  0.00     0.275 C 
BRANCH  27  28
ATOM     28  O   UNL A   1      39.317  22.287  25.975  1.00  0.00    -0.458 OA
BRANCH  28  29
ATOM     29  C   UNL A   1      40.236  22.369  26.968  1.00  0.00     0.338 C 
ATOM     30  O   UNL A   1      40.975  21.487  27.369  1.00  0.00    -0.246 OA
BRANCH  29  31
ATOM     31  C   UNL A   1      40.411  23.809  27.229  1.00  0.00     0.060 A 
ATOM     32  C   UNL A   1      41.538  24.273  27.905  1.00  0.00     0.016 A 
ATOM     33  C   UNL A   1      39.322  24.656  26.994  1.00  0.00     0.016 A 
ATOM     34  C   UNL A   1      41.507  25.545  28.461  1.00  0.00     0.010 A 
ATOM     35  C   UNL A   1      39.266  25.898  27.602  1.00  0.00     0.010 A 
ATOM     36  C   UNL A   1      40.339  26.321  28.373  1.00  0.00    -0.014 A 
BRANCH  36  37
ATOM     37  C   UNL A   1      40.383  27.701  28.825  1.00  0.00     0.031 A 
ATOM     38  C   UNL A   1      41.508  28.439  28.212  1.00  0.00     0.074 A 
ATOM     39  C   UNL A   1      39.518  28.374  29.603  1.00  0.00     0.049 A 
ATOM     40  N   UNL A   1      42.649  28.686  28.759  1.00  0.00    -0.248 NA
ATOM     41  C   UNL A   1      41.414  28.808  26.796  1.00  0.00     0.031 C 
ATOM     42  C   UNL A   1      38.178  28.022  30.063  1.00  0.00     0.029 A 
ATOM     43  N   UNL A   1      39.715  29.617  30.134  1.00  0.00    -0.354 N 
ATOM     44  C   UNL A   1      43.373  29.397  27.816  1.00  0.00     0.074 A 
ATOM     45  C   UNL A   1      42.633  29.308  26.583  1.00  0.00     0.031 C 
ATOM     46  C   UNL A   1      37.622  29.098  30.678  1.00  0.00     0.029 A 
ATOM     47  C   UNL A   1      38.622  30.152  30.795  1.00  0.00     0.049 A 
ATOM     48  H   UNL A   1      40.570  30.098  30.052  1.00  0.00     0.167 HD
ATOM     49  C   UNL A   1      44.422  30.175  28.190  1.00  0.00     0.037 A 
ATOM     50  C   UNL A   1      38.569  31.372  31.386  1.00  0.00     0.037 A 
ATOM     51  C   UNL A   1      44.866  29.854  29.527  1.00  0.00     0.049 A 
ATOM     52  C   UNL A   1      39.964  31.796  31.668  1.00  0.00     0.074 A 
ATOM     53  C   UNL A   1      45.316  28.705  30.154  1.00  0.00     0.029 A 
ATOM     54  N   UNL A   1      44.518  30.707  30.546  1.00  0.00    -0.354 N 
ATOM     55  N   UNL A   1      40.718  31.269  32.590  1.00  0.00    -0.248 NA
ATOM     56  C   UNL A   1      40.668  32.580  30.665  1.00  0.00     0.031 C 
ATOM     57  C   UNL A   1      44.748  28.748  31.464  1.00  0.00     0.029 A 
ATOM     58  C   UNL A   1      44.023  29.935  31.566  1.00  0.00     0.049 A 
ATOM     59  H   UNL A   1      44.606  31.687  30.544  1.00  0.00     0.167 HD
ATOM     60  C   UNL A   1      41.993  31.274  32.050  1.00  0.00     0.074 A 
ATOM     61  C   UNL A   1      41.922  32.197  30.921  1.00  0.00     0.031 C 
ATOM     62  C   UNL A   1      42.910  30.325  32.400  1.00  0.00     0.037 A 
BRANCH  49  63
ATOM     63  C   UNL A   1      44.801  31.458  27.502  1.00  0.00     0.057 A 
ATOM     64  C   UNL A   1      44.150  32.693  27.707  1.00  0.00     0.134 A 
ATOM     65  C   UNL A   1      46.040  31.537  26.843  1.00  0.00     0.134 A 
ATOM     66  F   UNL A   1      42.999  32.800  28.381  1.00  0.00    -0.206 F 
ATOM     67  C   UNL A   1      44.704  33.914  27.317  1.00  0.00     0.040 A 
ATOM     68  C   UNL A   1      46.629  32.758  26.498  1.00  0.00     0.040 A 
ATOM     69  F   UNL A   1      46.757  30.431  26.594  1.00  0.00    -0.206 F 
ATOM     70  C   UNL A   1      45.965  33.953  26.745  1.00  0.00     0.006 A 
ENDBRANCH  49  63
BRANCH  50  71
ATOM     71  C   UNL A   1      37.442  32.303  31.597  1.00  0.00     0.057 A 
ATOM     72  C   UNL A   1      36.722  32.304  32.802  1.00  0.00     0.134 A 
ATOM     73  C   UNL A   1      36.848  32.979  30.520  1.00  0.00     0.134 A 
ATOM     74  F   UNL A   1      37.173  31.638  33.874  1.00  0.00    -0.206 F 
ATOM     75  C   UNL A   1      35.463  32.905  32.916  1.00  0.00     0.040 A 
ATOM     76  C   UNL A   1      35.587  33.581  30.619  1.00  0.00     0.040 A 
ATOM     77  F   UNL A   1      37.443  33.010  29.319  1.00  0.00    -0.206 F 
ATOM     78  C   UNL A   1      34.882  33.530  31.817  1.00  0.00     0.006 A 
ENDBRANCH  50  71
BRANCH  62  79
ATOM     79  C   UNL A   1      42.598  29.469  33.597  1.00  0.00     0.057 A 
ATOM     80  C   UNL A   1      41.888  28.278  33.408  1.00  0.00     0.134 A 
ATOM     81  C   UNL A   1      42.898  29.822  34.921  1.00  0.00     0.134 A 
ATOM     82  F   UNL A   1      41.513  27.900  32.176  1.00  0.00    -0.206 F 
ATOM     83  C   UNL A   1      41.522  27.458  34.480  1.00  0.00     0.040 A 
ATOM     84  C   UNL A   1      42.571  28.993  35.999  1.00  0.00     0.040 A 
ATOM     85  F   UNL A   1      43.480  30.993  35.214  1.00  0.00    -0.206 F 
ATOM     86  C   UNL A   1      41.879  27.806  35.779  1.00  0.00     0.006 A 
ENDBRANCH  62  79
ENDBRANCH  36  37
ENDBRANCH  29  31
ENDBRANCH  28  29
ENDBRANCH  27  28
ENDBRANCH   1  27
TORSDOF 15
ENDMDL
