MODEL 1
REMARK VINA RESULT:     -11.1      0.000      0.000
REMARK SMILES CCN1C(=O)CC[C@H](C(=O)OCCOC(=O)c2ccc(-c3c4nc(c(-c5c(F)cccc5F)c5ccc([nH]5)c(-c5c(F)cccc5F)c5nc(c(-c6c(F)cccc6F)c6ccc3[nH]6)C=C5)C=C4)cc2)[C@@H]1c1ccc(OC)cc1
REMARK SMILES IDX 12 1 11 2 9 3 10 4 8 5 3 6 4 7 71 8 5 9 6 10 7 11 2 12 1 13
REMARK SMILES IDX 72 14 73 15 79 16 74 17 78 18 75 19 76 20 77 21 13 22 14 23
REMARK SMILES IDX 15 24 16 25 17 26 18 27 70 28 19 29 69 30 20 31 21 32 22 33
REMARK SMILES IDX 63 34 23 35 68 36 62 37 64 38 24 39 67 40 61 41 60 42 25 44
REMARK SMILES IDX 51 45 34 46 50 47 35 48 38 49 49 50 65 51 36 52 37 53 48 55
REMARK SMILES IDX 66 56 39 57 26 58 27 59 32 60 28 61 29 62 31 63 33 64 30 65
REMARK SMILES IDX 52 66 53 67 58 68 54 69 55 70 57 71 59 72 56 73 40 74 41 75
REMARK SMILES IDX 46 76 42 77 43 78 45 79 47 80 44 81
REMARK H PARENT 64 43 38 54
REMARK Flexibility Score: inf
ROOT
ATOM      1  C   UNL A   1      31.024  30.767  25.362  1.00  0.00     0.274 C 
ENDROOT
BRANCH   1   2
ATOM      2  O   UNL A   1      31.478  29.578  26.036  1.00  0.00    -0.462 OA
BRANCH   2   3
ATOM      3  C   UNL A   1      32.391  28.823  25.377  1.00  0.00     0.311 C 
ATOM      4  O   UNL A   1      33.423  29.253  24.870  1.00  0.00    -0.252 OA
BRANCH   3   5
ATOM      5  C   UNL A   1      32.007  27.362  25.282  1.00  0.00     0.127 C 
ATOM      6  N   UNL A   1      31.459  25.486  23.764  1.00  0.00    -0.335 N 
ATOM      7  C   UNL A   1      31.011  24.723  24.834  1.00  0.00     0.223 C 
ATOM      8  C   UNL A   1      31.706  26.942  23.837  1.00  0.00     0.129 C 
ATOM      9  O   UNL A   1      30.835  23.505  24.747  1.00  0.00    -0.275 OA
ATOM     10  C   UNL A   1      30.820  25.391  26.186  1.00  0.00     0.101 C 
ATOM     11  C   UNL A   1      30.892  26.906  26.210  1.00  0.00     0.028 C 
BRANCH   6  12
ATOM     12  C   UNL A   1      31.778  24.798  22.510  1.00  0.00     0.117 C 
ATOM     13  C   UNL A   1      33.263  24.531  22.315  1.00  0.00     0.027 C 
ENDBRANCH   6  12
BRANCH   8  14
ATOM     14  C   UNL A   1      30.611  27.789  23.195  1.00  0.00    -0.024 A 
ATOM     15  C   UNL A   1      29.252  27.630  23.493  1.00  0.00     0.010 A 
ATOM     16  C   UNL A   1      30.982  28.847  22.344  1.00  0.00     0.010 A 
ATOM     17  C   UNL A   1      28.307  28.539  23.008  1.00  0.00     0.047 A 
ATOM     18  C   UNL A   1      30.040  29.770  21.883  1.00  0.00     0.047 A 
ATOM     19  C   UNL A   1      28.703  29.635  22.243  1.00  0.00     0.118 A 
BRANCH  19  20
ATOM     20  O   UNL A   1      27.707  30.499  21.878  1.00  0.00    -0.497 OA
ATOM     21  C   UNL A   1      28.105  31.522  20.971  1.00  0.00     0.278 C 
ENDBRANCH  19  20
ENDBRANCH   8  14
ENDBRANCH   3   5
ENDBRANCH   2   3
ENDBRANCH   1   2
BRANCH   1  22
ATOM     22  C   UNL A   1      31.254  32.020  26.212  1.00  0.00     0.275 C 
BRANCH  22  23
ATOM     23  O   UNL A   1      32.223  31.788  27.251  1.00  0.00    -0.458 OA
BRANCH  23  24
ATOM     24  C   UNL A   1      32.979  32.863  27.571  1.00  0.00     0.338 C 
ATOM     25  O   UNL A   1      32.646  34.035  27.563  1.00  0.00    -0.246 OA
BRANCH  24  26
ATOM     26  C   UNL A   1      34.274  32.416  28.102  1.00  0.00     0.060 A 
ATOM     27  C   UNL A   1      34.410  31.065  28.428  1.00  0.00     0.016 A 
ATOM     28  C   UNL A   1      35.304  33.318  28.367  1.00  0.00     0.016 A 
ATOM     29  C   UNL A   1      35.575  30.600  29.021  1.00  0.00     0.010 A 
ATOM     30  C   UNL A   1      36.474  32.854  28.974  1.00  0.00     0.010 A 
ATOM     31  C   UNL A   1      36.608  31.495  29.314  1.00  0.00    -0.014 A 
BRANCH  31  32
ATOM     32  C   UNL A   1      37.793  31.017  30.058  1.00  0.00     0.031 A 
ATOM     33  C   UNL A   1      38.767  30.100  29.379  1.00  0.00     0.074 A 
ATOM     34  C   UNL A   1      38.008  31.430  31.319  1.00  0.00     0.049 A 
ATOM     35  N   UNL A   1      39.806  29.482  29.876  1.00  0.00    -0.248 NA
ATOM     36  C   UNL A   1      38.539  29.847  27.947  1.00  0.00     0.031 C 
ATOM     37  C   UNL A   1      37.166  32.376  32.052  1.00  0.00     0.029 A 
ATOM     38  N   UNL A   1      39.000  31.104  32.206  1.00  0.00    -0.354 N 
ATOM     39  C   UNL A   1      40.340  28.744  28.829  1.00  0.00     0.074 A 
ATOM     40  C   UNL A   1      39.509  28.988  27.668  1.00  0.00     0.031 C 
ATOM     41  C   UNL A   1      37.675  32.549  33.283  1.00  0.00     0.029 A 
ATOM     42  C   UNL A   1      38.848  31.691  33.437  1.00  0.00     0.049 A 
ATOM     43  H   UNL A   1      39.750  30.507  31.982  1.00  0.00     0.167 HD
ATOM     44  C   UNL A   1      41.425  27.934  28.838  1.00  0.00     0.037 A 
ATOM     45  C   UNL A   1      39.556  31.526  34.569  1.00  0.00     0.037 A 
ATOM     46  C   UNL A   1      42.257  27.714  29.993  1.00  0.00     0.049 A 
ATOM     47  C   UNL A   1      40.719  30.574  34.571  1.00  0.00     0.074 A 
ATOM     48  C   UNL A   1      43.382  26.918  30.108  1.00  0.00     0.029 A 
ATOM     49  N   UNL A   1      42.050  28.300  31.233  1.00  0.00    -0.354 N 
ATOM     50  N   UNL A   1      41.202  29.858  33.585  1.00  0.00    -0.248 NA
ATOM     51  C   UNL A   1      41.429  30.399  35.846  1.00  0.00     0.031 C 
ATOM     52  C   UNL A   1      43.837  26.995  31.429  1.00  0.00     0.029 A 
ATOM     53  C   UNL A   1      43.017  27.869  32.125  1.00  0.00     0.049 A 
ATOM     54  H   UNL A   1      41.325  28.930  31.447  1.00  0.00     0.167 HD
ATOM     55  C   UNL A   1      42.281  29.162  34.113  1.00  0.00     0.074 A 
ATOM     56  C   UNL A   1      42.389  29.552  35.505  1.00  0.00     0.031 C 
ATOM     57  C   UNL A   1      43.107  28.276  33.504  1.00  0.00     0.037 A 
BRANCH  44  58
ATOM     58  C   UNL A   1      41.748  27.199  27.574  1.00  0.00     0.057 A 
ATOM     59  C   UNL A   1      42.523  27.772  26.558  1.00  0.00     0.134 A 
ATOM     60  C   UNL A   1      41.289  25.890  27.378  1.00  0.00     0.134 A 
ATOM     61  F   UNL A   1      42.977  29.029  26.677  1.00  0.00    -0.206 F 
ATOM     62  C   UNL A   1      42.817  27.074  25.385  1.00  0.00     0.040 A 
ATOM     63  C   UNL A   1      41.593  25.175  26.219  1.00  0.00     0.040 A 
ATOM     64  F   UNL A   1      40.540  25.284  28.312  1.00  0.00    -0.206 F 
ATOM     65  C   UNL A   1      42.355  25.770  25.215  1.00  0.00     0.006 A 
ENDBRANCH  44  58
BRANCH  45  66
ATOM     66  C   UNL A   1      39.165  32.254  35.801  1.00  0.00     0.057 A 
ATOM     67  C   UNL A   1      39.644  33.542  36.064  1.00  0.00     0.134 A 
ATOM     68  C   UNL A   1      38.310  31.677  36.747  1.00  0.00     0.134 A 
ATOM     69  F   UNL A   1      40.485  34.138  35.206  1.00  0.00    -0.206 F 
ATOM     70  C   UNL A   1      39.295  34.228  37.229  1.00  0.00     0.040 A 
ATOM     71  C   UNL A   1      37.933  32.360  37.905  1.00  0.00     0.040 A 
ATOM     72  F   UNL A   1      37.818  30.445  36.554  1.00  0.00    -0.206 F 
ATOM     73  C   UNL A   1      38.431  33.638  38.150  1.00  0.00     0.006 A 
ENDBRANCH  45  66
BRANCH  57  74
ATOM     74  C   UNL A   1      44.214  27.698  34.331  1.00  0.00     0.057 A 
ATOM     75  C   UNL A   1      45.453  28.340  34.452  1.00  0.00     0.134 A 
ATOM     76  C   UNL A   1      44.026  26.506  35.041  1.00  0.00     0.134 A 
ATOM     77  F   UNL A   1      45.698  29.478  33.785  1.00  0.00    -0.206 F 
ATOM     78  C   UNL A   1      46.474  27.806  35.239  1.00  0.00     0.040 A 
ATOM     79  C   UNL A   1      45.032  25.973  35.848  1.00  0.00     0.040 A 
ATOM     80  F   UNL A   1      42.859  25.849  34.970  1.00  0.00    -0.206 F 
ATOM     81  C   UNL A   1      46.262  26.622  35.945  1.00  0.00     0.006 A 
ENDBRANCH  57  74
ENDBRANCH  31  32
ENDBRANCH  24  26
ENDBRANCH  23  24
ENDBRANCH  22  23
ENDBRANCH   1  22
TORSDOF 14
ENDMDL
MODEL 2
REMARK VINA RESULT:     -11.0      4.581      9.286
REMARK SMILES CCN1C(=O)CC[C@H](C(=O)OCCOC(=O)c2ccc(-c3c4nc(c(-c5c(F)cccc5F)c5ccc([nH]5)c(-c5c(F)cccc5F)c5nc(c(-c6c(F)cccc6F)c6ccc3[nH]6)C=C5)C=C4)cc2)[C@@H]1c1ccc(OC)cc1
REMARK SMILES IDX 12 1 11 2 9 3 10 4 8 5 3 6 4 7 71 8 5 9 6 10 7 11 2 12 1 13
REMARK SMILES IDX 72 14 73 15 79 16 74 17 78 18 75 19 76 20 77 21 13 22 14 23
REMARK SMILES IDX 15 24 16 25 17 26 18 27 70 28 19 29 69 30 20 31 21 32 22 33
REMARK SMILES IDX 63 34 23 35 68 36 62 37 64 38 24 39 67 40 61 41 60 42 25 44
REMARK SMILES IDX 51 45 34 46 50 47 35 48 38 49 49 50 65 51 36 52 37 53 48 55
REMARK SMILES IDX 66 56 39 57 26 58 27 59 32 60 28 61 29 62 31 63 33 64 30 65
REMARK SMILES IDX 52 66 53 67 58 68 54 69 55 70 57 71 59 72 56 73 40 74 41 75
REMARK SMILES IDX 46 76 42 77 43 78 45 79 47 80 44 81
REMARK H PARENT 64 43 38 54
REMARK Flexibility Score: inf
ROOT
ATOM      1  C   UNL A   1      37.825  21.394  25.045  1.00  0.00     0.274 C 
ENDROOT
BRANCH   1   2
ATOM      2  O   UNL A   1      37.199  22.691  25.049  1.00  0.00    -0.462 OA
BRANCH   2   3
ATOM      3  C   UNL A   1      36.408  22.982  23.987  1.00  0.00     0.311 C 
ATOM      4  O   UNL A   1      36.688  22.740  22.817  1.00  0.00    -0.252 OA
BRANCH   3   5
ATOM      5  C   UNL A   1      35.123  23.684  24.369  1.00  0.00     0.127 C 
ATOM      6  N   UNL A   1      33.060  23.573  25.731  1.00  0.00    -0.335 N 
ATOM      7  C   UNL A   1      32.522  24.652  25.042  1.00  0.00     0.223 C 
ATOM      8  C   UNL A   1      34.243  22.813  25.275  1.00  0.00     0.129 C 
ATOM      9  O   UNL A   1      31.546  25.280  25.460  1.00  0.00    -0.275 OA
ATOM     10  C   UNL A   1      33.213  25.138  23.778  1.00  0.00     0.101 C 
ATOM     11  C   UNL A   1      34.305  24.247  23.218  1.00  0.00     0.028 C 
BRANCH   6  12
ATOM     12  C   UNL A   1      32.468  23.213  27.022  1.00  0.00     0.117 C 
ATOM     13  C   UNL A   1      33.409  22.445  27.938  1.00  0.00     0.027 C 
ENDBRANCH   6  12
BRANCH   8  14
ATOM     14  C   UNL A   1      33.906  21.463  24.647  1.00  0.00    -0.024 A 
ATOM     15  C   UNL A   1      34.560  20.276  24.999  1.00  0.00     0.010 A 
ATOM     16  C   UNL A   1      32.823  21.382  23.752  1.00  0.00     0.010 A 
ATOM     17  C   UNL A   1      34.102  19.045  24.521  1.00  0.00     0.047 A 
ATOM     18  C   UNL A   1      32.350  20.148  23.297  1.00  0.00     0.047 A 
ATOM     19  C   UNL A   1      32.971  18.974  23.709  1.00  0.00     0.118 A 
BRANCH  19  20
ATOM     20  O   UNL A   1      32.569  17.715  23.354  1.00  0.00    -0.497 OA
ATOM     21  C   UNL A   1      33.545  16.696  23.558  1.00  0.00     0.278 C 
ENDBRANCH  19  20
ENDBRANCH   8  14
ENDBRANCH   3   5
ENDBRANCH   2   3
ENDBRANCH   1   2
BRANCH   1  22
ATOM     22  C   UNL A   1      39.166  21.413  25.784  1.00  0.00     0.275 C 
BRANCH  22  23
ATOM     23  O   UNL A   1      39.650  20.082  26.042  1.00  0.00    -0.458 OA
BRANCH  23  24
ATOM     24  C   UNL A   1      40.998  19.961  26.053  1.00  0.00     0.338 C 
ATOM     25  O   UNL A   1      41.665  19.048  25.598  1.00  0.00    -0.246 OA
BRANCH  24  26
ATOM     26  C   UNL A   1      41.601  21.194  26.574  1.00  0.00     0.060 A 
ATOM     27  C   UNL A   1      41.541  21.414  27.951  1.00  0.00     0.016 A 
ATOM     28  C   UNL A   1      42.130  22.163  25.722  1.00  0.00     0.016 A 
ATOM     29  C   UNL A   1      42.008  22.603  28.494  1.00  0.00     0.010 A 
ATOM     30  C   UNL A   1      42.591  23.366  26.266  1.00  0.00     0.010 A 
ATOM     31  C   UNL A   1      42.520  23.594  27.652  1.00  0.00    -0.014 A 
BRANCH  31  32
ATOM     32  C   UNL A   1      42.900  24.904  28.222  1.00  0.00     0.031 A 
ATOM     33  C   UNL A   1      41.838  25.932  28.477  1.00  0.00     0.074 A 
ATOM     34  C   UNL A   1      44.183  25.154  28.538  1.00  0.00     0.049 A 
ATOM     35  N   UNL A   1      41.964  27.173  28.867  1.00  0.00    -0.248 NA
ATOM     36  C   UNL A   1      40.446  25.502  28.265  1.00  0.00     0.031 C 
ATOM     37  C   UNL A   1      45.286  24.204  28.399  1.00  0.00     0.029 A 
ATOM     38  N   UNL A   1      44.773  26.285  29.037  1.00  0.00    -0.354 N 
ATOM     39  C   UNL A   1      40.674  27.683  28.920  1.00  0.00     0.074 A 
ATOM     40  C   UNL A   1      39.778  26.618  28.519  1.00  0.00     0.031 C 
ATOM     41  C   UNL A   1      46.424  24.795  28.799  1.00  0.00     0.029 A 
ATOM     42  C   UNL A   1      46.134  26.177  29.175  1.00  0.00     0.049 A 
ATOM     43  H   UNL A   1      44.269  27.096  29.276  1.00  0.00     0.167 HD
ATOM     44  C   UNL A   1      40.275  28.929  29.270  1.00  0.00     0.037 A 
ATOM     45  C   UNL A   1      47.045  27.100  29.532  1.00  0.00     0.037 A 
ATOM     46  C   UNL A   1      41.173  29.974  29.687  1.00  0.00     0.049 A 
ATOM     47  C   UNL A   1      46.584  28.494  29.856  1.00  0.00     0.074 A 
ATOM     48  C   UNL A   1      40.872  31.270  30.068  1.00  0.00     0.029 A 
ATOM     49  N   UNL A   1      42.550  29.837  29.781  1.00  0.00    -0.354 N 
ATOM     50  N   UNL A   1      45.366  28.978  29.876  1.00  0.00    -0.248 NA
ATOM     51  C   UNL A   1      47.626  29.474  30.195  1.00  0.00     0.031 C 
ATOM     52  C   UNL A   1      42.072  31.928  30.359  1.00  0.00     0.029 A 
ATOM     53  C   UNL A   1      43.115  31.030  30.197  1.00  0.00     0.049 A 
ATOM     54  H   UNL A   1      43.051  29.014  29.582  1.00  0.00     0.167 HD
ATOM     55  C   UNL A   1      45.491  30.309  30.247  1.00  0.00     0.074 A 
ATOM     56  C   UNL A   1      46.904  30.554  30.454  1.00  0.00     0.031 C 
ATOM     57  C   UNL A   1      44.524  31.248  30.400  1.00  0.00     0.037 A 
BRANCH  44  58
ATOM     58  C   UNL A   1      38.812  29.236  29.177  1.00  0.00     0.057 A 
ATOM     59  C   UNL A   1      38.197  29.564  27.962  1.00  0.00     0.134 A 
ATOM     60  C   UNL A   1      38.004  29.184  30.320  1.00  0.00     0.134 A 
ATOM     61  F   UNL A   1      38.920  29.648  26.835  1.00  0.00    -0.206 F 
ATOM     62  C   UNL A   1      36.831  29.846  27.891  1.00  0.00     0.040 A 
ATOM     63  C   UNL A   1      36.634  29.444  30.257  1.00  0.00     0.040 A 
ATOM     64  F   UNL A   1      38.531  28.877  31.514  1.00  0.00    -0.206 F 
ATOM     65  C   UNL A   1      36.045  29.782  29.040  1.00  0.00     0.006 A 
ENDBRANCH  44  58
BRANCH  45  66
ATOM     66  C   UNL A   1      48.485  26.746  29.570  1.00  0.00     0.057 A 
ATOM     67  C   UNL A   1      49.310  26.946  28.458  1.00  0.00     0.134 A 
ATOM     68  C   UNL A   1      49.068  26.192  30.716  1.00  0.00     0.134 A 
ATOM     69  F   UNL A   1      48.803  27.452  27.324  1.00  0.00    -0.206 F 
ATOM     70  C   UNL A   1      50.662  26.601  28.480  1.00  0.00     0.040 A 
ATOM     71  C   UNL A   1      50.423  25.863  30.761  1.00  0.00     0.040 A 
ATOM     72  F   UNL A   1      48.330  25.974  31.814  1.00  0.00    -0.206 F 
ATOM     73  C   UNL A   1      51.223  26.063  29.637  1.00  0.00     0.006 A 
ENDBRANCH  45  66
BRANCH  57  74
ATOM     74  C   UNL A   1      44.963  32.611  30.841  1.00  0.00     0.057 A 
ATOM     75  C   UNL A   1      45.289  33.613  29.918  1.00  0.00     0.134 A 
ATOM     76  C   UNL A   1      45.027  32.934  32.202  1.00  0.00     0.134 A 
ATOM     77  F   UNL A   1      45.259  33.359  28.601  1.00  0.00    -0.206 F 
ATOM     78  C   UNL A   1      45.679  34.885  30.334  1.00  0.00     0.040 A 
ATOM     79  C   UNL A   1      45.395  34.209  32.630  1.00  0.00     0.040 A 
ATOM     80  F   UNL A   1      44.721  32.019  33.134  1.00  0.00    -0.206 F 
ATOM     81  C   UNL A   1      45.727  35.189  31.695  1.00  0.00     0.006 A 
ENDBRANCH  57  74
ENDBRANCH  31  32
ENDBRANCH  24  26
ENDBRANCH  23  24
ENDBRANCH  22  23
ENDBRANCH   1  22
TORSDOF 14
ENDMDL
MODEL 3
REMARK VINA RESULT:     -11.0      4.612      9.478
REMARK SMILES CCN1C(=O)CC[C@H](C(=O)OCCOC(=O)c2ccc(-c3c4nc(c(-c5c(F)cccc5F)c5ccc([nH]5)c(-c5c(F)cccc5F)c5nc(c(-c6c(F)cccc6F)c6ccc3[nH]6)C=C5)C=C4)cc2)[C@@H]1c1ccc(OC)cc1
REMARK SMILES IDX 12 1 11 2 9 3 10 4 8 5 3 6 4 7 71 8 5 9 6 10 7 11 2 12 1 13
REMARK SMILES IDX 72 14 73 15 79 16 74 17 78 18 75 19 76 20 77 21 13 22 14 23
REMARK SMILES IDX 15 24 16 25 17 26 18 27 70 28 19 29 69 30 20 31 21 32 22 33
REMARK SMILES IDX 63 34 23 35 68 36 62 37 64 38 24 39 67 40 61 41 60 42 25 44
REMARK SMILES IDX 51 45 34 46 50 47 35 48 38 49 49 50 65 51 36 52 37 53 48 55
REMARK SMILES IDX 66 56 39 57 26 58 27 59 32 60 28 61 29 62 31 63 33 64 30 65
REMARK SMILES IDX 52 66 53 67 58 68 54 69 55 70 57 71 59 72 56 73 40 74 41 75
REMARK SMILES IDX 46 76 42 77 43 78 45 79 47 80 44 81
REMARK H PARENT 64 43 38 54
REMARK Flexibility Score: inf
ROOT
ATOM      1  C   UNL A   1      36.640  22.757  23.207  1.00  0.00     0.274 C 
ENDROOT
BRANCH   1   2
ATOM      2  O   UNL A   1      35.662  23.613  23.826  1.00  0.00    -0.462 OA
BRANCH   2   3
ATOM      3  C   UNL A   1      34.441  23.659  23.238  1.00  0.00     0.311 C 
ATOM      4  O   UNL A   1      34.245  23.635  22.027  1.00  0.00    -0.252 OA
BRANCH   3   5
ATOM      5  C   UNL A   1      33.302  23.781  24.227  1.00  0.00     0.127 C 
ATOM      6  N   UNL A   1      32.292  22.889  26.302  1.00  0.00    -0.335 N 
ATOM      7  C   UNL A   1      31.129  23.612  26.073  1.00  0.00     0.223 C 
ATOM      8  C   UNL A   1      33.339  22.668  25.282  1.00  0.00     0.129 C 
ATOM      9  O   UNL A   1      30.284  23.797  26.951  1.00  0.00    -0.275 OA
ATOM     10  C   UNL A   1      30.931  24.278  24.721  1.00  0.00     0.101 C 
ATOM     11  C   UNL A   1      31.910  23.895  23.627  1.00  0.00     0.028 C 
BRANCH   6  12
ATOM     12  C   UNL A   1      32.533  22.379  27.655  1.00  0.00     0.117 C 
ATOM     13  C   UNL A   1      33.988  22.454  28.091  1.00  0.00     0.027 C 
ENDBRANCH   6  12
BRANCH   8  14
ATOM     14  C   UNL A   1      33.318  21.271  24.666  1.00  0.00    -0.024 A 
ATOM     15  C   UNL A   1      34.147  20.233  25.107  1.00  0.00     0.010 A 
ATOM     16  C   UNL A   1      32.354  20.977  23.684  1.00  0.00     0.010 A 
ATOM     17  C   UNL A   1      33.972  18.932  24.626  1.00  0.00     0.047 A 
ATOM     18  C   UNL A   1      32.161  19.672  23.226  1.00  0.00     0.047 A 
ATOM     19  C   UNL A   1      32.951  18.640  23.723  1.00  0.00     0.118 A 
BRANCH  19  20
ATOM     20  O   UNL A   1      32.824  17.323  23.371  1.00  0.00    -0.497 OA
ATOM     21  C   UNL A   1      34.029  16.566  23.447  1.00  0.00     0.278 C 
ENDBRANCH  19  20
ENDBRANCH   8  14
ENDBRANCH   3   5
ENDBRANCH   2   3
ENDBRANCH   1   2
BRANCH   1  22
ATOM     22  C   UNL A   1      37.030  21.592  24.121  1.00  0.00     0.275 C 
BRANCH  22  23
ATOM     23  O   UNL A   1      37.333  22.041  25.454  1.00  0.00    -0.458 OA
BRANCH  23  24
ATOM     24  C   UNL A   1      38.541  21.653  25.923  1.00  0.00     0.338 C 
ATOM     25  O   UNL A   1      39.067  20.560  25.807  1.00  0.00    -0.246 OA
BRANCH  24  26
ATOM     26  C   UNL A   1      39.247  22.810  26.490  1.00  0.00     0.060 A 
ATOM     27  C   UNL A   1      38.839  24.082  26.082  1.00  0.00     0.016 A 
ATOM     28  C   UNL A   1      40.349  22.652  27.329  1.00  0.00     0.016 A 
ATOM     29  C   UNL A   1      39.527  25.210  26.508  1.00  0.00     0.010 A 
ATOM     30  C   UNL A   1      41.049  23.786  27.750  1.00  0.00     0.010 A 
ATOM     31  C   UNL A   1      40.647  25.067  27.331  1.00  0.00    -0.014 A 
BRANCH  31  32
ATOM     32  C   UNL A   1      41.448  26.261  27.679  1.00  0.00     0.031 A 
ATOM     33  C   UNL A   1      40.829  27.345  28.512  1.00  0.00     0.074 A 
ATOM     34  C   UNL A   1      42.728  26.352  27.279  1.00  0.00     0.049 A 
ATOM     35  N   UNL A   1      41.312  28.515  28.839  1.00  0.00    -0.248 NA
ATOM     36  C   UNL A   1      39.486  27.072  29.048  1.00  0.00     0.031 C 
ATOM     37  C   UNL A   1      43.452  25.328  26.527  1.00  0.00     0.029 A 
ATOM     38  N   UNL A   1      43.644  27.357  27.447  1.00  0.00    -0.354 N 
ATOM     39  C   UNL A   1      40.324  29.131  29.593  1.00  0.00     0.074 A 
ATOM     40  C   UNL A   1      39.211  28.208  29.674  1.00  0.00     0.031 C 
ATOM     41  C   UNL A   1      44.702  25.761  26.293  1.00  0.00     0.029 A 
ATOM     42  C   UNL A   1      44.847  27.109  26.837  1.00  0.00     0.049 A 
ATOM     43  H   UNL A   1      43.457  28.178  27.958  1.00  0.00     0.167 HD
ATOM     44  C   UNL A   1      40.345  30.358  30.165  1.00  0.00     0.037 A 
ATOM     45  C   UNL A   1      45.930  27.897  26.703  1.00  0.00     0.037 A 
ATOM     46  C   UNL A   1      41.465  31.260  30.095  1.00  0.00     0.049 A 
ATOM     47  C   UNL A   1      45.906  29.279  27.293  1.00  0.00     0.074 A 
ATOM     48  C   UNL A   1      41.590  32.524  30.644  1.00  0.00     0.029 A 
ATOM     49  N   UNL A   1      42.655  30.987  29.438  1.00  0.00    -0.354 N 
ATOM     50  N   UNL A   1      44.957  29.867  27.981  1.00  0.00    -0.248 NA
ATOM     51  C   UNL A   1      47.097  30.112  27.078  1.00  0.00     0.031 C 
ATOM     52  C   UNL A   1      42.846  33.030  30.288  1.00  0.00     0.029 A 
ATOM     53  C   UNL A   1      43.514  32.066  29.551  1.00  0.00     0.049 A 
ATOM     54  H   UNL A   1      42.858  30.150  28.962  1.00  0.00     0.167 HD
ATOM     55  C   UNL A   1      45.442  31.128  28.297  1.00  0.00     0.074 A 
ATOM     56  C   UNL A   1      46.775  31.216  27.735  1.00  0.00     0.031 C 
ATOM     57  C   UNL A   1      44.838  32.127  28.987  1.00  0.00     0.037 A 
BRANCH  44  58
ATOM     58  C   UNL A   1      39.107  30.807  30.878  1.00  0.00     0.057 A 
ATOM     59  C   UNL A   1      38.921  30.598  32.250  1.00  0.00     0.134 A 
ATOM     60  C   UNL A   1      38.092  31.477  30.182  1.00  0.00     0.134 A 
ATOM     61  F   UNL A   1      39.848  29.947  32.969  1.00  0.00    -0.206 F 
ATOM     62  C   UNL A   1      37.762  31.023  32.902  1.00  0.00     0.040 A 
ATOM     63  C   UNL A   1      36.937  31.925  30.827  1.00  0.00     0.040 A 
ATOM     64  F   UNL A   1      38.207  31.709  28.866  1.00  0.00    -0.206 F 
ATOM     65  C   UNL A   1      36.768  31.694  32.190  1.00  0.00     0.006 A 
ENDBRANCH  44  58
BRANCH  45  66
ATOM     66  C   UNL A   1      47.113  27.409  25.953  1.00  0.00     0.057 A 
ATOM     67  C   UNL A   1      47.198  27.546  24.564  1.00  0.00     0.134 A 
ATOM     68  C   UNL A   1      48.185  26.789  26.607  1.00  0.00     0.134 A 
ATOM     69  F   UNL A   1      46.193  28.111  23.879  1.00  0.00    -0.206 F 
ATOM     70  C   UNL A   1      48.301  27.076  23.848  1.00  0.00     0.040 A 
ATOM     71  C   UNL A   1      49.304  26.334  25.909  1.00  0.00     0.040 A 
ATOM     72  F   UNL A   1      48.163  26.626  27.938  1.00  0.00    -0.206 F 
ATOM     73  C   UNL A   1      49.361  26.473  24.524  1.00  0.00     0.006 A 
ENDBRANCH  45  66
BRANCH  57  74
ATOM     74  C   UNL A   1      45.629  33.383  29.197  1.00  0.00     0.057 A 
ATOM     75  C   UNL A   1      46.490  33.536  30.291  1.00  0.00     0.134 A 
ATOM     76  C   UNL A   1      45.554  34.435  28.276  1.00  0.00     0.134 A 
ATOM     77  F   UNL A   1      46.594  32.568  31.214  1.00  0.00    -0.206 F 
ATOM     78  C   UNL A   1      47.236  34.700  30.471  1.00  0.00     0.040 A 
ATOM     79  C   UNL A   1      46.311  35.595  28.434  1.00  0.00     0.040 A 
ATOM     80  F   UNL A   1      44.751  34.345  27.204  1.00  0.00    -0.206 F 
ATOM     81  C   UNL A   1      47.153  35.732  29.537  1.00  0.00     0.006 A 
ENDBRANCH  57  74
ENDBRANCH  31  32
ENDBRANCH  24  26
ENDBRANCH  23  24
ENDBRANCH  22  23
ENDBRANCH   1  22
TORSDOF 14
ENDMDL
