MODEL 1
REMARK VINA RESULT:      -9.9      0.000      0.000
REMARK SMILES CC[NH2+]C[C@@H](C)C(=O)N1CCO[C@@H](CC(=O)OCCOC(=O)c2ccc(-c3c4nc(c(-c5c(F)cccc5F)c5ccc([nH]5)c(-c5c(F)cccc5F)c5nc(c(-c6c(F)cccc6F)c6ccc3[nH]6)C=C5)C=C4)cc2)C1
REMARK SMILES IDX 15 1 16 2 14 3 13 4 9 5 10 6 77 7 11 8 12 9 7 10 8 11 5 12
REMARK SMILES IDX 6 13 4 14 3 15 2 18 1 19 17 20 18 21 19 22 20 23 21 24 22 25
REMARK SMILES IDX 23 26 24 27 76 28 25 29 75 30 26 31 27 32 28 33 69 34 29 35
REMARK SMILES IDX 74 36 68 37 70 38 30 39 73 40 67 41 66 42 31 44 57 45 40 46
REMARK SMILES IDX 56 47 41 48 44 49 55 50 71 51 42 52 43 53 54 55 72 56 45 57
REMARK SMILES IDX 32 58 33 59 38 60 34 61 35 62 37 63 39 64 36 65 58 66 59 67
REMARK SMILES IDX 64 68 60 69 61 70 63 71 65 72 62 73 46 74 47 75 52 76 48 77
REMARK SMILES IDX 49 78 51 79 53 80 50 81
REMARK H PARENT 3 16 3 17 70 43 44 54
REMARK Flexibility Score: inf
ROOT
ATOM      1  C   UNL A   1      35.350  23.045  23.485  1.00  0.00     0.308 C 
ATOM      2  O   UNL A   1      36.328  22.948  22.754  1.00  0.00    -0.252 OA
ENDROOT
BRANCH   1   3
ATOM      3  C   UNL A   1      35.054  24.276  24.298  1.00  0.00     0.156 C 
BRANCH   3   4
ATOM      4  C   UNL A   1      33.862  25.093  23.807  1.00  0.00     0.148 C 
ATOM      5  N   UNL A   1      32.789  27.320  23.721  1.00  0.00    -0.337 N 
ATOM      6  C   UNL A   1      32.899  27.293  22.267  1.00  0.00     0.148 C 
ATOM      7  C   UNL A   1      33.843  26.536  24.374  1.00  0.00     0.152 C 
ATOM      8  C   UNL A   1      32.870  25.852  21.769  1.00  0.00     0.182 C 
ATOM      9  O   UNL A   1      33.951  25.111  22.358  1.00  0.00    -0.374 OA
BRANCH   5  10
ATOM     10  C   UNL A   1      31.928  28.061  24.503  1.00  0.00     0.231 C 
ATOM     11  O   UNL A   1      31.250  28.964  23.996  1.00  0.00    -0.274 OA
BRANCH  10  12
ATOM     12  C   UNL A   1      31.954  27.954  26.038  1.00  0.00     0.130 C 
ATOM     13  C   UNL A   1      30.987  26.853  26.475  1.00  0.00     0.024 C 
BRANCH  12  14
ATOM     14  C   UNL A   1      31.785  29.251  26.835  1.00  0.00     0.273 C 
BRANCH  14  15
ATOM     15  N   UNL A   1      32.938  29.689  27.633  1.00  0.00    -0.346 N 
ATOM     16  H   UNL A   1      32.684  30.548  28.119  1.00  0.00     0.346 HD
ATOM     17  H   UNL A   1      33.160  28.925  28.272  1.00  0.00     0.346 HD
BRANCH  15  18
ATOM     18  C   UNL A   1      34.140  29.945  26.850  1.00  0.00     0.257 C 
ATOM     19  C   UNL A   1      35.347  29.438  27.625  1.00  0.00     0.071 C 
ENDBRANCH  15  18
ENDBRANCH  14  15
ENDBRANCH  12  14
ENDBRANCH  10  12
ENDBRANCH   5  10
ENDBRANCH   3   4
ENDBRANCH   1   3
BRANCH   1  20
ATOM     20  O   UNL A   1      34.452  22.056  23.713  1.00  0.00    -0.462 OA
BRANCH  20  21
ATOM     21  C   UNL A   1      34.623  21.280  24.914  1.00  0.00     0.274 C 
BRANCH  21  22
ATOM     22  C   UNL A   1      36.034  20.697  25.014  1.00  0.00     0.275 C 
BRANCH  22  23
ATOM     23  O   UNL A   1      36.850  21.454  25.927  1.00  0.00    -0.458 OA
BRANCH  23  24
ATOM     24  C   UNL A   1      38.182  21.234  25.834  1.00  0.00     0.338 C 
ATOM     25  O   UNL A   1      38.740  20.279  25.324  1.00  0.00    -0.246 OA
BRANCH  24  26
ATOM     26  C   UNL A   1      38.910  22.410  26.336  1.00  0.00     0.060 A 
ATOM     27  C   UNL A   1      38.429  23.680  25.999  1.00  0.00     0.016 A 
ATOM     28  C   UNL A   1      40.087  22.268  27.075  1.00  0.00     0.016 A 
ATOM     29  C   UNL A   1      39.126  24.817  26.401  1.00  0.00     0.010 A 
ATOM     30  C   UNL A   1      40.785  23.411  27.475  1.00  0.00     0.010 A 
ATOM     31  C   UNL A   1      40.315  24.690  27.132  1.00  0.00    -0.014 A 
BRANCH  31  32
ATOM     32  C   UNL A   1      41.087  25.899  27.502  1.00  0.00     0.031 A 
ATOM     33  C   UNL A   1      40.435  26.984  28.309  1.00  0.00     0.074 A 
ATOM     34  C   UNL A   1      42.371  26.019  27.121  1.00  0.00     0.049 A 
ATOM     35  N   UNL A   1      40.916  28.144  28.678  1.00  0.00    -0.248 NA
ATOM     36  C   UNL A   1      39.058  26.731  28.758  1.00  0.00     0.031 C 
ATOM     37  C   UNL A   1      43.123  25.018  26.363  1.00  0.00     0.029 A 
ATOM     38  N   UNL A   1      43.268  27.037  27.316  1.00  0.00    -0.354 N 
ATOM     39  C   UNL A   1      39.900  28.765  29.391  1.00  0.00     0.074 A 
ATOM     40  C   UNL A   1      38.767  27.861  29.387  1.00  0.00     0.031 C 
ATOM     41  C   UNL A   1      44.369  25.475  26.154  1.00  0.00     0.029 A 
ATOM     42  C   UNL A   1      44.489  26.813  26.730  1.00  0.00     0.049 A 
ATOM     43  H   UNL A   1      43.057  27.853  27.827  1.00  0.00     0.167 HD
ATOM     44  C   UNL A   1      39.912  29.975  29.998  1.00  0.00     0.037 A 
ATOM     45  C   UNL A   1      45.574  27.607  26.646  1.00  0.00     0.037 A 
ATOM     46  C   UNL A   1      41.042  30.868  30.008  1.00  0.00     0.049 A 
ATOM     47  C   UNL A   1      45.543  28.968  27.282  1.00  0.00     0.074 A 
ATOM     48  C   UNL A   1      41.155  32.109  30.611  1.00  0.00     0.029 A 
ATOM     49  N   UNL A   1      42.253  30.616  29.383  1.00  0.00    -0.354 N 
ATOM     50  N   UNL A   1      44.580  29.542  27.961  1.00  0.00    -0.248 NA
ATOM     51  C   UNL A   1      46.749  29.795  27.135  1.00  0.00     0.031 C 
ATOM     52  C   UNL A   1      42.422  32.624  30.320  1.00  0.00     0.029 A 
ATOM     53  C   UNL A   1      43.112  31.686  29.568  1.00  0.00     0.049 A 
ATOM     54  H   UNL A   1      42.469  29.797  28.880  1.00  0.00     0.167 HD
ATOM     55  C   UNL A   1      45.069  30.785  28.341  1.00  0.00     0.074 A 
ATOM     56  C   UNL A   1      46.419  30.878  27.826  1.00  0.00     0.031 C 
ATOM     57  C   UNL A   1      44.455  31.762  29.051  1.00  0.00     0.037 A 
BRANCH  44  58
ATOM     58  C   UNL A   1      38.654  30.414  30.685  1.00  0.00     0.057 A 
ATOM     59  C   UNL A   1      37.673  31.162  30.023  1.00  0.00     0.134 A 
ATOM     60  C   UNL A   1      38.406  30.055  32.015  1.00  0.00     0.134 A 
ATOM     61  F   UNL A   1      37.856  31.551  28.751  1.00  0.00    -0.206 F 
ATOM     62  C   UNL A   1      36.498  31.556  30.666  1.00  0.00     0.040 A 
ATOM     63  C   UNL A   1      37.226  30.423  32.663  1.00  0.00     0.040 A 
ATOM     64  F   UNL A   1      39.304  29.335  32.705  1.00  0.00    -0.206 F 
ATOM     65  C   UNL A   1      36.269  31.180  31.988  1.00  0.00     0.006 A 
ENDBRANCH  44  58
BRANCH  45  66
ATOM     66  C   UNL A   1      46.779  27.138  25.918  1.00  0.00     0.057 A 
ATOM     67  C   UNL A   1      46.962  27.425  24.562  1.00  0.00     0.134 A 
ATOM     68  C   UNL A   1      47.768  26.383  26.560  1.00  0.00     0.134 A 
ATOM     69  F   UNL A   1      46.036  28.123  23.888  1.00  0.00    -0.206 F 
ATOM     70  C   UNL A   1      48.082  26.970  23.864  1.00  0.00     0.040 A 
ATOM     71  C   UNL A   1      48.904  25.941  25.881  1.00  0.00     0.040 A 
ATOM     72  F   UNL A   1      47.648  26.075  27.860  1.00  0.00    -0.206 F 
ATOM     73  C   UNL A   1      49.060  26.230  24.527  1.00  0.00     0.006 A 
ENDBRANCH  45  66
BRANCH  57  74
ATOM     74  C   UNL A   1      45.248  33.002  29.338  1.00  0.00     0.057 A 
ATOM     75  C   UNL A   1      46.074  33.104  30.464  1.00  0.00     0.134 A 
ATOM     76  C   UNL A   1      45.209  34.092  28.460  1.00  0.00     0.134 A 
ATOM     77  F   UNL A   1      46.143  32.100  31.350  1.00  0.00    -0.206 F 
ATOM     78  C   UNL A   1      46.820  34.257  30.716  1.00  0.00     0.040 A 
ATOM     79  C   UNL A   1      45.968  35.240  28.689  1.00  0.00     0.040 A 
ATOM     80  F   UNL A   1      44.442  34.054  27.360  1.00  0.00    -0.206 F 
ATOM     81  C   UNL A   1      46.773  35.327  29.823  1.00  0.00     0.006 A 
ENDBRANCH  57  74
ENDBRANCH  31  32
ENDBRANCH  24  26
ENDBRANCH  23  24
ENDBRANCH  22  23
ENDBRANCH  21  22
ENDBRANCH  20  21
ENDBRANCH   1  20
TORSDOF 17
ENDMDL
MODEL 2
REMARK VINA RESULT:      -9.7      4.418      7.648
REMARK SMILES CC[NH2+]C[C@@H](C)C(=O)N1CCO[C@@H](CC(=O)OCCOC(=O)c2ccc(-c3c4nc(c(-c5c(F)cccc5F)c5ccc([nH]5)c(-c5c(F)cccc5F)c5nc(c(-c6c(F)cccc6F)c6ccc3[nH]6)C=C5)C=C4)cc2)C1
REMARK SMILES IDX 15 1 16 2 14 3 13 4 9 5 10 6 77 7 11 8 12 9 7 10 8 11 5 12
REMARK SMILES IDX 6 13 4 14 3 15 2 18 1 19 17 20 18 21 19 22 20 23 21 24 22 25
REMARK SMILES IDX 23 26 24 27 76 28 25 29 75 30 26 31 27 32 28 33 69 34 29 35
REMARK SMILES IDX 74 36 68 37 70 38 30 39 73 40 67 41 66 42 31 44 57 45 40 46
REMARK SMILES IDX 56 47 41 48 44 49 55 50 71 51 42 52 43 53 54 55 72 56 45 57
REMARK SMILES IDX 32 58 33 59 38 60 34 61 35 62 37 63 39 64 36 65 58 66 59 67
REMARK SMILES IDX 64 68 60 69 61 70 63 71 65 72 62 73 46 74 47 75 52 76 48 77
REMARK SMILES IDX 49 78 51 79 53 80 50 81
REMARK H PARENT 3 16 3 17 70 43 44 54
REMARK Flexibility Score: inf
ROOT
ATOM      1  C   UNL A   1      32.417  29.606  27.175  1.00  0.00     0.308 C 
ATOM      2  O   UNL A   1      31.423  29.183  27.752  1.00  0.00    -0.252 OA
ENDROOT
BRANCH   1   3
ATOM      3  C   UNL A   1      33.490  28.706  26.623  1.00  0.00     0.156 C 
BRANCH   3   4
ATOM      4  C   UNL A   1      33.244  28.221  25.197  1.00  0.00     0.148 C 
ATOM      5  N   UNL A   1      31.807  28.374  23.190  1.00  0.00    -0.337 N 
ATOM      6  C   UNL A   1      32.952  28.866  22.433  1.00  0.00     0.148 C 
ATOM      7  C   UNL A   1      31.894  28.712  24.615  1.00  0.00     0.152 C 
ATOM      8  C   UNL A   1      34.244  28.317  23.027  1.00  0.00     0.182 C 
ATOM      9  O   UNL A   1      34.356  28.716  24.403  1.00  0.00    -0.374 OA
BRANCH   5  10
ATOM     10  C   UNL A   1      30.659  27.772  22.717  1.00  0.00     0.231 C 
ATOM     11  O   UNL A   1      30.716  26.997  21.755  1.00  0.00    -0.274 OA
BRANCH  10  12
ATOM     12  C   UNL A   1      29.269  28.215  23.205  1.00  0.00     0.130 C 
ATOM     13  C   UNL A   1      28.514  26.992  23.729  1.00  0.00     0.024 C 
BRANCH  12  14
ATOM     14  C   UNL A   1      28.430  29.072  22.251  1.00  0.00     0.273 C 
BRANCH  14  15
ATOM     15  N   UNL A   1      28.851  30.469  22.080  1.00  0.00    -0.346 N 
ATOM     16  H   UNL A   1      29.774  30.474  21.646  1.00  0.00     0.346 HD
ATOM     17  H   UNL A   1      28.141  30.922  21.504  1.00  0.00     0.346 HD
BRANCH  15  18
ATOM     18  C   UNL A   1      28.926  31.225  23.324  1.00  0.00     0.257 C 
ATOM     19  C   UNL A   1      27.514  31.567  23.775  1.00  0.00     0.071 C 
ENDBRANCH  15  18
ENDBRANCH  14  15
ENDBRANCH  12  14
ENDBRANCH  10  12
ENDBRANCH   5  10
ENDBRANCH   3   4
ENDBRANCH   1   3
BRANCH   1  20
ATOM     20  O   UNL A   1      32.720  30.917  27.012  1.00  0.00    -0.462 OA
BRANCH  20  21
ATOM     21  C   UNL A   1      31.618  31.828  26.842  1.00  0.00     0.274 C 
BRANCH  21  22
ATOM     22  C   UNL A   1      32.081  33.286  26.859  1.00  0.00     0.275 C 
BRANCH  22  23
ATOM     23  O   UNL A   1      32.256  33.765  28.206  1.00  0.00    -0.458 OA
BRANCH  23  24
ATOM     24  C   UNL A   1      33.315  34.585  28.398  1.00  0.00     0.338 C 
ATOM     25  O   UNL A   1      33.335  35.799  28.310  1.00  0.00    -0.246 OA
BRANCH  24  26
ATOM     26  C   UNL A   1      34.464  33.798  28.874  1.00  0.00     0.060 A 
ATOM     27  C   UNL A   1      34.211  32.610  29.567  1.00  0.00     0.016 A 
ATOM     28  C   UNL A   1      35.772  34.256  28.698  1.00  0.00     0.016 A 
ATOM     29  C   UNL A   1      35.270  31.871  30.089  1.00  0.00     0.010 A 
ATOM     30  C   UNL A   1      36.833  33.512  29.225  1.00  0.00     0.010 A 
ATOM     31  C   UNL A   1      36.587  32.322  29.931  1.00  0.00    -0.014 A 
BRANCH  31  32
ATOM     32  C   UNL A   1      37.705  31.567  30.543  1.00  0.00     0.031 A 
ATOM     33  C   UNL A   1      38.092  31.831  31.969  1.00  0.00     0.074 A 
ATOM     34  C   UNL A   1      38.365  30.643  29.824  1.00  0.00     0.049 A 
ATOM     35  N   UNL A   1      39.077  31.325  32.667  1.00  0.00    -0.248 NA
ATOM     36  C   UNL A   1      37.261  32.792  32.709  1.00  0.00     0.031 C 
ATOM     37  C   UNL A   1      38.060  30.275  28.440  1.00  0.00     0.029 A 
ATOM     38  N   UNL A   1      39.433  29.848  30.156  1.00  0.00    -0.354 N 
ATOM     39  C   UNL A   1      38.994  31.915  33.921  1.00  0.00     0.074 A 
ATOM     40  C   UNL A   1      37.873  32.831  33.884  1.00  0.00     0.031 C 
ATOM     41  C   UNL A   1      38.926  29.328  28.041  1.00  0.00     0.029 A 
ATOM     42  C   UNL A   1      39.865  29.051  29.125  1.00  0.00     0.049 A 
ATOM     43  H   UNL A   1      39.850  29.850  31.048  1.00  0.00     0.167 HD
ATOM     44  C   UNL A   1      39.778  31.706  35.006  1.00  0.00     0.037 A 
ATOM     45  C   UNL A   1      40.915  28.211  29.057  1.00  0.00     0.037 A 
ATOM     46  C   UNL A   1      40.888  30.789  35.043  1.00  0.00     0.049 A 
ATOM     47  C   UNL A   1      41.802  28.038  30.257  1.00  0.00     0.074 A 
ATOM     48  C   UNL A   1      41.731  30.498  36.101  1.00  0.00     0.029 A 
ATOM     49  N   UNL A   1      41.310  30.018  33.971  1.00  0.00    -0.354 N 
ATOM     50  N   UNL A   1      41.709  28.594  31.441  1.00  0.00    -0.248 NA
ATOM     51  C   UNL A   1      42.945  27.125  30.110  1.00  0.00     0.031 C 
ATOM     52  C   UNL A   1      42.686  29.576  35.659  1.00  0.00     0.029 A 
ATOM     53  C   UNL A   1      42.414  29.264  34.337  1.00  0.00     0.049 A 
ATOM     54  H   UNL A   1      40.888  30.007  33.081  1.00  0.00     0.167 HD
ATOM     55  C   UNL A   1      42.765  28.083  32.185  1.00  0.00     0.074 A 
ATOM     56  C   UNL A   1      43.479  27.164  31.324  1.00  0.00     0.031 C 
ATOM     57  C   UNL A   1      43.111  28.352  33.468  1.00  0.00     0.037 A 
BRANCH  44  58
ATOM     58  C   UNL A   1      39.475  32.505  36.237  1.00  0.00     0.057 A 
ATOM     59  C   UNL A   1      38.515  32.092  37.169  1.00  0.00     0.134 A 
ATOM     60  C   UNL A   1      40.177  33.685  36.511  1.00  0.00     0.134 A 
ATOM     61  F   UNL A   1      37.798  30.977  36.957  1.00  0.00    -0.206 F 
ATOM     62  C   UNL A   1      38.248  32.835  38.320  1.00  0.00     0.040 A 
ATOM     63  C   UNL A   1      39.935  34.426  37.669  1.00  0.00     0.040 A 
ATOM     64  F   UNL A   1      41.112  34.134  35.662  1.00  0.00    -0.206 F 
ATOM     65  C   UNL A   1      38.965  34.002  38.576  1.00  0.00     0.006 A 
ENDBRANCH  44  58
BRANCH  45  66
ATOM     66  C   UNL A   1      41.193  27.477  27.797  1.00  0.00     0.057 A 
ATOM     67  C   UNL A   1      40.695  26.187  27.587  1.00  0.00     0.134 A 
ATOM     68  C   UNL A   1      41.971  28.044  26.782  1.00  0.00     0.134 A 
ATOM     69  F   UNL A   1      39.963  25.582  28.534  1.00  0.00    -0.206 F 
ATOM     70  C   UNL A   1      40.968  25.481  26.414  1.00  0.00     0.040 A 
ATOM     71  C   UNL A   1      42.234  27.359  25.595  1.00  0.00     0.040 A 
ATOM     72  F   UNL A   1      42.478  29.278  26.926  1.00  0.00    -0.206 F 
ATOM     73  C   UNL A   1      41.737  26.071  25.411  1.00  0.00     0.006 A 
ENDBRANCH  45  66
BRANCH  57  74
ATOM     74  C   UNL A   1      44.297  27.622  34.024  1.00  0.00     0.057 A 
ATOM     75  C   UNL A   1      45.584  28.172  33.987  1.00  0.00     0.134 A 
ATOM     76  C   UNL A   1      44.143  26.370  34.631  1.00  0.00     0.134 A 
ATOM     77  F   UNL A   1      45.799  29.362  33.406  1.00  0.00    -0.206 F 
ATOM     78  C   UNL A   1      46.681  27.493  34.521  1.00  0.00     0.040 A 
ATOM     79  C   UNL A   1      45.228  25.692  35.188  1.00  0.00     0.040 A 
ATOM     80  F   UNL A   1      42.935  25.792  34.704  1.00  0.00    -0.206 F 
ATOM     81  C   UNL A   1      46.503  26.251  35.129  1.00  0.00     0.006 A 
ENDBRANCH  57  74
ENDBRANCH  31  32
ENDBRANCH  24  26
ENDBRANCH  23  24
ENDBRANCH  22  23
ENDBRANCH  21  22
ENDBRANCH  20  21
ENDBRANCH   1  20
TORSDOF 17
ENDMDL
MODEL 3
REMARK VINA RESULT:      -9.7      4.156      9.248
REMARK SMILES CC[NH2+]C[C@@H](C)C(=O)N1CCO[C@@H](CC(=O)OCCOC(=O)c2ccc(-c3c4nc(c(-c5c(F)cccc5F)c5ccc([nH]5)c(-c5c(F)cccc5F)c5nc(c(-c6c(F)cccc6F)c6ccc3[nH]6)C=C5)C=C4)cc2)C1
REMARK SMILES IDX 15 1 16 2 14 3 13 4 9 5 10 6 77 7 11 8 12 9 7 10 8 11 5 12
REMARK SMILES IDX 6 13 4 14 3 15 2 18 1 19 17 20 18 21 19 22 20 23 21 24 22 25
REMARK SMILES IDX 23 26 24 27 76 28 25 29 75 30 26 31 27 32 28 33 69 34 29 35
REMARK SMILES IDX 74 36 68 37 70 38 30 39 73 40 67 41 66 42 31 44 57 45 40 46
REMARK SMILES IDX 56 47 41 48 44 49 55 50 71 51 42 52 43 53 54 55 72 56 45 57
REMARK SMILES IDX 32 58 33 59 38 60 34 61 35 62 37 63 39 64 36 65 58 66 59 67
REMARK SMILES IDX 64 68 60 69 61 70 63 71 65 72 62 73 46 74 47 75 52 76 48 77
REMARK SMILES IDX 49 78 51 79 53 80 50 81
REMARK H PARENT 3 16 3 17 70 43 44 54
REMARK Flexibility Score: inf
ROOT
ATOM      1  C   UNL A   1      32.573  29.477  25.164  1.00  0.00     0.308 C 
ATOM      2  O   UNL A   1      33.503  29.322  24.383  1.00  0.00    -0.252 OA
ENDROOT
BRANCH   1   3
ATOM      3  C   UNL A   1      31.349  28.602  25.165  1.00  0.00     0.156 C 
BRANCH   3   4
ATOM      4  C   UNL A   1      31.624  27.119  24.929  1.00  0.00     0.148 C 
ATOM      5  N   UNL A   1      30.975  24.795  25.469  1.00  0.00    -0.337 N 
ATOM      6  C   UNL A   1      30.653  24.580  24.063  1.00  0.00     0.148 C 
ATOM      7  C   UNL A   1      30.810  26.196  25.872  1.00  0.00     0.152 C 
ATOM      8  C   UNL A   1      31.513  25.485  23.188  1.00  0.00     0.182 C 
ATOM      9  O   UNL A   1      31.288  26.860  23.540  1.00  0.00    -0.374 OA
BRANCH   5  10
ATOM     10  C   UNL A   1      31.278  23.856  26.433  1.00  0.00     0.231 C 
ATOM     11  O   UNL A   1      30.418  23.505  27.251  1.00  0.00    -0.274 OA
BRANCH  10  12
ATOM     12  C   UNL A   1      32.728  23.396  26.670  1.00  0.00     0.130 C 
ATOM     13  C   UNL A   1      33.667  24.266  25.833  1.00  0.00     0.024 C 
BRANCH  12  14
ATOM     14  C   UNL A   1      33.021  21.898  26.537  1.00  0.00     0.273 C 
BRANCH  14  15
ATOM     15  N   UNL A   1      32.060  21.107  25.756  1.00  0.00    -0.346 N 
ATOM     16  H   UNL A   1      31.617  20.434  26.380  1.00  0.00     0.346 HD
ATOM     17  H   UNL A   1      31.396  21.767  25.351  1.00  0.00     0.346 HD
BRANCH  15  18
ATOM     18  C   UNL A   1      32.656  20.376  24.644  1.00  0.00     0.257 C 
ATOM     19  C   UNL A   1      34.137  20.175  24.929  1.00  0.00     0.071 C 
ENDBRANCH  15  18
ENDBRANCH  14  15
ENDBRANCH  12  14
ENDBRANCH  10  12
ENDBRANCH   5  10
ENDBRANCH   3   4
ENDBRANCH   1   3
BRANCH   1  20
ATOM     20  O   UNL A   1      32.484  30.477  26.075  1.00  0.00    -0.462 OA
BRANCH  20  21
ATOM     21  C   UNL A   1      31.248  31.214  26.118  1.00  0.00     0.274 C 
BRANCH  21  22
ATOM     22  C   UNL A   1      31.403  32.535  26.876  1.00  0.00     0.275 C 
BRANCH  22  23
ATOM     23  O   UNL A   1      32.754  33.027  26.797  1.00  0.00    -0.458 OA
BRANCH  23  24
ATOM     24  C   UNL A   1      33.171  33.751  27.862  1.00  0.00     0.338 C 
ATOM     25  O   UNL A   1      32.610  34.704  28.373  1.00  0.00    -0.246 OA
BRANCH  24  26
ATOM     26  C   UNL A   1      34.378  33.134  28.433  1.00  0.00     0.060 A 
ATOM     27  C   UNL A   1      34.234  31.951  29.166  1.00  0.00     0.016 A 
ATOM     28  C   UNL A   1      35.629  33.744  28.304  1.00  0.00     0.016 A 
ATOM     29  C   UNL A   1      35.345  31.372  29.775  1.00  0.00     0.010 A 
ATOM     30  C   UNL A   1      36.741  33.161  28.918  1.00  0.00     0.010 A 
ATOM     31  C   UNL A   1      36.603  31.978  29.665  1.00  0.00    -0.014 A 
BRANCH  31  32
ATOM     32  C   UNL A   1      37.768  31.393  30.368  1.00  0.00     0.031 A 
ATOM     33  C   UNL A   1      38.646  30.400  29.663  1.00  0.00     0.074 A 
ATOM     34  C   UNL A   1      38.043  31.759  31.633  1.00  0.00     0.049 A 
ATOM     35  N   UNL A   1      39.670  29.728  30.122  1.00  0.00    -0.248 NA
ATOM     36  C   UNL A   1      38.326  30.125  28.254  1.00  0.00     0.031 C 
ATOM     37  C   UNL A   1      37.284  32.739  32.412  1.00  0.00     0.029 A 
ATOM     38  N   UNL A   1      39.033  31.344  32.487  1.00  0.00    -0.354 N 
ATOM     39  C   UNL A   1      40.111  28.942  29.065  1.00  0.00     0.074 A 
ATOM     40  C   UNL A   1      39.230  29.206  27.946  1.00  0.00     0.031 C 
ATOM     41  C   UNL A   1      37.835  32.846  33.632  1.00  0.00     0.029 A 
ATOM     42  C   UNL A   1      38.960  31.919  33.732  1.00  0.00     0.049 A 
ATOM     43  H   UNL A   1      39.729  30.696  32.232  1.00  0.00     0.167 HD
ATOM     44  C   UNL A   1      41.157  28.083  29.031  1.00  0.00     0.037 A 
ATOM     45  C   UNL A   1      39.701  31.702  34.835  1.00  0.00     0.037 A 
ATOM     46  C   UNL A   1      42.037  27.828  30.142  1.00  0.00     0.049 A 
ATOM     47  C   UNL A   1      40.823  30.703  34.786  1.00  0.00     0.074 A 
ATOM     48  C   UNL A   1      43.134  26.986  30.198  1.00  0.00     0.029 A 
ATOM     49  N   UNL A   1      41.915  28.411  31.395  1.00  0.00    -0.354 N 
ATOM     50  N   UNL A   1      41.236  29.972  33.780  1.00  0.00    -0.248 NA
ATOM     51  C   UNL A   1      41.579  30.495  36.030  1.00  0.00     0.031 C 
ATOM     52  C   UNL A   1      43.656  27.033  31.495  1.00  0.00     0.029 A 
ATOM     53  C   UNL A   1      42.907  27.932  32.236  1.00  0.00     0.049 A 
ATOM     54  H   UNL A   1      41.226  29.066  31.648  1.00  0.00     0.167 HD
ATOM     55  C   UNL A   1      42.311  29.235  34.260  1.00  0.00     0.074 A 
ATOM     56  C   UNL A   1      42.494  29.616  35.645  1.00  0.00     0.031 C 
ATOM     57  C   UNL A   1      43.077  28.324  33.612  1.00  0.00     0.037 A 
BRANCH  44  58
ATOM     58  C   UNL A   1      41.393  27.337  27.753  1.00  0.00     0.057 A 
ATOM     59  C   UNL A   1      42.171  27.871  26.718  1.00  0.00     0.134 A 
ATOM     60  C   UNL A   1      40.863  26.055  27.568  1.00  0.00     0.134 A 
ATOM     61  F   UNL A   1      42.695  29.102  26.827  1.00  0.00    -0.206 F 
ATOM     62  C   UNL A   1      42.397  27.165  25.536  1.00  0.00     0.040 A 
ATOM     63  C   UNL A   1      41.099  25.329  26.400  1.00  0.00     0.040 A 
ATOM     64  F   UNL A   1      40.112  25.484  28.522  1.00  0.00    -0.206 F 
ATOM     65  C   UNL A   1      41.865  25.885  25.377  1.00  0.00     0.006 A 
ENDBRANCH  44  58
BRANCH  45  66
ATOM     66  C   UNL A   1      39.396  32.439  36.086  1.00  0.00     0.057 A 
ATOM     67  C   UNL A   1      38.451  31.956  36.997  1.00  0.00     0.134 A 
ATOM     68  C   UNL A   1      40.035  33.646  36.394  1.00  0.00     0.134 A 
ATOM     69  F   UNL A   1      37.789  30.818  36.745  1.00  0.00    -0.206 F 
ATOM     70  C   UNL A   1      38.142  32.653  38.167  1.00  0.00     0.040 A 
ATOM     71  C   UNL A   1      39.753  34.342  37.570  1.00  0.00     0.040 A 
ATOM     72  F   UNL A   1      40.950  34.160  35.559  1.00  0.00    -0.206 F 
ATOM     73  C   UNL A   1      38.800  33.848  38.458  1.00  0.00     0.006 A 
ENDBRANCH  45  66
BRANCH  57  74
ATOM     74  C   UNL A   1      44.199  27.699  34.385  1.00  0.00     0.057 A 
ATOM     75  C   UNL A   1      45.455  28.311  34.484  1.00  0.00     0.134 A 
ATOM     76  C   UNL A   1      44.011  26.490  35.064  1.00  0.00     0.134 A 
ATOM     77  F   UNL A   1      45.703  29.463  33.844  1.00  0.00    -0.206 F 
ATOM     78  C   UNL A   1      46.491  27.730  35.218  1.00  0.00     0.040 A 
ATOM     79  C   UNL A   1      45.032  25.911  35.820  1.00  0.00     0.040 A 
ATOM     80  F   UNL A   1      42.829  25.858  35.015  1.00  0.00    -0.206 F 
ATOM     81  C   UNL A   1      46.278  26.529  35.893  1.00  0.00     0.006 A 
ENDBRANCH  57  74
ENDBRANCH  31  32
ENDBRANCH  24  26
ENDBRANCH  23  24
ENDBRANCH  22  23
ENDBRANCH  21  22
ENDBRANCH  20  21
ENDBRANCH   1  20
TORSDOF 17
ENDMDL
