MODEL 1
REMARK VINA RESULT:     -11.5      0.000      0.000
REMARK SMILES Cc1c(C)c2c(c(C)c1O)CC[C@@](C)(C(=O)OCCOC(=O)c1ccc(-c3c4nc(c(-c5c(F)cccc5F)c5ccc([nH]5)c(-c5c(F)cccc5F)c5nc(c(-c6c(F)cccc6F)c6ccc3[nH]6)C=C5)C=C4)cc1)O2
REMARK SMILES IDX 19 1 18 2 17 3 15 4 16 5 13 6 1 7 2 8 3 9 9 10 4 11 5 12
REMARK SMILES IDX 7 13 6 14 77 15 8 16 11 17 12 18 14 19 10 20 20 22 21 23
REMARK SMILES IDX 22 24 23 25 24 26 76 27 25 28 75 29 26 30 27 31 28 32 69 33
REMARK SMILES IDX 29 34 74 35 68 36 70 37 30 38 73 39 67 40 66 41 31 43 57 44
REMARK SMILES IDX 40 45 56 46 41 47 44 48 55 49 71 50 42 51 43 52 54 54 72 55
REMARK SMILES IDX 45 56 32 57 33 58 38 59 34 60 35 61 37 62 39 63 36 64 58 65
REMARK SMILES IDX 59 66 64 67 60 68 61 69 63 70 65 71 62 72 46 73 47 74 52 75
REMARK SMILES IDX 48 76 49 77 51 78 53 79 50 80
REMARK H PARENT 10 21 70 42 44 53
REMARK Flexibility Score: inf
ROOT
ATOM      1  C   UNL A   1      31.753  33.125  26.498  1.00  0.00     0.275 C 
ENDROOT
BRANCH   1   2
ATOM      2  C   UNL A   1      31.035  31.808  26.204  1.00  0.00     0.274 C 
BRANCH   2   3
ATOM      3  O   UNL A   1      31.934  30.686  26.330  1.00  0.00    -0.459 OA
BRANCH   3   4
ATOM      4  C   UNL A   1      31.755  29.655  25.452  1.00  0.00     0.350 C 
ATOM      5  O   UNL A   1      31.045  29.723  24.455  1.00  0.00    -0.247 OA
BRANCH   4   6
ATOM      6  C   UNL A   1      32.506  28.378  25.900  1.00  0.00     0.203 C 
ATOM      7  C   UNL A   1      30.401  22.533  26.263  1.00  0.00     0.049 C 
ATOM      8  C   UNL A   1      31.408  23.645  26.094  1.00  0.00    -0.002 A 
ATOM      9  C   UNL A   1      31.014  25.006  26.085  1.00  0.00    -0.002 A 
ATOM     10  C   UNL A   1      32.775  23.339  25.967  1.00  0.00     0.122 A 
ATOM     11  C   UNL A   1      29.566  25.377  26.305  1.00  0.00     0.049 C 
ATOM     12  C   UNL A   1      31.987  26.013  25.883  1.00  0.00     0.127 A 
ATOM     13  C   UNL A   1      33.746  24.336  25.776  1.00  0.00    -0.002 A 
ATOM     14  C   UNL A   1      33.335  25.682  25.670  1.00  0.00     0.001 A 
ATOM     15  O   UNL A   1      31.538  27.311  25.895  1.00  0.00    -0.475 OA
ATOM     16  C   UNL A   1      35.206  23.972  25.661  1.00  0.00     0.049 C 
ATOM     17  C   UNL A   1      34.339  26.760  25.361  1.00  0.00     0.044 C 
ATOM     18  C   UNL A   1      33.657  28.052  24.949  1.00  0.00     0.065 C 
ATOM     19  C   UNL A   1      32.950  28.635  27.346  1.00  0.00     0.069 C 
BRANCH  10  20
ATOM     20  O   UNL A   1      33.225  22.044  26.020  1.00  0.00    -0.507 OA
ATOM     21  H   UNL A   1      34.090  21.861  26.331  1.00  0.00     0.293 HD
ENDBRANCH  10  20
ENDBRANCH   4   6
ENDBRANCH   3   4
ENDBRANCH   2   3
ENDBRANCH   1   2
BRANCH   1  22
ATOM     22  O   UNL A   1      32.051  33.216  27.902  1.00  0.00    -0.458 OA
BRANCH  22  23
ATOM     23  C   UNL A   1      32.952  34.158  28.259  1.00  0.00     0.338 C 
ATOM     24  O   UNL A   1      32.788  35.362  28.339  1.00  0.00    -0.246 OA
BRANCH  23  25
ATOM     25  C   UNL A   1      34.204  33.488  28.632  1.00  0.00     0.060 A 
ATOM     26  C   UNL A   1      34.159  32.127  28.920  1.00  0.00     0.016 A 
ATOM     27  C   UNL A   1      35.388  34.209  28.796  1.00  0.00     0.016 A 
ATOM     28  C   UNL A   1      35.290  31.481  29.402  1.00  0.00     0.010 A 
ATOM     29  C   UNL A   1      36.536  33.549  29.252  1.00  0.00     0.010 A 
ATOM     30  C   UNL A   1      36.486  32.183  29.581  1.00  0.00    -0.014 A 
BRANCH  30  31
ATOM     31  C   UNL A   1      37.632  31.484  30.214  1.00  0.00     0.031 A 
ATOM     32  C   UNL A   1      37.906  31.685  31.676  1.00  0.00     0.074 A 
ATOM     33  C   UNL A   1      38.358  30.592  29.516  1.00  0.00     0.049 A 
ATOM     34  N   UNL A   1      38.884  31.215  32.408  1.00  0.00    -0.248 NA
ATOM     35  C   UNL A   1      36.947  32.520  32.416  1.00  0.00     0.031 C 
ATOM     36  C   UNL A   1      38.134  30.230  28.116  1.00  0.00     0.029 A 
ATOM     37  N   UNL A   1      39.415  29.805  29.900  1.00  0.00    -0.354 N 
ATOM     38  C   UNL A   1      38.681  31.728  33.681  1.00  0.00     0.074 A 
ATOM     39  C   UNL A   1      37.488  32.545  33.625  1.00  0.00     0.031 C 
ATOM     40  C   UNL A   1      39.001  29.266  27.769  1.00  0.00     0.029 A 
ATOM     41  C   UNL A   1      39.882  28.988  28.901  1.00  0.00     0.049 A 
ATOM     42  H   UNL A   1      39.802  29.825  30.805  1.00  0.00     0.167 HD
ATOM     43  C   UNL A   1      39.422  31.535  34.798  1.00  0.00     0.037 A 
ATOM     44  C   UNL A   1      40.918  28.126  28.891  1.00  0.00     0.037 A 
ATOM     45  C   UNL A   1      40.584  30.690  34.865  1.00  0.00     0.049 A 
ATOM     46  C   UNL A   1      41.768  27.977  30.119  1.00  0.00     0.074 A 
ATOM     47  C   UNL A   1      41.405  30.437  35.951  1.00  0.00     0.029 A 
ATOM     48  N   UNL A   1      41.084  29.950  33.805  1.00  0.00    -0.354 N 
ATOM     49  N   UNL A   1      41.615  28.526  31.300  1.00  0.00    -0.248 NA
ATOM     50  C   UNL A   1      42.953  27.112  30.008  1.00  0.00     0.031 C 
ATOM     51  C   UNL A   1      42.420  29.568  35.537  1.00  0.00     0.029 A 
ATOM     52  C   UNL A   1      42.212  29.255  34.203  1.00  0.00     0.049 A 
ATOM     53  H   UNL A   1      40.693  29.924  32.901  1.00  0.00     0.167 HD
ATOM     54  C   UNL A   1      42.682  28.083  32.069  1.00  0.00     0.074 A 
ATOM     55  C   UNL A   1      43.464  27.198  31.230  1.00  0.00     0.031 C 
ATOM     56  C   UNL A   1      42.989  28.390  33.353  1.00  0.00     0.037 A 
BRANCH  43  57
ATOM     57  C   UNL A   1      39.017  32.290  36.025  1.00  0.00     0.057 A 
ATOM     58  C   UNL A   1      38.186  31.731  37.003  1.00  0.00     0.134 A 
ATOM     59  C   UNL A   1      39.475  33.597  36.232  1.00  0.00     0.134 A 
ATOM     60  F   UNL A   1      37.701  30.489  36.853  1.00  0.00    -0.206 F 
ATOM     61  C   UNL A   1      37.808  32.453  38.135  1.00  0.00     0.040 A 
ATOM     62  C   UNL A   1      39.120  34.323  37.369  1.00  0.00     0.040 A 
ATOM     63  F   UNL A   1      40.275  34.188  35.332  1.00  0.00    -0.206 F 
ATOM     64  C   UNL A   1      38.279  33.752  38.323  1.00  0.00     0.006 A 
ENDBRANCH  43  57
BRANCH  44  65
ATOM     65  C   UNL A   1      41.220  27.363  27.655  1.00  0.00     0.057 A 
ATOM     66  C   UNL A   1      42.048  27.896  26.662  1.00  0.00     0.134 A 
ATOM     67  C   UNL A   1      40.717  26.072  27.456  1.00  0.00     0.134 A 
ATOM     68  F   UNL A   1      42.541  29.136  26.787  1.00  0.00    -0.206 F 
ATOM     69  C   UNL A   1      42.375  27.166  25.517  1.00  0.00     0.040 A 
ATOM     70  C   UNL A   1      41.050  25.325  26.327  1.00  0.00     0.040 A 
ATOM     71  F   UNL A   1      39.914  25.510  28.371  1.00  0.00    -0.206 F 
ATOM     72  C   UNL A   1      41.883  25.872  25.353  1.00  0.00     0.006 A 
ENDBRANCH  44  65
BRANCH  56  73
ATOM     73  C   UNL A   1      44.230  27.779  33.928  1.00  0.00     0.057 A 
ATOM     74  C   UNL A   1      44.211  26.505  34.509  1.00  0.00     0.134 A 
ATOM     75  C   UNL A   1      45.463  28.436  33.840  1.00  0.00     0.134 A 
ATOM     76  F   UNL A   1      43.058  25.830  34.630  1.00  0.00    -0.206 F 
ATOM     77  C   UNL A   1      45.377  25.907  34.990  1.00  0.00     0.040 A 
ATOM     78  C   UNL A   1      46.639  27.841  34.301  1.00  0.00     0.040 A 
ATOM     79  F   UNL A   1      45.548  29.655  33.287  1.00  0.00    -0.206 F 
ATOM     80  C   UNL A   1      46.597  26.574  34.878  1.00  0.00     0.006 A 
ENDBRANCH  56  73
ENDBRANCH  30  31
ENDBRANCH  23  25
ENDBRANCH  22  23
ENDBRANCH   1  22
TORSDOF 12
ENDMDL
MODEL 2
REMARK VINA RESULT:     -11.4      1.101      6.538
REMARK SMILES Cc1c(C)c2c(c(C)c1O)CC[C@@](C)(C(=O)OCCOC(=O)c1ccc(-c3c4nc(c(-c5c(F)cccc5F)c5ccc([nH]5)c(-c5c(F)cccc5F)c5nc(c(-c6c(F)cccc6F)c6ccc3[nH]6)C=C5)C=C4)cc1)O2
REMARK SMILES IDX 19 1 18 2 17 3 15 4 16 5 13 6 1 7 2 8 3 9 9 10 4 11 5 12
REMARK SMILES IDX 7 13 6 14 77 15 8 16 11 17 12 18 14 19 10 20 20 22 21 23
REMARK SMILES IDX 22 24 23 25 24 26 76 27 25 28 75 29 26 30 27 31 28 32 69 33
REMARK SMILES IDX 29 34 74 35 68 36 70 37 30 38 73 39 67 40 66 41 31 43 57 44
REMARK SMILES IDX 40 45 56 46 41 47 44 48 55 49 71 50 42 51 43 52 54 54 72 55
REMARK SMILES IDX 45 56 32 57 33 58 38 59 34 60 35 61 37 62 39 63 36 64 58 65
REMARK SMILES IDX 59 66 64 67 60 68 61 69 63 70 65 71 62 72 46 73 47 74 52 75
REMARK SMILES IDX 48 76 49 77 51 78 53 79 50 80
REMARK H PARENT 10 21 70 42 44 53
REMARK Flexibility Score: inf
ROOT
ATOM      1  C   UNL A   1      31.069  31.670  26.040  1.00  0.00     0.275 C 
ENDROOT
BRANCH   1   2
ATOM      2  C   UNL A   1      30.974  30.554  25.001  1.00  0.00     0.274 C 
BRANCH   2   3
ATOM      3  O   UNL A   1      31.894  29.483  25.300  1.00  0.00    -0.459 OA
BRANCH   3   4
ATOM      4  C   UNL A   1      32.132  28.581  24.302  1.00  0.00     0.350 C 
ATOM      5  O   UNL A   1      32.803  28.826  23.306  1.00  0.00    -0.247 OA
BRANCH   4   6
ATOM      6  C   UNL A   1      31.403  27.238  24.553  1.00  0.00     0.203 C 
ATOM      7  C   UNL A   1      33.589  21.441  23.965  1.00  0.00     0.049 C 
ATOM      8  C   UNL A   1      32.725  22.559  24.498  1.00  0.00    -0.002 A 
ATOM      9  C   UNL A   1      32.908  23.900  24.078  1.00  0.00    -0.002 A 
ATOM     10  C   UNL A   1      31.697  22.275  25.415  1.00  0.00     0.122 A 
ATOM     11  C   UNL A   1      33.945  24.232  23.031  1.00  0.00     0.049 C 
ATOM     12  C   UNL A   1      32.102  24.921  24.635  1.00  0.00     0.127 A 
ATOM     13  C   UNL A   1      30.888  23.284  25.962  1.00  0.00    -0.002 A 
ATOM     14  C   UNL A   1      31.139  24.629  25.614  1.00  0.00     0.001 A 
ATOM     15  O   UNL A   1      32.326  26.197  24.176  1.00  0.00    -0.475 OA
ATOM     16  C   UNL A   1      29.782  22.940  26.930  1.00  0.00     0.049 C 
ATOM     17  C   UNL A   1      30.359  25.740  26.264  1.00  0.00     0.044 C 
ATOM     18  C   UNL A   1      31.008  27.090  26.021  1.00  0.00     0.065 C 
ATOM     19  C   UNL A   1      30.213  27.217  23.585  1.00  0.00     0.069 C 
BRANCH  10  20
ATOM     20  O   UNL A   1      31.437  20.990  25.820  1.00  0.00    -0.507 OA
ATOM     21  H   UNL A   1      32.103  20.334  25.754  1.00  0.00     0.293 HD
ENDBRANCH  10  20
ENDBRANCH   4   6
ENDBRANCH   3   4
ENDBRANCH   2   3
ENDBRANCH   1   2
BRANCH   1  22
ATOM     22  O   UNL A   1      32.182  31.426  26.918  1.00  0.00    -0.458 OA
BRANCH  22  23
ATOM     23  C   UNL A   1      32.825  32.521  27.381  1.00  0.00     0.338 C 
ATOM     24  O   UNL A   1      32.420  33.669  27.422  1.00  0.00    -0.246 OA
BRANCH  23  25
ATOM     25  C   UNL A   1      34.121  32.103  27.930  1.00  0.00     0.060 A 
ATOM     26  C   UNL A   1      34.346  30.743  28.116  1.00  0.00     0.016 A 
ATOM     27  C   UNL A   1      35.063  33.043  28.352  1.00  0.00     0.016 A 
ATOM     28  C   UNL A   1      35.503  30.311  28.752  1.00  0.00     0.010 A 
ATOM     29  C   UNL A   1      36.244  32.603  28.965  1.00  0.00     0.010 A 
ATOM     30  C   UNL A   1      36.460  31.233  29.189  1.00  0.00    -0.014 A 
BRANCH  30  31
ATOM     31  C   UNL A   1      37.619  30.737  29.972  1.00  0.00     0.031 A 
ATOM     32  C   UNL A   1      38.665  29.898  29.298  1.00  0.00     0.074 A 
ATOM     33  C   UNL A   1      37.794  31.123  31.250  1.00  0.00     0.049 A 
ATOM     34  N   UNL A   1      39.722  29.321  29.811  1.00  0.00    -0.248 NA
ATOM     35  C   UNL A   1      38.505  29.686  27.851  1.00  0.00     0.031 C 
ATOM     36  C   UNL A   1      36.905  32.016  31.993  1.00  0.00     0.029 A 
ATOM     37  N   UNL A   1      38.799  30.835  32.139  1.00  0.00    -0.354 N 
ATOM     38  C   UNL A   1      40.329  28.648  28.761  1.00  0.00     0.074 A 
ATOM     39  C   UNL A   1      39.526  28.886  27.581  1.00  0.00     0.031 C 
ATOM     40  C   UNL A   1      37.422  32.232  33.212  1.00  0.00     0.029 A 
ATOM     41  C   UNL A   1      38.644  31.445  33.359  1.00  0.00     0.049 A 
ATOM     42  H   UNL A   1      39.558  30.246  31.924  1.00  0.00     0.167 HD
ATOM     43  C   UNL A   1      41.457  27.899  28.778  1.00  0.00     0.037 A 
ATOM     44  C   UNL A   1      39.390  31.362  34.478  1.00  0.00     0.037 A 
ATOM     45  C   UNL A   1      42.280  27.695  29.940  1.00  0.00     0.049 A 
ATOM     46  C   UNL A   1      40.599  30.472  34.496  1.00  0.00     0.074 A 
ATOM     47  C   UNL A   1      43.438  26.946  30.058  1.00  0.00     0.029 A 
ATOM     48  N   UNL A   1      42.037  28.255  31.185  1.00  0.00    -0.354 N 
ATOM     49  N   UNL A   1      41.125  29.776  33.518  1.00  0.00    -0.248 NA
ATOM     50  C   UNL A   1      41.304  30.333  35.779  1.00  0.00     0.031 C 
ATOM     51  C   UNL A   1      43.878  27.027  31.383  1.00  0.00     0.029 A 
ATOM     52  C   UNL A   1      43.012  27.853  32.082  1.00  0.00     0.049 A 
ATOM     53  H   UNL A   1      41.282  28.850  31.400  1.00  0.00     0.167 HD
ATOM     54  C   UNL A   1      42.213  29.110  34.065  1.00  0.00     0.074 A 
ATOM     55  C   UNL A   1      42.290  29.506  35.456  1.00  0.00     0.031 C 
ATOM     56  C   UNL A   1      43.066  28.242  33.468  1.00  0.00     0.037 A 
BRANCH  43  57
ATOM     57  C   UNL A   1      41.837  27.208  27.505  1.00  0.00     0.057 A 
ATOM     58  C   UNL A   1      42.589  27.842  26.510  1.00  0.00     0.134 A 
ATOM     59  C   UNL A   1      41.448  25.881  27.280  1.00  0.00     0.134 A 
ATOM     60  F   UNL A   1      42.976  29.118  26.660  1.00  0.00    -0.206 F 
ATOM     61  C   UNL A   1      42.924  27.188  25.324  1.00  0.00     0.040 A 
ATOM     62  C   UNL A   1      41.793  25.210  26.107  1.00  0.00     0.040 A 
ATOM     63  F   UNL A   1      40.727  25.218  28.196  1.00  0.00    -0.206 F 
ATOM     64  C   UNL A   1      42.529  25.866  25.122  1.00  0.00     0.006 A 
ENDBRANCH  43  57
BRANCH  44  65
ATOM     65  C   UNL A   1      38.987  32.127  35.682  1.00  0.00     0.057 A 
ATOM     66  C   UNL A   1      39.360  33.465  35.847  1.00  0.00     0.134 A 
ATOM     67  C   UNL A   1      38.190  31.550  36.678  1.00  0.00     0.134 A 
ATOM     68  F   UNL A   1      40.142  34.065  34.937  1.00  0.00    -0.206 F 
ATOM     69  C   UNL A   1      38.947  34.206  36.956  1.00  0.00     0.040 A 
ATOM     70  C   UNL A   1      37.754  32.283  37.781  1.00  0.00     0.040 A 
ATOM     71  F   UNL A   1      37.805  30.269  36.578  1.00  0.00    -0.206 F 
ATOM     72  C   UNL A   1      38.131  33.617  37.922  1.00  0.00     0.006 A 
ENDBRANCH  44  65
BRANCH  56  73
ATOM     73  C   UNL A   1      44.149  27.648  34.316  1.00  0.00     0.057 A 
ATOM     74  C   UNL A   1      43.985  26.406  34.941  1.00  0.00     0.134 A 
ATOM     75  C   UNL A   1      45.387  28.288  34.454  1.00  0.00     0.134 A 
ATOM     76  F   UNL A   1      42.819  25.749  34.853  1.00  0.00    -0.206 F 
ATOM     77  C   UNL A   1      45.015  25.822  35.680  1.00  0.00     0.040 A 
ATOM     78  C   UNL A   1      46.430  27.705  35.176  1.00  0.00     0.040 A 
ATOM     79  F   UNL A   1      45.608  29.477  33.873  1.00  0.00    -0.206 F 
ATOM     80  C   UNL A   1      46.244  26.470  35.792  1.00  0.00     0.006 A 
ENDBRANCH  56  73
ENDBRANCH  30  31
ENDBRANCH  23  25
ENDBRANCH  22  23
ENDBRANCH   1  22
TORSDOF 12
ENDMDL
MODEL 3
REMARK VINA RESULT:     -11.4      1.352      6.601
REMARK SMILES Cc1c(C)c2c(c(C)c1O)CC[C@@](C)(C(=O)OCCOC(=O)c1ccc(-c3c4nc(c(-c5c(F)cccc5F)c5ccc([nH]5)c(-c5c(F)cccc5F)c5nc(c(-c6c(F)cccc6F)c6ccc3[nH]6)C=C5)C=C4)cc1)O2
REMARK SMILES IDX 19 1 18 2 17 3 15 4 16 5 13 6 1 7 2 8 3 9 9 10 4 11 5 12
REMARK SMILES IDX 7 13 6 14 77 15 8 16 11 17 12 18 14 19 10 20 20 22 21 23
REMARK SMILES IDX 22 24 23 25 24 26 76 27 25 28 75 29 26 30 27 31 28 32 69 33
REMARK SMILES IDX 29 34 74 35 68 36 70 37 30 38 73 39 67 40 66 41 31 43 57 44
REMARK SMILES IDX 40 45 56 46 41 47 44 48 55 49 71 50 42 51 43 52 54 54 72 55
REMARK SMILES IDX 45 56 32 57 33 58 38 59 34 60 35 61 37 62 39 63 36 64 58 65
REMARK SMILES IDX 59 66 64 67 60 68 61 69 63 70 65 71 62 72 46 73 47 74 52 75
REMARK SMILES IDX 48 76 49 77 51 78 53 79 50 80
REMARK H PARENT 10 21 70 42 44 53
REMARK Flexibility Score: inf
ROOT
ATOM      1  C   UNL A   1      31.498  29.698  25.667  1.00  0.00     0.275 C 
ENDROOT
BRANCH   1   2
ATOM      2  C   UNL A   1      30.993  29.767  24.226  1.00  0.00     0.274 C 
BRANCH   2   3
ATOM      3  O   UNL A   1      31.152  28.499  23.556  1.00  0.00    -0.459 OA
BRANCH   3   4
ATOM      4  C   UNL A   1      32.413  28.182  23.135  1.00  0.00     0.350 C 
ATOM      5  O   UNL A   1      33.076  28.882  22.378  1.00  0.00    -0.247 OA
BRANCH   4   6
ATOM      6  C   UNL A   1      32.874  26.808  23.679  1.00  0.00     0.203 C 
ATOM      7  C   UNL A   1      29.616  22.579  26.877  1.00  0.00     0.049 C 
ATOM      8  C   UNL A   1      30.683  23.108  25.949  1.00  0.00    -0.002 A 
ATOM      9  C   UNL A   1      30.755  24.482  25.610  1.00  0.00    -0.002 A 
ATOM     10  C   UNL A   1      31.649  22.233  25.420  1.00  0.00     0.122 A 
ATOM     11  C   UNL A   1      29.788  25.466  26.225  1.00  0.00     0.049 C 
ATOM     12  C   UNL A   1      31.747  24.927  24.705  1.00  0.00     0.127 A 
ATOM     13  C   UNL A   1      32.642  22.672  24.528  1.00  0.00    -0.002 A 
ATOM     14  C   UNL A   1      32.648  24.023  24.119  1.00  0.00     0.001 A 
ATOM     15  O   UNL A   1      31.766  26.272  24.428  1.00  0.00    -0.475 OA
ATOM     16  C   UNL A   1      33.673  21.708  23.995  1.00  0.00     0.049 C 
ATOM     17  C   UNL A   1      33.633  24.498  23.086  1.00  0.00     0.044 C 
ATOM     18  C   UNL A   1      33.251  25.862  22.540  1.00  0.00     0.065 C 
ATOM     19  C   UNL A   1      34.027  27.103  24.647  1.00  0.00     0.069 C 
BRANCH  10  20
ATOM     20  O   UNL A   1      31.664  20.902  25.751  1.00  0.00    -0.507 OA
ATOM     21  H   UNL A   1      30.895  20.380  25.629  1.00  0.00     0.293 HD
ENDBRANCH  10  20
ENDBRANCH   4   6
ENDBRANCH   3   4
ENDBRANCH   2   3
ENDBRANCH   1   2
BRANCH   1  22
ATOM     22  O   UNL A   1      32.783  30.334  25.765  1.00  0.00    -0.458 OA
BRANCH  22  23
ATOM     23  C   UNL A   1      32.945  31.192  26.797  1.00  0.00     0.338 C 
ATOM     24  O   UNL A   1      32.152  32.012  27.223  1.00  0.00    -0.246 OA
BRANCH  23  25
ATOM     25  C   UNL A   1      34.250  30.933  27.419  1.00  0.00     0.060 A 
ATOM     26  C   UNL A   1      34.603  29.612  27.674  1.00  0.00     0.016 A 
ATOM     27  C   UNL A   1      35.070  31.981  27.838  1.00  0.00     0.016 A 
ATOM     28  C   UNL A   1      35.766  29.328  28.377  1.00  0.00     0.010 A 
ATOM     29  C   UNL A   1      36.259  31.691  28.519  1.00  0.00     0.010 A 
ATOM     30  C   UNL A   1      36.603  30.360  28.814  1.00  0.00    -0.014 A 
BRANCH  30  31
ATOM     31  C   UNL A   1      37.768  30.019  29.667  1.00  0.00     0.031 A 
ATOM     32  C   UNL A   1      38.895  29.209  29.094  1.00  0.00     0.074 A 
ATOM     33  C   UNL A   1      37.873  30.521  30.911  1.00  0.00     0.049 A 
ATOM     34  N   UNL A   1      39.973  28.757  29.682  1.00  0.00    -0.248 NA
ATOM     35  C   UNL A   1      38.798  28.867  27.666  1.00  0.00     0.031 C 
ATOM     36  C   UNL A   1      36.897  31.402  31.552  1.00  0.00     0.029 A 
ATOM     37  N   UNL A   1      38.866  30.383  31.848  1.00  0.00    -0.354 N 
ATOM     38  C   UNL A   1      40.662  28.047  28.709  1.00  0.00     0.074 A 
ATOM     39  C   UNL A   1      39.883  28.126  27.492  1.00  0.00     0.031 C 
ATOM     40  C   UNL A   1      37.357  31.756  32.763  1.00  0.00     0.029 A 
ATOM     41  C   UNL A   1      38.627  31.078  33.008  1.00  0.00     0.049 A 
ATOM     42  H   UNL A   1      39.672  29.836  31.704  1.00  0.00     0.167 HD
ATOM     43  C   UNL A   1      41.840  27.388  28.820  1.00  0.00     0.037 A 
ATOM     44  C   UNL A   1      39.340  31.144  34.149  1.00  0.00     0.037 A 
ATOM     45  C   UNL A   1      42.636  27.343  30.016  1.00  0.00     0.049 A 
ATOM     46  C   UNL A   1      40.609  30.351  34.275  1.00  0.00     0.074 A 
ATOM     47  C   UNL A   1      43.841  26.696  30.228  1.00  0.00     0.029 A 
ATOM     48  N   UNL A   1      42.313  27.984  31.203  1.00  0.00    -0.354 N 
ATOM     49  N   UNL A   1      41.216  29.618  33.374  1.00  0.00    -0.248 NA
ATOM     50  C   UNL A   1      41.279  30.371  35.584  1.00  0.00     0.031 C 
ATOM     51  C   UNL A   1      44.230  26.918  31.553  1.00  0.00     0.029 A 
ATOM     52  C   UNL A   1      43.284  27.731  32.156  1.00  0.00     0.049 A 
ATOM     53  H   UNL A   1      41.510  28.536  31.346  1.00  0.00     0.167 HD
ATOM     54  C   UNL A   1      42.331  29.084  34.004  1.00  0.00     0.074 A 
ATOM     55  C   UNL A   1      42.333  29.597  35.358  1.00  0.00     0.031 C 
ATOM     56  C   UNL A   1      43.264  28.236  33.505  1.00  0.00     0.037 A 
BRANCH  43  57
ATOM     57  C   UNL A   1      42.311  26.626  27.621  1.00  0.00     0.057 A 
ATOM     58  C   UNL A   1      43.128  27.206  26.644  1.00  0.00     0.134 A 
ATOM     59  C   UNL A   1      41.943  25.285  27.448  1.00  0.00     0.134 A 
ATOM     60  F   UNL A   1      43.499  28.491  26.744  1.00  0.00    -0.206 F 
ATOM     61  C   UNL A   1      43.548  26.485  25.526  1.00  0.00     0.040 A 
ATOM     62  C   UNL A   1      42.373  24.548  26.345  1.00  0.00     0.040 A 
ATOM     63  F   UNL A   1      41.162  24.673  28.350  1.00  0.00    -0.206 F 
ATOM     64  C   UNL A   1      43.174  25.149  25.377  1.00  0.00     0.006 A 
ENDBRANCH  43  57
BRANCH  44  65
ATOM     65  C   UNL A   1      38.842  31.972  35.274  1.00  0.00     0.057 A 
ATOM     66  C   UNL A   1      38.154  31.396  36.346  1.00  0.00     0.134 A 
ATOM     67  C   UNL A   1      39.073  33.353  35.319  1.00  0.00     0.134 A 
ATOM     68  F   UNL A   1      37.883  30.083  36.347  1.00  0.00    -0.206 F 
ATOM     69  C   UNL A   1      37.721  32.162  37.430  1.00  0.00     0.040 A 
ATOM     70  C   UNL A   1      38.665  34.127  36.404  1.00  0.00     0.040 A 
ATOM     71  F   UNL A   1      39.724  33.962  34.317  1.00  0.00    -0.206 F 
ATOM     72  C   UNL A   1      37.987  33.531  37.466  1.00  0.00     0.006 A 
ENDBRANCH  44  65
BRANCH  56  73
ATOM     73  C   UNL A   1      44.358  27.796  34.430  1.00  0.00     0.057 A 
ATOM     74  C   UNL A   1      44.248  26.620  35.180  1.00  0.00     0.134 A 
ATOM     75  C   UNL A   1      45.556  28.516  34.518  1.00  0.00     0.134 A 
ATOM     76  F   UNL A   1      43.122  25.893  35.144  1.00  0.00    -0.206 F 
ATOM     77  C   UNL A   1      45.292  26.176  35.994  1.00  0.00     0.040 A 
ATOM     78  C   UNL A   1      46.613  28.073  35.315  1.00  0.00     0.040 A 
ATOM     79  F   UNL A   1      45.726  29.647  33.817  1.00  0.00    -0.206 F 
ATOM     80  C   UNL A   1      46.481  26.900  36.056  1.00  0.00     0.006 A 
ENDBRANCH  56  73
ENDBRANCH  30  31
ENDBRANCH  23  25
ENDBRANCH  22  23
ENDBRANCH   1  22
TORSDOF 12
ENDMDL
