MODEL 1
REMARK VINA RESULT:     -11.9      0.000      0.000
REMARK SMILES O=C(Nc1ccc(C(=O)OCCOC(=O)c2ccc(-c3c4nc(c(-c5c(F)cccc5F)c5ccc([nH]5)c(-c5c(F)cccc5F)c5nc(c(-c6c(F)cccc6F)c6ccc3[nH]6)C=C5)C=C4)cc2)cc1)c1cc(F)cc(Br)c1
REMARK SMILES IDX 11 1 10 2 8 3 9 4 7 5 4 6 5 7 71 8 6 9 70 10 3 11 1 12 2 13
REMARK SMILES IDX 72 15 73 16 79 17 74 18 77 19 75 20 76 21 78 22 12 23 13 24
REMARK SMILES IDX 14 25 15 26 16 27 17 28 69 29 18 30 68 31 19 32 20 33 21 34
REMARK SMILES IDX 62 35 22 36 67 37 61 38 63 39 23 40 66 41 60 42 59 43 24 45
REMARK SMILES IDX 50 46 33 47 49 48 34 49 37 50 48 51 64 52 35 53 36 54 47 56
REMARK SMILES IDX 65 57 38 58 25 59 26 60 31 61 27 62 28 63 30 64 32 65 29 66
REMARK SMILES IDX 51 67 52 68 57 69 53 70 54 71 56 72 58 73 55 74 39 75 40 76
REMARK SMILES IDX 45 77 41 78 42 79 44 80 46 81 43 82
REMARK H PARENT 3 14 63 44 37 55
REMARK Flexibility Score: inf
ROOT
ATOM      1  C   UNL A   1      34.935  20.338  25.004  1.00  0.00     0.275 C 
ENDROOT
BRANCH   1   2
ATOM      2  O   UNL A   1      33.884  20.984  25.751  1.00  0.00    -0.458 OA
BRANCH   2   3
ATOM      3  C   UNL A   1      32.641  20.861  25.225  1.00  0.00     0.338 C 
ATOM      4  O   UNL A   1      31.997  19.835  25.109  1.00  0.00    -0.246 OA
BRANCH   3   5
ATOM      5  C   UNL A   1      32.091  22.184  24.845  1.00  0.00     0.060 A 
ATOM      6  C   UNL A   1      30.632  24.453  24.149  1.00  0.00     0.041 A 
ATOM      7  C   UNL A   1      30.743  24.106  25.488  1.00  0.00     0.027 A 
ATOM      8  C   UNL A   1      31.377  23.764  23.179  1.00  0.00     0.027 A 
ATOM      9  C   UNL A   1      31.419  22.936  25.819  1.00  0.00     0.018 A 
ATOM     10  C   UNL A   1      32.117  22.630  23.526  1.00  0.00     0.018 A 
BRANCH   6  11
ATOM     11  N   UNL A   1      29.640  25.390  23.823  1.00  0.00    -0.322 N 
ATOM     12  O   UNL A   1      28.823  27.495  23.534  1.00  0.00    -0.269 OA
ATOM     13  C   UNL A   1      29.786  26.762  23.744  1.00  0.00     0.255 C 
ATOM     14  H   UNL A   1      28.744  25.031  23.629  1.00  0.00     0.170 HD
BRANCH  13  15
ATOM     15  C   UNL A   1      31.140  27.359  23.828  1.00  0.00     0.044 A 
ATOM     16  C   UNL A   1      31.935  27.511  22.685  1.00  0.00     0.053 A 
ATOM     17  C   UNL A   1      31.633  27.704  25.088  1.00  0.00     0.029 A 
ATOM     18  C   UNL A   1      33.257  27.910  22.831  1.00  0.00     0.125 A 
ATOM     19  C   UNL A   1      32.959  28.117  25.205  1.00  0.00     0.021 A 
ATOM     20  F   UNL A   1      34.047  27.977  21.751  1.00  0.00    -0.207 F 
ATOM     21  C   UNL A   1      33.783  28.204  24.083  1.00  0.00     0.055 A 
ATOM     22  Br  UNL A   1      33.662  28.519  26.912  1.00  0.00    -0.051 Br
ENDBRANCH  13  15
ENDBRANCH   6  11
ENDBRANCH   3   5
ENDBRANCH   2   3
ENDBRANCH   1   2
BRANCH   1  23
ATOM     23  C   UNL A   1      36.041  21.332  24.650  1.00  0.00     0.275 C 
BRANCH  23  24
ATOM     24  O   UNL A   1      36.786  21.695  25.827  1.00  0.00    -0.458 OA
BRANCH  24  25
ATOM     25  C   UNL A   1      38.109  21.414  25.792  1.00  0.00     0.338 C 
ATOM     26  O   UNL A   1      38.654  20.444  25.291  1.00  0.00    -0.246 OA
BRANCH  25  27
ATOM     27  C   UNL A   1      38.867  22.509  26.415  1.00  0.00     0.060 A 
ATOM     28  C   UNL A   1      38.487  23.818  26.145  1.00  0.00     0.016 A 
ATOM     29  C   UNL A   1      40.029  22.260  27.138  1.00  0.00     0.016 A 
ATOM     30  C   UNL A   1      39.321  24.879  26.478  1.00  0.00     0.010 A 
ATOM     31  C   UNL A   1      40.790  23.340  27.608  1.00  0.00     0.010 A 
ATOM     32  C   UNL A   1      40.458  24.664  27.263  1.00  0.00    -0.014 A 
BRANCH  32  33
ATOM     33  C   UNL A   1      41.261  25.820  27.759  1.00  0.00     0.031 A 
ATOM     34  C   UNL A   1      40.624  26.887  28.610  1.00  0.00     0.074 A 
ATOM     35  C   UNL A   1      42.562  25.932  27.414  1.00  0.00     0.049 A 
ATOM     36  N   UNL A   1      41.081  28.072  28.928  1.00  0.00    -0.248 NA
ATOM     37  C   UNL A   1      39.293  26.591  29.167  1.00  0.00     0.031 C 
ATOM     38  C   UNL A   1      43.323  24.956  26.627  1.00  0.00     0.029 A 
ATOM     39  N   UNL A   1      43.478  26.927  27.667  1.00  0.00    -0.354 N 
ATOM     40  C   UNL A   1      40.073  28.686  29.661  1.00  0.00     0.074 A 
ATOM     41  C   UNL A   1      38.983  27.740  29.755  1.00  0.00     0.031 C 
ATOM     42  C   UNL A   1      44.583  25.386  26.480  1.00  0.00     0.029 A 
ATOM     43  C   UNL A   1      44.692  26.718  27.055  1.00  0.00     0.049 A 
ATOM     44  H   UNL A   1      43.283  27.710  28.230  1.00  0.00     0.167 HD
ATOM     45  C   UNL A   1      40.062  29.932  30.194  1.00  0.00     0.037 A 
ATOM     46  C   UNL A   1      45.753  27.531  26.896  1.00  0.00     0.037 A 
ATOM     47  C   UNL A   1      41.177  30.844  30.145  1.00  0.00     0.049 A 
ATOM     48  C   UNL A   1      45.692  28.923  27.451  1.00  0.00     0.074 A 
ATOM     49  C   UNL A   1      41.283  32.103  30.711  1.00  0.00     0.029 A 
ATOM     50  N   UNL A   1      42.375  30.594  29.495  1.00  0.00    -0.354 N 
ATOM     51  N   UNL A   1      44.730  29.497  28.132  1.00  0.00    -0.248 NA
ATOM     52  C   UNL A   1      46.850  29.790  27.195  1.00  0.00     0.031 C 
ATOM     53  C   UNL A   1      42.525  32.638  30.356  1.00  0.00     0.029 A 
ATOM     54  C   UNL A   1      43.211  31.691  29.613  1.00  0.00     0.049 A 
ATOM     55  H   UNL A   1      42.598  29.761  29.020  1.00  0.00     0.167 HD
ATOM     56  C   UNL A   1      45.170  30.787  28.392  1.00  0.00     0.074 A 
ATOM     57  C   UNL A   1      46.494  30.903  27.820  1.00  0.00     0.031 C 
ATOM     58  C   UNL A   1      44.528  31.789  29.039  1.00  0.00     0.037 A 
BRANCH  45  59
ATOM     59  C   UNL A   1      38.798  30.416  30.846  1.00  0.00     0.057 A 
ATOM     60  C   UNL A   1      37.797  31.088  30.139  1.00  0.00     0.134 A 
ATOM     61  C   UNL A   1      38.548  30.116  32.194  1.00  0.00     0.134 A 
ATOM     62  F   UNL A   1      37.975  31.413  28.850  1.00  0.00    -0.206 F 
ATOM     63  C   UNL A   1      36.593  31.452  30.748  1.00  0.00     0.040 A 
ATOM     64  C   UNL A   1      37.342  30.454  32.807  1.00  0.00     0.040 A 
ATOM     65  F   UNL A   1      39.464  29.466  32.928  1.00  0.00    -0.206 F 
ATOM     66  C   UNL A   1      36.359  31.126  32.083  1.00  0.00     0.006 A 
ENDBRANCH  45  59
BRANCH  46  67
ATOM     67  C   UNL A   1      46.923  27.082  26.095  1.00  0.00     0.057 A 
ATOM     68  C   UNL A   1      48.010  26.435  26.693  1.00  0.00     0.134 A 
ATOM     69  C   UNL A   1      46.986  27.302  24.711  1.00  0.00     0.134 A 
ATOM     70  F   UNL A   1      48.021  26.218  28.015  1.00  0.00    -0.206 F 
ATOM     71  C   UNL A   1      49.124  26.040  25.950  1.00  0.00     0.040 A 
ATOM     72  C   UNL A   1      48.076  26.880  23.951  1.00  0.00     0.040 A 
ATOM     73  F   UNL A   1      45.976  27.913  24.075  1.00  0.00    -0.206 F 
ATOM     74  C   UNL A   1      49.156  26.256  24.572  1.00  0.00     0.006 A 
ENDBRANCH  46  67
BRANCH  58  75
ATOM     75  C   UNL A   1      45.262  33.087  29.181  1.00  0.00     0.057 A 
ATOM     76  C   UNL A   1      45.109  34.122  28.250  1.00  0.00     0.134 A 
ATOM     77  C   UNL A   1      46.101  33.317  30.277  1.00  0.00     0.134 A 
ATOM     78  F   UNL A   1      44.333  33.956  27.169  1.00  0.00    -0.206 F 
ATOM     79  C   UNL A   1      45.780  35.337  28.398  1.00  0.00     0.040 A 
ATOM     80  C   UNL A   1      46.757  34.536  30.450  1.00  0.00     0.040 A 
ATOM     81  F   UNL A   1      46.286  32.366  31.205  1.00  0.00    -0.206 F 
ATOM     82  C   UNL A   1      46.600  35.549  29.505  1.00  0.00     0.006 A 
ENDBRANCH  58  75
ENDBRANCH  32  33
ENDBRANCH  25  27
ENDBRANCH  24  25
ENDBRANCH  23  24
ENDBRANCH   1  23
TORSDOF 13
ENDMDL
MODEL 2
REMARK VINA RESULT:     -11.9      5.338      9.317
REMARK SMILES O=C(Nc1ccc(C(=O)OCCOC(=O)c2ccc(-c3c4nc(c(-c5c(F)cccc5F)c5ccc([nH]5)c(-c5c(F)cccc5F)c5nc(c(-c6c(F)cccc6F)c6ccc3[nH]6)C=C5)C=C4)cc2)cc1)c1cc(F)cc(Br)c1
REMARK SMILES IDX 11 1 10 2 8 3 9 4 7 5 4 6 5 7 71 8 6 9 70 10 3 11 1 12 2 13
REMARK SMILES IDX 72 15 73 16 79 17 74 18 77 19 75 20 76 21 78 22 12 23 13 24
REMARK SMILES IDX 14 25 15 26 16 27 17 28 69 29 18 30 68 31 19 32 20 33 21 34
REMARK SMILES IDX 62 35 22 36 67 37 61 38 63 39 23 40 66 41 60 42 59 43 24 45
REMARK SMILES IDX 50 46 33 47 49 48 34 49 37 50 48 51 64 52 35 53 36 54 47 56
REMARK SMILES IDX 65 57 38 58 25 59 26 60 31 61 27 62 28 63 30 64 32 65 29 66
REMARK SMILES IDX 51 67 52 68 57 69 53 70 54 71 56 72 58 73 55 74 39 75 40 76
REMARK SMILES IDX 45 77 41 78 42 79 44 80 46 81 43 82
REMARK H PARENT 3 14 63 44 37 55
REMARK Flexibility Score: inf
ROOT
ATOM      1  C   UNL A   1      34.025  35.310  28.406  1.00  0.00     0.275 C 
ENDROOT
BRANCH   1   2
ATOM      2  O   UNL A   1      33.878  33.895  28.643  1.00  0.00    -0.458 OA
BRANCH   2   3
ATOM      3  C   UNL A   1      34.929  33.132  28.259  1.00  0.00     0.338 C 
ATOM      4  O   UNL A   1      36.106  33.436  28.306  1.00  0.00    -0.246 OA
BRANCH   3   5
ATOM      5  C   UNL A   1      34.479  31.792  27.813  1.00  0.00     0.060 A 
ATOM      6  C   UNL A   1      33.442  29.237  27.411  1.00  0.00     0.041 A 
ATOM      7  C   UNL A   1      32.609  30.336  27.257  1.00  0.00     0.027 A 
ATOM      8  C   UNL A   1      34.820  29.420  27.607  1.00  0.00     0.027 A 
ATOM      9  C   UNL A   1      33.121  31.602  27.523  1.00  0.00     0.018 A 
ATOM     10  C   UNL A   1      35.345  30.701  27.800  1.00  0.00     0.018 A 
BRANCH   6  11
ATOM     11  N   UNL A   1      32.818  27.986  27.521  1.00  0.00    -0.322 N 
ATOM     12  O   UNL A   1      31.585  26.235  26.750  1.00  0.00    -0.269 OA
ATOM     13  C   UNL A   1      32.174  27.287  26.518  1.00  0.00     0.255 C 
ATOM     14  H   UNL A   1      32.841  27.560  28.408  1.00  0.00     0.170 HD
BRANCH  13  15
ATOM     15  C   UNL A   1      32.266  27.767  25.118  1.00  0.00     0.044 A 
ATOM     16  C   UNL A   1      33.499  27.833  24.456  1.00  0.00     0.053 A 
ATOM     17  C   UNL A   1      31.101  28.218  24.496  1.00  0.00     0.029 A 
ATOM     18  C   UNL A   1      33.566  28.449  23.215  1.00  0.00     0.125 A 
ATOM     19  C   UNL A   1      31.193  28.819  23.241  1.00  0.00     0.021 A 
ATOM     20  F   UNL A   1      34.754  28.590  22.613  1.00  0.00    -0.207 F 
ATOM     21  C   UNL A   1      32.426  28.955  22.603  1.00  0.00     0.055 A 
ATOM     22  Br  UNL A   1      29.635  29.499  22.418  1.00  0.00    -0.051 Br
ENDBRANCH  13  15
ENDBRANCH   6  11
ENDBRANCH   3   5
ENDBRANCH   2   3
ENDBRANCH   1   2
BRANCH   1  23
ATOM     23  C   UNL A   1      32.952  36.103  29.153  1.00  0.00     0.275 C 
BRANCH  23  24
ATOM     24  O   UNL A   1      32.441  35.337  30.260  1.00  0.00    -0.458 OA
BRANCH  24  25
ATOM     25  C   UNL A   1      32.745  35.812  31.489  1.00  0.00     0.338 C 
ATOM     26  O   UNL A   1      32.202  36.722  32.095  1.00  0.00    -0.246 OA
BRANCH  25  27
ATOM     27  C   UNL A   1      33.835  35.016  32.074  1.00  0.00     0.060 A 
ATOM     28  C   UNL A   1      35.145  35.417  31.847  1.00  0.00     0.016 A 
ATOM     29  C   UNL A   1      33.580  33.807  32.714  1.00  0.00     0.016 A 
ATOM     30  C   UNL A   1      36.205  34.565  32.137  1.00  0.00     0.010 A 
ATOM     31  C   UNL A   1      34.656  33.019  33.146  1.00  0.00     0.010 A 
ATOM     32  C   UNL A   1      35.983  33.377  32.842  1.00  0.00    -0.014 A 
BRANCH  32  33
ATOM     33  C   UNL A   1      37.136  32.546  33.298  1.00  0.00     0.031 A 
ATOM     34  C   UNL A   1      37.801  32.818  34.621  1.00  0.00     0.074 A 
ATOM     35  C   UNL A   1      37.611  31.562  32.503  1.00  0.00     0.049 A 
ATOM     36  N   UNL A   1      38.947  32.377  35.076  1.00  0.00    -0.248 NA
ATOM     37  C   UNL A   1      37.095  33.714  35.552  1.00  0.00     0.031 C 
ATOM     38  C   UNL A   1      37.044  31.160  31.213  1.00  0.00     0.029 A 
ATOM     39  N   UNL A   1      38.694  30.727  32.655  1.00  0.00    -0.354 N 
ATOM     40  C   UNL A   1      39.130  32.990  36.309  1.00  0.00     0.074 A 
ATOM     41  C   UNL A   1      37.973  33.825  36.542  1.00  0.00     0.031 C 
ATOM     42  C   UNL A   1      37.764  30.152  30.703  1.00  0.00     0.029 A 
ATOM     43  C   UNL A   1      38.911  29.914  31.567  1.00  0.00     0.049 A 
ATOM     44  H   UNL A   1      39.258  30.714  33.461  1.00  0.00     0.167 HD
ATOM     45  C   UNL A   1      40.179  32.870  37.159  1.00  0.00     0.037 A 
ATOM     46  C   UNL A   1      39.952  29.122  31.248  1.00  0.00     0.037 A 
ATOM     47  C   UNL A   1      41.299  31.989  36.944  1.00  0.00     0.049 A 
ATOM     48  C   UNL A   1      41.122  29.050  32.183  1.00  0.00     0.074 A 
ATOM     49  C   UNL A   1      42.378  31.752  37.778  1.00  0.00     0.029 A 
ATOM     50  N   UNL A   1      41.482  31.203  35.818  1.00  0.00    -0.354 N 
ATOM     51  N   UNL A   1      41.290  29.642  33.340  1.00  0.00    -0.248 NA
ATOM     52  C   UNL A   1      42.259  28.222  31.759  1.00  0.00     0.031 C 
ATOM     53  C   UNL A   1      43.243  30.864  37.131  1.00  0.00     0.029 A 
ATOM     54  C   UNL A   1      42.677  30.510  35.918  1.00  0.00     0.049 A 
ATOM     55  H   UNL A   1      40.858  31.147  35.059  1.00  0.00     0.167 HD
ATOM     56  C   UNL A   1      42.545  29.252  33.786  1.00  0.00     0.074 A 
ATOM     57  C   UNL A   1      43.084  28.352  32.788  1.00  0.00     0.031 C 
ATOM     58  C   UNL A   1      43.197  29.616  34.916  1.00  0.00     0.037 A 
BRANCH  45  59
ATOM     59  C   UNL A   1      40.202  33.734  38.387  1.00  0.00     0.057 A 
ATOM     60  C   UNL A   1      39.580  33.358  39.583  1.00  0.00     0.134 A 
ATOM     61  C   UNL A   1      40.944  34.925  38.391  1.00  0.00     0.134 A 
ATOM     62  F   UNL A   1      38.849  32.236  39.645  1.00  0.00    -0.206 F 
ATOM     63  C   UNL A   1      39.688  34.138  40.737  1.00  0.00     0.040 A 
ATOM     64  C   UNL A   1      41.078  35.701  39.543  1.00  0.00     0.040 A 
ATOM     65  F   UNL A   1      41.572  35.339  37.281  1.00  0.00    -0.206 F 
ATOM     66  C   UNL A   1      40.447  35.308  40.722  1.00  0.00     0.006 A 
ENDBRANCH  45  59
BRANCH  46  67
ATOM     67  C   UNL A   1      39.977  28.412  29.942  1.00  0.00     0.057 A 
ATOM     68  C   UNL A   1      39.314  27.193  29.763  1.00  0.00     0.134 A 
ATOM     69  C   UNL A   1      40.676  28.932  28.843  1.00  0.00     0.134 A 
ATOM     70  F   UNL A   1      38.649  26.631  30.782  1.00  0.00    -0.206 F 
ATOM     71  C   UNL A   1      39.361  26.507  28.548  1.00  0.00     0.040 A 
ATOM     72  C   UNL A   1      40.701  28.276  27.613  1.00  0.00     0.040 A 
ATOM     73  F   UNL A   1      41.329  30.098  28.946  1.00  0.00    -0.206 F 
ATOM     74  C   UNL A   1      40.050  27.053  27.465  1.00  0.00     0.006 A 
ENDBRANCH  46  67
BRANCH  58  75
ATOM     75  C   UNL A   1      44.553  29.020  35.141  1.00  0.00     0.057 A 
ATOM     76  C   UNL A   1      44.716  27.790  35.790  1.00  0.00     0.134 A 
ATOM     77  C   UNL A   1      45.703  29.666  34.672  1.00  0.00     0.134 A 
ATOM     78  F   UNL A   1      43.654  27.132  36.278  1.00  0.00    -0.206 F 
ATOM     79  C   UNL A   1      45.981  27.230  35.978  1.00  0.00     0.040 A 
ATOM     80  C   UNL A   1      46.970  29.103  34.831  1.00  0.00     0.040 A 
ATOM     81  F   UNL A   1      45.613  30.844  34.038  1.00  0.00    -0.206 F 
ATOM     82  C   UNL A   1      47.110  27.884  35.491  1.00  0.00     0.006 A 
ENDBRANCH  58  75
ENDBRANCH  32  33
ENDBRANCH  25  27
ENDBRANCH  24  25
ENDBRANCH  23  24
ENDBRANCH   1  23
TORSDOF 13
ENDMDL
MODEL 3
REMARK VINA RESULT:     -11.8      4.419      9.231
REMARK SMILES O=C(Nc1ccc(C(=O)OCCOC(=O)c2ccc(-c3c4nc(c(-c5c(F)cccc5F)c5ccc([nH]5)c(-c5c(F)cccc5F)c5nc(c(-c6c(F)cccc6F)c6ccc3[nH]6)C=C5)C=C4)cc2)cc1)c1cc(F)cc(Br)c1
REMARK SMILES IDX 11 1 10 2 8 3 9 4 7 5 4 6 5 7 71 8 6 9 70 10 3 11 1 12 2 13
REMARK SMILES IDX 72 15 73 16 79 17 74 18 77 19 75 20 76 21 78 22 12 23 13 24
REMARK SMILES IDX 14 25 15 26 16 27 17 28 69 29 18 30 68 31 19 32 20 33 21 34
REMARK SMILES IDX 62 35 22 36 67 37 61 38 63 39 23 40 66 41 60 42 59 43 24 45
REMARK SMILES IDX 50 46 33 47 49 48 34 49 37 50 48 51 64 52 35 53 36 54 47 56
REMARK SMILES IDX 65 57 38 58 25 59 26 60 31 61 27 62 28 63 30 64 32 65 29 66
REMARK SMILES IDX 51 67 52 68 57 69 53 70 54 71 56 72 58 73 55 74 39 75 40 76
REMARK SMILES IDX 45 77 41 78 42 79 44 80 46 81 43 82
REMARK H PARENT 3 14 63 44 37 55
REMARK Flexibility Score: inf
ROOT
ATOM      1  C   UNL A   1      31.759  31.417  26.419  1.00  0.00     0.275 C 
ENDROOT
BRANCH   1   2
ATOM      2  O   UNL A   1      32.378  30.344  27.158  1.00  0.00    -0.458 OA
BRANCH   2   3
ATOM      3  C   UNL A   1      31.982  29.097  26.805  1.00  0.00     0.338 C 
ATOM      4  O   UNL A   1      31.456  28.268  27.524  1.00  0.00    -0.246 OA
BRANCH   3   5
ATOM      5  C   UNL A   1      32.208  28.856  25.361  1.00  0.00     0.060 A 
ATOM      6  C   UNL A   1      32.556  27.945  22.750  1.00  0.00     0.041 A 
ATOM      7  C   UNL A   1      31.270  28.154  23.227  1.00  0.00     0.027 A 
ATOM      8  C   UNL A   1      33.664  28.340  23.517  1.00  0.00     0.027 A 
ATOM      9  C   UNL A   1      31.106  28.548  24.551  1.00  0.00     0.018 A 
ATOM     10  C   UNL A   1      33.492  28.805  24.824  1.00  0.00     0.018 A 
BRANCH   6  11
ATOM     11  N   UNL A   1      32.675  27.191  21.574  1.00  0.00    -0.322 N 
ATOM     12  O   UNL A   1      33.098  25.294  20.388  1.00  0.00    -0.269 OA
ATOM     13  C   UNL A   1      32.928  25.835  21.477  1.00  0.00     0.255 C 
ATOM     14  H   UNL A   1      32.566  27.679  20.726  1.00  0.00     0.170 HD
BRANCH  13  15
ATOM     15  C   UNL A   1      32.909  24.999  22.701  1.00  0.00     0.044 A 
ATOM     16  C   UNL A   1      31.705  24.504  23.220  1.00  0.00     0.053 A 
ATOM     17  C   UNL A   1      34.115  24.773  23.367  1.00  0.00     0.029 A 
ATOM     18  C   UNL A   1      31.711  23.876  24.457  1.00  0.00     0.125 A 
ATOM     19  C   UNL A   1      34.096  24.126  24.601  1.00  0.00     0.021 A 
ATOM     20  F   UNL A   1      30.554  23.474  24.998  1.00  0.00    -0.207 F 
ATOM     21  C   UNL A   1      32.895  23.692  25.162  1.00  0.00     0.055 A 
ATOM     22  Br  UNL A   1      35.712  23.877  25.547  1.00  0.00    -0.051 Br
ENDBRANCH  13  15
ENDBRANCH   6  11
ENDBRANCH   3   5
ENDBRANCH   2   3
ENDBRANCH   1   2
BRANCH   1  23
ATOM     23  C   UNL A   1      31.701  32.693  27.259  1.00  0.00     0.275 C 
BRANCH  23  24
ATOM     24  O   UNL A   1      32.981  33.353  27.261  1.00  0.00    -0.458 OA
BRANCH  24  25
ATOM     25  C   UNL A   1      33.237  34.128  28.339  1.00  0.00     0.338 C 
ATOM     26  O   UNL A   1      32.600  35.090  28.737  1.00  0.00    -0.246 OA
BRANCH  25  27
ATOM     27  C   UNL A   1      34.411  33.609  29.057  1.00  0.00     0.060 A 
ATOM     28  C   UNL A   1      35.630  34.252  28.889  1.00  0.00     0.016 A 
ATOM     29  C   UNL A   1      34.349  32.416  29.770  1.00  0.00     0.016 A 
ATOM     30  C   UNL A   1      36.810  33.654  29.316  1.00  0.00     0.010 A 
ATOM     31  C   UNL A   1      35.521  31.892  30.335  1.00  0.00     0.010 A 
ATOM     32  C   UNL A   1      36.771  32.492  30.094  1.00  0.00    -0.014 A 
BRANCH  32  33
ATOM     33  C   UNL A   1      38.024  31.943  30.692  1.00  0.00     0.031 A 
ATOM     34  C   UNL A   1      38.813  30.879  29.975  1.00  0.00     0.074 A 
ATOM     35  C   UNL A   1      38.436  32.377  31.903  1.00  0.00     0.049 A 
ATOM     36  N   UNL A   1      39.773  30.115  30.432  1.00  0.00    -0.248 NA
ATOM     37  C   UNL A   1      38.473  30.631  28.565  1.00  0.00     0.031 C 
ATOM     38  C   UNL A   1      37.794  33.430  32.696  1.00  0.00     0.029 A 
ATOM     39  N   UNL A   1      39.490  31.976  32.692  1.00  0.00    -0.354 N 
ATOM     40  C   UNL A   1      40.103  29.254  29.393  1.00  0.00     0.074 A 
ATOM     41  C   UNL A   1      39.253  29.597  28.274  1.00  0.00     0.031 C 
ATOM     42  C   UNL A   1      38.471  33.604  33.839  1.00  0.00     0.029 A 
ATOM     43  C   UNL A   1      39.521  32.600  33.917  1.00  0.00     0.049 A 
ATOM     44  H   UNL A   1      40.154  31.308  32.407  1.00  0.00     0.167 HD
ATOM     45  C   UNL A   1      41.027  28.262  29.385  1.00  0.00     0.037 A 
ATOM     46  C   UNL A   1      40.252  32.347  35.019  1.00  0.00     0.037 A 
ATOM     47  C   UNL A   1      41.909  27.969  30.485  1.00  0.00     0.049 A 
ATOM     48  C   UNL A   1      41.229  31.210  34.999  1.00  0.00     0.074 A 
ATOM     49  C   UNL A   1      42.921  27.026  30.548  1.00  0.00     0.029 A 
ATOM     50  N   UNL A   1      41.887  28.615  31.711  1.00  0.00    -0.354 N 
ATOM     51  N   UNL A   1      41.525  30.396  34.015  1.00  0.00    -0.248 NA
ATOM     52  C   UNL A   1      41.955  30.937  36.246  1.00  0.00     0.031 C 
ATOM     53  C   UNL A   1      43.474  27.062  31.832  1.00  0.00     0.029 A 
ATOM     54  C   UNL A   1      42.841  28.063  32.550  1.00  0.00     0.049 A 
ATOM     55  H   UNL A   1      41.283  29.354  31.950  1.00  0.00     0.167 HD
ATOM     56  C   UNL A   1      42.476  29.521  34.521  1.00  0.00     0.074 A 
ATOM     57  C   UNL A   1      42.727  29.920  35.890  1.00  0.00     0.031 C 
ATOM     58  C   UNL A   1      43.079  28.474  33.909  1.00  0.00     0.037 A 
BRANCH  45  59
ATOM     59  C   UNL A   1      41.117  27.384  28.170  1.00  0.00     0.057 A 
ATOM     60  C   UNL A   1      40.347  26.225  28.021  1.00  0.00     0.134 A 
ATOM     61  C   UNL A   1      41.928  27.764  27.091  1.00  0.00     0.134 A 
ATOM     62  F   UNL A   1      39.557  25.801  29.018  1.00  0.00    -0.206 F 
ATOM     63  C   UNL A   1      40.385  25.471  26.846  1.00  0.00     0.040 A 
ATOM     64  C   UNL A   1      41.957  27.032  25.903  1.00  0.00     0.040 A 
ATOM     65  F   UNL A   1      42.685  28.868  27.164  1.00  0.00    -0.206 F 
ATOM     66  C   UNL A   1      41.184  25.880  25.778  1.00  0.00     0.006 A 
ENDBRANCH  45  59
BRANCH  46  67
ATOM     67  C   UNL A   1      40.017  33.126  36.264  1.00  0.00     0.057 A 
ATOM     68  C   UNL A   1      40.792  34.247  36.579  1.00  0.00     0.134 A 
ATOM     69  C   UNL A   1      39.017  32.758  37.176  1.00  0.00     0.134 A 
ATOM     70  F   UNL A   1      41.780  34.636  35.761  1.00  0.00    -0.206 F 
ATOM     71  C   UNL A   1      40.596  34.962  37.763  1.00  0.00     0.040 A 
ATOM     72  C   UNL A   1      38.786  33.484  38.343  1.00  0.00     0.040 A 
ATOM     73  F   UNL A   1      38.236  31.695  36.932  1.00  0.00    -0.206 F 
ATOM     74  C   UNL A   1      39.584  34.585  38.646  1.00  0.00     0.006 A 
ENDBRANCH  46  67
BRANCH  58  75
ATOM     75  C   UNL A   1      44.085  27.706  34.711  1.00  0.00     0.057 A 
ATOM     76  C   UNL A   1      43.736  26.540  35.403  1.00  0.00     0.134 A 
ATOM     77  C   UNL A   1      45.422  28.115  34.759  1.00  0.00     0.134 A 
ATOM     78  F   UNL A   1      42.466  26.107  35.409  1.00  0.00    -0.206 F 
ATOM     79  C   UNL A   1      44.681  25.817  36.131  1.00  0.00     0.040 A 
ATOM     80  C   UNL A   1      46.382  27.386  35.462  1.00  0.00     0.040 A 
ATOM     81  F   UNL A   1      45.821  29.221  34.113  1.00  0.00    -0.206 F 
ATOM     82  C   UNL A   1      46.010  26.235  36.155  1.00  0.00     0.006 A 
ENDBRANCH  58  75
ENDBRANCH  32  33
ENDBRANCH  25  27
ENDBRANCH  24  25
ENDBRANCH  23  24
ENDBRANCH   1  23
TORSDOF 13
ENDMDL
