MODEL 1
REMARK VINA RESULT:     -10.6      0.000      0.000
REMARK SMILES C#CCN(CC(=O)OCCOC(=O)c1ccc(-c2c3nc(c(-c4c(F)cccc4F)c4ccc([nH]4)c(-c4c(F)cccc4F)c4nc(c(-c5c(F)cccc5F)c5ccc2[nH]5)C=C4)C=C3)cc1)C(=O)[C@H](c1ccc(Cl)cc1)C(C)C
REMARK SMILES IDX 9 1 8 2 6 3 7 4 5 5 4 6 3 7 2 8 1 9 68 10 69 11 70 12 78 13
REMARK SMILES IDX 79 14 80 15 71 16 72 17 77 18 73 19 76 20 74 21 75 22 10 23
REMARK SMILES IDX 11 24 12 25 13 26 14 27 15 28 67 29 16 30 66 31 17 32 18 33
REMARK SMILES IDX 19 34 60 35 20 36 65 37 59 38 61 39 21 40 64 41 58 42 57 43
REMARK SMILES IDX 22 45 48 46 31 47 47 48 32 49 35 50 46 51 62 52 33 53 34 54
REMARK SMILES IDX 45 56 63 57 36 58 23 59 24 60 29 61 25 62 26 63 28 64 30 65
REMARK SMILES IDX 27 66 49 67 50 68 55 69 51 70 52 71 54 72 56 73 53 74 37 75
REMARK SMILES IDX 38 76 43 77 39 78 40 79 42 80 44 81 41 82
REMARK H PARENT 61 44 35 55
REMARK Flexibility Score: inf
ROOT
ATOM      1  C   UNL A   1      32.129  28.762  24.559  1.00  0.00     0.274 C 
ENDROOT
BRANCH   1   2
ATOM      2  O   UNL A   1      32.188  27.558  25.371  1.00  0.00    -0.461 OA
BRANCH   2   3
ATOM      3  C   UNL A   1      33.357  26.869  25.248  1.00  0.00     0.325 C 
ATOM      4  O   UNL A   1      34.066  26.572  26.208  1.00  0.00    -0.250 OA
BRANCH   3   5
ATOM      5  C   UNL A   1      33.686  26.345  23.837  1.00  0.00     0.243 C 
BRANCH   5   6
ATOM      6  N   UNL A   1      33.206  25.086  23.241  1.00  0.00    -0.320 N 
BRANCH   6   7
ATOM      7  C   UNL A   1      32.025  25.222  22.372  1.00  0.00     0.210 C 
BRANCH   7   8
ATOM      8  C   UNL A   1      30.771  25.326  23.145  1.00  0.00    -0.085 C 
ATOM      9  C   UNL A   1      29.829  25.428  23.891  1.00  0.00     0.006 C 
ENDBRANCH   7   8
ENDBRANCH   6   7
BRANCH   6  10
ATOM     10  C   UNL A   1      33.826  23.838  23.162  1.00  0.00     0.231 C 
ATOM     11  O   UNL A   1      34.342  23.526  22.079  1.00  0.00    -0.274 OA
BRANCH  10  12
ATOM     12  C   UNL A   1      33.882  22.813  24.331  1.00  0.00     0.111 C 
BRANCH  12  13
ATOM     13  C   UNL A   1      33.132  21.466  23.923  1.00  0.00    -0.000 C 
ATOM     14  C   UNL A   1      32.434  20.755  25.087  1.00  0.00     0.008 C 
ATOM     15  C   UNL A   1      32.033  21.656  22.850  1.00  0.00     0.008 C 
ENDBRANCH  12  13
BRANCH  12  16
ATOM     16  C   UNL A   1      35.325  22.599  24.820  1.00  0.00    -0.035 A 
ATOM     17  C   UNL A   1      36.043  21.407  24.676  1.00  0.00     0.006 A 
ATOM     18  C   UNL A   1      36.002  23.670  25.423  1.00  0.00     0.006 A 
ATOM     19  C   UNL A   1      37.365  21.302  25.151  1.00  0.00     0.021 A 
ATOM     20  C   UNL A   1      37.327  23.597  25.856  1.00  0.00     0.021 A 
ATOM     21  C   UNL A   1      38.002  22.397  25.737  1.00  0.00     0.041 A 
ATOM     22  Cl  UNL A   1      39.594  22.263  26.367  1.00  0.00    -0.084 Cl
ENDBRANCH  12  16
ENDBRANCH  10  12
ENDBRANCH   6  10
ENDBRANCH   5   6
ENDBRANCH   3   5
ENDBRANCH   2   3
ENDBRANCH   1   2
BRANCH   1  23
ATOM     23  C   UNL A   1      31.727  29.988  25.385  1.00  0.00     0.275 C 
BRANCH  23  24
ATOM     24  O   UNL A   1      32.386  29.960  26.675  1.00  0.00    -0.458 OA
BRANCH  24  25
ATOM     25  C   UNL A   1      32.931  31.138  27.082  1.00  0.00     0.338 C 
ATOM     26  O   UNL A   1      32.329  32.188  27.242  1.00  0.00    -0.246 OA
BRANCH  25  27
ATOM     27  C   UNL A   1      34.359  30.996  27.465  1.00  0.00     0.060 A 
ATOM     28  C   UNL A   1      34.805  29.743  27.834  1.00  0.00     0.016 A 
ATOM     29  C   UNL A   1      35.167  32.098  27.751  1.00  0.00     0.016 A 
ATOM     30  C   UNL A   1      35.878  29.599  28.702  1.00  0.00     0.010 A 
ATOM     31  C   UNL A   1      36.388  31.923  28.437  1.00  0.00     0.010 A 
ATOM     32  C   UNL A   1      36.738  30.667  28.956  1.00  0.00    -0.014 A 
BRANCH  32  33
ATOM     33  C   UNL A   1      38.023  30.373  29.648  1.00  0.00     0.031 A 
ATOM     34  C   UNL A   1      39.102  29.544  29.012  1.00  0.00     0.074 A 
ATOM     35  C   UNL A   1      38.278  30.976  30.830  1.00  0.00     0.049 A 
ATOM     36  N   UNL A   1      40.153  28.993  29.564  1.00  0.00    -0.248 NA
ATOM     37  C   UNL A   1      39.018  29.347  27.558  1.00  0.00     0.031 C 
ATOM     38  C   UNL A   1      37.433  31.998  31.462  1.00  0.00     0.029 A 
ATOM     39  N   UNL A   1      39.329  30.846  31.705  1.00  0.00    -0.354 N 
ATOM     40  C   UNL A   1      40.829  28.340  28.540  1.00  0.00     0.074 A 
ATOM     41  C   UNL A   1      40.096  28.609  27.320  1.00  0.00     0.031 C 
ATOM     42  C   UNL A   1      38.012  32.424  32.590  1.00  0.00     0.029 A 
ATOM     43  C   UNL A   1      39.156  31.574  32.860  1.00  0.00     0.049 A 
ATOM     44  H   UNL A   1      40.121  30.291  31.525  1.00  0.00     0.167 HD
ATOM     45  C   UNL A   1      41.935  27.561  28.637  1.00  0.00     0.037 A 
ATOM     46  C   UNL A   1      39.762  31.481  34.056  1.00  0.00     0.037 A 
ATOM     47  C   UNL A   1      42.636  27.333  29.879  1.00  0.00     0.049 A 
ATOM     48  C   UNL A   1      40.835  30.447  34.213  1.00  0.00     0.074 A 
ATOM     49  C   UNL A   1      43.701  26.489  30.138  1.00  0.00     0.029 A 
ATOM     50  N   UNL A   1      42.333  27.968  31.078  1.00  0.00    -0.354 N 
ATOM     51  N   UNL A   1      41.371  29.675  33.299  1.00  0.00    -0.248 NA
ATOM     52  C   UNL A   1      41.357  30.236  35.567  1.00  0.00     0.031 C 
ATOM     53  C   UNL A   1      43.988  26.555  31.505  1.00  0.00     0.029 A 
ATOM     54  C   UNL A   1      43.155  27.499  32.087  1.00  0.00     0.049 A 
ATOM     55  H   UNL A   1      41.634  28.652  31.192  1.00  0.00     0.167 HD
ATOM     56  C   UNL A   1      42.305  28.896  33.961  1.00  0.00     0.074 A 
ATOM     57  C   UNL A   1      42.274  29.304  35.352  1.00  0.00     0.031 C 
ATOM     58  C   UNL A   1      43.110  27.927  33.464  1.00  0.00     0.037 A 
BRANCH  45  59
ATOM     59  C   UNL A   1      42.365  26.793  27.417  1.00  0.00     0.057 A 
ATOM     60  C   UNL A   1      41.865  25.529  27.087  1.00  0.00     0.134 A 
ATOM     61  C   UNL A   1      43.307  27.357  26.542  1.00  0.00     0.134 A 
ATOM     62  F   UNL A   1      40.970  24.921  27.880  1.00  0.00    -0.206 F 
ATOM     63  C   UNL A   1      42.306  24.843  25.948  1.00  0.00     0.040 A 
ATOM     64  C   UNL A   1      43.734  26.694  25.389  1.00  0.00     0.040 A 
ATOM     65  F   UNL A   1      43.824  28.570  26.788  1.00  0.00    -0.206 F 
ATOM     66  C   UNL A   1      43.241  25.428  25.095  1.00  0.00     0.006 A 
ENDBRANCH  45  59
BRANCH  46  67
ATOM     67  C   UNL A   1      39.255  32.266  35.216  1.00  0.00     0.057 A 
ATOM     68  C   UNL A   1      39.691  33.571  35.465  1.00  0.00     0.134 A 
ATOM     69  C   UNL A   1      38.325  31.721  36.116  1.00  0.00     0.134 A 
ATOM     70  F   UNL A   1      40.598  34.144  34.660  1.00  0.00    -0.206 F 
ATOM     71  C   UNL A   1      39.232  34.298  36.567  1.00  0.00     0.040 A 
ATOM     72  C   UNL A   1      37.827  32.450  37.196  1.00  0.00     0.040 A 
ATOM     73  F   UNL A   1      37.864  30.472  35.947  1.00  0.00    -0.206 F 
ATOM     74  C   UNL A   1      38.291  33.741  37.431  1.00  0.00     0.006 A 
ENDBRANCH  46  67
BRANCH  58  75
ATOM     75  C   UNL A   1      44.055  27.271  34.425  1.00  0.00     0.057 A 
ATOM     76  C   UNL A   1      45.312  27.814  34.712  1.00  0.00     0.134 A 
ATOM     77  C   UNL A   1      43.676  26.109  35.107  1.00  0.00     0.134 A 
ATOM     78  F   UNL A   1      45.742  28.914  34.074  1.00  0.00    -0.206 F 
ATOM     79  C   UNL A   1      46.167  27.216  35.639  1.00  0.00     0.040 A 
ATOM     80  C   UNL A   1      44.506  25.521  36.059  1.00  0.00     0.040 A 
ATOM     81  F   UNL A   1      42.482  25.542  34.877  1.00  0.00    -0.206 F 
ATOM     82  C   UNL A   1      45.758  26.073  36.324  1.00  0.00     0.006 A 
ENDBRANCH  58  75
ENDBRANCH  32  33
ENDBRANCH  25  27
ENDBRANCH  24  25
ENDBRANCH  23  24
ENDBRANCH   1  23
TORSDOF 18
ENDMDL
MODEL 2
REMARK VINA RESULT:     -10.5      4.071      9.103
REMARK SMILES C#CCN(CC(=O)OCCOC(=O)c1ccc(-c2c3nc(c(-c4c(F)cccc4F)c4ccc([nH]4)c(-c4c(F)cccc4F)c4nc(c(-c5c(F)cccc5F)c5ccc2[nH]5)C=C4)C=C3)cc1)C(=O)[C@H](c1ccc(Cl)cc1)C(C)C
REMARK SMILES IDX 9 1 8 2 6 3 7 4 5 5 4 6 3 7 2 8 1 9 68 10 69 11 70 12 78 13
REMARK SMILES IDX 79 14 80 15 71 16 72 17 77 18 73 19 76 20 74 21 75 22 10 23
REMARK SMILES IDX 11 24 12 25 13 26 14 27 15 28 67 29 16 30 66 31 17 32 18 33
REMARK SMILES IDX 19 34 60 35 20 36 65 37 59 38 61 39 21 40 64 41 58 42 57 43
REMARK SMILES IDX 22 45 48 46 31 47 47 48 32 49 35 50 46 51 62 52 33 53 34 54
REMARK SMILES IDX 45 56 63 57 36 58 23 59 24 60 29 61 25 62 26 63 28 64 30 65
REMARK SMILES IDX 27 66 49 67 50 68 55 69 51 70 52 71 54 72 56 73 53 74 37 75
REMARK SMILES IDX 38 76 43 77 39 78 40 79 42 80 44 81 41 82
REMARK H PARENT 61 44 35 55
REMARK Flexibility Score: inf
ROOT
ATOM      1  C   UNL A   1      35.037  22.060  25.142  1.00  0.00     0.274 C 
ENDROOT
BRANCH   1   2
ATOM      2  O   UNL A   1      34.183  21.912  23.975  1.00  0.00    -0.461 OA
BRANCH   2   3
ATOM      3  C   UNL A   1      34.211  22.983  23.133  1.00  0.00     0.325 C 
ATOM      4  O   UNL A   1      35.252  23.530  22.775  1.00  0.00    -0.250 OA
BRANCH   3   5
ATOM      5  C   UNL A   1      32.857  23.398  22.526  1.00  0.00     0.243 C 
BRANCH   5   6
ATOM      6  N   UNL A   1      31.904  24.365  23.099  1.00  0.00    -0.320 N 
BRANCH   6   7
ATOM      7  C   UNL A   1      30.703  23.766  23.706  1.00  0.00     0.210 C 
BRANCH   7   8
ATOM      8  C   UNL A   1      30.994  23.121  25.002  1.00  0.00    -0.085 C 
ATOM      9  C   UNL A   1      31.367  22.630  26.038  1.00  0.00     0.006 C 
ENDBRANCH   7   8
ENDBRANCH   6   7
BRANCH   6  10
ATOM     10  C   UNL A   1      32.066  25.722  23.383  1.00  0.00     0.231 C 
ATOM     11  O   UNL A   1      32.865  26.360  22.683  1.00  0.00    -0.274 OA
BRANCH  10  12
ATOM     12  C   UNL A   1      31.330  26.468  24.533  1.00  0.00     0.111 C 
BRANCH  12  13
ATOM     13  C   UNL A   1      32.378  26.964  25.629  1.00  0.00    -0.000 C 
ATOM     14  C   UNL A   1      31.746  27.376  26.964  1.00  0.00     0.008 C 
ATOM     15  C   UNL A   1      33.450  25.912  25.999  1.00  0.00     0.008 C 
ENDBRANCH  12  13
BRANCH  12  16
ATOM     16  C   UNL A   1      30.424  27.584  23.988  1.00  0.00    -0.035 A 
ATOM     17  C   UNL A   1      30.827  28.909  23.790  1.00  0.00     0.006 A 
ATOM     18  C   UNL A   1      29.106  27.269  23.622  1.00  0.00     0.006 A 
ATOM     19  C   UNL A   1      29.928  29.866  23.281  1.00  0.00     0.021 A 
ATOM     20  C   UNL A   1      28.218  28.195  23.071  1.00  0.00     0.021 A 
ATOM     21  C   UNL A   1      28.629  29.506  22.922  1.00  0.00     0.041 A 
ATOM     22  Cl  UNL A   1      27.510  30.676  22.350  1.00  0.00    -0.084 Cl
ENDBRANCH  12  16
ENDBRANCH  10  12
ENDBRANCH   6  10
ENDBRANCH   5   6
ENDBRANCH   3   5
ENDBRANCH   2   3
ENDBRANCH   1   2
BRANCH   1  23
ATOM     23  C   UNL A   1      36.231  21.101  25.101  1.00  0.00     0.275 C 
BRANCH  23  24
ATOM     24  O   UNL A   1      37.466  21.845  24.959  1.00  0.00    -0.458 OA
BRANCH  24  25
ATOM     25  C   UNL A   1      38.512  21.396  25.703  1.00  0.00     0.338 C 
ATOM     26  O   UNL A   1      38.989  20.273  25.664  1.00  0.00    -0.246 OA
BRANCH  25  27
ATOM     27  C   UNL A   1      39.141  22.480  26.503  1.00  0.00     0.060 A 
ATOM     28  C   UNL A   1      38.750  23.778  26.247  1.00  0.00     0.016 A 
ATOM     29  C   UNL A   1      40.293  22.271  27.264  1.00  0.00     0.016 A 
ATOM     30  C   UNL A   1      39.611  24.839  26.492  1.00  0.00     0.010 A 
ATOM     31  C   UNL A   1      41.051  23.371  27.718  1.00  0.00     0.010 A 
ATOM     32  C   UNL A   1      40.735  24.673  27.300  1.00  0.00    -0.014 A 
BRANCH  32  33
ATOM     33  C   UNL A   1      41.442  25.899  27.764  1.00  0.00     0.031 A 
ATOM     34  C   UNL A   1      40.782  26.914  28.653  1.00  0.00     0.074 A 
ATOM     35  C   UNL A   1      42.756  26.038  27.482  1.00  0.00     0.049 A 
ATOM     36  N   UNL A   1      41.161  28.134  28.936  1.00  0.00    -0.248 NA
ATOM     37  C   UNL A   1      39.564  26.488  29.357  1.00  0.00     0.031 C 
ATOM     38  C   UNL A   1      43.598  25.023  26.834  1.00  0.00     0.029 A 
ATOM     39  N   UNL A   1      43.629  27.070  27.721  1.00  0.00    -0.354 N 
ATOM     40  C   UNL A   1      40.206  28.644  29.807  1.00  0.00     0.074 A 
ATOM     41  C   UNL A   1      39.254  27.579  30.049  1.00  0.00     0.031 C 
ATOM     42  C   UNL A   1      44.858  25.464  26.765  1.00  0.00     0.029 A 
ATOM     43  C   UNL A   1      44.874  26.854  27.177  1.00  0.00     0.049 A 
ATOM     44  H   UNL A   1      43.390  27.879  28.228  1.00  0.00     0.167 HD
ATOM     45  C   UNL A   1      40.126  29.900  30.313  1.00  0.00     0.037 A 
ATOM     46  C   UNL A   1      45.879  27.708  26.913  1.00  0.00     0.037 A 
ATOM     47  C   UNL A   1      41.109  30.923  30.049  1.00  0.00     0.049 A 
ATOM     48  C   UNL A   1      45.679  29.149  27.274  1.00  0.00     0.074 A 
ATOM     49  C   UNL A   1      41.098  32.259  30.410  1.00  0.00     0.029 A 
ATOM     50  N   UNL A   1      42.292  30.712  29.350  1.00  0.00    -0.354 N 
ATOM     51  N   UNL A   1      44.690  29.699  27.937  1.00  0.00    -0.248 NA
ATOM     52  C   UNL A   1      46.702  30.093  26.817  1.00  0.00     0.031 C 
ATOM     53  C   UNL A   1      42.232  32.869  29.863  1.00  0.00     0.029 A 
ATOM     54  C   UNL A   1      42.992  31.899  29.227  1.00  0.00     0.049 A 
ATOM     55  H   UNL A   1      42.589  29.843  28.994  1.00  0.00     0.167 HD
ATOM     56  C   UNL A   1      44.978  31.053  27.992  1.00  0.00     0.074 A 
ATOM     57  C   UNL A   1      46.245  31.235  27.310  1.00  0.00     0.031 C 
ATOM     58  C   UNL A   1      44.256  32.054  28.550  1.00  0.00     0.037 A 
BRANCH  45  59
ATOM     59  C   UNL A   1      38.884  30.275  31.073  1.00  0.00     0.057 A 
ATOM     60  C   UNL A   1      37.715  30.740  30.459  1.00  0.00     0.134 A 
ATOM     61  C   UNL A   1      38.865  30.151  32.472  1.00  0.00     0.134 A 
ATOM     62  F   UNL A   1      37.661  30.894  29.128  1.00  0.00    -0.206 F 
ATOM     63  C   UNL A   1      36.586  31.093  31.208  1.00  0.00     0.040 A 
ATOM     64  C   UNL A   1      37.735  30.474  33.227  1.00  0.00     0.040 A 
ATOM     65  F   UNL A   1      39.944  29.703  33.130  1.00  0.00    -0.206 F 
ATOM     66  C   UNL A   1      36.594  30.957  32.596  1.00  0.00     0.006 A 
ENDBRANCH  45  59
BRANCH  46  67
ATOM     67  C   UNL A   1      47.064  27.253  26.135  1.00  0.00     0.057 A 
ATOM     68  C   UNL A   1      47.108  27.351  24.741  1.00  0.00     0.134 A 
ATOM     69  C   UNL A   1      48.183  26.692  26.772  1.00  0.00     0.134 A 
ATOM     70  F   UNL A   1      46.064  27.852  24.067  1.00  0.00    -0.206 F 
ATOM     71  C   UNL A   1      48.211  26.901  24.011  1.00  0.00     0.040 A 
ATOM     72  C   UNL A   1      49.309  26.277  26.058  1.00  0.00     0.040 A 
ATOM     73  F   UNL A   1      48.213  26.558  28.107  1.00  0.00    -0.206 F 
ATOM     74  C   UNL A   1      49.319  26.370  24.670  1.00  0.00     0.006 A 
ENDBRANCH  46  67
BRANCH  58  75
ATOM     75  C   UNL A   1      44.844  33.431  28.483  1.00  0.00     0.057 A 
ATOM     76  C   UNL A   1      44.542  34.314  27.440  1.00  0.00     0.134 A 
ATOM     77  C   UNL A   1      45.681  33.892  29.506  1.00  0.00     0.134 A 
ATOM     78  F   UNL A   1      43.763  33.923  26.420  1.00  0.00    -0.206 F 
ATOM     79  C   UNL A   1      45.064  35.607  27.410  1.00  0.00     0.040 A 
ATOM     80  C   UNL A   1      46.182  35.193  29.504  1.00  0.00     0.040 A 
ATOM     81  F   UNL A   1      46.005  33.094  30.534  1.00  0.00    -0.206 F 
ATOM     82  C   UNL A   1      45.877  36.053  28.452  1.00  0.00     0.006 A 
ENDBRANCH  58  75
ENDBRANCH  32  33
ENDBRANCH  25  27
ENDBRANCH  24  25
ENDBRANCH  23  24
ENDBRANCH   1  23
TORSDOF 18
ENDMDL
MODEL 3
REMARK VINA RESULT:     -10.4      1.278      2.144
REMARK SMILES C#CCN(CC(=O)OCCOC(=O)c1ccc(-c2c3nc(c(-c4c(F)cccc4F)c4ccc([nH]4)c(-c4c(F)cccc4F)c4nc(c(-c5c(F)cccc5F)c5ccc2[nH]5)C=C4)C=C3)cc1)C(=O)[C@H](c1ccc(Cl)cc1)C(C)C
REMARK SMILES IDX 9 1 8 2 6 3 7 4 5 5 4 6 3 7 2 8 1 9 68 10 69 11 70 12 78 13
REMARK SMILES IDX 79 14 80 15 71 16 72 17 77 18 73 19 76 20 74 21 75 22 10 23
REMARK SMILES IDX 11 24 12 25 13 26 14 27 15 28 67 29 16 30 66 31 17 32 18 33
REMARK SMILES IDX 19 34 60 35 20 36 65 37 59 38 61 39 21 40 64 41 58 42 57 43
REMARK SMILES IDX 22 45 48 46 31 47 47 48 32 49 35 50 46 51 62 52 33 53 34 54
REMARK SMILES IDX 45 56 63 57 36 58 23 59 24 60 29 61 25 62 26 63 28 64 30 65
REMARK SMILES IDX 27 66 49 67 50 68 55 69 51 70 52 71 54 72 56 73 53 74 37 75
REMARK SMILES IDX 38 76 43 77 39 78 40 79 42 80 44 81 41 82
REMARK H PARENT 61 44 35 55
REMARK Flexibility Score: inf
ROOT
ATOM      1  C   UNL A   1      31.604  28.945  24.932  1.00  0.00     0.274 C 
ENDROOT
BRANCH   1   2
ATOM      2  O   UNL A   1      32.935  28.608  24.454  1.00  0.00    -0.461 OA
BRANCH   2   3
ATOM      3  C   UNL A   1      32.947  27.626  23.510  1.00  0.00     0.325 C 
ATOM      4  O   UNL A   1      32.424  27.749  22.404  1.00  0.00    -0.250 OA
BRANCH   3   5
ATOM      5  C   UNL A   1      33.789  26.380  23.846  1.00  0.00     0.243 C 
BRANCH   5   6
ATOM      6  N   UNL A   1      33.366  24.976  23.699  1.00  0.00    -0.320 N 
BRANCH   6   7
ATOM      7  C   UNL A   1      31.911  24.758  23.765  1.00  0.00     0.210 C 
BRANCH   7   8
ATOM      8  C   UNL A   1      31.433  24.588  25.152  1.00  0.00    -0.085 C 
ATOM      9  C   UNL A   1      30.973  24.336  26.237  1.00  0.00     0.006 C 
ENDBRANCH   7   8
ENDBRANCH   6   7
BRANCH   6  10
ATOM     10  C   UNL A   1      34.086  23.864  23.261  1.00  0.00     0.231 C 
ATOM     11  O   UNL A   1      34.026  23.584  22.055  1.00  0.00    -0.274 OA
BRANCH  10  12
ATOM     12  C   UNL A   1      34.928  22.945  24.192  1.00  0.00     0.111 C 
BRANCH  12  13
ATOM     13  C   UNL A   1      35.280  23.707  25.549  1.00  0.00    -0.000 C 
ATOM     14  C   UNL A   1      34.500  23.211  26.771  1.00  0.00     0.008 C 
ATOM     15  C   UNL A   1      36.770  23.613  25.957  1.00  0.00     0.008 C 
ENDBRANCH  12  13
BRANCH  12  16
ATOM     16  C   UNL A   1      34.246  21.583  24.402  1.00  0.00    -0.035 A 
ATOM     17  C   UNL A   1      32.873  21.352  24.261  1.00  0.00     0.006 A 
ATOM     18  C   UNL A   1      35.039  20.470  24.724  1.00  0.00     0.006 A 
ATOM     19  C   UNL A   1      32.335  20.067  24.469  1.00  0.00     0.021 A 
ATOM     20  C   UNL A   1      34.527  19.182  24.887  1.00  0.00     0.021 A 
ATOM     21  C   UNL A   1      33.163  18.988  24.780  1.00  0.00     0.041 A 
ATOM     22  Cl  UNL A   1      32.510  17.429  25.087  1.00  0.00    -0.084 Cl
ENDBRANCH  12  16
ENDBRANCH  10  12
ENDBRANCH   6  10
ENDBRANCH   5   6
ENDBRANCH   3   5
ENDBRANCH   2   3
ENDBRANCH   1   2
BRANCH   1  23
ATOM     23  C   UNL A   1      31.606  30.230  25.767  1.00  0.00     0.275 C 
BRANCH  23  24
ATOM     24  O   UNL A   1      32.573  30.126  26.841  1.00  0.00    -0.458 OA
BRANCH  24  25
ATOM     25  C   UNL A   1      33.157  31.295  27.221  1.00  0.00     0.338 C 
ATOM     26  O   UNL A   1      32.589  32.366  27.361  1.00  0.00    -0.246 OA
BRANCH  25  27
ATOM     27  C   UNL A   1      34.582  31.114  27.602  1.00  0.00     0.060 A 
ATOM     28  C   UNL A   1      35.006  29.842  27.926  1.00  0.00     0.016 A 
ATOM     29  C   UNL A   1      35.407  32.192  27.929  1.00  0.00     0.016 A 
ATOM     30  C   UNL A   1      36.074  29.649  28.791  1.00  0.00     0.010 A 
ATOM     31  C   UNL A   1      36.623  31.972  28.611  1.00  0.00     0.010 A 
ATOM     32  C   UNL A   1      36.951  30.693  29.085  1.00  0.00    -0.014 A 
BRANCH  32  33
ATOM     33  C   UNL A   1      38.230  30.352  29.768  1.00  0.00     0.031 A 
ATOM     34  C   UNL A   1      39.292  29.521  29.109  1.00  0.00     0.074 A 
ATOM     35  C   UNL A   1      38.495  30.914  30.968  1.00  0.00     0.049 A 
ATOM     36  N   UNL A   1      40.331  28.933  29.644  1.00  0.00    -0.248 NA
ATOM     37  C   UNL A   1      39.205  29.369  27.649  1.00  0.00     0.031 C 
ATOM     38  C   UNL A   1      37.670  31.934  31.630  1.00  0.00     0.029 A 
ATOM     39  N   UNL A   1      39.542  30.738  31.839  1.00  0.00    -0.354 N 
ATOM     40  C   UNL A   1      40.995  28.298  28.601  1.00  0.00     0.074 A 
ATOM     41  C   UNL A   1      40.269  28.617  27.390  1.00  0.00     0.031 C 
ATOM     42  C   UNL A   1      38.256  32.315  32.770  1.00  0.00     0.029 A 
ATOM     43  C   UNL A   1      39.383  31.434  33.014  1.00  0.00     0.049 A 
ATOM     44  H   UNL A   1      40.324  30.172  31.643  1.00  0.00     0.167 HD
ATOM     45  C   UNL A   1      42.085  27.494  28.676  1.00  0.00     0.037 A 
ATOM     46  C   UNL A   1      39.986  31.294  34.208  1.00  0.00     0.037 A 
ATOM     47  C   UNL A   1      42.780  27.215  29.910  1.00  0.00     0.049 A 
ATOM     48  C   UNL A   1      41.037  30.234  34.335  1.00  0.00     0.074 A 
ATOM     49  C   UNL A   1      43.828  26.342  30.144  1.00  0.00     0.029 A 
ATOM     50  N   UNL A   1      42.488  27.820  31.127  1.00  0.00    -0.354 N 
ATOM     51  N   UNL A   1      41.559  29.479  33.398  1.00  0.00    -0.248 NA
ATOM     52  C   UNL A   1      41.553  29.972  35.682  1.00  0.00     0.031 C 
ATOM     53  C   UNL A   1      44.115  26.361  31.514  1.00  0.00     0.029 A 
ATOM     54  C   UNL A   1      43.300  27.304  32.123  1.00  0.00     0.049 A 
ATOM     55  H   UNL A   1      41.804  28.514  31.262  1.00  0.00     0.167 HD
ATOM     56  C   UNL A   1      42.476  28.662  34.037  1.00  0.00     0.074 A 
ATOM     57  C   UNL A   1      42.452  29.029  35.440  1.00  0.00     0.031 C 
ATOM     58  C   UNL A   1      43.263  27.692  33.511  1.00  0.00     0.037 A 
BRANCH  45  59
ATOM     59  C   UNL A   1      42.501  26.754  27.434  1.00  0.00     0.057 A 
ATOM     60  C   UNL A   1      43.437  27.249  26.519  1.00  0.00     0.134 A 
ATOM     61  C   UNL A   1      41.945  25.493  27.161  1.00  0.00     0.134 A 
ATOM     62  F   UNL A   1      44.004  28.450  26.707  1.00  0.00    -0.206 F 
ATOM     63  C   UNL A   1      43.783  26.532  25.367  1.00  0.00     0.040 A 
ATOM     64  C   UNL A   1      42.302  24.758  26.029  1.00  0.00     0.040 A 
ATOM     65  F   UNL A   1      41.048  24.951  27.997  1.00  0.00    -0.206 F 
ATOM     66  C   UNL A   1      43.217  25.282  25.122  1.00  0.00     0.006 A 
ENDBRANCH  45  59
BRANCH  46  67
ATOM     67  C   UNL A   1      39.493  32.054  35.390  1.00  0.00     0.057 A 
ATOM     68  C   UNL A   1      40.029  33.298  35.737  1.00  0.00     0.134 A 
ATOM     69  C   UNL A   1      38.476  31.544  36.215  1.00  0.00     0.134 A 
ATOM     70  F   UNL A   1      41.020  33.832  35.009  1.00  0.00    -0.206 F 
ATOM     71  C   UNL A   1      39.582  33.999  36.860  1.00  0.00     0.040 A 
ATOM     72  C   UNL A   1      37.992  32.253  37.315  1.00  0.00     0.040 A 
ATOM     73  F   UNL A   1      37.917  30.353  35.950  1.00  0.00    -0.206 F 
ATOM     74  C   UNL A   1      38.555  33.481  37.647  1.00  0.00     0.006 A 
ENDBRANCH  46  67
BRANCH  58  75
ATOM     75  C   UNL A   1      44.193  26.989  34.453  1.00  0.00     0.057 A 
ATOM     76  C   UNL A   1      45.460  27.499  34.758  1.00  0.00     0.134 A 
ATOM     77  C   UNL A   1      43.790  25.815  35.099  1.00  0.00     0.134 A 
ATOM     78  F   UNL A   1      45.912  28.609  34.155  1.00  0.00    -0.206 F 
ATOM     79  C   UNL A   1      46.301  26.857  35.667  1.00  0.00     0.040 A 
ATOM     80  C   UNL A   1      44.608  25.181  36.033  1.00  0.00     0.040 A 
ATOM     81  F   UNL A   1      42.587  25.278  34.850  1.00  0.00    -0.206 F 
ATOM     82  C   UNL A   1      45.870  25.701  36.317  1.00  0.00     0.006 A 
ENDBRANCH  58  75
ENDBRANCH  32  33
ENDBRANCH  25  27
ENDBRANCH  24  25
ENDBRANCH  23  24
ENDBRANCH   1  23
TORSDOF 18
ENDMDL
