MODEL 1
REMARK VINA RESULT:     -11.4      0.000      0.000
REMARK SMILES CC1(C)C(C(=O)Nc2ccc(CC(=O)OCCOC(=O)c3ccc(-c4c5nc(c(-c6c(F)cccc6F)c6ccc([nH]6)c(-c6c(F)cccc6F)c6nc(c(-c7c(F)cccc7F)c7ccc4[nH]7)C=C6)C=C5)cc3)cc2)C1(C)C
REMARK SMILES IDX 16 1 15 2 13 3 14 4 12 5 11 6 8 7 9 8 76 9 10 10 75 11 7 12
REMARK SMILES IDX 5 13 6 14 4 16 1 17 2 18 3 19 77 20 78 21 79 22 17 23 18 24
REMARK SMILES IDX 19 25 20 26 21 27 22 28 74 29 23 30 73 31 24 32 25 33 26 34
REMARK SMILES IDX 67 35 27 36 72 37 66 38 68 39 28 40 71 41 65 42 64 43 29 45
REMARK SMILES IDX 55 46 38 47 54 48 39 49 42 50 53 51 69 52 40 53 41 54 52 56
REMARK SMILES IDX 70 57 43 58 30 59 31 60 36 61 32 62 33 63 35 64 37 65 34 66
REMARK SMILES IDX 56 67 57 68 62 69 58 70 59 71 61 72 63 73 60 74 44 75 45 76
REMARK SMILES IDX 50 77 46 78 47 79 49 80 51 81 48 82
REMARK H PARENT 7 15 68 44 42 55
REMARK Flexibility Score: inf
ROOT
ATOM      1  C   UNL A   1      43.335  20.662  25.810  1.00  0.00     0.274 C 
ENDROOT
BRANCH   1   2
ATOM      2  O   UNL A   1      41.910  20.843  25.773  1.00  0.00    -0.462 OA
BRANCH   2   3
ATOM      3  C   UNL A   1      41.263  20.606  26.941  1.00  0.00     0.310 C 
ATOM      4  O   UNL A   1      41.194  19.518  27.504  1.00  0.00    -0.252 OA
BRANCH   3   5
ATOM      5  C   UNL A   1      40.574  21.823  27.478  1.00  0.00     0.158 C 
BRANCH   5   6
ATOM      6  C   UNL A   1      39.480  22.427  26.631  1.00  0.00    -0.037 A 
ATOM      7  C   UNL A   1      37.035  23.299  25.652  1.00  0.00     0.041 A 
ATOM      8  C   UNL A   1      37.892  24.224  26.239  1.00  0.00     0.026 A 
ATOM      9  C   UNL A   1      37.504  22.032  25.313  1.00  0.00     0.026 A 
ATOM     10  C   UNL A   1      39.106  23.774  26.762  1.00  0.00     0.006 A 
ATOM     11  C   UNL A   1      38.731  21.594  25.797  1.00  0.00     0.006 A 
BRANCH   7  12
ATOM     12  N   UNL A   1      35.669  23.609  25.580  1.00  0.00    -0.326 N 
ATOM     13  C   UNL A   1      34.940  23.522  24.420  1.00  0.00     0.228 C 
ATOM     14  O   UNL A   1      34.643  24.526  23.779  1.00  0.00    -0.274 OA
ATOM     15  H   UNL A   1      35.213  23.904  26.401  1.00  0.00     0.169 HD
BRANCH  13  16
ATOM     16  C   UNL A   1      34.252  22.230  24.076  1.00  0.00     0.091 C 
ATOM     17  C   UNL A   1      34.450  19.778  24.844  1.00  0.00     0.012 C 
ATOM     18  C   UNL A   1      33.873  21.158  25.107  1.00  0.00    -0.017 C 
ATOM     19  C   UNL A   1      33.790  21.400  26.594  1.00  0.00     0.012 C 
ATOM     20  C   UNL A   1      32.803  21.768  24.168  1.00  0.00    -0.017 C 
ATOM     21  C   UNL A   1      32.271  20.888  23.050  1.00  0.00     0.012 C 
ATOM     22  C   UNL A   1      31.713  22.695  24.651  1.00  0.00     0.012 C 
ENDBRANCH  13  16
ENDBRANCH   7  12
ENDBRANCH   5   6
ENDBRANCH   3   5
ENDBRANCH   2   3
ENDBRANCH   1   2
BRANCH   1  23
ATOM     23  C   UNL A   1      44.019  21.858  25.154  1.00  0.00     0.275 C 
BRANCH  23  24
ATOM     24  O   UNL A   1      43.237  23.049  25.373  1.00  0.00    -0.458 OA
BRANCH  24  25
ATOM     25  C   UNL A   1      43.892  24.222  25.229  1.00  0.00     0.338 C 
ATOM     26  O   UNL A   1      44.785  24.490  24.446  1.00  0.00    -0.246 OA
BRANCH  25  27
ATOM     27  C   UNL A   1      43.392  25.187  26.221  1.00  0.00     0.060 A 
ATOM     28  C   UNL A   1      43.806  26.522  26.195  1.00  0.00     0.016 A 
ATOM     29  C   UNL A   1      42.578  24.722  27.254  1.00  0.00     0.016 A 
ATOM     30  C   UNL A   1      43.442  27.384  27.230  1.00  0.00     0.010 A 
ATOM     31  C   UNL A   1      42.157  25.604  28.250  1.00  0.00     0.010 A 
ATOM     32  C   UNL A   1      42.601  26.938  28.260  1.00  0.00    -0.014 A 
BRANCH  32  33
ATOM     33  C   UNL A   1      42.170  27.852  29.349  1.00  0.00     0.031 A 
ATOM     34  C   UNL A   1      42.900  27.864  30.664  1.00  0.00     0.074 A 
ATOM     35  C   UNL A   1      41.089  28.638  29.177  1.00  0.00     0.049 A 
ATOM     36  N   UNL A   1      42.572  28.449  31.788  1.00  0.00    -0.248 NA
ATOM     37  C   UNL A   1      44.163  27.112  30.724  1.00  0.00     0.031 C 
ATOM     38  C   UNL A   1      40.302  28.738  27.947  1.00  0.00     0.029 A 
ATOM     39  N   UNL A   1      40.455  29.488  30.049  1.00  0.00    -0.354 N 
ATOM     40  C   UNL A   1      43.563  28.104  32.698  1.00  0.00     0.074 A 
ATOM     41  C   UNL A   1      44.503  27.256  31.998  1.00  0.00     0.031 C 
ATOM     42  C   UNL A   1      39.291  29.599  28.142  1.00  0.00     0.029 A 
ATOM     43  C   UNL A   1      39.323  30.063  29.525  1.00  0.00     0.049 A 
ATOM     44  H   UNL A   1      40.781  29.667  30.960  1.00  0.00     0.167 HD
ATOM     45  C   UNL A   1      43.675  28.464  34.000  1.00  0.00     0.037 A 
ATOM     46  C   UNL A   1      38.391  30.843  30.102  1.00  0.00     0.037 A 
ATOM     47  C   UNL A   1      42.758  29.334  34.688  1.00  0.00     0.049 A 
ATOM     48  C   UNL A   1      38.521  31.199  31.555  1.00  0.00     0.074 A 
ATOM     49  C   UNL A   1      42.810  29.782  35.998  1.00  0.00     0.029 A 
ATOM     50  N   UNL A   1      41.623  29.893  34.120  1.00  0.00    -0.354 N 
ATOM     51  N   UNL A   1      39.457  30.861  32.407  1.00  0.00    -0.248 NA
ATOM     52  C   UNL A   1      37.459  32.037  32.129  1.00  0.00     0.031 C 
ATOM     53  C   UNL A   1      41.689  30.585  36.231  1.00  0.00     0.029 A 
ATOM     54  C   UNL A   1      40.959  30.667  35.057  1.00  0.00     0.049 A 
ATOM     55  H   UNL A   1      41.333  29.759  33.189  1.00  0.00     0.167 HD
ATOM     56  C   UNL A   1      39.105  31.452  33.612  1.00  0.00     0.074 A 
ATOM     57  C   UNL A   1      37.878  32.186  33.377  1.00  0.00     0.031 C 
ATOM     58  C   UNL A   1      39.740  31.392  34.807  1.00  0.00     0.037 A 
BRANCH  45  59
ATOM     59  C   UNL A   1      44.825  27.898  34.779  1.00  0.00     0.057 A 
ATOM     60  C   UNL A   1      46.036  28.586  34.918  1.00  0.00     0.134 A 
ATOM     61  C   UNL A   1      44.698  26.670  35.441  1.00  0.00     0.134 A 
ATOM     62  F   UNL A   1      46.225  29.762  34.299  1.00  0.00    -0.206 F 
ATOM     63  C   UNL A   1      47.086  28.066  35.677  1.00  0.00     0.040 A 
ATOM     64  C   UNL A   1      45.734  26.150  36.219  1.00  0.00     0.040 A 
ATOM     65  F   UNL A   1      43.561  25.963  35.352  1.00  0.00    -0.206 F 
ATOM     66  C   UNL A   1      46.933  26.848  36.336  1.00  0.00     0.006 A 
ENDBRANCH  45  59
BRANCH  46  67
ATOM     67  C   UNL A   1      37.228  31.311  29.310  1.00  0.00     0.057 A 
ATOM     68  C   UNL A   1      36.116  30.488  29.103  1.00  0.00     0.134 A 
ATOM     69  C   UNL A   1      37.201  32.590  28.741  1.00  0.00     0.134 A 
ATOM     70  F   UNL A   1      36.096  29.244  29.604  1.00  0.00    -0.206 F 
ATOM     71  C   UNL A   1      35.022  30.916  28.349  1.00  0.00     0.040 A 
ATOM     72  C   UNL A   1      36.104  33.040  28.006  1.00  0.00     0.040 A 
ATOM     73  F   UNL A   1      38.236  33.426  28.907  1.00  0.00    -0.206 F 
ATOM     74  C   UNL A   1      35.012  32.199  27.805  1.00  0.00     0.006 A 
ENDBRANCH  46  67
BRANCH  58  75
ATOM     75  C   UNL A   1      39.131  32.157  35.942  1.00  0.00     0.057 A 
ATOM     76  C   UNL A   1      39.438  33.505  36.168  1.00  0.00     0.134 A 
ATOM     77  C   UNL A   1      38.209  31.548  36.802  1.00  0.00     0.134 A 
ATOM     78  F   UNL A   1      40.325  34.140  35.389  1.00  0.00    -0.206 F 
ATOM     79  C   UNL A   1      38.861  34.215  37.223  1.00  0.00     0.040 A 
ATOM     80  C   UNL A   1      37.611  32.254  37.846  1.00  0.00     0.040 A 
ATOM     81  F   UNL A   1      37.870  30.261  36.634  1.00  0.00    -0.206 F 
ATOM     82  C   UNL A   1      37.940  33.590  38.062  1.00  0.00     0.006 A 
ENDBRANCH  58  75
ENDBRANCH  32  33
ENDBRANCH  25  27
ENDBRANCH  24  25
ENDBRANCH  23  24
ENDBRANCH   1  23
TORSDOF 14
ENDMDL
MODEL 2
REMARK VINA RESULT:     -11.3      4.530      9.385
REMARK SMILES CC1(C)C(C(=O)Nc2ccc(CC(=O)OCCOC(=O)c3ccc(-c4c5nc(c(-c6c(F)cccc6F)c6ccc([nH]6)c(-c6c(F)cccc6F)c6nc(c(-c7c(F)cccc7F)c7ccc4[nH]7)C=C6)C=C5)cc3)cc2)C1(C)C
REMARK SMILES IDX 16 1 15 2 13 3 14 4 12 5 11 6 8 7 9 8 76 9 10 10 75 11 7 12
REMARK SMILES IDX 5 13 6 14 4 16 1 17 2 18 3 19 77 20 78 21 79 22 17 23 18 24
REMARK SMILES IDX 19 25 20 26 21 27 22 28 74 29 23 30 73 31 24 32 25 33 26 34
REMARK SMILES IDX 67 35 27 36 72 37 66 38 68 39 28 40 71 41 65 42 64 43 29 45
REMARK SMILES IDX 55 46 38 47 54 48 39 49 42 50 53 51 69 52 40 53 41 54 52 56
REMARK SMILES IDX 70 57 43 58 30 59 31 60 36 61 32 62 33 63 35 64 37 65 34 66
REMARK SMILES IDX 56 67 57 68 62 69 58 70 59 71 61 72 63 73 60 74 44 75 45 76
REMARK SMILES IDX 50 77 46 78 47 79 49 80 51 81 48 82
REMARK H PARENT 7 15 68 44 42 55
REMARK Flexibility Score: inf
ROOT
ATOM      1  C   UNL A   1      33.275  35.826  28.972  1.00  0.00     0.274 C 
ENDROOT
BRANCH   1   2
ATOM      2  O   UNL A   1      34.167  34.787  29.406  1.00  0.00    -0.462 OA
BRANCH   2   3
ATOM      3  C   UNL A   1      34.734  34.055  28.415  1.00  0.00     0.310 C 
ATOM      4  O   UNL A   1      34.884  34.430  27.256  1.00  0.00    -0.252 OA
BRANCH   3   5
ATOM      5  C   UNL A   1      35.132  32.682  28.864  1.00  0.00     0.158 C 
BRANCH   5   6
ATOM      6  C   UNL A   1      34.703  31.522  28.000  1.00  0.00    -0.037 A 
ATOM      7  C   UNL A   1      33.776  29.071  27.089  1.00  0.00     0.041 A 
ATOM      8  C   UNL A   1      32.920  30.167  27.057  1.00  0.00     0.026 A 
ATOM      9  C   UNL A   1      35.139  29.258  27.306  1.00  0.00     0.026 A 
ATOM     10  C   UNL A   1      33.380  31.390  27.550  1.00  0.00     0.006 A 
ATOM     11  C   UNL A   1      35.608  30.486  27.757  1.00  0.00     0.006 A 
BRANCH   7  12
ATOM     12  N   UNL A   1      33.214  27.787  27.078  1.00  0.00    -0.326 N 
ATOM     13  C   UNL A   1      31.978  27.513  26.545  1.00  0.00     0.228 C 
ATOM     14  O   UNL A   1      30.999  27.341  27.265  1.00  0.00    -0.274 OA
ATOM     15  H   UNL A   1      33.730  27.047  27.471  1.00  0.00     0.169 HD
BRANCH  13  16
ATOM     16  C   UNL A   1      31.867  27.135  25.094  1.00  0.00     0.091 C 
ATOM     17  C   UNL A   1      30.015  27.220  23.305  1.00  0.00     0.012 C 
ATOM     18  C   UNL A   1      31.111  27.964  24.046  1.00  0.00    -0.017 C 
ATOM     19  C   UNL A   1      30.713  29.407  24.229  1.00  0.00     0.012 C 
ATOM     20  C   UNL A   1      32.602  27.597  23.841  1.00  0.00    -0.017 C 
ATOM     21  C   UNL A   1      32.928  26.553  22.788  1.00  0.00     0.012 C 
ATOM     22  C   UNL A   1      33.719  28.611  23.916  1.00  0.00     0.012 C 
ENDBRANCH  13  16
ENDBRANCH   7  12
ENDBRANCH   5   6
ENDBRANCH   3   5
ENDBRANCH   2   3
ENDBRANCH   1   2
BRANCH   1  23
ATOM     23  C   UNL A   1      32.912  36.716  30.157  1.00  0.00     0.275 C 
BRANCH  23  24
ATOM     24  O   UNL A   1      32.270  35.929  31.180  1.00  0.00    -0.458 OA
BRANCH  24  25
ATOM     25  C   UNL A   1      32.717  36.120  32.441  1.00  0.00     0.338 C 
ATOM     26  O   UNL A   1      32.309  36.913  33.269  1.00  0.00    -0.246 OA
BRANCH  25  27
ATOM     27  C   UNL A   1      33.857  35.224  32.697  1.00  0.00     0.060 A 
ATOM     28  C   UNL A   1      33.655  33.912  33.134  1.00  0.00     0.016 A 
ATOM     29  C   UNL A   1      35.148  35.742  32.593  1.00  0.00     0.016 A 
ATOM     30  C   UNL A   1      34.745  33.129  33.515  1.00  0.00     0.010 A 
ATOM     31  C   UNL A   1      36.242  34.932  32.908  1.00  0.00     0.010 A 
ATOM     32  C   UNL A   1      36.051  33.626  33.391  1.00  0.00    -0.014 A 
BRANCH  32  33
ATOM     33  C   UNL A   1      37.227  32.793  33.753  1.00  0.00     0.031 A 
ATOM     34  C   UNL A   1      37.967  33.042  35.038  1.00  0.00     0.074 A 
ATOM     35  C   UNL A   1      37.664  31.844  32.902  1.00  0.00     0.049 A 
ATOM     36  N   UNL A   1      39.110  32.551  35.443  1.00  0.00    -0.248 NA
ATOM     37  C   UNL A   1      37.340  33.972  35.990  1.00  0.00     0.031 C 
ATOM     38  C   UNL A   1      37.029  31.486  31.633  1.00  0.00     0.029 A 
ATOM     39  N   UNL A   1      38.758  31.018  32.972  1.00  0.00    -0.354 N 
ATOM     40  C   UNL A   1      39.361  33.141  36.676  1.00  0.00     0.074 A 
ATOM     41  C   UNL A   1      38.252  34.030  36.951  1.00  0.00     0.031 C 
ATOM     42  C   UNL A   1      37.743  30.516  31.043  1.00  0.00     0.029 A 
ATOM     43  C   UNL A   1      38.917  30.226  31.860  1.00  0.00     0.049 A 
ATOM     44  H   UNL A   1      39.369  30.996  33.742  1.00  0.00     0.167 HD
ATOM     45  C   UNL A   1      40.421  32.957  37.500  1.00  0.00     0.037 A 
ATOM     46  C   UNL A   1      39.915  29.393  31.516  1.00  0.00     0.037 A 
ATOM     47  C   UNL A   1      41.508  32.050  37.241  1.00  0.00     0.049 A 
ATOM     48  C   UNL A   1      41.094  29.232  32.431  1.00  0.00     0.074 A 
ATOM     49  C   UNL A   1      42.608  31.771  38.035  1.00  0.00     0.029 A 
ATOM     50  N   UNL A   1      41.629  31.269  36.102  1.00  0.00    -0.354 N 
ATOM     51  N   UNL A   1      41.323  29.801  33.589  1.00  0.00    -0.248 NA
ATOM     52  C   UNL A   1      42.158  28.321  31.986  1.00  0.00     0.031 C 
ATOM     53  C   UNL A   1      43.412  30.846  37.361  1.00  0.00     0.029 A 
ATOM     54  C   UNL A   1      42.794  30.522  36.164  1.00  0.00     0.049 A 
ATOM     55  H   UNL A   1      40.984  31.249  35.359  1.00  0.00     0.167 HD
ATOM     56  C   UNL A   1      42.549  29.310  34.017  1.00  0.00     0.074 A 
ATOM     57  C   UNL A   1      43.007  28.383  33.002  1.00  0.00     0.031 C 
ATOM     58  C   UNL A   1      43.235  29.602  35.148  1.00  0.00     0.037 A 
BRANCH  45  59
ATOM     59  C   UNL A   1      40.471  33.773  38.758  1.00  0.00     0.057 A 
ATOM     60  C   UNL A   1      41.197  34.966  38.838  1.00  0.00     0.134 A 
ATOM     61  C   UNL A   1      39.739  33.382  39.887  1.00  0.00     0.134 A 
ATOM     62  F   UNL A   1      41.928  35.389  37.795  1.00  0.00    -0.206 F 
ATOM     63  C   UNL A   1      41.205  35.737  40.003  1.00  0.00     0.040 A 
ATOM     64  C   UNL A   1      39.725  34.154  41.050  1.00  0.00     0.040 A 
ATOM     65  F   UNL A   1      39.019  32.250  39.873  1.00  0.00    -0.206 F 
ATOM     66  C   UNL A   1      40.461  35.334  41.110  1.00  0.00     0.006 A 
ENDBRANCH  45  59
BRANCH  46  67
ATOM     67  C   UNL A   1      39.858  28.670  30.222  1.00  0.00     0.057 A 
ATOM     68  C   UNL A   1      40.454  29.199  29.072  1.00  0.00     0.134 A 
ATOM     69  C   UNL A   1      39.206  27.436  30.104  1.00  0.00     0.134 A 
ATOM     70  F   UNL A   1      41.072  30.388  29.120  1.00  0.00    -0.206 F 
ATOM     71  C   UNL A   1      40.396  28.531  27.848  1.00  0.00     0.040 A 
ATOM     72  C   UNL A   1      39.161  26.746  28.892  1.00  0.00     0.040 A 
ATOM     73  F   UNL A   1      38.617  26.877  31.172  1.00  0.00    -0.206 F 
ATOM     74  C   UNL A   1      39.754  27.298  27.759  1.00  0.00     0.006 A 
ENDBRANCH  46  67
BRANCH  58  75
ATOM     75  C   UNL A   1      44.539  28.894  35.356  1.00  0.00     0.057 A 
ATOM     76  C   UNL A   1      45.751  29.442  34.919  1.00  0.00     0.134 A 
ATOM     77  C   UNL A   1      44.584  27.664  36.022  1.00  0.00     0.134 A 
ATOM     78  F   UNL A   1      45.771  30.610  34.261  1.00  0.00    -0.206 F 
ATOM     79  C   UNL A   1      46.963  28.781  35.124  1.00  0.00     0.040 A 
ATOM     80  C   UNL A   1      45.792  27.004  36.251  1.00  0.00     0.040 A 
ATOM     81  F   UNL A   1      43.458  27.089  36.470  1.00  0.00    -0.206 F 
ATOM     82  C   UNL A   1      46.986  27.560  35.796  1.00  0.00     0.006 A 
ENDBRANCH  58  75
ENDBRANCH  32  33
ENDBRANCH  25  27
ENDBRANCH  24  25
ENDBRANCH  23  24
ENDBRANCH   1  23
TORSDOF 14
ENDMDL
MODEL 3
REMARK VINA RESULT:     -11.2      3.000      8.659
REMARK SMILES CC1(C)C(C(=O)Nc2ccc(CC(=O)OCCOC(=O)c3ccc(-c4c5nc(c(-c6c(F)cccc6F)c6ccc([nH]6)c(-c6c(F)cccc6F)c6nc(c(-c7c(F)cccc7F)c7ccc4[nH]7)C=C6)C=C5)cc3)cc2)C1(C)C
REMARK SMILES IDX 16 1 15 2 13 3 14 4 12 5 11 6 8 7 9 8 76 9 10 10 75 11 7 12
REMARK SMILES IDX 5 13 6 14 4 16 1 17 2 18 3 19 77 20 78 21 79 22 17 23 18 24
REMARK SMILES IDX 19 25 20 26 21 27 22 28 74 29 23 30 73 31 24 32 25 33 26 34
REMARK SMILES IDX 67 35 27 36 72 37 66 38 68 39 28 40 71 41 65 42 64 43 29 45
REMARK SMILES IDX 55 46 38 47 54 48 39 49 42 50 53 51 69 52 40 53 41 54 52 56
REMARK SMILES IDX 70 57 43 58 30 59 31 60 36 61 32 62 33 63 35 64 37 65 34 66
REMARK SMILES IDX 56 67 57 68 62 69 58 70 59 71 61 72 63 73 60 74 44 75 45 76
REMARK SMILES IDX 50 77 46 78 47 79 49 80 51 81 48 82
REMARK H PARENT 7 15 68 44 42 55
REMARK Flexibility Score: inf
ROOT
ATOM      1  C   UNL A   1      31.783  31.547  26.571  1.00  0.00     0.274 C 
ENDROOT
BRANCH   1   2
ATOM      2  O   UNL A   1      33.086  31.018  26.865  1.00  0.00    -0.462 OA
BRANCH   2   3
ATOM      3  C   UNL A   1      33.112  29.723  27.266  1.00  0.00     0.310 C 
ATOM      4  O   UNL A   1      34.114  29.114  27.628  1.00  0.00    -0.252 OA
BRANCH   3   5
ATOM      5  C   UNL A   1      31.769  29.064  27.178  1.00  0.00     0.158 C 
BRANCH   5   6
ATOM      6  C   UNL A   1      31.606  27.963  26.158  1.00  0.00    -0.037 A 
ATOM      7  C   UNL A   1      32.013  25.771  24.507  1.00  0.00     0.041 A 
ATOM      8  C   UNL A   1      31.252  25.612  25.661  1.00  0.00     0.026 A 
ATOM      9  C   UNL A   1      32.324  27.049  24.050  1.00  0.00     0.026 A 
ATOM     10  C   UNL A   1      31.080  26.710  26.506  1.00  0.00     0.006 A 
ATOM     11  C   UNL A   1      32.116  28.150  24.872  1.00  0.00     0.006 A 
BRANCH   7  12
ATOM     12  N   UNL A   1      32.598  24.633  23.934  1.00  0.00    -0.326 N 
ATOM     13  C   UNL A   1      33.930  24.560  23.604  1.00  0.00     0.228 C 
ATOM     14  O   UNL A   1      34.304  24.668  22.440  1.00  0.00    -0.274 OA
ATOM     15  H   UNL A   1      32.027  23.851  23.758  1.00  0.00     0.169 HD
BRANCH  13  16
ATOM     16  C   UNL A   1      34.915  24.058  24.624  1.00  0.00     0.091 C 
ATOM     17  C   UNL A   1      34.809  22.509  26.680  1.00  0.00     0.012 C 
ATOM     18  C   UNL A   1      34.929  22.624  25.171  1.00  0.00    -0.017 C 
ATOM     19  C   UNL A   1      34.235  21.456  24.514  1.00  0.00     0.012 C 
ATOM     20  C   UNL A   1      36.193  23.235  24.516  1.00  0.00    -0.017 C 
ATOM     21  C   UNL A   1      37.348  23.602  25.431  1.00  0.00     0.012 C 
ATOM     22  C   UNL A   1      36.726  22.786  23.176  1.00  0.00     0.012 C 
ENDBRANCH  13  16
ENDBRANCH   7  12
ENDBRANCH   5   6
ENDBRANCH   3   5
ENDBRANCH   2   3
ENDBRANCH   1   2
BRANCH   1  23
ATOM     23  C   UNL A   1      31.716  33.009  27.001  1.00  0.00     0.275 C 
BRANCH  23  24
ATOM     24  O   UNL A   1      33.046  33.508  27.247  1.00  0.00    -0.458 OA
BRANCH  24  25
ATOM     25  C   UNL A   1      33.222  34.179  28.406  1.00  0.00     0.338 C 
ATOM     26  O   UNL A   1      32.542  35.081  28.861  1.00  0.00    -0.246 OA
BRANCH  25  27
ATOM     27  C   UNL A   1      34.435  33.686  29.078  1.00  0.00     0.060 A 
ATOM     28  C   UNL A   1      35.683  34.254  28.812  1.00  0.00     0.016 A 
ATOM     29  C   UNL A   1      34.330  32.570  29.909  1.00  0.00     0.016 A 
ATOM     30  C   UNL A   1      36.838  33.677  29.342  1.00  0.00     0.010 A 
ATOM     31  C   UNL A   1      35.481  32.038  30.495  1.00  0.00     0.010 A 
ATOM     32  C   UNL A   1      36.747  32.572  30.201  1.00  0.00    -0.014 A 
BRANCH  32  33
ATOM     33  C   UNL A   1      37.962  31.969  30.807  1.00  0.00     0.031 A 
ATOM     34  C   UNL A   1      38.721  30.894  30.078  1.00  0.00     0.074 A 
ATOM     35  C   UNL A   1      38.358  32.350  32.037  1.00  0.00     0.049 A 
ATOM     36  N   UNL A   1      39.687  30.124  30.510  1.00  0.00    -0.248 NA
ATOM     37  C   UNL A   1      38.336  30.649  28.679  1.00  0.00     0.031 C 
ATOM     38  C   UNL A   1      37.726  33.393  32.846  1.00  0.00     0.029 A 
ATOM     39  N   UNL A   1      39.379  31.887  32.830  1.00  0.00    -0.354 N 
ATOM     40  C   UNL A   1      39.998  29.277  29.453  1.00  0.00     0.074 A 
ATOM     41  C   UNL A   1      39.116  29.625  28.360  1.00  0.00     0.031 C 
ATOM     42  C   UNL A   1      38.371  33.490  34.018  1.00  0.00     0.029 A 
ATOM     43  C   UNL A   1      39.421  32.478  34.069  1.00  0.00     0.049 A 
ATOM     44  H   UNL A   1      40.018  31.198  32.538  1.00  0.00     0.167 HD
ATOM     45  C   UNL A   1      40.934  28.299  29.403  1.00  0.00     0.037 A 
ATOM     46  C   UNL A   1      40.187  32.210  35.141  1.00  0.00     0.037 A 
ATOM     47  C   UNL A   1      41.833  27.975  30.480  1.00  0.00     0.049 A 
ATOM     48  C   UNL A   1      41.194  31.098  35.071  1.00  0.00     0.074 A 
ATOM     49  C   UNL A   1      42.838  27.022  30.508  1.00  0.00     0.029 A 
ATOM     50  N   UNL A   1      41.839  28.598  31.718  1.00  0.00    -0.354 N 
ATOM     51  N   UNL A   1      41.473  30.300  34.070  1.00  0.00    -0.248 NA
ATOM     52  C   UNL A   1      41.985  30.844  36.283  1.00  0.00     0.031 C 
ATOM     53  C   UNL A   1      43.431  27.047  31.774  1.00  0.00     0.029 A 
ATOM     54  C   UNL A   1      42.818  28.039  32.523  1.00  0.00     0.049 A 
ATOM     55  H   UNL A   1      41.236  29.329  31.986  1.00  0.00     0.167 HD
ATOM     56  C   UNL A   1      42.478  29.458  34.526  1.00  0.00     0.074 A 
ATOM     57  C   UNL A   1      42.773  29.854  35.888  1.00  0.00     0.031 C 
ATOM     58  C   UNL A   1      43.100  28.445  33.875  1.00  0.00     0.037 A 
BRANCH  45  59
ATOM     59  C   UNL A   1      41.023  27.488  28.145  1.00  0.00     0.057 A 
ATOM     60  C   UNL A   1      40.307  26.296  27.980  1.00  0.00     0.134 A 
ATOM     61  C   UNL A   1      41.795  27.934  27.064  1.00  0.00     0.134 A 
ATOM     62  F   UNL A   1      39.557  25.809  28.982  1.00  0.00    -0.206 F 
ATOM     63  C   UNL A   1      40.367  25.569  26.790  1.00  0.00     0.040 A 
ATOM     64  C   UNL A   1      41.848  27.225  25.864  1.00  0.00     0.040 A 
ATOM     65  F   UNL A   1      42.502  29.071  27.157  1.00  0.00    -0.206 F 
ATOM     66  C   UNL A   1      41.135  26.038  25.725  1.00  0.00     0.006 A 
ENDBRANCH  45  59
BRANCH  46  67
ATOM     67  C   UNL A   1      40.005  32.988  36.391  1.00  0.00     0.057 A 
ATOM     68  C   UNL A   1      40.795  34.110  36.664  1.00  0.00     0.134 A 
ATOM     69  C   UNL A   1      39.042  32.628  37.340  1.00  0.00     0.134 A 
ATOM     70  F   UNL A   1      41.750  34.488  35.802  1.00  0.00    -0.206 F 
ATOM     71  C   UNL A   1      40.639  34.841  37.842  1.00  0.00     0.040 A 
ATOM     72  C   UNL A   1      38.858  33.364  38.511  1.00  0.00     0.040 A 
ATOM     73  F   UNL A   1      38.253  31.563  37.133  1.00  0.00    -0.206 F 
ATOM     74  C   UNL A   1      39.663  34.472  38.766  1.00  0.00     0.006 A 
ENDBRANCH  46  67
BRANCH  58  75
ATOM     75  C   UNL A   1      44.174  27.715  34.621  1.00  0.00     0.057 A 
ATOM     76  C   UNL A   1      45.501  28.163  34.626  1.00  0.00     0.134 A 
ATOM     77  C   UNL A   1      43.874  26.565  35.361  1.00  0.00     0.134 A 
ATOM     78  F   UNL A   1      45.854  29.249  33.924  1.00  0.00    -0.206 F 
ATOM     79  C   UNL A   1      46.496  27.481  35.329  1.00  0.00     0.040 A 
ATOM     80  C   UNL A   1      44.856  25.888  36.085  1.00  0.00     0.040 A 
ATOM     81  F   UNL A   1      42.621  26.088  35.400  1.00  0.00    -0.206 F 
ATOM     82  C   UNL A   1      46.173  26.343  36.066  1.00  0.00     0.006 A 
ENDBRANCH  58  75
ENDBRANCH  32  33
ENDBRANCH  25  27
ENDBRANCH  24  25
ENDBRANCH  23  24
ENDBRANCH   1  23
TORSDOF 14
ENDMDL
