MODEL 1
REMARK VINA RESULT:     -12.1      0.000      0.000
REMARK SMILES COc1ccc(C(F)(F)F)cc1-c1cc(N)cc(C(=O)OCCOC(=O)c2ccc(-c3c4nc(c(-c5c(F)cccc5F)c5ccc([nH]5)c(-c5c(F)cccc5F)c5nc(c(-c6c(F)cccc6F)c6ccc3[nH]6)C=C5)C=C4)cc2)c1
REMARK SMILES IDX 22 1 21 2 19 3 20 4 18 5 13 6 14 7 81 8 15 9 17 10 12 11
REMARK SMILES IDX 3 12 4 13 5 14 11 15 6 16 2 17 1 18 7 19 8 20 9 21 10 22
REMARK SMILES IDX 16 23 23 26 24 27 25 28 26 29 27 30 28 31 80 32 29 33 79 34
REMARK SMILES IDX 30 35 31 36 32 37 73 38 33 39 78 40 72 41 74 42 34 43 77 44
REMARK SMILES IDX 71 45 70 46 35 48 61 49 44 50 60 51 45 52 48 53 59 54 75 55
REMARK SMILES IDX 46 56 47 57 58 59 76 60 49 61 36 62 37 63 42 64 38 65 39 66
REMARK SMILES IDX 41 67 43 68 40 69 62 70 63 71 68 72 64 73 65 74 67 75 69 76
REMARK SMILES IDX 66 77 50 78 51 79 56 80 52 81 53 82 55 83 57 84 54 85
REMARK H PARENT 16 24 16 25 74 47 48 58
REMARK Flexibility Score: inf
ROOT
ATOM      1  C   UNL A   1      42.408  20.349  25.932  1.00  0.00     0.275 C 
ENDROOT
BRANCH   1   2
ATOM      2  O   UNL A   1      41.173  20.987  26.312  1.00  0.00    -0.458 OA
BRANCH   2   3
ATOM      3  C   UNL A   1      40.033  20.399  25.877  1.00  0.00     0.338 C 
ATOM      4  O   UNL A   1      39.844  19.204  25.708  1.00  0.00    -0.246 OA
BRANCH   3   5
ATOM      5  C   UNL A   1      38.956  21.408  25.751  1.00  0.00     0.062 A 
ATOM      6  C   UNL A   1      36.730  22.045  25.075  1.00  0.00    -0.012 A 
ATOM      7  C   UNL A   1      36.946  23.318  25.640  1.00  0.00     0.034 A 
ATOM      8  C   UNL A   1      37.790  21.131  25.043  1.00  0.00     0.024 A 
ATOM      9  C   UNL A   1      38.147  23.644  26.264  1.00  0.00     0.033 A 
ATOM     10  C   UNL A   1      39.089  22.636  26.419  1.00  0.00     0.041 A 
BRANCH   6  11
ATOM     11  C   UNL A   1      35.374  21.636  24.686  1.00  0.00     0.024 A 
ATOM     12  C   UNL A   1      34.523  22.481  23.941  1.00  0.00     0.126 A 
ATOM     13  C   UNL A   1      33.259  22.048  23.538  1.00  0.00     0.047 A 
ATOM     14  C   UNL A   1      32.829  20.758  23.845  1.00  0.00     0.017 A 
ATOM     15  C   UNL A   1      34.910  20.346  25.002  1.00  0.00     0.025 A 
ATOM     16  C   UNL A   1      33.647  19.894  24.586  1.00  0.00     0.056 A 
BRANCH  12  17
ATOM     17  O   UNL A   1      34.823  23.791  23.648  1.00  0.00    -0.496 OA
ATOM     18  C   UNL A   1      33.719  24.513  23.099  1.00  0.00     0.278 C 
ENDBRANCH  12  17
BRANCH  16  19
ATOM     19  C   UNL A   1      33.167  18.506  24.932  1.00  0.00     0.416 C 
ATOM     20  F   UNL A   1      34.156  17.575  24.837  1.00  0.00    -0.166 F 
ATOM     21  F   UNL A   1      32.694  18.422  26.206  1.00  0.00    -0.166 F 
ATOM     22  F   UNL A   1      32.157  18.063  24.132  1.00  0.00    -0.166 F 
ENDBRANCH  16  19
ENDBRANCH   6  11
BRANCH   9  23
ATOM     23  N   UNL A   1      38.312  24.875  26.879  1.00  0.00    -0.399 N 
ATOM     24  H   UNL A   1      37.536  25.464  27.020  1.00  0.00     0.156 HD
ATOM     25  H   UNL A   1      39.207  25.160  27.177  1.00  0.00     0.156 HD
ENDBRANCH   9  23
ENDBRANCH   3   5
ENDBRANCH   2   3
ENDBRANCH   1   2
BRANCH   1  26
ATOM     26  C   UNL A   1      43.441  21.397  25.518  1.00  0.00     0.275 C 
BRANCH  26  27
ATOM     27  O   UNL A   1      42.767  22.602  25.102  1.00  0.00    -0.458 OA
BRANCH  27  28
ATOM     28  C   UNL A   1      43.480  23.748  25.198  1.00  0.00     0.338 C 
ATOM     29  O   UNL A   1      44.457  24.078  24.548  1.00  0.00    -0.246 OA
BRANCH  28  30
ATOM     30  C   UNL A   1      42.834  24.640  26.174  1.00  0.00     0.060 A 
ATOM     31  C   UNL A   1      43.204  25.977  26.167  1.00  0.00     0.016 A 
ATOM     32  C   UNL A   1      42.003  24.163  27.181  1.00  0.00     0.016 A 
ATOM     33  C   UNL A   1      42.843  26.826  27.206  1.00  0.00     0.010 A 
ATOM     34  C   UNL A   1      41.536  25.049  28.167  1.00  0.00     0.010 A 
ATOM     35  C   UNL A   1      41.982  26.385  28.217  1.00  0.00    -0.014 A 
BRANCH  35  36
ATOM     36  C   UNL A   1      41.604  27.318  29.322  1.00  0.00     0.031 A 
ATOM     37  C   UNL A   1      42.401  27.356  30.603  1.00  0.00     0.074 A 
ATOM     38  C   UNL A   1      40.573  28.177  29.172  1.00  0.00     0.049 A 
ATOM     39  N   UNL A   1      42.157  28.011  31.713  1.00  0.00    -0.248 NA
ATOM     40  C   UNL A   1      43.624  26.542  30.649  1.00  0.00     0.031 C 
ATOM     41  C   UNL A   1      39.726  28.287  27.982  1.00  0.00     0.029 A 
ATOM     42  N   UNL A   1      40.069  29.134  30.020  1.00  0.00    -0.354 N 
ATOM     43  C   UNL A   1      43.154  27.636  32.606  1.00  0.00     0.074 A 
ATOM     44  C   UNL A   1      44.005  26.695  31.909  1.00  0.00     0.031 C 
ATOM     45  C   UNL A   1      38.849  29.286  28.153  1.00  0.00     0.029 A 
ATOM     46  C   UNL A   1      39.000  29.825  29.499  1.00  0.00     0.049 A 
ATOM     47  H   UNL A   1      40.438  29.310  30.916  1.00  0.00     0.167 HD
ATOM     48  C   UNL A   1      43.345  28.036  33.886  1.00  0.00     0.037 A 
ATOM     49  C   UNL A   1      38.196  30.756  30.048  1.00  0.00     0.037 A 
ATOM     50  C   UNL A   1      42.536  29.019  34.564  1.00  0.00     0.049 A 
ATOM     51  C   UNL A   1      38.421  31.177  31.471  1.00  0.00     0.074 A 
ATOM     52  C   UNL A   1      42.676  29.513  35.850  1.00  0.00     0.029 A 
ATOM     53  N   UNL A   1      41.444  29.667  34.007  1.00  0.00    -0.354 N 
ATOM     54  N   UNL A   1      39.344  30.783  32.313  1.00  0.00    -0.248 NA
ATOM     55  C   UNL A   1      37.481  32.162  32.024  1.00  0.00     0.031 C 
ATOM     56  C   UNL A   1      41.643  30.427  36.087  1.00  0.00     0.029 A 
ATOM     57  C   UNL A   1      40.889  30.542  34.930  1.00  0.00     0.049 A 
ATOM     58  H   UNL A   1      41.112  29.528  33.091  1.00  0.00     0.167 HD
ATOM     59  C   UNL A   1      39.097  31.470  33.495  1.00  0.00     0.074 A 
ATOM     60  C   UNL A   1      37.961  32.333  33.247  1.00  0.00     0.031 C 
ATOM     61  C   UNL A   1      39.748  31.386  34.680  1.00  0.00     0.037 A 
BRANCH  48  62
ATOM     62  C   UNL A   1      44.450  27.375  34.662  1.00  0.00     0.057 A 
ATOM     63  C   UNL A   1      45.744  27.905  34.728  1.00  0.00     0.134 A 
ATOM     64  C   UNL A   1      44.200  26.194  35.376  1.00  0.00     0.134 A 
ATOM     65  F   UNL A   1      46.055  29.026  34.059  1.00  0.00    -0.206 F 
ATOM     66  C   UNL A   1      46.757  27.270  35.452  1.00  0.00     0.040 A 
ATOM     67  C   UNL A   1      45.196  25.567  36.125  1.00  0.00     0.040 A 
ATOM     68  F   UNL A   1      42.980  25.636  35.362  1.00  0.00    -0.206 F 
ATOM     69  C   UNL A   1      46.482  26.100  36.158  1.00  0.00     0.006 A 
ENDBRANCH  48  62
BRANCH  49  70
ATOM     70  C   UNL A   1      37.069  31.318  29.258  1.00  0.00     0.057 A 
ATOM     71  C   UNL A   1      35.903  30.580  29.028  1.00  0.00     0.134 A 
ATOM     72  C   UNL A   1      37.132  32.609  28.718  1.00  0.00     0.134 A 
ATOM     73  F   UNL A   1      35.792  29.328  29.496  1.00  0.00    -0.206 F 
ATOM     74  C   UNL A   1      34.842  31.103  28.285  1.00  0.00     0.040 A 
ATOM     75  C   UNL A   1      36.067  33.156  28.001  1.00  0.00     0.040 A 
ATOM     76  F   UNL A   1      38.223  33.367  28.902  1.00  0.00    -0.206 F 
ATOM     77  C   UNL A   1      34.920  32.398  27.777  1.00  0.00     0.006 A 
ENDBRANCH  49  70
BRANCH  61  78
ATOM     78  C   UNL A   1      39.251  32.266  35.790  1.00  0.00     0.057 A 
ATOM     79  C   UNL A   1      39.728  33.571  35.968  1.00  0.00     0.134 A 
ATOM     80  C   UNL A   1      38.290  31.800  36.696  1.00  0.00     0.134 A 
ATOM     81  F   UNL A   1      40.660  34.072  35.144  1.00  0.00    -0.206 F 
ATOM     82  C   UNL A   1      39.296  34.368  37.030  1.00  0.00     0.040 A 
ATOM     83  C   UNL A   1      37.829  32.597  37.745  1.00  0.00     0.040 A 
ATOM     84  F   UNL A   1      37.784  30.563  36.579  1.00  0.00    -0.206 F 
ATOM     85  C   UNL A   1      38.340  33.881  37.921  1.00  0.00     0.006 A 
ENDBRANCH  61  78
ENDBRANCH  35  36
ENDBRANCH  28  30
ENDBRANCH  27  28
ENDBRANCH  26  27
ENDBRANCH   1  26
TORSDOF 15
ENDMDL
MODEL 2
REMARK VINA RESULT:     -11.8      2.948      7.808
REMARK SMILES COc1ccc(C(F)(F)F)cc1-c1cc(N)cc(C(=O)OCCOC(=O)c2ccc(-c3c4nc(c(-c5c(F)cccc5F)c5ccc([nH]5)c(-c5c(F)cccc5F)c5nc(c(-c6c(F)cccc6F)c6ccc3[nH]6)C=C5)C=C4)cc2)c1
REMARK SMILES IDX 22 1 21 2 19 3 20 4 18 5 13 6 14 7 81 8 15 9 17 10 12 11
REMARK SMILES IDX 3 12 4 13 5 14 11 15 6 16 2 17 1 18 7 19 8 20 9 21 10 22
REMARK SMILES IDX 16 23 23 26 24 27 25 28 26 29 27 30 28 31 80 32 29 33 79 34
REMARK SMILES IDX 30 35 31 36 32 37 73 38 33 39 78 40 72 41 74 42 34 43 77 44
REMARK SMILES IDX 71 45 70 46 35 48 61 49 44 50 60 51 45 52 48 53 59 54 75 55
REMARK SMILES IDX 46 56 47 57 58 59 76 60 49 61 36 62 37 63 42 64 38 65 39 66
REMARK SMILES IDX 41 67 43 68 40 69 62 70 63 71 68 72 64 73 65 74 67 75 69 76
REMARK SMILES IDX 66 77 50 78 51 79 56 80 52 81 53 82 55 83 57 84 54 85
REMARK H PARENT 16 24 16 25 74 47 48 58
REMARK Flexibility Score: inf
ROOT
ATOM      1  C   UNL A   1      32.832  29.322  24.528  1.00  0.00     0.275 C 
ENDROOT
BRANCH   1   2
ATOM      2  O   UNL A   1      32.194  28.314  23.718  1.00  0.00    -0.458 OA
BRANCH   2   3
ATOM      3  C   UNL A   1      33.001  27.350  23.212  1.00  0.00     0.338 C 
ATOM      4  O   UNL A   1      33.710  27.435  22.222  1.00  0.00    -0.246 OA
BRANCH   3   5
ATOM      5  C   UNL A   1      33.019  26.176  24.115  1.00  0.00     0.062 A 
ATOM      6  C   UNL A   1      34.102  24.211  24.999  1.00  0.00    -0.012 A 
ATOM      7  C   UNL A   1      33.034  24.056  25.905  1.00  0.00     0.034 A 
ATOM      8  C   UNL A   1      34.027  25.220  24.032  1.00  0.00     0.024 A 
ATOM      9  C   UNL A   1      31.966  24.948  25.932  1.00  0.00     0.033 A 
ATOM     10  C   UNL A   1      32.041  26.070  25.117  1.00  0.00     0.041 A 
BRANCH   6  11
ATOM     11  C   UNL A   1      35.337  23.436  25.183  1.00  0.00     0.024 A 
ATOM     12  C   UNL A   1      35.468  22.114  24.706  1.00  0.00     0.126 A 
ATOM     13  C   UNL A   1      36.669  21.419  24.846  1.00  0.00     0.047 A 
ATOM     14  C   UNL A   1      37.771  22.036  25.437  1.00  0.00     0.017 A 
ATOM     15  C   UNL A   1      36.456  24.031  25.795  1.00  0.00     0.025 A 
ATOM     16  C   UNL A   1      37.675  23.347  25.924  1.00  0.00     0.056 A 
BRANCH  12  17
ATOM     17  O   UNL A   1      34.424  21.394  24.173  1.00  0.00    -0.496 OA
ATOM     18  C   UNL A   1      34.008  20.307  25.003  1.00  0.00     0.278 C 
ENDBRANCH  12  17
BRANCH  16  19
ATOM     19  C   UNL A   1      38.865  24.001  26.581  1.00  0.00     0.416 C 
ATOM     20  F   UNL A   1      39.489  24.890  25.760  1.00  0.00    -0.166 F 
ATOM     21  F   UNL A   1      38.524  24.699  27.699  1.00  0.00    -0.166 F 
ATOM     22  F   UNL A   1      39.826  23.117  26.975  1.00  0.00    -0.166 F 
ENDBRANCH  16  19
ENDBRANCH   6  11
BRANCH   9  23
ATOM     23  N   UNL A   1      30.963  24.823  26.880  1.00  0.00    -0.399 N 
ATOM     24  H   UNL A   1      31.192  24.621  27.816  1.00  0.00     0.156 HD
ATOM     25  H   UNL A   1      30.020  24.936  26.618  1.00  0.00     0.156 HD
ENDBRANCH   9  23
ENDBRANCH   3   5
ENDBRANCH   2   3
ENDBRANCH   1   2
BRANCH   1  26
ATOM     26  C   UNL A   1      31.796  30.041  25.392  1.00  0.00     0.275 C 
BRANCH  26  27
ATOM     27  O   UNL A   1      32.292  30.163  26.740  1.00  0.00    -0.458 OA
BRANCH  27  28
ATOM     28  C   UNL A   1      32.818  31.363  27.075  1.00  0.00     0.338 C 
ATOM     29  O   UNL A   1      32.275  32.454  27.042  1.00  0.00    -0.246 OA
BRANCH  28  30
ATOM     30  C   UNL A   1      34.175  31.166  27.611  1.00  0.00     0.060 A 
ATOM     31  C   UNL A   1      34.580  29.866  27.874  1.00  0.00     0.016 A 
ATOM     32  C   UNL A   1      34.983  32.229  27.997  1.00  0.00     0.016 A 
ATOM     33  C   UNL A   1      35.731  29.610  28.611  1.00  0.00     0.010 A 
ATOM     34  C   UNL A   1      36.207  31.968  28.635  1.00  0.00     0.010 A 
ATOM     35  C   UNL A   1      36.580  30.655  28.987  1.00  0.00    -0.014 A 
BRANCH  35  36
ATOM     36  C   UNL A   1      37.814  30.354  29.776  1.00  0.00     0.031 A 
ATOM     37  C   UNL A   1      38.953  29.580  29.157  1.00  0.00     0.074 A 
ATOM     38  C   UNL A   1      37.950  30.812  31.039  1.00  0.00     0.049 A 
ATOM     39  N   UNL A   1      40.047  29.125  29.718  1.00  0.00    -0.248 NA
ATOM     40  C   UNL A   1      38.842  29.267  27.725  1.00  0.00     0.031 C 
ATOM     41  C   UNL A   1      36.954  31.602  31.768  1.00  0.00     0.029 A 
ATOM     42  N   UNL A   1      38.987  30.692  31.933  1.00  0.00    -0.354 N 
ATOM     43  C   UNL A   1      40.717  28.416  28.727  1.00  0.00     0.074 A 
ATOM     44  C   UNL A   1      39.906  28.501  27.532  1.00  0.00     0.031 C 
ATOM     45  C   UNL A   1      37.448  31.941  32.967  1.00  0.00     0.029 A 
ATOM     46  C   UNL A   1      38.752  31.312  33.138  1.00  0.00     0.049 A 
ATOM     47  H   UNL A   1      39.821  30.210  31.730  1.00  0.00     0.167 HD
ATOM     48  C   UNL A   1      41.898  27.755  28.805  1.00  0.00     0.037 A 
ATOM     49  C   UNL A   1      39.474  31.340  34.275  1.00  0.00     0.037 A 
ATOM     50  C   UNL A   1      42.739  27.720  29.975  1.00  0.00     0.049 A 
ATOM     51  C   UNL A   1      40.775  30.593  34.339  1.00  0.00     0.074 A 
ATOM     52  C   UNL A   1      43.969  27.104  30.135  1.00  0.00     0.029 A 
ATOM     53  N   UNL A   1      42.443  28.334  31.183  1.00  0.00    -0.354 N 
ATOM     54  N   UNL A   1      41.374  29.895  33.406  1.00  0.00    -0.248 NA
ATOM     55  C   UNL A   1      41.491  30.626  35.622  1.00  0.00     0.031 C 
ATOM     56  C   UNL A   1      44.398  27.309  31.452  1.00  0.00     0.029 A 
ATOM     57  C   UNL A   1      43.459  28.096  32.098  1.00  0.00     0.049 A 
ATOM     58  H   UNL A   1      41.633  28.861  31.364  1.00  0.00     0.167 HD
ATOM     59  C   UNL A   1      42.537  29.406  33.987  1.00  0.00     0.074 A 
ATOM     60  C   UNL A   1      42.576  29.919  35.341  1.00  0.00     0.031 C 
ATOM     61  C   UNL A   1      43.482  28.597  33.449  1.00  0.00     0.037 A 
BRANCH  48  62
ATOM     62  C   UNL A   1      42.334  26.972  27.598  1.00  0.00     0.057 A 
ATOM     63  C   UNL A   1      42.962  27.571  26.499  1.00  0.00     0.134 A 
ATOM     64  C   UNL A   1      42.141  25.584  27.552  1.00  0.00     0.134 A 
ATOM     65  F   UNL A   1      43.166  28.897  26.472  1.00  0.00    -0.206 F 
ATOM     66  C   UNL A   1      43.354  26.824  25.386  1.00  0.00     0.040 A 
ATOM     67  C   UNL A   1      42.555  24.823  26.458  1.00  0.00     0.040 A 
ATOM     68  F   UNL A   1      41.554  24.944  28.574  1.00  0.00    -0.206 F 
ATOM     69  C   UNL A   1      43.156  25.444  25.366  1.00  0.00     0.006 A 
ENDBRANCH  48  62
BRANCH  49  70
ATOM     70  C   UNL A   1      38.955  32.066  35.463  1.00  0.00     0.057 A 
ATOM     71  C   UNL A   1      38.258  31.398  36.476  1.00  0.00     0.134 A 
ATOM     72  C   UNL A   1      39.147  33.445  35.614  1.00  0.00     0.134 A 
ATOM     73  F   UNL A   1      38.018  30.082  36.377  1.00  0.00    -0.206 F 
ATOM     74  C   UNL A   1      37.767  32.075  37.594  1.00  0.00     0.040 A 
ATOM     75  C   UNL A   1      38.689  34.130  36.740  1.00  0.00     0.040 A 
ATOM     76  F   UNL A   1      39.805  34.143  34.677  1.00  0.00    -0.206 F 
ATOM     77  C   UNL A   1      37.990  33.444  37.732  1.00  0.00     0.006 A 
ENDBRANCH  49  70
BRANCH  61  78
ATOM     78  C   UNL A   1      44.643  28.235  34.328  1.00  0.00     0.057 A 
ATOM     79  C   UNL A   1      44.651  27.064  35.097  1.00  0.00     0.134 A 
ATOM     80  C   UNL A   1      45.764  29.071  34.414  1.00  0.00     0.134 A 
ATOM     81  F   UNL A   1      43.602  26.228  35.072  1.00  0.00    -0.206 F 
ATOM     82  C   UNL A   1      45.713  26.756  35.949  1.00  0.00     0.040 A 
ATOM     83  C   UNL A   1      46.845  28.760  35.241  1.00  0.00     0.040 A 
ATOM     84  F   UNL A   1      45.826  30.204  33.699  1.00  0.00    -0.206 F 
ATOM     85  C   UNL A   1      46.816  27.605  36.019  1.00  0.00     0.006 A 
ENDBRANCH  61  78
ENDBRANCH  35  36
ENDBRANCH  28  30
ENDBRANCH  27  28
ENDBRANCH  26  27
ENDBRANCH   1  26
TORSDOF 15
ENDMDL
MODEL 3
REMARK VINA RESULT:     -11.8      4.412      8.514
REMARK SMILES COc1ccc(C(F)(F)F)cc1-c1cc(N)cc(C(=O)OCCOC(=O)c2ccc(-c3c4nc(c(-c5c(F)cccc5F)c5ccc([nH]5)c(-c5c(F)cccc5F)c5nc(c(-c6c(F)cccc6F)c6ccc3[nH]6)C=C5)C=C4)cc2)c1
REMARK SMILES IDX 22 1 21 2 19 3 20 4 18 5 13 6 14 7 81 8 15 9 17 10 12 11
REMARK SMILES IDX 3 12 4 13 5 14 11 15 6 16 2 17 1 18 7 19 8 20 9 21 10 22
REMARK SMILES IDX 16 23 23 26 24 27 25 28 26 29 27 30 28 31 80 32 29 33 79 34
REMARK SMILES IDX 30 35 31 36 32 37 73 38 33 39 78 40 72 41 74 42 34 43 77 44
REMARK SMILES IDX 71 45 70 46 35 48 61 49 44 50 60 51 45 52 48 53 59 54 75 55
REMARK SMILES IDX 46 56 47 57 58 59 76 60 49 61 36 62 37 63 42 64 38 65 39 66
REMARK SMILES IDX 41 67 43 68 40 69 62 70 63 71 68 72 64 73 65 74 67 75 69 76
REMARK SMILES IDX 66 77 50 78 51 79 56 80 52 81 53 82 55 83 57 84 54 85
REMARK H PARENT 16 24 16 25 74 47 48 58
REMARK Flexibility Score: inf
ROOT
ATOM      1  C   UNL A   1      34.944  21.319  24.412  1.00  0.00     0.275 C 
ENDROOT
BRANCH   1   2
ATOM      2  O   UNL A   1      35.241  22.701  24.126  1.00  0.00    -0.458 OA
BRANCH   2   3
ATOM      3  C   UNL A   1      34.288  23.396  23.460  1.00  0.00     0.338 C 
ATOM      4  O   UNL A   1      34.085  23.391  22.256  1.00  0.00    -0.246 OA
BRANCH   3   5
ATOM      5  C   UNL A   1      33.401  24.092  24.422  1.00  0.00     0.062 A 
ATOM      6  C   UNL A   1      32.795  26.047  25.697  1.00  0.00    -0.012 A 
ATOM      7  C   UNL A   1      31.643  25.370  26.147  1.00  0.00     0.034 A 
ATOM      8  C   UNL A   1      33.726  25.351  24.916  1.00  0.00     0.024 A 
ATOM      9  C   UNL A   1      31.356  24.070  25.740  1.00  0.00     0.033 A 
ATOM     10  C   UNL A   1      32.181  23.497  24.780  1.00  0.00     0.041 A 
BRANCH   6  11
ATOM     11  C   UNL A   1      32.922  27.495  25.908  1.00  0.00     0.024 A 
ATOM     12  C   UNL A   1      31.924  28.402  25.489  1.00  0.00     0.126 A 
ATOM     13  C   UNL A   1      32.045  29.767  25.748  1.00  0.00     0.047 A 
ATOM     14  C   UNL A   1      33.145  30.253  26.454  1.00  0.00     0.017 A 
ATOM     15  C   UNL A   1      34.033  28.010  26.600  1.00  0.00     0.025 A 
ATOM     16  C   UNL A   1      34.155  29.381  26.882  1.00  0.00     0.056 A 
BRANCH  12  17
ATOM     17  O   UNL A   1      30.839  28.036  24.727  1.00  0.00    -0.496 OA
ATOM     18  C   UNL A   1      30.958  28.418  23.355  1.00  0.00     0.278 C 
ENDBRANCH  12  17
BRANCH  16  19
ATOM     19  C   UNL A   1      35.352  29.915  27.628  1.00  0.00     0.416 C 
ATOM     20  F   UNL A   1      36.527  29.632  26.999  1.00  0.00    -0.166 F 
ATOM     21  F   UNL A   1      35.317  31.270  27.764  1.00  0.00    -0.166 F 
ATOM     22  F   UNL A   1      35.476  29.418  28.891  1.00  0.00    -0.166 F 
ENDBRANCH  16  19
ENDBRANCH   6  11
BRANCH   9  23
ATOM     23  N   UNL A   1      30.181  23.449  26.132  1.00  0.00    -0.399 N 
ATOM     24  H   UNL A   1      29.803  23.628  27.022  1.00  0.00     0.156 HD
ATOM     25  H   UNL A   1      29.724  22.828  25.519  1.00  0.00     0.156 HD
ENDBRANCH   9  23
ENDBRANCH   3   5
ENDBRANCH   2   3
ENDBRANCH   1   2
BRANCH   1  26
ATOM     26  C   UNL A   1      36.171  20.624  25.001  1.00  0.00     0.275 C 
BRANCH  26  27
ATOM     27  O   UNL A   1      36.971  21.583  25.720  1.00  0.00    -0.458 OA
BRANCH  27  28
ATOM     28  C   UNL A   1      38.294  21.314  25.803  1.00  0.00     0.338 C 
ATOM     29  O   UNL A   1      38.888  20.339  25.376  1.00  0.00    -0.246 OA
BRANCH  28  30
ATOM     30  C   UNL A   1      38.984  22.456  26.425  1.00  0.00     0.060 A 
ATOM     31  C   UNL A   1      38.517  23.728  26.128  1.00  0.00     0.016 A 
ATOM     32  C   UNL A   1      40.157  22.308  27.156  1.00  0.00     0.016 A 
ATOM     33  C   UNL A   1      39.257  24.858  26.459  1.00  0.00     0.010 A 
ATOM     34  C   UNL A   1      40.843  23.452  27.598  1.00  0.00     0.010 A 
ATOM     35  C   UNL A   1      40.424  24.744  27.221  1.00  0.00    -0.014 A 
BRANCH  35  36
ATOM     36  C   UNL A   1      41.200  25.974  27.568  1.00  0.00     0.031 A 
ATOM     37  C   UNL A   1      40.591  27.048  28.437  1.00  0.00     0.074 A 
ATOM     38  C   UNL A   1      42.476  26.121  27.151  1.00  0.00     0.049 A 
ATOM     39  N   UNL A   1      41.064  28.231  28.746  1.00  0.00    -0.248 NA
ATOM     40  C   UNL A   1      39.274  26.761  29.023  1.00  0.00     0.031 C 
ATOM     41  C   UNL A   1      43.218  25.158  26.333  1.00  0.00     0.029 A 
ATOM     42  N   UNL A   1      43.383  27.130  27.368  1.00  0.00    -0.354 N 
ATOM     43  C   UNL A   1      40.077  28.851  29.503  1.00  0.00     0.074 A 
ATOM     44  C   UNL A   1      38.978  27.914  29.604  1.00  0.00     0.031 C 
ATOM     45  C   UNL A   1      44.474  25.594  26.166  1.00  0.00     0.029 A 
ATOM     46  C   UNL A   1      44.605  26.912  26.775  1.00  0.00     0.049 A 
ATOM     47  H   UNL A   1      43.179  27.934  27.899  1.00  0.00     0.167 HD
ATOM     48  C   UNL A   1      40.082  30.086  30.061  1.00  0.00     0.037 A 
ATOM     49  C   UNL A   1      45.698  27.694  26.687  1.00  0.00     0.037 A 
ATOM     50  C   UNL A   1      41.198  30.998  30.015  1.00  0.00     0.049 A 
ATOM     51  C   UNL A   1      45.677  29.061  27.306  1.00  0.00     0.074 A 
ATOM     52  C   UNL A   1      41.306  32.257  30.583  1.00  0.00     0.029 A 
ATOM     53  N   UNL A   1      42.402  30.747  29.375  1.00  0.00    -0.354 N 
ATOM     54  N   UNL A   1      44.721  29.647  27.983  1.00  0.00    -0.248 NA
ATOM     55  C   UNL A   1      46.884  29.881  27.134  1.00  0.00     0.031 C 
ATOM     56  C   UNL A   1      42.560  32.785  30.250  1.00  0.00     0.029 A 
ATOM     57  C   UNL A   1      43.252  31.834  29.518  1.00  0.00     0.049 A 
ATOM     58  H   UNL A   1      42.622  29.919  28.892  1.00  0.00     0.167 HD
ATOM     59  C   UNL A   1      45.209  30.903  28.319  1.00  0.00     0.074 A 
ATOM     60  C   UNL A   1      46.560  30.978  27.802  1.00  0.00     0.031 C 
ATOM     61  C   UNL A   1      44.590  31.907  28.986  1.00  0.00     0.037 A 
BRANCH  48  62
ATOM     62  C   UNL A   1      38.821  30.546  30.737  1.00  0.00     0.057 A 
ATOM     63  C   UNL A   1      37.860  31.328  30.086  1.00  0.00     0.134 A 
ATOM     64  C   UNL A   1      38.558  30.175  32.064  1.00  0.00     0.134 A 
ATOM     65  F   UNL A   1      38.054  31.731  28.820  1.00  0.00    -0.206 F 
ATOM     66  C   UNL A   1      36.697  31.749  30.737  1.00  0.00     0.040 A 
ATOM     67  C   UNL A   1      37.386  30.564  32.715  1.00  0.00     0.040 A 
ATOM     68  F   UNL A   1      39.432  29.419  32.745  1.00  0.00    -0.206 F 
ATOM     69  C   UNL A   1      36.455  31.361  32.054  1.00  0.00     0.006 A 
ENDBRANCH  48  62
BRANCH  49  70
ATOM     70  C   UNL A   1      46.889  27.216  25.937  1.00  0.00     0.057 A 
ATOM     71  C   UNL A   1      47.013  27.424  24.560  1.00  0.00     0.134 A 
ATOM     72  C   UNL A   1      47.934  26.544  26.585  1.00  0.00     0.134 A 
ATOM     73  F   UNL A   1      46.035  28.037  23.878  1.00  0.00    -0.206 F 
ATOM     74  C   UNL A   1      48.130  26.976  23.851  1.00  0.00     0.040 A 
ATOM     75  C   UNL A   1      49.070  26.119  25.895  1.00  0.00     0.040 A 
ATOM     76  F   UNL A   1      47.875  26.313  27.904  1.00  0.00    -0.206 F 
ATOM     77  C   UNL A   1      49.167  26.329  24.521  1.00  0.00     0.006 A 
ENDBRANCH  49  70
BRANCH  61  78
ATOM     78  C   UNL A   1      45.381  33.163  29.206  1.00  0.00     0.057 A 
ATOM     79  C   UNL A   1      46.204  33.332  30.327  1.00  0.00     0.134 A 
ATOM     80  C   UNL A   1      45.312  34.221  28.290  1.00  0.00     0.134 A 
ATOM     81  F   UNL A   1      46.302  32.362  31.250  1.00  0.00    -0.206 F 
ATOM     82  C   UNL A   1      46.901  34.520  30.550  1.00  0.00     0.040 A 
ATOM     83  C   UNL A   1      46.026  35.405  28.488  1.00  0.00     0.040 A 
ATOM     84  F   UNL A   1      44.550  34.124  27.191  1.00  0.00    -0.206 F 
ATOM     85  C   UNL A   1      46.815  35.561  29.625  1.00  0.00     0.006 A 
ENDBRANCH  61  78
ENDBRANCH  35  36
ENDBRANCH  28  30
ENDBRANCH  27  28
ENDBRANCH  26  27
ENDBRANCH   1  26
TORSDOF 15
ENDMDL
