MODEL 1
REMARK VINA RESULT:     -12.5      0.000      0.000
REMARK SMILES C[C@@H](Oc1ccc2c(c1)OCO2)C(=O)N1CCn2nc(C(=O)OCCOC(=O)c3ccc(-c4c5nc(c(-c6c(F)cccc6F)c6ccc([nH]6)c(-c6c(F)cccc6F)c6nc(c(-c7c(F)cccc7F)c7ccc4[nH]7)C=C6)C=C5)cc3)cc2C1
REMARK SMILES IDX 24 1 23 2 21 3 22 4 20 5 15 6 16 7 85 8 17 9 84 10 18 11
REMARK SMILES IDX 83 12 19 13 13 14 14 15 2 16 1 17 3 18 4 19 5 20 9 21 6 22
REMARK SMILES IDX 8 23 7 24 10 25 12 26 11 27 25 28 26 29 27 30 28 31 29 32
REMARK SMILES IDX 30 33 82 34 31 35 81 36 32 37 33 38 34 39 75 40 35 41 80 42
REMARK SMILES IDX 74 43 76 44 36 45 79 46 73 47 72 48 37 50 63 51 46 52 62 53
REMARK SMILES IDX 47 54 50 55 61 56 77 57 48 58 49 59 60 61 78 62 51 63 38 64
REMARK SMILES IDX 39 65 44 66 40 67 41 68 43 69 45 70 42 71 64 72 65 73 70 74
REMARK SMILES IDX 66 75 67 76 69 77 71 78 68 79 52 80 53 81 58 82 54 83 55 84
REMARK SMILES IDX 57 85 59 86 56 87
REMARK H PARENT 76 49 50 60
REMARK Flexibility Score: inf
ROOT
ATOM      1  C   UNL A   1      43.055  18.566  25.761  1.00  0.00     0.275 C 
ENDROOT
BRANCH   1   2
ATOM      2  O   UNL A   1      41.841  19.283  25.497  1.00  0.00    -0.457 OA
BRANCH   2   3
ATOM      3  C   UNL A   1      41.385  20.072  26.530  1.00  0.00     0.358 C 
ATOM      4  O   UNL A   1      41.995  20.255  27.565  1.00  0.00    -0.244 OA
BRANCH   3   5
ATOM      5  C   UNL A   1      40.097  20.703  26.192  1.00  0.00     0.170 A 
ATOM      6  N   UNL A   1      35.954  22.333  24.983  1.00  0.00    -0.332 N 
ATOM      7  C   UNL A   1      36.634  23.568  25.388  1.00  0.00     0.143 C 
ATOM      8  C   UNL A   1      36.619  21.038  25.029  1.00  0.00     0.175 C 
ATOM      9  C   UNL A   1      38.010  23.494  26.037  1.00  0.00     0.166 C 
ATOM     10  C   UNL A   1      38.019  21.081  25.477  1.00  0.00     0.059 A 
ATOM     11  N   UNL A   1      38.602  22.191  25.985  1.00  0.00    -0.265 N 
ATOM     12  C   UNL A   1      38.997  20.113  25.512  1.00  0.00     0.063 A 
ATOM     13  N   UNL A   1      39.824  21.988  26.498  1.00  0.00    -0.165 NA
BRANCH   6  14
ATOM     14  C   UNL A   1      34.650  22.293  24.475  1.00  0.00     0.263 C 
ATOM     15  O   UNL A   1      34.398  22.734  23.347  1.00  0.00    -0.271 OA
BRANCH  14  16
ATOM     16  C   UNL A   1      33.494  21.753  25.341  1.00  0.00     0.259 C 
ATOM     17  C   UNL A   1      32.926  22.796  26.297  1.00  0.00     0.064 C 
BRANCH  16  18
ATOM     18  O   UNL A   1      32.512  21.245  24.424  1.00  0.00    -0.481 OA
BRANCH  18  19
ATOM     19  C   UNL A   1      32.551  19.889  24.269  1.00  0.00     0.124 A 
ATOM     20  C   UNL A   1      32.444  19.345  22.978  1.00  0.00     0.050 A 
ATOM     21  C   UNL A   1      32.867  19.084  25.366  1.00  0.00     0.097 A 
ATOM     22  C   UNL A   1      32.619  17.978  22.769  1.00  0.00     0.054 A 
ATOM     23  C   UNL A   1      33.051  17.738  25.126  1.00  0.00     0.169 A 
ATOM     24  C   UNL A   1      32.928  17.201  23.864  1.00  0.00     0.166 A 
ATOM     25  O   UNL A   1      33.396  16.799  26.050  1.00  0.00    -0.453 OA
ATOM     26  O   UNL A   1      33.176  15.865  23.836  1.00  0.00    -0.454 OA
ATOM     27  C   UNL A   1      33.509  15.624  25.218  1.00  0.00     0.468 C 
ENDBRANCH  18  19
ENDBRANCH  16  18
ENDBRANCH  14  16
ENDBRANCH   6  14
ENDBRANCH   3   5
ENDBRANCH   2   3
ENDBRANCH   1   2
BRANCH   1  28
ATOM     28  C   UNL A   1      44.149  18.963  24.780  1.00  0.00     0.275 C 
BRANCH  28  29
ATOM     29  O   UNL A   1      44.835  20.139  25.208  1.00  0.00    -0.458 OA
BRANCH  29  30
ATOM     30  C   UNL A   1      44.552  21.262  24.510  1.00  0.00     0.338 C 
ATOM     31  O   UNL A   1      44.854  21.506  23.353  1.00  0.00    -0.246 OA
BRANCH  30  32
ATOM     32  C   UNL A   1      44.040  22.274  25.441  1.00  0.00     0.060 A 
ATOM     33  C   UNL A   1      42.991  23.094  25.013  1.00  0.00     0.016 A 
ATOM     34  C   UNL A   1      44.774  22.563  26.601  1.00  0.00     0.016 A 
ATOM     35  C   UNL A   1      42.766  24.283  25.680  1.00  0.00     0.010 A 
ATOM     36  C   UNL A   1      44.564  23.755  27.251  1.00  0.00     0.010 A 
ATOM     37  C   UNL A   1      43.603  24.629  26.749  1.00  0.00    -0.014 A 
BRANCH  37  38
ATOM     38  C   UNL A   1      43.378  25.888  27.428  1.00  0.00     0.031 A 
ATOM     39  C   UNL A   1      44.385  26.921  27.089  1.00  0.00     0.074 A 
ATOM     40  C   UNL A   1      42.263  26.133  28.145  1.00  0.00     0.049 A 
ATOM     41  N   UNL A   1      45.234  27.492  27.875  1.00  0.00    -0.248 NA
ATOM     42  C   UNL A   1      44.562  27.255  25.665  1.00  0.00     0.031 C 
ATOM     43  C   UNL A   1      41.070  25.287  28.253  1.00  0.00     0.029 A 
ATOM     44  N   UNL A   1      41.913  27.252  28.837  1.00  0.00    -0.354 N 
ATOM     45  C   UNL A   1      45.910  28.414  27.082  1.00  0.00     0.074 A 
ATOM     46  C   UNL A   1      45.597  28.094  25.716  1.00  0.00     0.031 C 
ATOM     47  C   UNL A   1      40.056  26.015  28.772  1.00  0.00     0.029 A 
ATOM     48  C   UNL A   1      40.562  27.323  29.151  1.00  0.00     0.049 A 
ATOM     49  H   UNL A   1      42.559  27.948  29.092  1.00  0.00     0.167 HD
ATOM     50  C   UNL A   1      46.431  29.545  27.624  1.00  0.00     0.037 A 
ATOM     51  C   UNL A   1      39.902  28.410  29.621  1.00  0.00     0.037 A 
ATOM     52  C   UNL A   1      46.567  29.420  29.053  1.00  0.00     0.049 A 
ATOM     53  C   UNL A   1      40.912  29.339  30.178  1.00  0.00     0.074 A 
ATOM     54  C   UNL A   1      47.297  28.629  29.914  1.00  0.00     0.029 A 
ATOM     55  N   UNL A   1      45.564  29.986  29.795  1.00  0.00    -0.354 N 
ATOM     56  N   UNL A   1      41.616  29.103  31.249  1.00  0.00    -0.248 NA
ATOM     57  C   UNL A   1      41.415  30.409  29.330  1.00  0.00     0.031 C 
ATOM     58  C   UNL A   1      46.476  28.468  31.071  1.00  0.00     0.029 A 
ATOM     59  C   UNL A   1      45.302  29.197  30.881  1.00  0.00     0.049 A 
ATOM     60  H   UNL A   1      45.104  30.829  29.580  1.00  0.00     0.167 HD
ATOM     61  C   UNL A   1      42.854  29.666  30.986  1.00  0.00     0.074 A 
ATOM     62  C   UNL A   1      42.619  30.587  29.880  1.00  0.00     0.031 C 
ATOM     63  C   UNL A   1      43.993  29.107  31.493  1.00  0.00     0.037 A 
BRANCH  50  64
ATOM     64  C   UNL A   1      46.357  30.901  26.953  1.00  0.00     0.057 A 
ATOM     65  C   UNL A   1      47.515  31.696  26.907  1.00  0.00     0.134 A 
ATOM     66  C   UNL A   1      45.157  31.579  26.652  1.00  0.00     0.134 A 
ATOM     67  F   UNL A   1      48.719  31.177  27.194  1.00  0.00    -0.206 F 
ATOM     68  C   UNL A   1      47.472  33.075  26.661  1.00  0.00     0.040 A 
ATOM     69  C   UNL A   1      45.108  32.943  26.352  1.00  0.00     0.040 A 
ATOM     70  F   UNL A   1      43.955  30.997  26.735  1.00  0.00    -0.206 F 
ATOM     71  C   UNL A   1      46.263  33.704  26.390  1.00  0.00     0.006 A 
ENDBRANCH  50  64
BRANCH  51  72
ATOM     72  C   UNL A   1      38.511  28.839  29.351  1.00  0.00     0.057 A 
ATOM     73  C   UNL A   1      37.580  28.970  30.391  1.00  0.00     0.134 A 
ATOM     74  C   UNL A   1      38.141  29.405  28.118  1.00  0.00     0.134 A 
ATOM     75  F   UNL A   1      37.855  28.497  31.616  1.00  0.00    -0.206 F 
ATOM     76  C   UNL A   1      36.367  29.652  30.226  1.00  0.00     0.040 A 
ATOM     77  C   UNL A   1      36.930  30.082  27.937  1.00  0.00     0.040 A 
ATOM     78  F   UNL A   1      38.982  29.403  27.074  1.00  0.00    -0.206 F 
ATOM     79  C   UNL A   1      36.045  30.223  28.998  1.00  0.00     0.006 A 
ENDBRANCH  51  72
BRANCH  63  80
ATOM     80  C   UNL A   1      43.839  28.160  32.650  1.00  0.00     0.057 A 
ATOM     81  C   UNL A   1      43.749  26.765  32.536  1.00  0.00     0.134 A 
ATOM     82  C   UNL A   1      43.882  28.686  33.947  1.00  0.00     0.134 A 
ATOM     83  F   UNL A   1      43.795  26.160  31.341  1.00  0.00    -0.206 F 
ATOM     84  C   UNL A   1      43.654  25.940  33.660  1.00  0.00     0.040 A 
ATOM     85  C   UNL A   1      43.826  27.871  35.078  1.00  0.00     0.040 A 
ATOM     86  F   UNL A   1      44.018  30.009  34.135  1.00  0.00    -0.206 F 
ATOM     87  C   UNL A   1      43.697  26.492  34.937  1.00  0.00     0.006 A 
ENDBRANCH  63  80
ENDBRANCH  37  38
ENDBRANCH  30  32
ENDBRANCH  29  30
ENDBRANCH  28  29
ENDBRANCH   1  28
TORSDOF 15
ENDMDL
MODEL 2
REMARK VINA RESULT:     -12.1      1.863      3.507
REMARK SMILES C[C@@H](Oc1ccc2c(c1)OCO2)C(=O)N1CCn2nc(C(=O)OCCOC(=O)c3ccc(-c4c5nc(c(-c6c(F)cccc6F)c6ccc([nH]6)c(-c6c(F)cccc6F)c6nc(c(-c7c(F)cccc7F)c7ccc4[nH]7)C=C6)C=C5)cc3)cc2C1
REMARK SMILES IDX 24 1 23 2 21 3 22 4 20 5 15 6 16 7 85 8 17 9 84 10 18 11
REMARK SMILES IDX 83 12 19 13 13 14 14 15 2 16 1 17 3 18 4 19 5 20 9 21 6 22
REMARK SMILES IDX 8 23 7 24 10 25 12 26 11 27 25 28 26 29 27 30 28 31 29 32
REMARK SMILES IDX 30 33 82 34 31 35 81 36 32 37 33 38 34 39 75 40 35 41 80 42
REMARK SMILES IDX 74 43 76 44 36 45 79 46 73 47 72 48 37 50 63 51 46 52 62 53
REMARK SMILES IDX 47 54 50 55 61 56 77 57 48 58 49 59 60 61 78 62 51 63 38 64
REMARK SMILES IDX 39 65 44 66 40 67 41 68 43 69 45 70 42 71 64 72 65 73 70 74
REMARK SMILES IDX 66 75 67 76 69 77 71 78 68 79 52 80 53 81 58 82 54 83 55 84
REMARK SMILES IDX 57 85 59 86 56 87
REMARK H PARENT 76 49 50 60
REMARK Flexibility Score: inf
ROOT
ATOM      1  C   UNL A   1      42.642  18.514  26.263  1.00  0.00     0.275 C 
ENDROOT
BRANCH   1   2
ATOM      2  O   UNL A   1      41.457  19.220  25.870  1.00  0.00    -0.457 OA
BRANCH   2   3
ATOM      3  C   UNL A   1      41.270  20.444  26.473  1.00  0.00     0.358 C 
ATOM      4  O   UNL A   1      42.107  20.996  27.161  1.00  0.00    -0.244 OA
BRANCH   3   5
ATOM      5  C   UNL A   1      39.956  21.014  26.131  1.00  0.00     0.170 A 
ATOM      6  N   UNL A   1      35.756  22.458  24.882  1.00  0.00    -0.332 N 
ATOM      7  C   UNL A   1      36.342  23.704  25.388  1.00  0.00     0.143 C 
ATOM      8  C   UNL A   1      36.501  21.206  24.871  1.00  0.00     0.175 C 
ATOM      9  C   UNL A   1      37.699  23.674  26.079  1.00  0.00     0.166 C 
ATOM     10  C   UNL A   1      37.881  21.307  25.369  1.00  0.00     0.059 A 
ATOM     11  N   UNL A   1      38.375  22.416  25.966  1.00  0.00    -0.265 N 
ATOM     12  C   UNL A   1      38.918  20.402  25.377  1.00  0.00     0.063 A 
ATOM     13  N   UNL A   1      39.591  22.257  26.507  1.00  0.00    -0.165 NA
BRANCH   6  14
ATOM     14  C   UNL A   1      34.473  22.370  24.328  1.00  0.00     0.263 C 
ATOM     15  O   UNL A   1      33.895  21.279  24.246  1.00  0.00    -0.271 OA
BRANCH  14  16
ATOM     16  C   UNL A   1      33.785  23.625  23.754  1.00  0.00     0.259 C 
ATOM     17  C   UNL A   1      33.187  23.398  22.370  1.00  0.00     0.064 C 
BRANCH  16  18
ATOM     18  O   UNL A   1      32.805  24.021  24.726  1.00  0.00    -0.481 OA
BRANCH  18  19
ATOM     19  C   UNL A   1      32.929  25.317  25.139  1.00  0.00     0.124 A 
ATOM     20  C   UNL A   1      33.674  26.215  24.358  1.00  0.00     0.050 A 
ATOM     21  C   UNL A   1      32.176  25.762  26.228  1.00  0.00     0.097 A 
ATOM     22  C   UNL A   1      33.706  27.572  24.675  1.00  0.00     0.054 A 
ATOM     23  C   UNL A   1      32.212  27.113  26.508  1.00  0.00     0.169 A 
ATOM     24  C   UNL A   1      32.958  27.992  25.754  1.00  0.00     0.166 A 
ATOM     25  O   UNL A   1      31.526  27.745  27.499  1.00  0.00    -0.453 OA
ATOM     26  O   UNL A   1      32.837  29.278  26.175  1.00  0.00    -0.454 OA
ATOM     27  C   UNL A   1      31.897  29.118  27.258  1.00  0.00     0.468 C 
ENDBRANCH  18  19
ENDBRANCH  16  18
ENDBRANCH  14  16
ENDBRANCH   6  14
ENDBRANCH   3   5
ENDBRANCH   2   3
ENDBRANCH   1   2
BRANCH   1  28
ATOM     28  C   UNL A   1      43.717  18.609  25.190  1.00  0.00     0.275 C 
BRANCH  28  29
ATOM     29  O   UNL A   1      44.530  19.769  25.364  1.00  0.00    -0.458 OA
BRANCH  29  30
ATOM     30  C   UNL A   1      44.571  20.612  24.307  1.00  0.00     0.338 C 
ATOM     31  O   UNL A   1      44.720  20.314  23.133  1.00  0.00    -0.246 OA
BRANCH  30  32
ATOM     32  C   UNL A   1      44.671  21.986  24.810  1.00  0.00     0.060 A 
ATOM     33  C   UNL A   1      45.475  22.223  25.929  1.00  0.00     0.016 A 
ATOM     34  C   UNL A   1      43.771  22.952  24.333  1.00  0.00     0.016 A 
ATOM     35  C   UNL A   1      45.277  23.383  26.653  1.00  0.00     0.010 A 
ATOM     36  C   UNL A   1      43.560  24.095  25.064  1.00  0.00     0.010 A 
ATOM     37  C   UNL A   1      44.272  24.271  26.248  1.00  0.00    -0.014 A 
BRANCH  37  38
ATOM     38  C   UNL A   1      44.053  25.474  27.025  1.00  0.00     0.031 A 
ATOM     39  C   UNL A   1      45.063  26.525  26.768  1.00  0.00     0.074 A 
ATOM     40  C   UNL A   1      42.939  25.666  27.760  1.00  0.00     0.049 A 
ATOM     41  N   UNL A   1      45.915  27.029  27.596  1.00  0.00    -0.248 NA
ATOM     42  C   UNL A   1      45.242  26.971  25.375  1.00  0.00     0.031 C 
ATOM     43  C   UNL A   1      41.742  24.819  27.802  1.00  0.00     0.029 A 
ATOM     44  N   UNL A   1      42.594  26.728  28.538  1.00  0.00    -0.354 N 
ATOM     45  C   UNL A   1      46.595  28.007  26.878  1.00  0.00     0.074 A 
ATOM     46  C   UNL A   1      46.281  27.798  25.491  1.00  0.00     0.031 C 
ATOM     47  C   UNL A   1      40.731  25.508  28.377  1.00  0.00     0.029 A 
ATOM     48  C   UNL A   1      41.243  26.780  28.858  1.00  0.00     0.049 A 
ATOM     49  H   UNL A   1      43.243  27.399  28.847  1.00  0.00     0.167 HD
ATOM     50  C   UNL A   1      47.121  29.090  27.508  1.00  0.00     0.037 A 
ATOM     51  C   UNL A   1      40.589  27.830  29.412  1.00  0.00     0.037 A 
ATOM     52  C   UNL A   1      47.257  28.852  28.922  1.00  0.00     0.049 A 
ATOM     53  C   UNL A   1      41.603  28.707  30.041  1.00  0.00     0.074 A 
ATOM     54  C   UNL A   1      47.984  27.992  29.717  1.00  0.00     0.029 A 
ATOM     55  N   UNL A   1      46.257  29.362  29.707  1.00  0.00    -0.354 N 
ATOM     56  N   UNL A   1      42.306  28.383  31.090  1.00  0.00    -0.248 NA
ATOM     57  C   UNL A   1      42.110  29.839  29.280  1.00  0.00     0.031 C 
ATOM     58  C   UNL A   1      47.163  27.744  30.858  1.00  0.00     0.029 A 
ATOM     59  C   UNL A   1      45.992  28.490  30.728  1.00  0.00     0.049 A 
ATOM     60  H   UNL A   1      45.801  30.221  29.559  1.00  0.00     0.167 HD
ATOM     61  C   UNL A   1      43.546  28.960  30.871  1.00  0.00     0.074 A 
ATOM     62  C   UNL A   1      43.315  29.967  29.841  1.00  0.00     0.031 C 
ATOM     63  C   UNL A   1      44.683  28.358  31.331  1.00  0.00     0.037 A 
BRANCH  50  64
ATOM     64  C   UNL A   1      47.054  30.495  26.946  1.00  0.00     0.057 A 
ATOM     65  C   UNL A   1      48.210  31.293  26.978  1.00  0.00     0.134 A 
ATOM     66  C   UNL A   1      45.855  31.194  26.684  1.00  0.00     0.134 A 
ATOM     67  F   UNL A   1      49.411  30.754  27.239  1.00  0.00    -0.206 F 
ATOM     68  C   UNL A   1      48.167  32.687  26.842  1.00  0.00     0.040 A 
ATOM     69  C   UNL A   1      45.808  32.577  26.493  1.00  0.00     0.040 A 
ATOM     70  F   UNL A   1      44.654  30.606  26.704  1.00  0.00    -0.206 F 
ATOM     71  C   UNL A   1      46.960  33.334  26.607  1.00  0.00     0.006 A 
ENDBRANCH  50  64
BRANCH  51  72
ATOM     72  C   UNL A   1      39.199  28.284  29.178  1.00  0.00     0.057 A 
ATOM     73  C   UNL A   1      38.270  28.343  30.227  1.00  0.00     0.134 A 
ATOM     74  C   UNL A   1      38.829  28.942  27.991  1.00  0.00     0.134 A 
ATOM     75  F   UNL A   1      38.546  27.780  31.413  1.00  0.00    -0.206 F 
ATOM     76  C   UNL A   1      37.061  29.042  30.116  1.00  0.00     0.040 A 
ATOM     77  C   UNL A   1      37.622  29.636  27.864  1.00  0.00     0.040 A 
ATOM     78  F   UNL A   1      39.668  29.012  26.948  1.00  0.00    -0.206 F 
ATOM     79  C   UNL A   1      36.740  29.703  28.934  1.00  0.00     0.006 A 
ENDBRANCH  51  72
BRANCH  63  80
ATOM     80  C   UNL A   1      44.525  27.324  32.410  1.00  0.00     0.057 A 
ATOM     81  C   UNL A   1      44.343  25.952  32.182  1.00  0.00     0.134 A 
ATOM     82  C   UNL A   1      44.662  27.730  33.742  1.00  0.00     0.134 A 
ATOM     83  F   UNL A   1      44.295  25.453  30.940  1.00  0.00    -0.206 F 
ATOM     84  C   UNL A   1      44.250  25.037  33.236  1.00  0.00     0.040 A 
ATOM     85  C   UNL A   1      44.609  26.823  34.802  1.00  0.00     0.040 A 
ATOM     86  F   UNL A   1      44.889  29.021  34.035  1.00  0.00    -0.206 F 
ATOM     87  C   UNL A   1      44.388  25.471  34.551  1.00  0.00     0.006 A 
ENDBRANCH  63  80
ENDBRANCH  37  38
ENDBRANCH  30  32
ENDBRANCH  29  30
ENDBRANCH  28  29
ENDBRANCH   1  28
TORSDOF 15
ENDMDL
MODEL 3
REMARK VINA RESULT:     -11.8      5.550     10.604
REMARK SMILES C[C@@H](Oc1ccc2c(c1)OCO2)C(=O)N1CCn2nc(C(=O)OCCOC(=O)c3ccc(-c4c5nc(c(-c6c(F)cccc6F)c6ccc([nH]6)c(-c6c(F)cccc6F)c6nc(c(-c7c(F)cccc7F)c7ccc4[nH]7)C=C6)C=C5)cc3)cc2C1
REMARK SMILES IDX 24 1 23 2 21 3 22 4 20 5 15 6 16 7 85 8 17 9 84 10 18 11
REMARK SMILES IDX 83 12 19 13 13 14 14 15 2 16 1 17 3 18 4 19 5 20 9 21 6 22
REMARK SMILES IDX 8 23 7 24 10 25 12 26 11 27 25 28 26 29 27 30 28 31 29 32
REMARK SMILES IDX 30 33 82 34 31 35 81 36 32 37 33 38 34 39 75 40 35 41 80 42
REMARK SMILES IDX 74 43 76 44 36 45 79 46 73 47 72 48 37 50 63 51 46 52 62 53
REMARK SMILES IDX 47 54 50 55 61 56 77 57 48 58 49 59 60 61 78 62 51 63 38 64
REMARK SMILES IDX 39 65 44 66 40 67 41 68 43 69 45 70 42 71 64 72 65 73 70 74
REMARK SMILES IDX 66 75 67 76 69 77 71 78 68 79 52 80 53 81 58 82 54 83 55 84
REMARK SMILES IDX 57 85 59 86 56 87
REMARK H PARENT 76 49 50 60
REMARK Flexibility Score: inf
ROOT
ATOM      1  C   UNL A   1      32.783  36.198  30.818  1.00  0.00     0.275 C 
ENDROOT
BRANCH   1   2
ATOM      2  O   UNL A   1      32.534  35.129  29.894  1.00  0.00    -0.457 OA
BRANCH   2   3
ATOM      3  C   UNL A   1      33.409  35.049  28.833  1.00  0.00     0.358 C 
ATOM      4  O   UNL A   1      34.019  35.999  28.383  1.00  0.00    -0.244 OA
BRANCH   3   5
ATOM      5  C   UNL A   1      33.549  33.662  28.359  1.00  0.00     0.170 A 
ATOM      6  N   UNL A   1      33.644  29.363  26.685  1.00  0.00    -0.332 N 
ATOM      7  C   UNL A   1      34.771  29.324  27.623  1.00  0.00     0.143 C 
ATOM      8  C   UNL A   1      32.839  30.564  26.499  1.00  0.00     0.175 C 
ATOM      9  C   UNL A   1      35.233  30.606  28.303  1.00  0.00     0.166 C 
ATOM     10  C   UNL A   1      33.227  31.701  27.346  1.00  0.00     0.059 A 
ATOM     11  N   UNL A   1      34.347  31.714  28.104  1.00  0.00    -0.265 N 
ATOM     12  C   UNL A   1      32.633  32.924  27.561  1.00  0.00     0.063 A 
ATOM     13  N   UNL A   1      34.620  32.900  28.667  1.00  0.00    -0.165 NA
BRANCH   6  14
ATOM     14  C   UNL A   1      33.215  28.261  25.936  1.00  0.00     0.263 C 
ATOM     15  O   UNL A   1      33.216  27.126  26.427  1.00  0.00    -0.271 OA
BRANCH  14  16
ATOM     16  C   UNL A   1      32.792  28.437  24.463  1.00  0.00     0.259 C 
ATOM     17  C   UNL A   1      33.913  28.124  23.479  1.00  0.00     0.064 C 
BRANCH  16  18
ATOM     18  O   UNL A   1      31.638  27.602  24.278  1.00  0.00    -0.481 OA
BRANCH  18  19
ATOM     19  C   UNL A   1      30.545  28.268  23.801  1.00  0.00     0.124 A 
ATOM     20  C   UNL A   1      29.408  27.534  23.425  1.00  0.00     0.050 A 
ATOM     21  C   UNL A   1      30.516  29.663  23.860  1.00  0.00     0.097 A 
ATOM     22  C   UNL A   1      28.230  28.188  23.067  1.00  0.00     0.054 A 
ATOM     23  C   UNL A   1      29.331  30.282  23.516  1.00  0.00     0.169 A 
ATOM     24  C   UNL A   1      28.222  29.565  23.129  1.00  0.00     0.166 A 
ATOM     25  O   UNL A   1      29.091  31.622  23.541  1.00  0.00    -0.453 OA
ATOM     26  O   UNL A   1      27.152  30.358  22.862  1.00  0.00    -0.454 OA
ATOM     27  C   UNL A   1      27.699  31.658  23.162  1.00  0.00     0.468 C 
ENDBRANCH  18  19
ENDBRANCH  16  18
ENDBRANCH  14  16
ENDBRANCH   6  14
ENDBRANCH   3   5
ENDBRANCH   2   3
ENDBRANCH   1   2
BRANCH   1  28
ATOM     28  C   UNL A   1      32.573  35.739  32.254  1.00  0.00     0.275 C 
BRANCH  28  29
ATOM     29  O   UNL A   1      33.355  34.584  32.555  1.00  0.00    -0.458 OA
BRANCH  29  30
ATOM     30  C   UNL A   1      34.538  34.828  33.163  1.00  0.00     0.338 C 
ATOM     31  O   UNL A   1      34.781  35.704  33.978  1.00  0.00    -0.246 OA
BRANCH  30  32
ATOM     32  C   UNL A   1      35.577  34.036  32.496  1.00  0.00     0.060 A 
ATOM     33  C   UNL A   1      35.378  32.657  32.373  1.00  0.00     0.016 A 
ATOM     34  C   UNL A   1      36.827  34.623  32.249  1.00  0.00     0.016 A 
ATOM     35  C   UNL A   1      36.473  31.849  32.131  1.00  0.00     0.010 A 
ATOM     36  C   UNL A   1      37.918  33.819  32.029  1.00  0.00     0.010 A 
ATOM     37  C   UNL A   1      37.740  32.437  32.031  1.00  0.00    -0.014 A 
BRANCH  37  38
ATOM     38  C   UNL A   1      38.887  31.582  31.802  1.00  0.00     0.031 A 
ATOM     39  C   UNL A   1      39.597  31.215  33.049  1.00  0.00     0.074 A 
ATOM     40  C   UNL A   1      39.154  31.040  30.598  1.00  0.00     0.049 A 
ATOM     41  N   UNL A   1      40.808  31.505  33.389  1.00  0.00    -0.248 NA
ATOM     42  C   UNL A   1      38.812  30.563  34.112  1.00  0.00     0.031 C 
ATOM     43  C   UNL A   1      38.316  31.084  29.395  1.00  0.00     0.029 A 
ATOM     44  N   UNL A   1      40.184  30.230  30.228  1.00  0.00    -0.354 N 
ATOM     45  C   UNL A   1      41.003  30.888  34.621  1.00  0.00     0.074 A 
ATOM     46  C   UNL A   1      39.706  30.494  35.098  1.00  0.00     0.031 C 
ATOM     47  C   UNL A   1      38.755  30.156  28.515  1.00  0.00     0.029 A 
ATOM     48  C   UNL A   1      39.971  29.555  29.033  1.00  0.00     0.049 A 
ATOM     49  H   UNL A   1      41.006  30.131  30.759  1.00  0.00     0.167 HD
ATOM     50  C   UNL A   1      42.242  30.486  35.006  1.00  0.00     0.037 A 
ATOM     51  C   UNL A   1      40.710  28.526  28.549  1.00  0.00     0.037 A 
ATOM     52  C   UNL A   1      43.265  31.148  34.237  1.00  0.00     0.049 A 
ATOM     53  C   UNL A   1      42.018  28.549  29.243  1.00  0.00     0.074 A 
ATOM     54  C   UNL A   1      43.698  32.447  34.072  1.00  0.00     0.029 A 
ATOM     55  N   UNL A   1      43.777  30.429  33.190  1.00  0.00    -0.354 N 
ATOM     56  N   UNL A   1      42.917  29.480  29.086  1.00  0.00    -0.248 NA
ATOM     57  C   UNL A   1      42.197  27.706  30.415  1.00  0.00     0.031 C 
ATOM     58  C   UNL A   1      44.158  32.527  32.724  1.00  0.00     0.029 A 
ATOM     59  C   UNL A   1      44.021  31.268  32.137  1.00  0.00     0.049 A 
ATOM     60  H   UNL A   1      43.943  29.459  33.194  1.00  0.00     0.167 HD
ATOM     61  C   UNL A   1      43.493  29.624  30.338  1.00  0.00     0.074 A 
ATOM     62  C   UNL A   1      43.134  28.408  31.058  1.00  0.00     0.031 C 
ATOM     63  C   UNL A   1      43.948  30.842  30.756  1.00  0.00     0.037 A 
BRANCH  50  64
ATOM     64  C   UNL A   1      42.511  29.174  35.713  1.00  0.00     0.057 A 
ATOM     65  C   UNL A   1      43.460  29.145  36.750  1.00  0.00     0.134 A 
ATOM     66  C   UNL A   1      42.133  27.908  35.216  1.00  0.00     0.134 A 
ATOM     67  F   UNL A   1      43.918  30.282  37.295  1.00  0.00    -0.206 F 
ATOM     68  C   UNL A   1      44.046  27.955  37.200  1.00  0.00     0.040 A 
ATOM     69  C   UNL A   1      42.673  26.711  35.695  1.00  0.00     0.040 A 
ATOM     70  F   UNL A   1      41.310  27.754  34.173  1.00  0.00    -0.206 F 
ATOM     71  C   UNL A   1      43.658  26.732  36.666  1.00  0.00     0.006 A 
ENDBRANCH  50  64
BRANCH  51  72
ATOM     72  C   UNL A   1      40.262  27.353  27.763  1.00  0.00     0.057 A 
ATOM     73  C   UNL A   1      40.840  27.051  26.522  1.00  0.00     0.134 A 
ATOM     74  C   UNL A   1      39.468  26.343  28.335  1.00  0.00     0.134 A 
ATOM     75  F   UNL A   1      41.646  27.934  25.913  1.00  0.00    -0.206 F 
ATOM     76  C   UNL A   1      40.667  25.807  25.901  1.00  0.00     0.040 A 
ATOM     77  C   UNL A   1      39.280  25.100  27.721  1.00  0.00     0.040 A 
ATOM     78  F   UNL A   1      38.925  26.494  29.551  1.00  0.00    -0.206 F 
ATOM     79  C   UNL A   1      39.895  24.822  26.508  1.00  0.00     0.006 A 
ENDBRANCH  51  72
BRANCH  63  80
ATOM     80  C   UNL A   1      44.192  31.885  29.702  1.00  0.00     0.057 A 
ATOM     81  C   UNL A   1      43.257  32.852  29.302  1.00  0.00     0.134 A 
ATOM     82  C   UNL A   1      45.469  31.971  29.137  1.00  0.00     0.134 A 
ATOM     83  F   UNL A   1      42.037  32.910  29.853  1.00  0.00    -0.206 F 
ATOM     84  C   UNL A   1      43.567  33.824  28.346  1.00  0.00     0.040 A 
ATOM     85  C   UNL A   1      45.804  32.960  28.211  1.00  0.00     0.040 A 
ATOM     86  F   UNL A   1      46.432  31.111  29.510  1.00  0.00    -0.206 F 
ATOM     87  C   UNL A   1      44.846  33.883  27.801  1.00  0.00     0.006 A 
ENDBRANCH  63  80
ENDBRANCH  37  38
ENDBRANCH  30  32
ENDBRANCH  29  30
ENDBRANCH  28  29
ENDBRANCH   1  28
TORSDOF 15
ENDMDL
