MODEL 1
REMARK VINA RESULT:     -12.3      0.000      0.000
REMARK SMILES Cc1ccc(Cn2c(C)c(C[NH2+]C[C@@H]3CCCO3)c(C(=O)OCCOC(=O)c3ccc(-c4c5nc(c(-c6c(F)cccc6F)c6ccc([nH]6)c(-c6c(F)cccc6F)c6nc(c(-c7c(F)cccc7F)c7ccc4[nH]7)C=C6)C=C5)cc3)c2C)cc1
REMARK SMILES IDX 23 1 22 2 20 3 21 4 19 5 7 6 8 7 82 8 9 9 10 10 83 11 6 12
REMARK SMILES IDX 5 13 1 14 2 15 3 16 85 17 4 18 84 19 11 20 12 21 13 24 14 25
REMARK SMILES IDX 15 26 18 27 16 28 17 29 24 30 25 31 26 32 27 33 28 34 29 35
REMARK SMILES IDX 81 36 30 37 80 38 31 39 32 40 33 41 74 42 34 43 79 44 73 45
REMARK SMILES IDX 75 46 35 47 78 48 72 49 71 50 36 52 62 53 45 54 61 55 46 56
REMARK SMILES IDX 49 57 60 58 76 59 47 60 48 61 59 63 77 64 50 65 37 66 38 67
REMARK SMILES IDX 43 68 39 69 40 70 42 71 44 72 41 73 63 74 64 75 69 76 65 77
REMARK SMILES IDX 66 78 68 79 70 80 67 81 51 82 52 83 57 84 53 85 54 86 56 87
REMARK SMILES IDX 58 88 55 89
REMARK H PARENT 12 22 12 23 75 51 49 62
REMARK Flexibility Score: inf
ROOT
ATOM      1  C   UNL A   1      32.037  28.866  26.051  1.00  0.00     0.275 C 
ENDROOT
BRANCH   1   2
ATOM      2  O   UNL A   1      31.981  27.561  26.681  1.00  0.00    -0.458 OA
BRANCH   2   3
ATOM      3  C   UNL A   1      31.542  26.540  25.873  1.00  0.00     0.340 C 
ATOM      4  O   UNL A   1      30.912  25.589  26.313  1.00  0.00    -0.246 OA
BRANCH   3   5
ATOM      5  C   UNL A   1      32.184  26.427  24.568  1.00  0.00     0.089 A 
ATOM      6  N   UNL A   1      33.516  25.114  23.366  1.00  0.00    -0.343 N 
ATOM      7  C   UNL A   1      32.660  25.742  22.468  1.00  0.00     0.025 A 
ATOM      8  C   UNL A   1      33.414  25.780  24.566  1.00  0.00     0.030 A 
ATOM      9  C   UNL A   1      32.649  25.493  20.992  1.00  0.00     0.065 C 
ATOM     10  C   UNL A   1      31.775  26.574  23.183  1.00  0.00     0.042 A 
ATOM     11  C   UNL A   1      34.309  25.631  25.749  1.00  0.00     0.065 C 
BRANCH   6  12
ATOM     12  C   UNL A   1      34.456  24.011  23.096  1.00  0.00     0.157 C 
BRANCH  12  13
ATOM     13  C   UNL A   1      34.044  22.627  23.593  1.00  0.00    -0.028 A 
ATOM     14  C   UNL A   1      32.739  18.837  25.304  1.00  0.00     0.044 C 
ATOM     15  C   UNL A   1      33.202  20.146  24.737  1.00  0.00    -0.051 A 
ATOM     16  C   UNL A   1      32.371  20.849  23.871  1.00  0.00     0.004 A 
ATOM     17  C   UNL A   1      34.463  20.678  25.021  1.00  0.00     0.004 A 
ATOM     18  C   UNL A   1      32.780  22.076  23.338  1.00  0.00     0.006 A 
ATOM     19  C   UNL A   1      34.880  21.897  24.454  1.00  0.00     0.006 A 
ENDBRANCH  12  13
ENDBRANCH   6  12
BRANCH  10  20
ATOM     20  C   UNL A   1      30.598  27.303  22.519  1.00  0.00     0.300 C 
BRANCH  20  21
ATOM     21  N   UNL A   1      29.794  28.062  23.492  1.00  0.00    -0.340 N 
ATOM     22  H   UNL A   1      30.187  29.000  23.566  1.00  0.00     0.346 HD
ATOM     23  H   UNL A   1      29.832  27.541  24.367  1.00  0.00     0.346 HD
BRANCH  21  24
ATOM     24  C   UNL A   1      28.354  28.189  23.138  1.00  0.00     0.293 C 
BRANCH  24  25
ATOM     25  C   UNL A   1      27.909  29.533  22.496  1.00  0.00     0.173 C 
ATOM     26  C   UNL A   1      28.951  30.475  21.901  1.00  0.00     0.040 C 
ATOM     27  O   UNL A   1      27.173  30.327  23.432  1.00  0.00    -0.372 OA
ATOM     28  C   UNL A   1      28.280  31.831  22.038  1.00  0.00     0.031 C 
ATOM     29  C   UNL A   1      27.607  31.689  23.372  1.00  0.00     0.161 C 
ENDBRANCH  24  25
ENDBRANCH  21  24
ENDBRANCH  20  21
ENDBRANCH  10  20
ENDBRANCH   3   5
ENDBRANCH   2   3
ENDBRANCH   1   2
BRANCH   1  30
ATOM     30  C   UNL A   1      33.462  29.465  26.038  1.00  0.00     0.275 C 
BRANCH  30  31
ATOM     31  O   UNL A   1      34.265  29.280  27.219  1.00  0.00    -0.458 OA
BRANCH  31  32
ATOM     32  C   UNL A   1      34.666  30.426  27.803  1.00  0.00     0.338 C 
ATOM     33  O   UNL A   1      33.898  31.332  28.116  1.00  0.00    -0.246 OA
BRANCH  32  34
ATOM     34  C   UNL A   1      36.055  30.238  28.290  1.00  0.00     0.060 A 
ATOM     35  C   UNL A   1      36.255  29.665  29.552  1.00  0.00     0.016 A 
ATOM     36  C   UNL A   1      37.086  30.261  27.354  1.00  0.00     0.016 A 
ATOM     37  C   UNL A   1      37.424  28.984  29.855  1.00  0.00     0.010 A 
ATOM     38  C   UNL A   1      38.191  29.492  27.594  1.00  0.00     0.010 A 
ATOM     39  C   UNL A   1      38.358  28.868  28.844  1.00  0.00    -0.014 A 
BRANCH  39  40
ATOM     40  C   UNL A   1      39.695  28.372  29.055  1.00  0.00     0.031 A 
ATOM     41  C   UNL A   1      40.099  27.011  28.671  1.00  0.00     0.074 A 
ATOM     42  C   UNL A   1      40.492  29.436  29.282  1.00  0.00     0.049 A 
ATOM     43  N   UNL A   1      41.253  26.522  28.959  1.00  0.00    -0.248 NA
ATOM     44  C   UNL A   1      39.251  26.038  27.981  1.00  0.00     0.031 C 
ATOM     45  C   UNL A   1      41.870  29.700  28.938  1.00  0.00     0.029 A 
ATOM     46  N   UNL A   1      40.090  30.603  29.939  1.00  0.00    -0.354 N 
ATOM     47  C   UNL A   1      41.426  25.398  28.178  1.00  0.00     0.074 A 
ATOM     48  C   UNL A   1      40.106  25.033  27.740  1.00  0.00     0.031 C 
ATOM     49  C   UNL A   1      42.272  30.804  29.606  1.00  0.00     0.029 A 
ATOM     50  C   UNL A   1      41.208  31.185  30.529  1.00  0.00     0.049 A 
ATOM     51  H   UNL A   1      39.170  30.954  29.977  1.00  0.00     0.167 HD
ATOM     52  C   UNL A   1      42.699  25.050  27.832  1.00  0.00     0.037 A 
ATOM     53  C   UNL A   1      41.267  31.120  31.898  1.00  0.00     0.037 A 
ATOM     54  C   UNL A   1      43.634  25.997  28.437  1.00  0.00     0.049 A 
ATOM     55  C   UNL A   1      42.216  30.041  32.366  1.00  0.00     0.074 A 
ATOM     56  C   UNL A   1      44.213  27.175  27.997  1.00  0.00     0.029 A 
ATOM     57  N   UNL A   1      43.735  26.013  29.809  1.00  0.00    -0.354 N 
ATOM     58  N   UNL A   1      42.769  29.165  31.575  1.00  0.00    -0.248 NA
ATOM     59  C   UNL A   1      42.582  29.840  33.764  1.00  0.00     0.031 C 
ATOM     60  C   UNL A   1      44.623  27.916  29.148  1.00  0.00     0.029 A 
ATOM     61  C   UNL A   1      44.285  27.187  30.275  1.00  0.00     0.049 A 
ATOM     62  H   UNL A   1      43.447  25.272  30.391  1.00  0.00     0.167 HD
ATOM     63  C   UNL A   1      43.574  28.339  32.293  1.00  0.00     0.074 A 
ATOM     64  C   UNL A   1      43.388  28.769  33.669  1.00  0.00     0.031 C 
ATOM     65  C   UNL A   1      44.348  27.376  31.715  1.00  0.00     0.037 A 
BRANCH  52  66
ATOM     66  C   UNL A   1      43.117  24.059  26.774  1.00  0.00     0.057 A 
ATOM     67  C   UNL A   1      43.111  22.678  27.067  1.00  0.00     0.134 A 
ATOM     68  C   UNL A   1      43.516  24.370  25.463  1.00  0.00     0.134 A 
ATOM     69  F   UNL A   1      42.705  22.210  28.255  1.00  0.00    -0.206 F 
ATOM     70  C   UNL A   1      43.518  21.695  26.159  1.00  0.00     0.040 A 
ATOM     71  C   UNL A   1      43.950  23.394  24.548  1.00  0.00     0.040 A 
ATOM     72  F   UNL A   1      43.463  25.621  24.986  1.00  0.00    -0.206 F 
ATOM     73  C   UNL A   1      43.957  22.050  24.897  1.00  0.00     0.006 A 
ENDBRANCH  52  66
BRANCH  53  74
ATOM     74  C   UNL A   1      39.923  31.392  32.515  1.00  0.00     0.057 A 
ATOM     75  C   UNL A   1      39.241  30.278  33.052  1.00  0.00     0.134 A 
ATOM     76  C   UNL A   1      39.613  32.652  33.043  1.00  0.00     0.134 A 
ATOM     77  F   UNL A   1      39.459  29.047  32.562  1.00  0.00    -0.206 F 
ATOM     78  C   UNL A   1      38.517  30.376  34.232  1.00  0.00     0.040 A 
ATOM     79  C   UNL A   1      38.848  32.767  34.202  1.00  0.00     0.040 A 
ATOM     80  F   UNL A   1      40.167  33.767  32.547  1.00  0.00    -0.206 F 
ATOM     81  C   UNL A   1      38.389  31.614  34.836  1.00  0.00     0.006 A 
ENDBRANCH  53  74
BRANCH  65  82
ATOM     82  C   UNL A   1      45.267  26.520  32.519  1.00  0.00     0.057 A 
ATOM     83  C   UNL A   1      46.655  26.643  32.409  1.00  0.00     0.134 A 
ATOM     84  C   UNL A   1      44.796  25.473  33.334  1.00  0.00     0.134 A 
ATOM     85  F   UNL A   1      47.207  27.551  31.589  1.00  0.00    -0.206 F 
ATOM     86  C   UNL A   1      47.524  25.826  33.130  1.00  0.00     0.040 A 
ATOM     87  C   UNL A   1      45.655  24.601  33.995  1.00  0.00     0.040 A 
ATOM     88  F   UNL A   1      43.489  25.265  33.548  1.00  0.00    -0.206 F 
ATOM     89  C   UNL A   1      47.024  24.793  33.915  1.00  0.00     0.006 A 
ENDBRANCH  65  82
ENDBRANCH  39  40
ENDBRANCH  32  34
ENDBRANCH  31  32
ENDBRANCH  30  31
ENDBRANCH   1  30
TORSDOF 17
ENDMDL
MODEL 2
REMARK VINA RESULT:     -12.1      3.358      8.951
REMARK SMILES Cc1ccc(Cn2c(C)c(C[NH2+]C[C@@H]3CCCO3)c(C(=O)OCCOC(=O)c3ccc(-c4c5nc(c(-c6c(F)cccc6F)c6ccc([nH]6)c(-c6c(F)cccc6F)c6nc(c(-c7c(F)cccc7F)c7ccc4[nH]7)C=C6)C=C5)cc3)c2C)cc1
REMARK SMILES IDX 23 1 22 2 20 3 21 4 19 5 7 6 8 7 82 8 9 9 10 10 83 11 6 12
REMARK SMILES IDX 5 13 1 14 2 15 3 16 85 17 4 18 84 19 11 20 12 21 13 24 14 25
REMARK SMILES IDX 15 26 18 27 16 28 17 29 24 30 25 31 26 32 27 33 28 34 29 35
REMARK SMILES IDX 81 36 30 37 80 38 31 39 32 40 33 41 74 42 34 43 79 44 73 45
REMARK SMILES IDX 75 46 35 47 78 48 72 49 71 50 36 52 62 53 45 54 61 55 46 56
REMARK SMILES IDX 49 57 60 58 76 59 47 60 48 61 59 63 77 64 50 65 37 66 38 67
REMARK SMILES IDX 43 68 39 69 40 70 42 71 44 72 41 73 63 74 64 75 69 76 65 77
REMARK SMILES IDX 66 78 68 79 70 80 67 81 51 82 52 83 57 84 53 85 54 86 56 87
REMARK SMILES IDX 58 88 55 89
REMARK H PARENT 12 22 12 23 75 51 49 62
REMARK Flexibility Score: inf
ROOT
ATOM      1  C   UNL A   1      36.099  22.629  25.027  1.00  0.00     0.275 C 
ENDROOT
BRANCH   1   2
ATOM      2  O   UNL A   1      35.480  22.677  23.716  1.00  0.00    -0.458 OA
BRANCH   2   3
ATOM      3  C   UNL A   1      34.345  23.447  23.634  1.00  0.00     0.340 C 
ATOM      4  O   UNL A   1      34.225  24.340  22.806  1.00  0.00    -0.246 OA
BRANCH   3   5
ATOM      5  C   UNL A   1      33.468  23.435  24.799  1.00  0.00     0.089 A 
ATOM      6  N   UNL A   1      32.118  24.727  26.004  1.00  0.00    -0.343 N 
ATOM      7  C   UNL A   1      31.605  23.436  26.078  1.00  0.00     0.025 A 
ATOM      8  C   UNL A   1      33.395  24.633  25.499  1.00  0.00     0.030 A 
ATOM      9  C   UNL A   1      30.346  23.065  26.797  1.00  0.00     0.065 C 
ATOM     10  C   UNL A   1      32.414  22.577  25.309  1.00  0.00     0.042 A 
ATOM     11  C   UNL A   1      34.425  25.711  25.468  1.00  0.00     0.065 C 
BRANCH   6  12
ATOM     12  C   UNL A   1      31.490  25.976  26.473  1.00  0.00     0.157 C 
BRANCH  12  13
ATOM     13  C   UNL A   1      30.931  26.903  25.396  1.00  0.00    -0.028 A 
ATOM     14  C   UNL A   1      29.589  29.425  22.106  1.00  0.00     0.044 C 
ATOM     15  C   UNL A   1      30.075  28.567  23.235  1.00  0.00    -0.051 A 
ATOM     16  C   UNL A   1      29.507  27.314  23.437  1.00  0.00     0.004 A 
ATOM     17  C   UNL A   1      31.064  28.996  24.125  1.00  0.00     0.004 A 
ATOM     18  C   UNL A   1      29.951  26.495  24.480  1.00  0.00     0.006 A 
ATOM     19  C   UNL A   1      31.483  28.179  25.192  1.00  0.00     0.006 A 
ENDBRANCH  12  13
ENDBRANCH   6  12
BRANCH  10  20
ATOM     20  C   UNL A   1      32.054  21.107  25.046  1.00  0.00     0.300 C 
BRANCH  20  21
ATOM     21  N   UNL A   1      33.022  20.179  25.652  1.00  0.00    -0.340 N 
ATOM     22  H   UNL A   1      32.503  19.471  26.170  1.00  0.00     0.346 HD
ATOM     23  H   UNL A   1      33.631  20.743  26.244  1.00  0.00     0.346 HD
BRANCH  21  24
ATOM     24  C   UNL A   1      33.907  19.485  24.676  1.00  0.00     0.293 C 
BRANCH  24  25
ATOM     25  C   UNL A   1      33.613  17.982  24.414  1.00  0.00     0.173 C 
ATOM     26  C   UNL A   1      32.604  17.239  25.286  1.00  0.00     0.040 C 
ATOM     27  O   UNL A   1      34.814  17.207  24.483  1.00  0.00    -0.372 OA
ATOM     28  C   UNL A   1      33.097  15.805  25.205  1.00  0.00     0.031 C 
ATOM     29  C   UNL A   1      34.585  16.007  25.228  1.00  0.00     0.161 C 
ENDBRANCH  24  25
ENDBRANCH  21  24
ENDBRANCH  20  21
ENDBRANCH  10  20
ENDBRANCH   3   5
ENDBRANCH   2   3
ENDBRANCH   1   2
BRANCH   1  30
ATOM     30  C   UNL A   1      37.437  23.401  25.087  1.00  0.00     0.275 C 
BRANCH  30  31
ATOM     31  O   UNL A   1      37.811  23.973  26.355  1.00  0.00    -0.458 OA
BRANCH  31  32
ATOM     32  C   UNL A   1      39.067  23.682  26.746  1.00  0.00     0.338 C 
ATOM     33  O   UNL A   1      39.657  22.655  26.423  1.00  0.00    -0.246 OA
BRANCH  32  34
ATOM     34  C   UNL A   1      39.680  24.918  27.293  1.00  0.00     0.060 A 
ATOM     35  C   UNL A   1      40.099  25.914  26.403  1.00  0.00     0.016 A 
ATOM     36  C   UNL A   1      39.462  25.218  28.635  1.00  0.00     0.016 A 
ATOM     37  C   UNL A   1      40.172  27.243  26.793  1.00  0.00     0.010 A 
ATOM     38  C   UNL A   1      39.412  26.535  29.001  1.00  0.00     0.010 A 
ATOM     39  C   UNL A   1      39.776  27.537  28.082  1.00  0.00    -0.014 A 
BRANCH  39  40
ATOM     40  C   UNL A   1      39.981  28.824  28.700  1.00  0.00     0.031 A 
ATOM     41  C   UNL A   1      38.904  29.817  28.824  1.00  0.00     0.074 A 
ATOM     42  C   UNL A   1      41.128  28.757  29.407  1.00  0.00     0.049 A 
ATOM     43  N   UNL A   1      39.105  31.007  29.267  1.00  0.00    -0.248 NA
ATOM     44  C   UNL A   1      37.512  29.613  28.421  1.00  0.00     0.031 C 
ATOM     45  C   UNL A   1      41.531  29.369  30.651  1.00  0.00     0.029 A 
ATOM     46  N   UNL A   1      42.241  27.994  29.043  1.00  0.00    -0.354 N 
ATOM     47  C   UNL A   1      37.870  31.543  29.573  1.00  0.00     0.074 A 
ATOM     48  C   UNL A   1      36.919  30.732  28.862  1.00  0.00     0.031 C 
ATOM     49  C   UNL A   1      42.860  29.185  30.806  1.00  0.00     0.029 A 
ATOM     50  C   UNL A   1      43.380  28.590  29.580  1.00  0.00     0.049 A 
ATOM     51  H   UNL A   1      42.224  27.173  28.498  1.00  0.00     0.167 HD
ATOM     52  C   UNL A   1      37.806  32.477  30.565  1.00  0.00     0.037 A 
ATOM     53  C   UNL A   1      44.220  29.198  28.681  1.00  0.00     0.037 A 
ATOM     54  C   UNL A   1      39.153  32.723  31.076  1.00  0.00     0.049 A 
ATOM     55  C   UNL A   1      44.053  30.699  28.689  1.00  0.00     0.074 A 
ATOM     56  C   UNL A   1      39.889  32.182  32.116  1.00  0.00     0.029 A 
ATOM     57  N   UNL A   1      40.067  33.308  30.229  1.00  0.00    -0.354 N 
ATOM     58  N   UNL A   1      43.107  31.324  29.332  1.00  0.00    -0.248 NA
ATOM     59  C   UNL A   1      44.913  31.609  27.938  1.00  0.00     0.031 C 
ATOM     60  C   UNL A   1      41.272  32.422  31.845  1.00  0.00     0.029 A 
ATOM     61  C   UNL A   1      41.364  33.099  30.640  1.00  0.00     0.049 A 
ATOM     62  H   UNL A   1      39.821  33.816  29.421  1.00  0.00     0.167 HD
ATOM     63  C   UNL A   1      43.233  32.664  29.149  1.00  0.00     0.074 A 
ATOM     64  C   UNL A   1      44.351  32.795  28.229  1.00  0.00     0.031 C 
ATOM     65  C   UNL A   1      42.431  33.573  29.773  1.00  0.00     0.037 A 
BRANCH  52  66
ATOM     66  C   UNL A   1      36.568  32.983  31.262  1.00  0.00     0.057 A 
ATOM     67  C   UNL A   1      35.717  33.897  30.601  1.00  0.00     0.134 A 
ATOM     68  C   UNL A   1      36.138  32.618  32.549  1.00  0.00     0.134 A 
ATOM     69  F   UNL A   1      35.956  34.305  29.348  1.00  0.00    -0.206 F 
ATOM     70  C   UNL A   1      34.571  34.444  31.187  1.00  0.00     0.040 A 
ATOM     71  C   UNL A   1      35.000  33.179  33.157  1.00  0.00     0.040 A 
ATOM     72  F   UNL A   1      36.764  31.673  33.261  1.00  0.00    -0.206 F 
ATOM     73  C   UNL A   1      34.214  34.099  32.477  1.00  0.00     0.006 A 
ENDBRANCH  52  66
BRANCH  53  74
ATOM     74  C   UNL A   1      44.379  28.369  27.437  1.00  0.00     0.057 A 
ATOM     75  C   UNL A   1      45.075  27.149  27.580  1.00  0.00     0.134 A 
ATOM     76  C   UNL A   1      43.461  28.466  26.382  1.00  0.00     0.134 A 
ATOM     77  F   UNL A   1      46.000  27.004  28.541  1.00  0.00    -0.206 F 
ATOM     78  C   UNL A   1      44.675  26.006  26.901  1.00  0.00     0.040 A 
ATOM     79  C   UNL A   1      43.084  27.333  25.663  1.00  0.00     0.040 A 
ATOM     80  F   UNL A   1      42.804  29.609  26.138  1.00  0.00    -0.206 F 
ATOM     81  C   UNL A   1      43.630  26.096  25.999  1.00  0.00     0.006 A 
ENDBRANCH  53  74
BRANCH  65  82
ATOM     82  C   UNL A   1      42.625  35.042  29.602  1.00  0.00     0.057 A 
ATOM     83  C   UNL A   1      41.998  35.741  28.568  1.00  0.00     0.134 A 
ATOM     84  C   UNL A   1      43.534  35.774  30.390  1.00  0.00     0.134 A 
ATOM     85  F   UNL A   1      41.181  35.117  27.705  1.00  0.00    -0.206 F 
ATOM     86  C   UNL A   1      42.199  37.107  28.378  1.00  0.00     0.040 A 
ATOM     87  C   UNL A   1      43.803  37.119  30.159  1.00  0.00     0.040 A 
ATOM     88  F   UNL A   1      44.179  35.230  31.431  1.00  0.00    -0.206 F 
ATOM     89  C   UNL A   1      43.114  37.797  29.167  1.00  0.00     0.006 A 
ENDBRANCH  65  82
ENDBRANCH  39  40
ENDBRANCH  32  34
ENDBRANCH  31  32
ENDBRANCH  30  31
ENDBRANCH   1  30
TORSDOF 17
ENDMDL
MODEL 3
REMARK VINA RESULT:     -12.0      1.403      2.246
REMARK SMILES Cc1ccc(Cn2c(C)c(C[NH2+]C[C@@H]3CCCO3)c(C(=O)OCCOC(=O)c3ccc(-c4c5nc(c(-c6c(F)cccc6F)c6ccc([nH]6)c(-c6c(F)cccc6F)c6nc(c(-c7c(F)cccc7F)c7ccc4[nH]7)C=C6)C=C5)cc3)c2C)cc1
REMARK SMILES IDX 23 1 22 2 20 3 21 4 19 5 7 6 8 7 82 8 9 9 10 10 83 11 6 12
REMARK SMILES IDX 5 13 1 14 2 15 3 16 85 17 4 18 84 19 11 20 12 21 13 24 14 25
REMARK SMILES IDX 15 26 18 27 16 28 17 29 24 30 25 31 26 32 27 33 28 34 29 35
REMARK SMILES IDX 81 36 30 37 80 38 31 39 32 40 33 41 74 42 34 43 79 44 73 45
REMARK SMILES IDX 75 46 35 47 78 48 72 49 71 50 36 52 62 53 45 54 61 55 46 56
REMARK SMILES IDX 49 57 60 58 76 59 47 60 48 61 59 63 77 64 50 65 37 66 38 67
REMARK SMILES IDX 43 68 39 69 40 70 42 71 44 72 41 73 63 74 64 75 69 76 65 77
REMARK SMILES IDX 66 78 68 79 70 80 67 81 51 82 52 83 57 84 53 85 54 86 56 87
REMARK SMILES IDX 58 88 55 89
REMARK H PARENT 12 22 12 23 75 51 49 62
REMARK Flexibility Score: inf
ROOT
ATOM      1  C   UNL A   1      32.740  29.843  27.253  1.00  0.00     0.275 C 
ENDROOT
BRANCH   1   2
ATOM      2  O   UNL A   1      33.360  28.563  26.969  1.00  0.00    -0.458 OA
BRANCH   2   3
ATOM      3  C   UNL A   1      32.575  27.674  26.275  1.00  0.00     0.340 C 
ATOM      4  O   UNL A   1      31.631  27.098  26.797  1.00  0.00    -0.246 OA
BRANCH   3   5
ATOM      5  C   UNL A   1      33.135  27.146  25.036  1.00  0.00     0.089 A 
ATOM      6  N   UNL A   1      33.205  25.319  23.771  1.00  0.00    -0.343 N 
ATOM      7  C   UNL A   1      33.308  26.405  22.908  1.00  0.00     0.025 A 
ATOM      8  C   UNL A   1      33.421  25.786  25.048  1.00  0.00     0.030 A 
ATOM      9  C   UNL A   1      33.387  26.299  21.418  1.00  0.00     0.065 C 
ATOM     10  C   UNL A   1      33.246  27.595  23.661  1.00  0.00     0.042 A 
ATOM     11  C   UNL A   1      33.653  24.966  26.271  1.00  0.00     0.065 C 
BRANCH   6  12
ATOM     12  C   UNL A   1      33.014  23.901  23.417  1.00  0.00     0.157 C 
BRANCH  12  13
ATOM     13  C   UNL A   1      34.176  22.958  23.723  1.00  0.00    -0.028 A 
ATOM     14  C   UNL A   1      37.540  20.451  24.901  1.00  0.00     0.044 C 
ATOM     15  C   UNL A   1      36.397  21.335  24.498  1.00  0.00    -0.051 A 
ATOM     16  C   UNL A   1      35.097  20.962  24.820  1.00  0.00     0.004 A 
ATOM     17  C   UNL A   1      36.588  22.516  23.775  1.00  0.00     0.004 A 
ATOM     18  C   UNL A   1      34.018  21.777  24.461  1.00  0.00     0.006 A 
ATOM     19  C   UNL A   1      35.493  23.314  23.389  1.00  0.00     0.006 A 
ENDBRANCH  12  13
ENDBRANCH   6  12
BRANCH  10  20
ATOM     20  C   UNL A   1      33.179  28.986  23.014  1.00  0.00     0.300 C 
BRANCH  20  21
ATOM     21  N   UNL A   1      31.938  29.184  22.248  1.00  0.00    -0.340 N 
ATOM     22  H   UNL A   1      31.929  28.516  21.478  1.00  0.00     0.346 HD
ATOM     23  H   UNL A   1      31.942  30.155  21.936  1.00  0.00     0.346 HD
BRANCH  21  24
ATOM     24  C   UNL A   1      30.688  29.000  23.037  1.00  0.00     0.293 C 
BRANCH  24  25
ATOM     25  C   UNL A   1      29.515  29.969  22.723  1.00  0.00     0.173 C 
ATOM     26  C   UNL A   1      29.132  31.053  23.728  1.00  0.00     0.040 C 
ATOM     27  O   UNL A   1      28.307  29.244  22.471  1.00  0.00    -0.372 OA
ATOM     28  C   UNL A   1      27.659  31.268  23.427  1.00  0.00     0.031 C 
ATOM     29  C   UNL A   1      27.209  29.864  23.149  1.00  0.00     0.161 C 
ENDBRANCH  24  25
ENDBRANCH  21  24
ENDBRANCH  20  21
ENDBRANCH  10  20
ENDBRANCH   3   5
ENDBRANCH   2   3
ENDBRANCH   1   2
BRANCH   1  30
ATOM     30  C   UNL A   1      33.765  30.937  27.627  1.00  0.00     0.275 C 
BRANCH  30  31
ATOM     31  O   UNL A   1      35.160  30.619  27.455  1.00  0.00    -0.458 OA
BRANCH  31  32
ATOM     32  C   UNL A   1      35.900  30.754  28.573  1.00  0.00     0.338 C 
ATOM     33  O   UNL A   1      35.536  31.394  29.555  1.00  0.00    -0.246 OA
BRANCH  32  34
ATOM     34  C   UNL A   1      36.994  29.753  28.528  1.00  0.00     0.060 A 
ATOM     35  C   UNL A   1      38.033  29.929  27.605  1.00  0.00     0.016 A 
ATOM     36  C   UNL A   1      37.165  28.919  29.630  1.00  0.00     0.016 A 
ATOM     37  C   UNL A   1      39.295  29.400  27.832  1.00  0.00     0.010 A 
ATOM     38  C   UNL A   1      38.431  28.495  29.927  1.00  0.00     0.010 A 
ATOM     39  C   UNL A   1      39.483  28.728  29.023  1.00  0.00    -0.014 A 
BRANCH  39  40
ATOM     40  C   UNL A   1      40.664  27.954  29.317  1.00  0.00     0.031 A 
ATOM     41  C   UNL A   1      40.910  26.635  28.718  1.00  0.00     0.074 A 
ATOM     42  C   UNL A   1      41.565  28.786  29.879  1.00  0.00     0.049 A 
ATOM     43  N   UNL A   1      41.899  25.889  29.061  1.00  0.00    -0.248 NA
ATOM     44  C   UNL A   1      40.058  25.985  27.720  1.00  0.00     0.031 C 
ATOM     45  C   UNL A   1      43.007  28.839  29.804  1.00  0.00     0.029 A 
ATOM     46  N   UNL A   1      41.241  29.869  30.702  1.00  0.00    -0.354 N 
ATOM     47  C   UNL A   1      42.031  24.914  28.093  1.00  0.00     0.074 A 
ATOM     48  C   UNL A   1      40.772  24.896  27.400  1.00  0.00     0.031 C 
ATOM     49  C   UNL A   1      43.451  29.704  30.742  1.00  0.00     0.029 A 
ATOM     50  C   UNL A   1      42.311  30.109  31.559  1.00  0.00     0.049 A 
ATOM     51  H   UNL A   1      40.397  30.377  30.679  1.00  0.00     0.167 HD
ATOM     52  C   UNL A   1      43.274  24.397  27.871  1.00  0.00     0.037 A 
ATOM     53  C   UNL A   1      42.109  29.784  32.877  1.00  0.00     0.037 A 
ATOM     54  C   UNL A   1      44.222  25.021  28.793  1.00  0.00     0.049 A 
ATOM     55  C   UNL A   1      42.774  28.477  33.239  1.00  0.00     0.074 A 
ATOM     56  C   UNL A   1      45.050  26.126  28.703  1.00  0.00     0.029 A 
ATOM     57  N   UNL A   1      44.073  24.766  30.138  1.00  0.00    -0.354 N 
ATOM     58  N   UNL A   1      43.315  27.669  32.370  1.00  0.00    -0.248 NA
ATOM     59  C   UNL A   1      42.842  27.957  34.601  1.00  0.00     0.031 C 
ATOM     60  C   UNL A   1      45.357  26.552  30.032  1.00  0.00     0.029 A 
ATOM     61  C   UNL A   1      44.708  25.708  30.917  1.00  0.00     0.049 A 
ATOM     62  H   UNL A   1      43.569  24.001  30.501  1.00  0.00     0.167 HD
ATOM     63  C   UNL A   1      43.834  26.588  33.007  1.00  0.00     0.074 A 
ATOM     64  C   UNL A   1      43.472  26.787  34.401  1.00  0.00     0.031 C 
ATOM     65  C   UNL A   1      44.537  25.616  32.358  1.00  0.00     0.037 A 
BRANCH  52  66
ATOM     66  C   UNL A   1      43.715  23.555  26.700  1.00  0.00     0.057 A 
ATOM     67  C   UNL A   1      43.416  22.175  26.680  1.00  0.00     0.134 A 
ATOM     68  C   UNL A   1      44.409  24.014  25.568  1.00  0.00     0.134 A 
ATOM     69  F   UNL A   1      42.713  21.590  27.658  1.00  0.00    -0.206 F 
ATOM     70  C   UNL A   1      43.819  21.314  25.653  1.00  0.00     0.040 A 
ATOM     71  C   UNL A   1      44.839  23.155  24.540  1.00  0.00     0.040 A 
ATOM     72  F   UNL A   1      44.663  25.314  25.374  1.00  0.00    -0.206 F 
ATOM     73  C   UNL A   1      44.549  21.798  24.583  1.00  0.00     0.006 A 
ENDBRANCH  52  66
BRANCH  53  74
ATOM     74  C   UNL A   1      40.735  30.192  33.334  1.00  0.00     0.057 A 
ATOM     75  C   UNL A   1      40.479  31.579  33.393  1.00  0.00     0.134 A 
ATOM     76  C   UNL A   1      39.635  29.341  33.161  1.00  0.00     0.134 A 
ATOM     77  F   UNL A   1      41.482  32.447  33.600  1.00  0.00    -0.206 F 
ATOM     78  C   UNL A   1      39.251  32.103  33.015  1.00  0.00     0.040 A 
ATOM     79  C   UNL A   1      38.385  29.857  32.826  1.00  0.00     0.040 A 
ATOM     80  F   UNL A   1      39.783  28.009  33.157  1.00  0.00    -0.206 F 
ATOM     81  C   UNL A   1      38.234  31.233  32.663  1.00  0.00     0.006 A 
ENDBRANCH  53  74
BRANCH  65  82
ATOM     82  C   UNL A   1      45.147  24.468  33.088  1.00  0.00     0.057 A 
ATOM     83  C   UNL A   1      44.403  23.325  33.396  1.00  0.00     0.134 A 
ATOM     84  C   UNL A   1      46.456  24.518  33.605  1.00  0.00     0.134 A 
ATOM     85  F   UNL A   1      43.118  23.215  33.027  1.00  0.00    -0.206 F 
ATOM     86  C   UNL A   1      44.954  22.260  34.107  1.00  0.00     0.040 A 
ATOM     87  C   UNL A   1      46.988  23.496  34.383  1.00  0.00     0.040 A 
ATOM     88  F   UNL A   1      47.284  25.543  33.358  1.00  0.00    -0.206 F 
ATOM     89  C   UNL A   1      46.246  22.349  34.614  1.00  0.00     0.006 A 
ENDBRANCH  65  82
ENDBRANCH  39  40
ENDBRANCH  32  34
ENDBRANCH  31  32
ENDBRANCH  30  31
ENDBRANCH   1  30
TORSDOF 17
ENDMDL
