MODEL 1
REMARK VINA RESULT:     -12.6      0.000      0.000
REMARK SMILES CC(=O)NS(=O)(=O)c1cc(-c2ccn(C(F)F)c(=O)c2)ccc1C(=O)OCCOC(=O)c1ccc(-c2c3nc(c(-c4c(F)cccc4F)c4ccc([nH]4)c(-c4c(F)cccc4F)c4nc(c(-c5c(F)cccc5F)c5ccc2[nH]5)C=C4)C=C3)cc1
REMARK SMILES IDX 27 1 26 2 24 3 25 4 23 5 8 6 9 7 10 8 22 9 21 10 5 11 6 12
REMARK SMILES IDX 7 13 4 14 1 15 2 16 3 17 11 19 12 20 20 21 13 22 18 23 14 24
REMARK SMILES IDX 19 25 15 26 16 27 17 28 28 29 29 30 30 31 31 32 32 33 33 34
REMARK SMILES IDX 85 35 34 36 84 37 35 38 36 39 37 40 78 41 38 42 83 43 77 44
REMARK SMILES IDX 79 45 39 46 82 47 76 48 75 49 40 51 66 52 49 53 65 54 50 55
REMARK SMILES IDX 53 56 64 57 80 58 51 59 52 60 63 62 81 63 54 64 41 65 42 66
REMARK SMILES IDX 47 67 43 68 44 69 46 70 48 71 45 72 67 73 68 74 73 75 69 76
REMARK SMILES IDX 70 77 72 78 74 79 71 80 55 81 56 82 61 83 57 84 58 85 60 86
REMARK SMILES IDX 62 87 59 88
REMARK H PARENT 4 18 79 50 53 61
REMARK Flexibility Score: inf
ROOT
ATOM      1  C   UNL A   1      43.391  24.132  26.496  1.00  0.00     0.275 C 
ENDROOT
BRANCH   1   2
ATOM      2  O   UNL A   1      42.522  22.979  26.503  1.00  0.00    -0.458 OA
BRANCH   2   3
ATOM      3  C   UNL A   1      41.465  23.055  27.338  1.00  0.00     0.339 C 
ATOM      4  O   UNL A   1      41.478  23.271  28.539  1.00  0.00    -0.246 OA
BRANCH   3   5
ATOM      5  C   UNL A   1      40.200  22.849  26.619  1.00  0.00     0.080 A 
ATOM      6  C   UNL A   1      39.746  21.608  26.180  1.00  0.00     0.103 A 
ATOM      7  C   UNL A   1      38.459  21.487  25.616  1.00  0.00     0.032 A 
ATOM      8  C   UNL A   1      37.612  22.602  25.522  1.00  0.00    -0.017 A 
ATOM      9  C   UNL A   1      39.345  23.955  26.528  1.00  0.00     0.018 A 
ATOM     10  C   UNL A   1      38.068  23.835  25.989  1.00  0.00     0.010 A 
BRANCH   6  11
ATOM     11  S   UNL A   1      40.671  20.120  26.430  1.00  0.00     0.264 S 
ATOM     12  O   UNL A   1      39.986  19.077  25.701  1.00  0.00    -0.201 OA
ATOM     13  O   UNL A   1      40.920  20.001  27.849  1.00  0.00    -0.201 OA
BRANCH  11  14
ATOM     14  N   UNL A   1      42.135  20.333  25.699  1.00  0.00    -0.249 N 
ATOM     15  C   UNL A   1      43.251  18.164  26.267  1.00  0.00     0.115 C 
ATOM     16  C   UNL A   1      43.154  19.408  25.433  1.00  0.00     0.230 C 
ATOM     17  O   UNL A   1      44.008  19.706  24.609  1.00  0.00    -0.274 OA
ATOM     18  H   UNL A   1      42.323  21.254  25.403  1.00  0.00     0.183 HD
ENDBRANCH  11  14
ENDBRANCH   6  11
BRANCH   8  19
ATOM     19  C   UNL A   1      36.238  22.527  24.991  1.00  0.00    -0.011 A 
ATOM     20  C   UNL A   1      35.302  21.497  25.407  1.00  0.00     0.027 A 
ATOM     21  C   UNL A   1      35.877  23.373  24.011  1.00  0.00     0.080 A 
ATOM     22  C   UNL A   1      34.116  21.367  24.803  1.00  0.00     0.095 A 
ATOM     23  C   UNL A   1      34.549  23.257  23.345  1.00  0.00     0.255 A 
ATOM     24  N   UNL A   1      33.740  22.221  23.785  1.00  0.00    -0.258 N 
ATOM     25  O   UNL A   1      34.270  24.054  22.457  1.00  0.00    -0.269 OA
BRANCH  24  26
ATOM     26  C   UNL A   1      32.469  22.059  23.128  1.00  0.00     0.451 C 
ATOM     27  F   UNL A   1      32.108  20.753  23.077  1.00  0.00    -0.185 F 
ATOM     28  F   UNL A   1      31.495  22.741  23.777  1.00  0.00    -0.185 F 
ENDBRANCH  24  26
ENDBRANCH   8  19
ENDBRANCH   3   5
ENDBRANCH   2   3
ENDBRANCH   1   2
BRANCH   1  29
ATOM     29  C   UNL A   1      43.294  24.884  25.173  1.00  0.00     0.275 C 
BRANCH  29  30
ATOM     30  O   UNL A   1      42.134  25.734  25.181  1.00  0.00    -0.458 OA
BRANCH  30  31
ATOM     31  C   UNL A   1      42.382  27.063  25.202  1.00  0.00     0.338 C 
ATOM     32  O   UNL A   1      42.744  27.770  24.278  1.00  0.00    -0.246 OA
BRANCH  31  33
ATOM     33  C   UNL A   1      42.108  27.596  26.546  1.00  0.00     0.060 A 
ATOM     34  C   UNL A   1      41.230  26.919  27.387  1.00  0.00     0.016 A 
ATOM     35  C   UNL A   1      42.608  28.841  26.914  1.00  0.00     0.016 A 
ATOM     36  C   UNL A   1      40.745  27.540  28.533  1.00  0.00     0.010 A 
ATOM     37  C   UNL A   1      42.235  29.395  28.142  1.00  0.00     0.010 A 
ATOM     38  C   UNL A   1      41.272  28.768  28.954  1.00  0.00    -0.014 A 
BRANCH  38  39
ATOM     39  C   UNL A   1      40.840  29.387  30.239  1.00  0.00     0.031 A 
ATOM     40  C   UNL A   1      39.632  30.284  30.284  1.00  0.00     0.074 A 
ATOM     41  C   UNL A   1      41.537  29.163  31.372  1.00  0.00     0.049 A 
ATOM     42  N   UNL A   1      39.257  31.121  31.219  1.00  0.00    -0.248 NA
ATOM     43  C   UNL A   1      38.736  30.249  29.118  1.00  0.00     0.031 C 
ATOM     44  C   UNL A   1      42.691  28.271  31.502  1.00  0.00     0.029 A 
ATOM     45  N   UNL A   1      41.376  29.673  32.638  1.00  0.00    -0.354 N 
ATOM     46  C   UNL A   1      38.124  31.758  30.727  1.00  0.00     0.074 A 
ATOM     47  C   UNL A   1      37.865  31.204  29.415  1.00  0.00     0.031 C 
ATOM     48  C   UNL A   1      43.101  28.257  32.778  1.00  0.00     0.029 A 
ATOM     49  C   UNL A   1      42.324  29.231  33.530  1.00  0.00     0.049 A 
ATOM     50  H   UNL A   1      40.652  30.294  32.882  1.00  0.00     0.167 HD
ATOM     51  C   UNL A   1      37.378  32.724  31.315  1.00  0.00     0.037 A 
ATOM     52  C   UNL A   1      42.591  29.612  34.793  1.00  0.00     0.037 A 
ATOM     53  C   UNL A   1      37.612  33.232  32.642  1.00  0.00     0.049 A 
ATOM     54  C   UNL A   1      41.799  30.731  35.399  1.00  0.00     0.074 A 
ATOM     55  C   UNL A   1      36.908  34.201  33.335  1.00  0.00     0.029 A 
ATOM     56  N   UNL A   1      38.624  32.795  33.484  1.00  0.00    -0.354 N 
ATOM     57  N   UNL A   1      40.789  31.394  34.891  1.00  0.00    -0.248 NA
ATOM     58  C   UNL A   1      42.213  31.186  36.733  1.00  0.00     0.031 C 
ATOM     59  C   UNL A   1      37.512  34.373  34.585  1.00  0.00     0.029 A 
ATOM     60  C   UNL A   1      38.573  33.487  34.683  1.00  0.00     0.049 A 
ATOM     61  H   UNL A   1      39.282  32.097  33.264  1.00  0.00     0.167 HD
ATOM     62  C   UNL A   1      40.445  32.344  35.842  1.00  0.00     0.074 A 
ATOM     63  C   UNL A   1      41.343  32.158  36.965  1.00  0.00     0.031 C 
ATOM     64  C   UNL A   1      39.480  33.292  35.785  1.00  0.00     0.037 A 
BRANCH  51  65
ATOM     65  C   UNL A   1      36.265  33.328  30.511  1.00  0.00     0.057 A 
ATOM     66  C   UNL A   1      36.502  34.211  29.450  1.00  0.00     0.134 A 
ATOM     67  C   UNL A   1      34.931  32.995  30.788  1.00  0.00     0.134 A 
ATOM     68  F   UNL A   1      37.753  34.584  29.143  1.00  0.00    -0.206 F 
ATOM     69  C   UNL A   1      35.452  34.755  28.706  1.00  0.00     0.040 A 
ATOM     70  C   UNL A   1      33.875  33.516  30.038  1.00  0.00     0.040 A 
ATOM     71  F   UNL A   1      34.634  32.152  31.788  1.00  0.00    -0.206 F 
ATOM     72  C   UNL A   1      34.135  34.403  28.997  1.00  0.00     0.006 A 
ENDBRANCH  51  65
BRANCH  52  73
ATOM     73  C   UNL A   1      43.709  28.976  35.531  1.00  0.00     0.057 A 
ATOM     74  C   UNL A   1      43.480  27.897  36.391  1.00  0.00     0.134 A 
ATOM     75  C   UNL A   1      45.033  29.407  35.372  1.00  0.00     0.134 A 
ATOM     76  F   UNL A   1      42.232  27.454  36.601  1.00  0.00    -0.206 F 
ATOM     77  C   UNL A   1      44.529  27.264  37.061  1.00  0.00     0.040 A 
ATOM     78  C   UNL A   1      46.093  28.767  36.015  1.00  0.00     0.040 A 
ATOM     79  F   UNL A   1      45.317  30.436  34.560  1.00  0.00    -0.206 F 
ATOM     80  C   UNL A   1      45.841  27.693  36.865  1.00  0.00     0.006 A 
ENDBRANCH  52  73
BRANCH  64  81
ATOM     81  C   UNL A   1      39.341  34.187  36.977  1.00  0.00     0.057 A 
ATOM     82  C   UNL A   1      38.679  33.763  38.135  1.00  0.00     0.134 A 
ATOM     83  C   UNL A   1      39.895  35.472  36.975  1.00  0.00     0.134 A 
ATOM     84  F   UNL A   1      38.113  32.548  38.189  1.00  0.00    -0.206 F 
ATOM     85  C   UNL A   1      38.561  34.594  39.249  1.00  0.00     0.040 A 
ATOM     86  C   UNL A   1      39.799  36.305  38.089  1.00  0.00     0.040 A 
ATOM     87  F   UNL A   1      40.542  35.934  35.895  1.00  0.00    -0.206 F 
ATOM     88  C   UNL A   1      39.128  35.868  39.230  1.00  0.00     0.006 A 
ENDBRANCH  64  81
ENDBRANCH  38  39
ENDBRANCH  31  33
ENDBRANCH  30  31
ENDBRANCH  29  30
ENDBRANCH   1  29
TORSDOF 15
ENDMDL
MODEL 2
REMARK VINA RESULT:     -11.9      6.095     11.866
REMARK SMILES CC(=O)NS(=O)(=O)c1cc(-c2ccn(C(F)F)c(=O)c2)ccc1C(=O)OCCOC(=O)c1ccc(-c2c3nc(c(-c4c(F)cccc4F)c4ccc([nH]4)c(-c4c(F)cccc4F)c4nc(c(-c5c(F)cccc5F)c5ccc2[nH]5)C=C4)C=C3)cc1
REMARK SMILES IDX 27 1 26 2 24 3 25 4 23 5 8 6 9 7 10 8 22 9 21 10 5 11 6 12
REMARK SMILES IDX 7 13 4 14 1 15 2 16 3 17 11 19 12 20 20 21 13 22 18 23 14 24
REMARK SMILES IDX 19 25 15 26 16 27 17 28 28 29 29 30 30 31 31 32 32 33 33 34
REMARK SMILES IDX 85 35 34 36 84 37 35 38 36 39 37 40 78 41 38 42 83 43 77 44
REMARK SMILES IDX 79 45 39 46 82 47 76 48 75 49 40 51 66 52 49 53 65 54 50 55
REMARK SMILES IDX 53 56 64 57 80 58 51 59 52 60 63 62 81 63 54 64 41 65 42 66
REMARK SMILES IDX 47 67 43 68 44 69 46 70 48 71 45 72 67 73 68 74 73 75 69 76
REMARK SMILES IDX 70 77 72 78 74 79 71 80 55 81 56 82 61 83 57 84 58 85 60 86
REMARK SMILES IDX 62 87 59 88
REMARK H PARENT 4 18 79 50 53 61
REMARK Flexibility Score: inf
ROOT
ATOM      1  C   UNL A   1      36.711  33.013  31.463  1.00  0.00     0.275 C 
ENDROOT
BRANCH   1   2
ATOM      2  O   UNL A   1      35.665  32.862  30.480  1.00  0.00    -0.458 OA
BRANCH   2   3
ATOM      3  C   UNL A   1      36.079  32.535  29.239  1.00  0.00     0.339 C 
ATOM      4  O   UNL A   1      37.110  32.875  28.683  1.00  0.00    -0.246 OA
BRANCH   3   5
ATOM      5  C   UNL A   1      35.110  31.656  28.568  1.00  0.00     0.080 A 
ATOM      6  C   UNL A   1      33.927  32.102  27.984  1.00  0.00     0.103 A 
ATOM      7  C   UNL A   1      33.124  31.207  27.247  1.00  0.00     0.032 A 
ATOM      8  C   UNL A   1      33.521  29.874  27.064  1.00  0.00    -0.017 A 
ATOM      9  C   UNL A   1      35.502  30.325  28.374  1.00  0.00     0.018 A 
ATOM     10  C   UNL A   1      34.720  29.445  27.632  1.00  0.00     0.010 A 
BRANCH   6  11
ATOM     11  S   UNL A   1      33.446  33.805  28.005  1.00  0.00     0.264 S 
ATOM     12  O   UNL A   1      32.129  33.872  27.413  1.00  0.00    -0.201 OA
ATOM     13  O   UNL A   1      34.547  34.571  27.467  1.00  0.00    -0.201 OA
BRANCH  11  14
ATOM     14  N   UNL A   1      33.282  34.241  29.588  1.00  0.00    -0.249 N 
ATOM     15  C   UNL A   1      33.277  36.737  29.379  1.00  0.00     0.115 C 
ATOM     16  C   UNL A   1      32.979  35.487  30.154  1.00  0.00     0.230 C 
ATOM     17  O   UNL A   1      32.597  35.519  31.316  1.00  0.00    -0.274 OA
ATOM     18  H   UNL A   1      33.417  33.512  30.237  1.00  0.00     0.183 HD
ENDBRANCH  11  14
ENDBRANCH   6  11
BRANCH   8  19
ATOM     19  C   UNL A   1      32.749  28.907  26.260  1.00  0.00    -0.011 A 
ATOM     20  C   UNL A   1      32.423  29.146  24.865  1.00  0.00     0.027 A 
ATOM     21  C   UNL A   1      32.240  27.822  26.869  1.00  0.00     0.080 A 
ATOM     22  C   UNL A   1      31.602  28.323  24.205  1.00  0.00     0.095 A 
ATOM     23  C   UNL A   1      31.343  26.881  26.139  1.00  0.00     0.255 A 
ATOM     24  N   UNL A   1      31.061  27.212  24.824  1.00  0.00    -0.258 N 
ATOM     25  O   UNL A   1      30.906  25.907  26.742  1.00  0.00    -0.269 OA
BRANCH  24  26
ATOM     26  C   UNL A   1      30.161  26.344  24.109  1.00  0.00     0.451 C 
ATOM     27  F   UNL A   1      29.010  26.986  23.795  1.00  0.00    -0.185 F 
ATOM     28  F   UNL A   1      30.724  25.900  22.960  1.00  0.00    -0.185 F 
ENDBRANCH  24  26
ENDBRANCH   8  19
ENDBRANCH   3   5
ENDBRANCH   2   3
ENDBRANCH   1   2
BRANCH   1  29
ATOM     29  C   UNL A   1      36.406  32.203  32.719  1.00  0.00     0.275 C 
BRANCH  29  30
ATOM     30  O   UNL A   1      37.370  31.146  32.862  1.00  0.00    -0.458 OA
BRANCH  30  31
ATOM     31  C   UNL A   1      37.264  30.134  31.972  1.00  0.00     0.338 C 
ATOM     32  O   UNL A   1      36.281  29.459  31.721  1.00  0.00    -0.246 OA
BRANCH  31  33
ATOM     33  C   UNL A   1      38.545  29.958  31.269  1.00  0.00     0.060 A 
ATOM     34  C   UNL A   1      38.635  30.277  29.917  1.00  0.00     0.016 A 
ATOM     35  C   UNL A   1      39.612  29.340  31.914  1.00  0.00     0.016 A 
ATOM     36  C   UNL A   1      39.736  29.862  29.176  1.00  0.00     0.010 A 
ATOM     37  C   UNL A   1      40.779  29.060  31.197  1.00  0.00     0.010 A 
ATOM     38  C   UNL A   1      40.845  29.287  29.810  1.00  0.00    -0.014 A 
BRANCH  38  39
ATOM     39  C   UNL A   1      42.074  28.941  29.040  1.00  0.00     0.031 A 
ATOM     40  C   UNL A   1      42.257  27.557  28.478  1.00  0.00     0.074 A 
ATOM     41  C   UNL A   1      43.044  29.861  28.855  1.00  0.00     0.049 A 
ATOM     42  N   UNL A   1      43.343  26.983  28.026  1.00  0.00    -0.248 NA
ATOM     43  C   UNL A   1      41.063  26.698  28.431  1.00  0.00     0.031 C 
ATOM     44  C   UNL A   1      42.987  31.260  29.285  1.00  0.00     0.029 A 
ATOM     45  N   UNL A   1      44.274  29.755  28.254  1.00  0.00    -0.354 N 
ATOM     46  C   UNL A   1      42.981  25.680  27.707  1.00  0.00     0.074 A 
ATOM     47  C   UNL A   1      41.571  25.549  28.005  1.00  0.00     0.031 C 
ATOM     48  C   UNL A   1      44.102  31.891  28.893  1.00  0.00     0.029 A 
ATOM     49  C   UNL A   1      45.006  30.918  28.297  1.00  0.00     0.049 A 
ATOM     50  H   UNL A   1      44.600  28.927  27.832  1.00  0.00     0.167 HD
ATOM     51  C   UNL A   1      43.761  24.685  27.219  1.00  0.00     0.037 A 
ATOM     52  C   UNL A   1      46.286  31.167  27.964  1.00  0.00     0.037 A 
ATOM     53  C   UNL A   1      45.151  24.839  26.876  1.00  0.00     0.049 A 
ATOM     54  C   UNL A   1      47.149  30.036  27.493  1.00  0.00     0.074 A 
ATOM     55  C   UNL A   1      46.026  23.897  26.365  1.00  0.00     0.029 A 
ATOM     56  N   UNL A   1      45.864  26.023  26.997  1.00  0.00    -0.354 N 
ATOM     57  N   UNL A   1      46.824  28.784  27.282  1.00  0.00    -0.248 NA
ATOM     58  C   UNL A   1      48.567  30.341  27.259  1.00  0.00     0.031 C 
ATOM     59  C   UNL A   1      47.278  24.502  26.204  1.00  0.00     0.029 A 
ATOM     60  C   UNL A   1      47.173  25.831  26.585  1.00  0.00     0.049 A 
ATOM     61  H   UNL A   1      45.496  26.874  27.326  1.00  0.00     0.167 HD
ATOM     62  C   UNL A   1      47.994  28.151  26.891  1.00  0.00     0.074 A 
ATOM     63  C   UNL A   1      49.034  29.161  26.875  1.00  0.00     0.031 C 
ATOM     64  C   UNL A   1      48.193  26.847  26.584  1.00  0.00     0.037 A 
BRANCH  51  65
ATOM     65  C   UNL A   1      43.140  23.327  27.069  1.00  0.00     0.057 A 
ATOM     66  C   UNL A   1      42.868  22.503  28.169  1.00  0.00     0.134 A 
ATOM     67  C   UNL A   1      42.782  22.850  25.801  1.00  0.00     0.134 A 
ATOM     68  F   UNL A   1      43.200  22.893  29.408  1.00  0.00    -0.206 F 
ATOM     69  C   UNL A   1      42.280  21.246  28.010  1.00  0.00     0.040 A 
ATOM     70  C   UNL A   1      42.174  21.604  25.631  1.00  0.00     0.040 A 
ATOM     71  F   UNL A   1      43.011  23.590  24.706  1.00  0.00    -0.206 F 
ATOM     72  C   UNL A   1      41.927  20.797  26.739  1.00  0.00     0.006 A 
ENDBRANCH  51  65
BRANCH  52  73
ATOM     73  C   UNL A   1      46.839  32.533  28.140  1.00  0.00     0.057 A 
ATOM     74  C   UNL A   1      46.703  33.497  27.136  1.00  0.00     0.134 A 
ATOM     75  C   UNL A   1      47.483  32.916  29.323  1.00  0.00     0.134 A 
ATOM     76  F   UNL A   1      46.115  33.183  25.973  1.00  0.00    -0.206 F 
ATOM     77  C   UNL A   1      47.184  34.797  27.305  1.00  0.00     0.040 A 
ATOM     78  C   UNL A   1      47.945  34.218  29.515  1.00  0.00     0.040 A 
ATOM     79  F   UNL A   1      47.642  32.036  30.323  1.00  0.00    -0.206 F 
ATOM     80  C   UNL A   1      47.798  35.163  28.503  1.00  0.00     0.006 A 
ENDBRANCH  52  73
BRANCH  64  81
ATOM     81  C   UNL A   1      49.581  26.449  26.191  1.00  0.00     0.057 A 
ATOM     82  C   UNL A   1      50.443  25.815  27.094  1.00  0.00     0.134 A 
ATOM     83  C   UNL A   1      50.050  26.679  24.893  1.00  0.00     0.134 A 
ATOM     84  F   UNL A   1      50.054  25.585  28.357  1.00  0.00    -0.206 F 
ATOM     85  C   UNL A   1      51.732  25.435  26.721  1.00  0.00     0.040 A 
ATOM     86  C   UNL A   1      51.331  26.286  24.503  1.00  0.00     0.040 A 
ATOM     87  F   UNL A   1      49.270  27.281  23.983  1.00  0.00    -0.206 F 
ATOM     88  C   UNL A   1      52.177  25.665  25.420  1.00  0.00     0.006 A 
ENDBRANCH  64  81
ENDBRANCH  38  39
ENDBRANCH  31  33
ENDBRANCH  30  31
ENDBRANCH  29  30
ENDBRANCH   1  29
TORSDOF 15
ENDMDL
MODEL 3
REMARK VINA RESULT:     -11.9      4.817      8.367
REMARK SMILES CC(=O)NS(=O)(=O)c1cc(-c2ccn(C(F)F)c(=O)c2)ccc1C(=O)OCCOC(=O)c1ccc(-c2c3nc(c(-c4c(F)cccc4F)c4ccc([nH]4)c(-c4c(F)cccc4F)c4nc(c(-c5c(F)cccc5F)c5ccc2[nH]5)C=C4)C=C3)cc1
REMARK SMILES IDX 27 1 26 2 24 3 25 4 23 5 8 6 9 7 10 8 22 9 21 10 5 11 6 12
REMARK SMILES IDX 7 13 4 14 1 15 2 16 3 17 11 19 12 20 20 21 13 22 18 23 14 24
REMARK SMILES IDX 19 25 15 26 16 27 17 28 28 29 29 30 30 31 31 32 32 33 33 34
REMARK SMILES IDX 85 35 34 36 84 37 35 38 36 39 37 40 78 41 38 42 83 43 77 44
REMARK SMILES IDX 79 45 39 46 82 47 76 48 75 49 40 51 66 52 49 53 65 54 50 55
REMARK SMILES IDX 53 56 64 57 80 58 51 59 52 60 63 62 81 63 54 64 41 65 42 66
REMARK SMILES IDX 47 67 43 68 44 69 46 70 48 71 45 72 67 73 68 74 73 75 69 76
REMARK SMILES IDX 70 77 72 78 74 79 71 80 55 81 56 82 61 83 57 84 58 85 60 86
REMARK SMILES IDX 62 87 59 88
REMARK H PARENT 4 18 79 50 53 61
REMARK Flexibility Score: inf
ROOT
ATOM      1  C   UNL A   1      35.247  21.093  25.858  1.00  0.00     0.275 C 
ENDROOT
BRANCH   1   2
ATOM      2  O   UNL A   1      34.706  22.315  25.311  1.00  0.00    -0.458 OA
BRANCH   2   3
ATOM      3  C   UNL A   1      34.651  23.358  26.165  1.00  0.00     0.339 C 
ATOM      4  O   UNL A   1      35.238  23.484  27.227  1.00  0.00    -0.246 OA
BRANCH   3   5
ATOM      5  C   UNL A   1      33.763  24.415  25.659  1.00  0.00     0.080 A 
ATOM      6  C   UNL A   1      32.387  24.445  25.875  1.00  0.00     0.103 A 
ATOM      7  C   UNL A   1      31.636  25.567  25.467  1.00  0.00     0.032 A 
ATOM      8  C   UNL A   1      32.264  26.672  24.874  1.00  0.00    -0.017 A 
ATOM      9  C   UNL A   1      34.383  25.526  25.075  1.00  0.00     0.018 A 
ATOM     10  C   UNL A   1      33.646  26.641  24.688  1.00  0.00     0.010 A 
BRANCH   6  11
ATOM     11  S   UNL A   1      31.543  23.182  26.781  1.00  0.00     0.264 S 
ATOM     12  O   UNL A   1      30.147  23.556  26.814  1.00  0.00    -0.201 OA
ATOM     13  O   UNL A   1      32.286  22.955  27.999  1.00  0.00    -0.201 OA
BRANCH  11  14
ATOM     14  N   UNL A   1      31.646  21.797  25.887  1.00  0.00    -0.249 N 
ATOM     15  C   UNL A   1      31.244  22.703  23.587  1.00  0.00     0.115 C 
ATOM     16  C   UNL A   1      31.746  21.623  24.501  1.00  0.00     0.230 C 
ATOM     17  O   UNL A   1      32.126  20.540  24.078  1.00  0.00    -0.274 OA
ATOM     18  H   UNL A   1      31.635  20.963  26.411  1.00  0.00     0.183 HD
ENDBRANCH  11  14
ENDBRANCH   6  11
BRANCH   8  19
ATOM     19  C   UNL A   1      31.538  27.893  24.475  1.00  0.00    -0.011 A 
ATOM     20  C   UNL A   1      31.626  29.129  25.234  1.00  0.00     0.027 A 
ATOM     21  C   UNL A   1      30.684  27.828  23.439  1.00  0.00     0.080 A 
ATOM     22  C   UNL A   1      30.846  30.172  24.933  1.00  0.00     0.095 A 
ATOM     23  C   UNL A   1      29.827  28.991  23.074  1.00  0.00     0.255 A 
ATOM     24  N   UNL A   1      29.955  30.112  23.879  1.00  0.00    -0.258 N 
ATOM     25  O   UNL A   1      29.066  28.878  22.120  1.00  0.00    -0.269 OA
BRANCH  24  26
ATOM     26  C   UNL A   1      29.105  31.235  23.576  1.00  0.00     0.451 C 
ATOM     27  F   UNL A   1      27.817  30.977  23.908  1.00  0.00    -0.185 F 
ATOM     28  F   UNL A   1      29.501  32.340  24.252  1.00  0.00    -0.185 F 
ENDBRANCH  24  26
ENDBRANCH   8  19
ENDBRANCH   3   5
ENDBRANCH   2   3
ENDBRANCH   1   2
BRANCH   1  29
ATOM     29  C   UNL A   1      36.346  20.530  24.962  1.00  0.00     0.275 C 
BRANCH  29  30
ATOM     30  O   UNL A   1      37.465  21.433  24.940  1.00  0.00    -0.458 OA
BRANCH  30  31
ATOM     31  C   UNL A   1      38.561  21.022  25.615  1.00  0.00     0.338 C 
ATOM     32  O   UNL A   1      39.006  19.891  25.700  1.00  0.00    -0.246 OA
BRANCH  31  33
ATOM     33  C   UNL A   1      39.219  22.180  26.241  1.00  0.00     0.060 A 
ATOM     34  C   UNL A   1      38.694  23.454  26.050  1.00  0.00     0.016 A 
ATOM     35  C   UNL A   1      40.437  22.017  26.895  1.00  0.00     0.016 A 
ATOM     36  C   UNL A   1      39.444  24.575  26.392  1.00  0.00     0.010 A 
ATOM     37  C   UNL A   1      41.116  23.142  27.372  1.00  0.00     0.010 A 
ATOM     38  C   UNL A   1      40.646  24.439  27.098  1.00  0.00    -0.014 A 
BRANCH  38  39
ATOM     39  C   UNL A   1      41.399  25.637  27.566  1.00  0.00     0.031 A 
ATOM     40  C   UNL A   1      40.733  26.660  28.447  1.00  0.00     0.074 A 
ATOM     41  C   UNL A   1      42.680  25.826  27.188  1.00  0.00     0.049 A 
ATOM     42  N   UNL A   1      41.112  27.880  28.731  1.00  0.00    -0.248 NA
ATOM     43  C   UNL A   1      39.465  26.265  29.079  1.00  0.00     0.031 C 
ATOM     44  C   UNL A   1      43.481  24.897  26.388  1.00  0.00     0.029 A 
ATOM     45  N   UNL A   1      43.539  26.872  27.428  1.00  0.00    -0.354 N 
ATOM     46  C   UNL A   1      40.101  28.420  29.517  1.00  0.00     0.074 A 
ATOM     47  C   UNL A   1      39.096  27.391  29.675  1.00  0.00     0.031 C 
ATOM     48  C   UNL A   1      44.721  25.387  26.247  1.00  0.00     0.029 A 
ATOM     49  C   UNL A   1      44.769  26.717  26.834  1.00  0.00     0.049 A 
ATOM     50  H   UNL A   1      43.297  27.656  27.973  1.00  0.00     0.167 HD
ATOM     51  C   UNL A   1      40.019  29.664  30.047  1.00  0.00     0.037 A 
ATOM     52  C   UNL A   1      45.801  27.571  26.709  1.00  0.00     0.037 A 
ATOM     53  C   UNL A   1      41.049  30.664  29.929  1.00  0.00     0.049 A 
ATOM     54  C   UNL A   1      45.661  28.965  27.241  1.00  0.00     0.074 A 
ATOM     55  C   UNL A   1      41.069  31.951  30.438  1.00  0.00     0.029 A 
ATOM     56  N   UNL A   1      42.252  30.480  29.263  1.00  0.00    -0.354 N 
ATOM     57  N   UNL A   1      44.663  29.498  27.902  1.00  0.00    -0.248 NA
ATOM     58  C   UNL A   1      46.770  29.889  26.970  1.00  0.00     0.031 C 
ATOM     59  C   UNL A   1      42.271  32.556  30.055  1.00  0.00     0.029 A 
ATOM     60  C   UNL A   1      43.014  31.634  29.335  1.00  0.00     0.049 A 
ATOM     61  H   UNL A   1      42.525  29.651  28.807  1.00  0.00     0.167 HD
ATOM     62  C   UNL A   1      45.021  30.819  28.127  1.00  0.00     0.074 A 
ATOM     63  C   UNL A   1      46.338  31.001  27.548  1.00  0.00     0.031 C 
ATOM     64  C   UNL A   1      44.318  31.797  28.746  1.00  0.00     0.037 A 
BRANCH  51  65
ATOM     65  C   UNL A   1      38.754  30.031  30.766  1.00  0.00     0.057 A 
ATOM     66  C   UNL A   1      37.669  30.630  30.113  1.00  0.00     0.134 A 
ATOM     67  C   UNL A   1      38.611  29.750  32.132  1.00  0.00     0.134 A 
ATOM     68  F   UNL A   1      37.747  30.940  28.811  1.00  0.00    -0.206 F 
ATOM     69  C   UNL A   1      36.496  30.955  30.798  1.00  0.00     0.040 A 
ATOM     70  C   UNL A   1      37.435  30.051  32.822  1.00  0.00     0.040 A 
ATOM     71  F   UNL A   1      39.610  29.173  32.816  1.00  0.00    -0.206 F 
ATOM     72  C   UNL A   1      36.375  30.659  32.155  1.00  0.00     0.006 A 
ENDBRANCH  51  65
BRANCH  52  73
ATOM     73  C   UNL A   1      47.023  27.146  25.983  1.00  0.00     0.057 A 
ATOM     74  C   UNL A   1      47.152  27.363  24.607  1.00  0.00     0.134 A 
ATOM     75  C   UNL A   1      48.100  26.545  26.647  1.00  0.00     0.134 A 
ATOM     76  F   UNL A   1      46.146  27.913  23.913  1.00  0.00    -0.206 F 
ATOM     77  C   UNL A   1      48.313  27.003  23.919  1.00  0.00     0.040 A 
ATOM     78  C   UNL A   1      49.275  26.205  25.977  1.00  0.00     0.040 A 
ATOM     79  F   UNL A   1      48.036  26.313  27.967  1.00  0.00    -0.206 F 
ATOM     80  C   UNL A   1      49.382  26.432  24.608  1.00  0.00     0.006 A 
ENDBRANCH  52  73
BRANCH  64  81
ATOM     81  C   UNL A   1      44.969  33.141  28.841  1.00  0.00     0.057 A 
ATOM     82  C   UNL A   1      44.731  34.137  27.886  1.00  0.00     0.134 A 
ATOM     83  C   UNL A   1      45.820  33.450  29.908  1.00  0.00     0.134 A 
ATOM     84  F   UNL A   1      43.939  33.893  26.832  1.00  0.00    -0.206 F 
ATOM     85  C   UNL A   1      45.330  35.394  27.983  1.00  0.00     0.040 A 
ATOM     86  C   UNL A   1      46.410  34.709  30.026  1.00  0.00     0.040 A 
ATOM     87  F   UNL A   1      46.085  32.538  30.855  1.00  0.00    -0.206 F 
ATOM     88  C   UNL A   1      46.167  35.684  29.060  1.00  0.00     0.006 A 
ENDBRANCH  64  81
ENDBRANCH  38  39
ENDBRANCH  31  33
ENDBRANCH  30  31
ENDBRANCH  29  30
ENDBRANCH   1  29
TORSDOF 15
ENDMDL
