MODEL 1
REMARK VINA RESULT:      -9.1      0.000      0.000
REMARK SMILES COc1ccc(/C=C/c2cc(OC)cc(OC)c2/C=C/C(=O)OCCOC(=O)c2ccc(-c3c4nc(c(-c5c(F)cccc5F)c5ccc([nH]5)c(-c5c(F)cccc5F)c5nc(c(-c6c(F)cccc6F)c6ccc3[nH]6)C=C5)C=C4)cc2)cc1
REMARK SMILES IDX 24 1 23 2 21 3 22 4 20 5 19 6 18 7 9 8 10 9 11 10 15 11
REMARK SMILES IDX 14 12 8 13 7 14 6 15 3 16 4 17 84 18 5 19 83 20 2 21 1 22
REMARK SMILES IDX 12 23 13 24 16 25 17 26 25 27 26 28 27 29 28 30 29 31 30 32
REMARK SMILES IDX 82 33 31 34 81 35 32 36 33 37 34 38 75 39 35 40 80 41 74 42
REMARK SMILES IDX 76 43 36 44 79 45 73 46 72 47 37 49 63 50 46 51 62 52 47 53
REMARK SMILES IDX 50 54 61 55 77 56 48 57 49 58 60 60 78 61 51 62 38 63 39 64
REMARK SMILES IDX 44 65 40 66 41 67 43 68 45 69 42 70 64 71 65 72 70 73 66 74
REMARK SMILES IDX 67 75 69 76 71 77 68 78 52 79 53 80 58 81 54 82 55 83 57 84
REMARK SMILES IDX 59 85 56 86
REMARK H PARENT 76 48 50 59
REMARK Flexibility Score: inf
ROOT
ATOM      1  C   UNL A   1      45.786  19.916  25.227  1.00  0.00     0.275 C 
ENDROOT
BRANCH   1   2
ATOM      2  O   UNL A   1      45.751  21.270  25.722  1.00  0.00    -0.459 OA
BRANCH   2   3
ATOM      3  C   UNL A   1      45.704  22.250  24.790  1.00  0.00     0.330 C 
ATOM      4  O   UNL A   1      45.790  22.106  23.580  1.00  0.00    -0.247 OA
BRANCH   3   5
ATOM      5  C   UNL A   1      45.557  23.593  25.389  1.00  0.00     0.094 C 
ATOM      6  C   UNL A   1      45.956  24.732  24.805  1.00  0.00     0.020 C 
BRANCH   6   7
ATOM      7  C   UNL A   1      45.746  26.058  25.424  1.00  0.00     0.024 A 
ATOM      8  C   UNL A   1      46.886  26.742  25.925  1.00  0.00    -0.011 A 
ATOM      9  C   UNL A   1      46.750  28.007  26.524  1.00  0.00     0.055 A 
ATOM     10  C   UNL A   1      45.504  28.616  26.641  1.00  0.00     0.123 A 
ATOM     11  C   UNL A   1      44.491  26.691  25.545  1.00  0.00     0.130 A 
ATOM     12  C   UNL A   1      44.390  27.962  26.134  1.00  0.00     0.093 A 
BRANCH   8  13
ATOM     13  C   UNL A   1      48.250  26.181  25.880  1.00  0.00     0.009 C 
ATOM     14  C   UNL A   1      49.298  26.866  25.395  1.00  0.00     0.009 C 
BRANCH  14  15
ATOM     15  C   UNL A   1      50.669  26.342  25.278  1.00  0.00    -0.025 A 
ATOM     16  C   UNL A   1      53.326  25.454  24.995  1.00  0.00     0.118 A 
ATOM     17  C   UNL A   1      52.569  25.066  26.098  1.00  0.00     0.047 A 
ATOM     18  C   UNL A   1      52.753  26.260  24.014  1.00  0.00     0.047 A 
ATOM     19  C   UNL A   1      51.256  25.522  26.249  1.00  0.00     0.012 A 
ATOM     20  C   UNL A   1      51.434  26.707  24.161  1.00  0.00     0.012 A 
BRANCH  16  21
ATOM     21  O   UNL A   1      54.599  24.957  24.932  1.00  0.00    -0.497 OA
ATOM     22  C   UNL A   1      54.812  23.817  25.760  1.00  0.00     0.278 C 
ENDBRANCH  16  21
ENDBRANCH  14  15
ENDBRANCH   8  13
BRANCH  10  23
ATOM     23  O   UNL A   1      45.497  29.837  27.259  1.00  0.00    -0.497 OA
ATOM     24  C   UNL A   1      44.333  30.637  27.064  1.00  0.00     0.278 C 
ENDBRANCH  10  23
BRANCH  11  25
ATOM     25  O   UNL A   1      43.263  26.259  25.123  1.00  0.00    -0.496 OA
ATOM     26  C   UNL A   1      42.140  27.078  25.380  1.00  0.00     0.278 C 
ENDBRANCH  11  25
ENDBRANCH   6   7
ENDBRANCH   3   5
ENDBRANCH   2   3
ENDBRANCH   1   2
BRANCH   1  27
ATOM     27  C   UNL A   1      44.489  19.179  25.555  1.00  0.00     0.275 C 
BRANCH  27  28
ATOM     28  O   UNL A   1      43.368  19.819  24.918  1.00  0.00    -0.458 OA
BRANCH  28  29
ATOM     29  C   UNL A   1      42.243  19.869  25.658  1.00  0.00     0.338 C 
ATOM     30  O   UNL A   1      41.387  19.002  25.789  1.00  0.00    -0.246 OA
BRANCH  29  31
ATOM     31  C   UNL A   1      42.194  21.128  26.402  1.00  0.00     0.060 A 
ATOM     32  C   UNL A   1      42.176  22.316  25.676  1.00  0.00     0.016 A 
ATOM     33  C   UNL A   1      42.342  21.149  27.788  1.00  0.00     0.016 A 
ATOM     34  C   UNL A   1      42.424  23.527  26.319  1.00  0.00     0.010 A 
ATOM     35  C   UNL A   1      42.493  22.378  28.443  1.00  0.00     0.010 A 
ATOM     36  C   UNL A   1      42.580  23.578  27.713  1.00  0.00    -0.014 A 
BRANCH  36  37
ATOM     37  C   UNL A   1      42.860  24.872  28.402  1.00  0.00     0.031 A 
ATOM     38  C   UNL A   1      41.756  25.873  28.629  1.00  0.00     0.074 A 
ATOM     39  C   UNL A   1      44.106  25.163  28.828  1.00  0.00     0.049 A 
ATOM     40  N   UNL A   1      41.837  27.121  29.020  1.00  0.00    -0.248 NA
ATOM     41  C   UNL A   1      40.381  25.415  28.375  1.00  0.00     0.031 C 
ATOM     42  C   UNL A   1      45.270  24.283  28.721  1.00  0.00     0.029 A 
ATOM     43  N   UNL A   1      44.600  26.291  29.439  1.00  0.00    -0.354 N 
ATOM     44  C   UNL A   1      40.537  27.613  28.998  1.00  0.00     0.074 A 
ATOM     45  C   UNL A   1      39.684  26.526  28.567  1.00  0.00     0.031 C 
ATOM     46  C   UNL A   1      46.334  24.889  29.268  1.00  0.00     0.029 A 
ATOM     47  C   UNL A   1      45.950  26.232  29.688  1.00  0.00     0.049 A 
ATOM     48  H   UNL A   1      44.041  27.066  29.676  1.00  0.00     0.167 HD
ATOM     49  C   UNL A   1      40.098  28.857  29.305  1.00  0.00     0.037 A 
ATOM     50  C   UNL A   1      46.802  27.167  30.154  1.00  0.00     0.037 A 
ATOM     51  C   UNL A   1      40.932  29.921  29.800  1.00  0.00     0.049 A 
ATOM     52  C   UNL A   1      46.294  28.541  30.473  1.00  0.00     0.074 A 
ATOM     53  C   UNL A   1      40.565  31.207  30.163  1.00  0.00     0.029 A 
ATOM     54  N   UNL A   1      42.295  29.819  30.022  1.00  0.00    -0.354 N 
ATOM     55  N   UNL A   1      45.073  29.010  30.389  1.00  0.00    -0.248 NA
ATOM     56  C   UNL A   1      47.286  29.525  30.929  1.00  0.00     0.031 C 
ATOM     57  C   UNL A   1      41.712  31.889  30.583  1.00  0.00     0.029 A 
ATOM     58  C   UNL A   1      42.787  31.020  30.508  1.00  0.00     0.049 A 
ATOM     59  H   UNL A   1      42.835  29.012  29.859  1.00  0.00     0.167 HD
ATOM     60  C   UNL A   1      45.150  30.338  30.784  1.00  0.00     0.074 A 
ATOM     61  C   UNL A   1      46.532  30.597  31.127  1.00  0.00     0.031 C 
ATOM     62  C   UNL A   1      44.163  31.263  30.848  1.00  0.00     0.037 A 
BRANCH  49  63
ATOM     63  C   UNL A   1      38.645  29.158  29.089  1.00  0.00     0.057 A 
ATOM     64  C   UNL A   1      37.712  29.108  30.130  1.00  0.00     0.134 A 
ATOM     65  C   UNL A   1      38.191  29.568  27.828  1.00  0.00     0.134 A 
ATOM     66  F   UNL A   1      38.082  28.712  31.356  1.00  0.00    -0.206 F 
ATOM     67  C   UNL A   1      36.373  29.447  29.922  1.00  0.00     0.040 A 
ATOM     68  C   UNL A   1      36.859  29.929  27.614  1.00  0.00     0.040 A 
ATOM     69  F   UNL A   1      39.038  29.644  26.790  1.00  0.00    -0.206 F 
ATOM     70  C   UNL A   1      35.946  29.867  28.663  1.00  0.00     0.006 A 
ENDBRANCH  49  63
BRANCH  50  71
ATOM     71  C   UNL A   1      48.243  26.842  30.291  1.00  0.00     0.057 A 
ATOM     72  C   UNL A   1      48.703  26.013  31.319  1.00  0.00     0.134 A 
ATOM     73  C   UNL A   1      49.190  27.352  29.395  1.00  0.00     0.134 A 
ATOM     74  F   UNL A   1      47.844  25.517  32.222  1.00  0.00    -0.206 F 
ATOM     75  C   UNL A   1      50.056  25.705  31.455  1.00  0.00     0.040 A 
ATOM     76  C   UNL A   1      50.543  27.032  29.504  1.00  0.00     0.040 A 
ATOM     77  F   UNL A   1      48.809  28.152  28.388  1.00  0.00    -0.206 F 
ATOM     78  C   UNL A   1      50.981  26.210  30.541  1.00  0.00     0.006 A 
ENDBRANCH  50  71
BRANCH  62  79
ATOM     79  C   UNL A   1      44.538  32.632  31.325  1.00  0.00     0.057 A 
ATOM     80  C   UNL A   1      44.913  33.641  30.429  1.00  0.00     0.134 A 
ATOM     81  C   UNL A   1      44.496  32.951  32.687  1.00  0.00     0.134 A 
ATOM     82  F   UNL A   1      44.985  33.391  29.114  1.00  0.00    -0.206 F 
ATOM     83  C   UNL A   1      45.244  34.921  30.876  1.00  0.00     0.040 A 
ATOM     84  C   UNL A   1      44.809  34.233  33.143  1.00  0.00     0.040 A 
ATOM     85  F   UNL A   1      44.141  32.028  33.592  1.00  0.00    -0.206 F 
ATOM     86  C   UNL A   1      45.188  35.221  32.235  1.00  0.00     0.006 A 
ENDBRANCH  62  79
ENDBRANCH  36  37
ENDBRANCH  29  31
ENDBRANCH  28  29
ENDBRANCH  27  28
ENDBRANCH   1  27
TORSDOF 17
ENDMDL
MODEL 2
REMARK VINA RESULT:      -8.7      0.646      6.102
REMARK SMILES COc1ccc(/C=C/c2cc(OC)cc(OC)c2/C=C/C(=O)OCCOC(=O)c2ccc(-c3c4nc(c(-c5c(F)cccc5F)c5ccc([nH]5)c(-c5c(F)cccc5F)c5nc(c(-c6c(F)cccc6F)c6ccc3[nH]6)C=C5)C=C4)cc2)cc1
REMARK SMILES IDX 24 1 23 2 21 3 22 4 20 5 19 6 18 7 9 8 10 9 11 10 15 11
REMARK SMILES IDX 14 12 8 13 7 14 6 15 3 16 4 17 84 18 5 19 83 20 2 21 1 22
REMARK SMILES IDX 12 23 13 24 16 25 17 26 25 27 26 28 27 29 28 30 29 31 30 32
REMARK SMILES IDX 82 33 31 34 81 35 32 36 33 37 34 38 75 39 35 40 80 41 74 42
REMARK SMILES IDX 76 43 36 44 79 45 73 46 72 47 37 49 63 50 46 51 62 52 47 53
REMARK SMILES IDX 50 54 61 55 77 56 48 57 49 58 60 60 78 61 51 62 38 63 39 64
REMARK SMILES IDX 44 65 40 66 41 67 43 68 45 69 42 70 64 71 65 72 70 73 66 74
REMARK SMILES IDX 67 75 69 76 71 77 68 78 52 79 53 80 58 81 54 82 55 83 57 84
REMARK SMILES IDX 59 85 56 86
REMARK H PARENT 76 48 50 59
REMARK Flexibility Score: inf
ROOT
ATOM      1  C   UNL A   1      45.661  20.187  24.529  1.00  0.00     0.275 C 
ENDROOT
BRANCH   1   2
ATOM      2  O   UNL A   1      45.857  21.597  24.752  1.00  0.00    -0.459 OA
BRANCH   2   3
ATOM      3  C   UNL A   1      45.075  22.435  24.031  1.00  0.00     0.330 C 
ATOM      4  O   UNL A   1      44.529  22.182  22.968  1.00  0.00    -0.247 OA
BRANCH   3   5
ATOM      5  C   UNL A   1      44.947  23.768  24.656  1.00  0.00     0.094 C 
ATOM      6  C   UNL A   1      45.918  24.692  24.677  1.00  0.00     0.020 C 
BRANCH   6   7
ATOM      7  C   UNL A   1      45.727  26.030  25.276  1.00  0.00     0.024 A 
ATOM      8  C   UNL A   1      46.881  26.722  25.730  1.00  0.00    -0.011 A 
ATOM      9  C   UNL A   1      46.764  27.999  26.308  1.00  0.00     0.055 A 
ATOM     10  C   UNL A   1      45.523  28.612  26.449  1.00  0.00     0.123 A 
ATOM     11  C   UNL A   1      44.476  26.667  25.421  1.00  0.00     0.130 A 
ATOM     12  C   UNL A   1      44.394  27.950  25.987  1.00  0.00     0.093 A 
BRANCH   8  13
ATOM     13  C   UNL A   1      48.243  26.158  25.656  1.00  0.00     0.009 C 
ATOM     14  C   UNL A   1      49.319  26.905  25.361  1.00  0.00     0.009 C 
BRANCH  14  15
ATOM     15  C   UNL A   1      50.692  26.390  25.224  1.00  0.00    -0.025 A 
ATOM     16  C   UNL A   1      53.277  25.292  25.020  1.00  0.00     0.118 A 
ATOM     17  C   UNL A   1      52.805  26.164  24.043  1.00  0.00     0.047 A 
ATOM     18  C   UNL A   1      52.476  24.986  26.118  1.00  0.00     0.047 A 
ATOM     19  C   UNL A   1      51.515  26.695  24.134  1.00  0.00     0.012 A 
ATOM     20  C   UNL A   1      51.187  25.528  26.214  1.00  0.00     0.012 A 
BRANCH  16  21
ATOM     21  O   UNL A   1      54.551  24.825  24.848  1.00  0.00    -0.497 OA
ATOM     22  C   UNL A   1      54.918  23.801  25.769  1.00  0.00     0.278 C 
ENDBRANCH  16  21
ENDBRANCH  14  15
ENDBRANCH   8  13
BRANCH  10  23
ATOM     23  O   UNL A   1      45.534  29.844  27.042  1.00  0.00    -0.497 OA
ATOM     24  C   UNL A   1      46.775  30.263  27.605  1.00  0.00     0.278 C 
ENDBRANCH  10  23
BRANCH  11  25
ATOM     25  O   UNL A   1      43.236  26.229  25.044  1.00  0.00    -0.496 OA
ATOM     26  C   UNL A   1      42.170  27.157  25.039  1.00  0.00     0.278 C 
ENDBRANCH  11  25
ENDBRANCH   6   7
ENDBRANCH   3   5
ENDBRANCH   2   3
ENDBRANCH   1   2
BRANCH   1  27
ATOM     27  C   UNL A   1      44.642  19.613  25.511  1.00  0.00     0.275 C 
BRANCH  27  28
ATOM     28  O   UNL A   1      43.325  19.610  24.930  1.00  0.00    -0.458 OA
BRANCH  28  29
ATOM     29  C   UNL A   1      42.310  19.613  25.816  1.00  0.00     0.338 C 
ATOM     30  O   UNL A   1      41.577  18.681  26.127  1.00  0.00    -0.246 OA
BRANCH  29  31
ATOM     31  C   UNL A   1      42.226  20.920  26.470  1.00  0.00     0.060 A 
ATOM     32  C   UNL A   1      42.103  22.047  25.663  1.00  0.00     0.016 A 
ATOM     33  C   UNL A   1      42.443  21.052  27.840  1.00  0.00     0.016 A 
ATOM     34  C   UNL A   1      42.312  23.315  26.203  1.00  0.00     0.010 A 
ATOM     35  C   UNL A   1      42.555  22.332  28.396  1.00  0.00     0.010 A 
ATOM     36  C   UNL A   1      42.536  23.478  27.578  1.00  0.00    -0.014 A 
BRANCH  36  37
ATOM     37  C   UNL A   1      42.775  24.832  28.156  1.00  0.00     0.031 A 
ATOM     38  C   UNL A   1      44.152  25.234  28.623  1.00  0.00     0.074 A 
ATOM     39  C   UNL A   1      41.762  25.715  28.270  1.00  0.00     0.049 A 
ATOM     40  N   UNL A   1      44.515  26.275  29.331  1.00  0.00    -0.248 NA
ATOM     41  C   UNL A   1      45.264  24.343  28.256  1.00  0.00     0.031 C 
ATOM     42  C   UNL A   1      40.386  25.494  27.826  1.00  0.00     0.029 A 
ATOM     43  N   UNL A   1      41.738  26.983  28.801  1.00  0.00    -0.354 N 
ATOM     44  C   UNL A   1      45.881  26.132  29.546  1.00  0.00     0.074 A 
ATOM     45  C   UNL A   1      46.285  24.910  28.883  1.00  0.00     0.031 C 
ATOM     46  C   UNL A   1      39.658  26.592  28.078  1.00  0.00     0.029 A 
ATOM     47  C   UNL A   1      40.492  27.563  28.777  1.00  0.00     0.049 A 
ATOM     48  H   UNL A   1      42.535  27.432  29.164  1.00  0.00     0.167 HD
ATOM     49  C   UNL A   1      46.720  26.943  30.234  1.00  0.00     0.037 A 
ATOM     50  C   UNL A   1      40.050  28.723  29.302  1.00  0.00     0.037 A 
ATOM     51  C   UNL A   1      46.338  28.194  30.836  1.00  0.00     0.049 A 
ATOM     52  C   UNL A   1      40.994  29.597  30.072  1.00  0.00     0.074 A 
ATOM     53  C   UNL A   1      47.129  29.095  31.530  1.00  0.00     0.029 A 
ATOM     54  N   UNL A   1      45.062  28.733  30.798  1.00  0.00    -0.354 N 
ATOM     55  N   UNL A   1      42.268  29.419  30.319  1.00  0.00    -0.248 NA
ATOM     56  C   UNL A   1      40.432  30.822  30.660  1.00  0.00     0.031 C 
ATOM     57  C   UNL A   1      46.326  30.167  31.932  1.00  0.00     0.029 A 
ATOM     58  C   UNL A   1      45.042  29.948  31.463  1.00  0.00     0.049 A 
ATOM     59  H   UNL A   1      44.285  28.314  30.362  1.00  0.00     0.167 HD
ATOM     60  C   UNL A   1      42.661  30.508  31.085  1.00  0.00     0.074 A 
ATOM     61  C   UNL A   1      41.497  31.353  31.246  1.00  0.00     0.031 C 
ATOM     62  C   UNL A   1      43.878  30.779  31.614  1.00  0.00     0.037 A 
BRANCH  49  63
ATOM     63  C   UNL A   1      48.140  26.495  30.407  1.00  0.00     0.057 A 
ATOM     64  C   UNL A   1      48.525  25.621  31.429  1.00  0.00     0.134 A 
ATOM     65  C   UNL A   1      49.122  26.896  29.491  1.00  0.00     0.134 A 
ATOM     66  F   UNL A   1      47.634  25.209  32.344  1.00  0.00    -0.206 F 
ATOM     67  C   UNL A   1      49.841  25.168  31.540  1.00  0.00     0.040 A 
ATOM     68  C   UNL A   1      50.436  26.435  29.581  1.00  0.00     0.040 A 
ATOM     69  F   UNL A   1      48.814  27.728  28.484  1.00  0.00    -0.206 F 
ATOM     70  C   UNL A   1      50.799  25.569  30.609  1.00  0.00     0.006 A 
ENDBRANCH  49  63
BRANCH  50  71
ATOM     71  C   UNL A   1      38.621  29.094  29.160  1.00  0.00     0.057 A 
ATOM     72  C   UNL A   1      37.734  28.981  30.235  1.00  0.00     0.134 A 
ATOM     73  C   UNL A   1      38.112  29.574  27.947  1.00  0.00     0.134 A 
ATOM     74  F   UNL A   1      38.159  28.502  31.414  1.00  0.00    -0.206 F 
ATOM     75  C   UNL A   1      36.388  29.327  30.109  1.00  0.00     0.040 A 
ATOM     76  C   UNL A   1      36.775  29.948  27.813  1.00  0.00     0.040 A 
ATOM     77  F   UNL A   1      38.915  29.706  26.880  1.00  0.00    -0.206 F 
ATOM     78  C   UNL A   1      35.907  29.819  28.895  1.00  0.00     0.006 A 
ENDBRANCH  50  71
BRANCH  62  79
ATOM     79  C   UNL A   1      44.016  32.047  32.397  1.00  0.00     0.057 A 
ATOM     80  C   UNL A   1      43.820  32.076  33.784  1.00  0.00     0.134 A 
ATOM     81  C   UNL A   1      44.376  33.243  31.765  1.00  0.00     0.134 A 
ATOM     82  F   UNL A   1      43.460  30.964  34.443  1.00  0.00    -0.206 F 
ATOM     83  C   UNL A   1      43.967  33.256  34.513  1.00  0.00     0.040 A 
ATOM     84  C   UNL A   1      44.543  34.426  32.487  1.00  0.00     0.040 A 
ATOM     85  F   UNL A   1      44.581  33.278  30.440  1.00  0.00    -0.206 F 
ATOM     86  C   UNL A   1      44.334  34.434  33.865  1.00  0.00     0.006 A 
ENDBRANCH  62  79
ENDBRANCH  36  37
ENDBRANCH  29  31
ENDBRANCH  28  29
ENDBRANCH  27  28
ENDBRANCH   1  27
TORSDOF 17
ENDMDL
MODEL 3
REMARK VINA RESULT:      -8.6      5.686     12.669
REMARK SMILES COc1ccc(/C=C/c2cc(OC)cc(OC)c2/C=C/C(=O)OCCOC(=O)c2ccc(-c3c4nc(c(-c5c(F)cccc5F)c5ccc([nH]5)c(-c5c(F)cccc5F)c5nc(c(-c6c(F)cccc6F)c6ccc3[nH]6)C=C5)C=C4)cc2)cc1
REMARK SMILES IDX 24 1 23 2 21 3 22 4 20 5 19 6 18 7 9 8 10 9 11 10 15 11
REMARK SMILES IDX 14 12 8 13 7 14 6 15 3 16 4 17 84 18 5 19 83 20 2 21 1 22
REMARK SMILES IDX 12 23 13 24 16 25 17 26 25 27 26 28 27 29 28 30 29 31 30 32
REMARK SMILES IDX 82 33 31 34 81 35 32 36 33 37 34 38 75 39 35 40 80 41 74 42
REMARK SMILES IDX 76 43 36 44 79 45 73 46 72 47 37 49 63 50 46 51 62 52 47 53
REMARK SMILES IDX 50 54 61 55 77 56 48 57 49 58 60 60 78 61 51 62 38 63 39 64
REMARK SMILES IDX 44 65 40 66 41 67 43 68 45 69 42 70 64 71 65 72 70 73 66 74
REMARK SMILES IDX 67 75 69 76 71 77 68 78 52 79 53 80 58 81 54 82 55 83 57 84
REMARK SMILES IDX 59 85 56 86
REMARK H PARENT 76 48 50 59
REMARK Flexibility Score: inf
ROOT
ATOM      1  C   UNL A   1      32.554  30.515  27.187  1.00  0.00     0.275 C 
ENDROOT
BRANCH   1   2
ATOM      2  O   UNL A   1      33.005  29.202  26.797  1.00  0.00    -0.459 OA
BRANCH   2   3
ATOM      3  C   UNL A   1      32.204  28.166  27.137  1.00  0.00     0.330 C 
ATOM      4  O   UNL A   1      31.420  28.131  28.073  1.00  0.00    -0.247 OA
BRANCH   3   5
ATOM      5  C   UNL A   1      32.381  26.999  26.247  1.00  0.00     0.094 C 
ATOM      6  C   UNL A   1      31.586  25.919  26.244  1.00  0.00     0.020 C 
BRANCH   6   7
ATOM      7  C   UNL A   1      31.777  24.795  25.304  1.00  0.00     0.024 A 
ATOM      8  C   UNL A   1      31.106  24.857  24.054  1.00  0.00    -0.011 A 
ATOM      9  C   UNL A   1      31.249  23.818  23.117  1.00  0.00     0.055 A 
ATOM     10  C   UNL A   1      32.045  22.710  23.389  1.00  0.00     0.123 A 
ATOM     11  C   UNL A   1      32.586  23.668  25.563  1.00  0.00     0.130 A 
ATOM     12  C   UNL A   1      32.721  22.654  24.600  1.00  0.00     0.093 A 
BRANCH   8  13
ATOM     13  C   UNL A   1      30.214  25.969  23.669  1.00  0.00     0.009 C 
ATOM     14  C   UNL A   1      30.669  27.093  23.093  1.00  0.00     0.009 C 
BRANCH  14  15
ATOM     15  C   UNL A   1      29.837  28.254  22.734  1.00  0.00    -0.025 A 
ATOM     16  C   UNL A   1      28.177  30.455  22.163  1.00  0.00     0.118 A 
ATOM     17  C   UNL A   1      29.508  30.454  21.753  1.00  0.00     0.047 A 
ATOM     18  C   UNL A   1      27.659  29.349  22.832  1.00  0.00     0.047 A 
ATOM     19  C   UNL A   1      30.338  29.369  22.053  1.00  0.00     0.012 A 
ATOM     20  C   UNL A   1      28.489  28.258  23.122  1.00  0.00     0.012 A 
BRANCH  16  21
ATOM     21  O   UNL A   1      27.443  31.559  21.823  1.00  0.00    -0.497 OA
ATOM     22  C   UNL A   1      28.016  32.328  20.768  1.00  0.00     0.278 C 
ENDBRANCH  16  21
ENDBRANCH  14  15
ENDBRANCH   8  13
BRANCH  10  23
ATOM     23  O   UNL A   1      32.091  21.757  22.409  1.00  0.00    -0.497 OA
ATOM     24  C   UNL A   1      32.154  20.402  22.846  1.00  0.00     0.278 C 
ENDBRANCH  10  23
BRANCH  11  25
ATOM     25  O   UNL A   1      33.347  23.387  26.665  1.00  0.00    -0.496 OA
ATOM     26  C   UNL A   1      34.738  23.208  26.491  1.00  0.00     0.278 C 
ENDBRANCH  11  25
ENDBRANCH   6   7
ENDBRANCH   3   5
ENDBRANCH   2   3
ENDBRANCH   1   2
BRANCH   1  27
ATOM     27  C   UNL A   1      33.717  31.364  27.697  1.00  0.00     0.275 C 
BRANCH  27  28
ATOM     28  O   UNL A   1      34.936  30.600  27.704  1.00  0.00    -0.458 OA
BRANCH  28  29
ATOM     29  C   UNL A   1      35.722  30.789  28.782  1.00  0.00     0.338 C 
ATOM     30  O   UNL A   1      35.464  31.415  29.804  1.00  0.00    -0.246 OA
BRANCH  29  31
ATOM     31  C   UNL A   1      36.974  30.046  28.621  1.00  0.00     0.060 A 
ATOM     32  C   UNL A   1      37.599  29.564  29.767  1.00  0.00     0.016 A 
ATOM     33  C   UNL A   1      37.613  29.978  27.384  1.00  0.00     0.016 A 
ATOM     34  C   UNL A   1      38.917  29.116  29.703  1.00  0.00     0.010 A 
ATOM     35  C   UNL A   1      38.902  29.436  27.308  1.00  0.00     0.010 A 
ATOM     36  C   UNL A   1      39.587  29.039  28.472  1.00  0.00    -0.014 A 
BRANCH  36  37
ATOM     37  C   UNL A   1      41.003  28.574  28.403  1.00  0.00     0.031 A 
ATOM     38  C   UNL A   1      42.139  29.542  28.623  1.00  0.00     0.074 A 
ATOM     39  C   UNL A   1      41.286  27.282  28.141  1.00  0.00     0.049 A 
ATOM     40  N   UNL A   1      43.421  29.378  28.406  1.00  0.00    -0.248 NA
ATOM     41  C   UNL A   1      41.788  30.871  29.146  1.00  0.00     0.031 C 
ATOM     42  C   UNL A   1      40.301  26.217  27.947  1.00  0.00     0.029 A 
ATOM     43  N   UNL A   1      42.495  26.645  27.989  1.00  0.00    -0.354 N 
ATOM     44  C   UNL A   1      44.018  30.597  28.704  1.00  0.00     0.074 A 
ATOM     45  C   UNL A   1      42.960  31.489  29.130  1.00  0.00     0.031 C 
ATOM     46  C   UNL A   1      40.940  25.059  27.728  1.00  0.00     0.029 A 
ATOM     47  C   UNL A   1      42.376  25.311  27.681  1.00  0.00     0.049 A 
ATOM     48  H   UNL A   1      43.362  27.100  28.092  1.00  0.00     0.167 HD
ATOM     49  C   UNL A   1      45.326  30.941  28.627  1.00  0.00     0.037 A 
ATOM     50  C   UNL A   1      43.308  24.398  27.347  1.00  0.00     0.037 A 
ATOM     51  C   UNL A   1      46.390  30.039  28.271  1.00  0.00     0.049 A 
ATOM     52  C   UNL A   1      44.748  24.806  27.254  1.00  0.00     0.074 A 
ATOM     53  C   UNL A   1      47.749  30.295  28.194  1.00  0.00     0.029 A 
ATOM     54  N   UNL A   1      46.219  28.701  27.953  1.00  0.00    -0.354 N 
ATOM     55  N   UNL A   1      45.290  25.977  27.479  1.00  0.00    -0.248 NA
ATOM     56  C   UNL A   1      45.705  23.771  26.834  1.00  0.00     0.031 C 
ATOM     57  C   UNL A   1      48.397  29.118  27.806  1.00  0.00     0.029 A 
ATOM     58  C   UNL A   1      47.445  28.122  27.671  1.00  0.00     0.049 A 
ATOM     59  H   UNL A   1      45.354  28.231  27.932  1.00  0.00     0.167 HD
ATOM     60  C   UNL A   1      46.647  25.820  27.234  1.00  0.00     0.074 A 
ATOM     61  C   UNL A   1      46.851  24.437  26.862  1.00  0.00     0.031 C 
ATOM     62  C   UNL A   1      47.635  26.744  27.304  1.00  0.00     0.037 A 
BRANCH  49  63
ATOM     63  C   UNL A   1      45.690  32.368  28.905  1.00  0.00     0.057 A 
ATOM     64  C   UNL A   1      45.563  33.370  27.937  1.00  0.00     0.134 A 
ATOM     65  C   UNL A   1      46.113  32.751  30.185  1.00  0.00     0.134 A 
ATOM     66  F   UNL A   1      45.173  33.066  26.690  1.00  0.00    -0.206 F 
ATOM     67  C   UNL A   1      45.851  34.705  28.230  1.00  0.00     0.040 A 
ATOM     68  C   UNL A   1      46.385  34.085  30.495  1.00  0.00     0.040 A 
ATOM     69  F   UNL A   1      46.247  31.838  31.159  1.00  0.00    -0.206 F 
ATOM     70  C   UNL A   1      46.256  35.066  29.515  1.00  0.00     0.006 A 
ENDBRANCH  49  63
BRANCH  50  71
ATOM     71  C   UNL A   1      42.893  23.012  27.018  1.00  0.00     0.057 A 
ATOM     72  C   UNL A   1      42.792  22.582  25.691  1.00  0.00     0.134 A 
ATOM     73  C   UNL A   1      42.591  22.087  28.025  1.00  0.00     0.134 A 
ATOM     74  F   UNL A   1      43.044  23.433  24.685  1.00  0.00    -0.206 F 
ATOM     75  C   UNL A   1      42.401  21.281  25.375  1.00  0.00     0.040 A 
ATOM     76  C   UNL A   1      42.223  20.776  27.724  1.00  0.00     0.040 A 
ATOM     77  F   UNL A   1      42.671  22.440  29.317  1.00  0.00    -0.206 F 
ATOM     78  C   UNL A   1      42.122  20.371  26.395  1.00  0.00     0.006 A 
ENDBRANCH  50  71
BRANCH  62  79
ATOM     79  C   UNL A   1      49.025  26.284  26.992  1.00  0.00     0.057 A 
ATOM     80  C   UNL A   1      49.832  25.682  27.965  1.00  0.00     0.134 A 
ATOM     81  C   UNL A   1      49.549  26.416  25.700  1.00  0.00     0.134 A 
ATOM     82  F   UNL A   1      49.389  25.540  29.223  1.00  0.00    -0.206 F 
ATOM     83  C   UNL A   1      51.120  25.237  27.665  1.00  0.00     0.040 A 
ATOM     84  C   UNL A   1      50.830  25.960  25.386  1.00  0.00     0.040 A 
ATOM     85  F   UNL A   1      48.823  26.981  24.725  1.00  0.00    -0.206 F 
ATOM     86  C   UNL A   1      51.621  25.371  26.372  1.00  0.00     0.006 A 
ENDBRANCH  62  79
ENDBRANCH  36  37
ENDBRANCH  29  31
ENDBRANCH  28  29
ENDBRANCH  27  28
ENDBRANCH   1  27
TORSDOF 17
ENDMDL
