MODEL 1
REMARK VINA RESULT:     -11.9      0.000      0.000
REMARK SMILES Cc1ccc(-c2c[nH]c(=O)cc2C(=O)OCCOC(=O)c2ccc(-c3c4nc(c(-c5c(F)cccc5F)c5ccc([nH]5)c(-c5c(F)cccc5F)c5nc(c(-c6c(F)cccc6F)c6ccc3[nH]6)C=C5)C=C4)cc2)cc1Cl
REMARK SMILES IDX 17 1 16 2 15 3 13 4 14 5 12 6 6 7 7 8 8 9 11 10 9 11 10 13
REMARK SMILES IDX 5 14 1 15 2 16 3 17 76 18 4 19 75 20 77 21 18 22 19 23 20 24
REMARK SMILES IDX 21 25 22 26 74 27 23 28 73 29 24 30 25 31 26 32 67 33 27 34
REMARK SMILES IDX 72 35 66 36 68 37 28 38 71 39 65 40 64 41 29 43 55 44 38 45
REMARK SMILES IDX 54 46 39 47 42 48 53 49 69 50 40 51 41 52 52 54 70 55 43 56
REMARK SMILES IDX 30 57 31 58 36 59 32 60 33 61 35 62 37 63 34 64 56 65 57 66
REMARK SMILES IDX 62 67 58 68 59 69 61 70 63 71 60 72 44 73 45 74 50 75 46 76
REMARK SMILES IDX 47 77 49 78 51 79 48 80
REMARK H PARENT 8 12 68 42 42 53
REMARK Flexibility Score: inf
ROOT
ATOM      1  C   UNL A   1      33.126  30.682  27.274  1.00  0.00     0.275 C 
ENDROOT
BRANCH   1   2
ATOM      2  C   UNL A   1      31.933  29.841  26.831  1.00  0.00     0.275 C 
BRANCH   2   3
ATOM      3  O   UNL A   1      32.385  28.704  26.063  1.00  0.00    -0.458 OA
BRANCH   3   4
ATOM      4  C   UNL A   1      31.497  27.686  25.934  1.00  0.00     0.339 C 
ATOM      5  O   UNL A   1      31.007  27.042  26.850  1.00  0.00    -0.246 OA
BRANCH   4   6
ATOM      6  C   UNL A   1      31.219  27.394  24.507  1.00  0.00     0.074 A 
ATOM      7  C   UNL A   1      31.818  26.264  23.782  1.00  0.00     0.013 A 
ATOM      8  C   UNL A   1      31.734  26.265  22.441  1.00  0.00     0.095 A 
ATOM      9  N   UNL A   1      31.067  27.270  21.781  1.00  0.00    -0.328 N 
ATOM     10  C   UNL A   1      30.552  28.371  23.870  1.00  0.00     0.087 A 
ATOM     11  C   UNL A   1      30.446  28.327  22.399  1.00  0.00     0.248 A 
ATOM     12  H   UNL A   1      31.033  27.229  20.797  1.00  0.00     0.169 HD
ATOM     13  O   UNL A   1      29.871  29.216  21.783  1.00  0.00    -0.270 OA
BRANCH   7  14
ATOM     14  C   UNL A   1      32.673  25.249  24.420  1.00  0.00    -0.015 A 
ATOM     15  C   UNL A   1      35.745  21.144  25.355  1.00  0.00     0.046 C 
ATOM     16  C   UNL A   1      34.937  22.331  24.941  1.00  0.00    -0.032 A 
ATOM     17  C   UNL A   1      35.538  23.962  25.377  1.00  0.00     0.005 A 
ATOM     18  C   UNL A   1      33.311  22.199  24.308  1.00  0.00     0.044 A 
ATOM     19  C   UNL A   1      34.309  25.555  25.139  1.00  0.00     0.009 A 
ATOM     20  C   UNL A   1      32.230  23.575  24.050  1.00  0.00     0.029 A 
ATOM     21  Cl  UNL A   1      32.644  20.629  24.032  1.00  0.00    -0.084 Cl
ENDBRANCH   7  14
ENDBRANCH   4   6
ENDBRANCH   3   4
ENDBRANCH   2   3
ENDBRANCH   1   2
BRANCH   1  22
ATOM     22  O   UNL A   1      34.058  29.832  27.966  1.00  0.00    -0.458 OA
BRANCH  22  23
ATOM     23  C   UNL A   1      35.010  30.503  28.639  1.00  0.00     0.338 C 
ATOM     24  O   UNL A   1      34.899  31.559  29.242  1.00  0.00    -0.246 OA
BRANCH  23  25
ATOM     25  C   UNL A   1      36.259  29.744  28.686  1.00  0.00     0.060 A 
ATOM     26  C   UNL A   1      37.046  29.391  30.262  1.00  0.00     0.016 A 
ATOM     27  C   UNL A   1      37.277  29.865  27.262  1.00  0.00     0.016 A 
ATOM     28  C   UNL A   1      39.062  29.219  30.301  1.00  0.00     0.010 A 
ATOM     29  C   UNL A   1      39.037  29.640  27.294  1.00  0.00     0.010 A 
ATOM     30  C   UNL A   1      39.989  29.308  28.754  1.00  0.00    -0.014 A 
BRANCH  30  31
ATOM     31  C   UNL A   1      41.428  28.799  28.628  1.00  0.00     0.031 A 
ATOM     32  C   UNL A   1      42.601  29.774  28.592  1.00  0.00     0.074 A 
ATOM     33  C   UNL A   1      41.727  27.499  28.366  1.00  0.00     0.049 A 
ATOM     34  N   UNL A   1      43.821  29.604  28.129  1.00  0.00    -0.248 NA
ATOM     35  C   UNL A   1      42.359  31.132  29.094  1.00  0.00     0.031 C 
ATOM     36  C   UNL A   1      40.801  26.379  28.321  1.00  0.00     0.029 A 
ATOM     37  N   UNL A   1      42.927  26.890  28.034  1.00  0.00    -0.354 N 
ATOM     38  C   UNL A   1      44.444  30.849  28.208  1.00  0.00     0.074 A 
ATOM     39  C   UNL A   1      43.436  31.778  28.670  1.00  0.00     0.031 C 
ATOM     40  C   UNL A   1      41.420  25.246  27.997  1.00  0.00     0.029 A 
ATOM     41  C   UNL A   1      42.803  25.547  27.729  1.00  0.00     0.049 A 
ATOM     42  H   UNL A   1      43.786  27.367  28.018  1.00  0.00     0.167 HD
ATOM     43  C   UNL A   1      45.741  31.189  27.985  1.00  0.00     0.037 A 
ATOM     44  C   UNL A   1      43.653  24.619  27.257  1.00  0.00     0.037 A 
ATOM     45  C   UNL A   1      46.789  30.247  27.669  1.00  0.00     0.049 A 
ATOM     46  C   UNL A   1      45.077  24.987  27.053  1.00  0.00     0.074 A 
ATOM     47  C   UNL A   1      48.152  30.473  27.560  1.00  0.00     0.029 A 
ATOM     48  N   UNL A   1      46.597  28.891  27.451  1.00  0.00    -0.354 N 
ATOM     49  N   UNL A   1      45.634  26.164  27.154  1.00  0.00    -0.248 NA
ATOM     50  C   UNL A   1      45.998  23.895  26.723  1.00  0.00     0.031 C 
ATOM     51  C   UNL A   1      48.781  29.260  27.257  1.00  0.00     0.029 A 
ATOM     52  C   UNL A   1      47.815  28.270  27.213  1.00  0.00     0.049 A 
ATOM     53  H   UNL A   1      45.725  28.435  27.463  1.00  0.00     0.167 HD
ATOM     54  C   UNL A   1      46.986  25.952  26.951  1.00  0.00     0.074 A 
ATOM     55  C   UNL A   1      47.160  24.532  26.720  1.00  0.00     0.031 C 
ATOM     56  C   UNL A   1      47.989  26.860  26.979  1.00  0.00     0.037 A 
BRANCH  43  57
ATOM     57  C   UNL A   1      46.119  32.646  28.131  1.00  0.00     0.057 A 
ATOM     58  C   UNL A   1      46.586  33.177  29.343  1.00  0.00     0.134 A 
ATOM     59  C   UNL A   1      46.029  33.528  27.045  1.00  0.00     0.134 A 
ATOM     60  F   UNL A   1      46.709  32.394  30.425  1.00  0.00    -0.206 F 
ATOM     61  C   UNL A   1      46.880  34.535  29.488  1.00  0.00     0.040 A 
ATOM     62  C   UNL A   1      46.360  34.882  27.167  1.00  0.00     0.040 A 
ATOM     63  F   UNL A   1      45.622  33.092  25.843  1.00  0.00    -0.206 F 
ATOM     64  C   UNL A   1      46.768  35.392  28.396  1.00  0.00     0.006 A 
ENDBRANCH  43  57
BRANCH  44  65
ATOM     65  C   UNL A   1      43.164  23.230  27.032  1.00  0.00     0.057 A 
ATOM     66  C   UNL A   1      42.908  22.380  28.115  1.00  0.00     0.134 A 
ATOM     67  C   UNL A   1      42.844  22.757  25.752  1.00  0.00     0.134 A 
ATOM     68  F   UNL A   1      43.188  22.779  29.364  1.00  0.00    -0.206 F 
ATOM     69  C   UNL A   1      42.363  21.108  27.935  1.00  0.00     0.040 A 
ATOM     70  C   UNL A   1      42.276  21.496  25.560  1.00  0.00     0.040 A 
ATOM     71  F   UNL A   1      43.030  23.537  24.676  1.00  0.00    -0.206 F 
ATOM     72  C   UNL A   1      42.037  20.666  26.654  1.00  0.00     0.006 A 
ENDBRANCH  44  65
BRANCH  56  73
ATOM     73  C   UNL A   1      49.374  26.319  26.803  1.00  0.00     0.057 A 
ATOM     74  C   UNL A   1      49.962  26.184  25.540  1.00  0.00     0.134 A 
ATOM     75  C   UNL A   1      50.113  25.895  27.914  1.00  0.00     0.134 A 
ATOM     76  F   UNL A   1      49.290  26.545  24.436  1.00  0.00    -0.206 F 
ATOM     77  C   UNL A   1      51.227  25.618  25.384  1.00  0.00     0.040 A 
ATOM     78  C   UNL A   1      51.390  25.354  27.774  1.00  0.00     0.040 A 
ATOM     79  F   UNL A   1      49.602  25.991  29.151  1.00  0.00    -0.206 F 
ATOM     80  C   UNL A   1      51.946  25.205  26.505  1.00  0.00     0.006 A 
ENDBRANCH  56  73
ENDBRANCH  30  31
ENDBRANCH  23  25
ENDBRANCH  22  23
ENDBRANCH   1  22
TORSDOF 12
ENDMDL
MODEL 2
REMARK VINA RESULT:     -11.9      6.019     10.591
REMARK SMILES Cc1ccc(-c2c[nH]c(=O)cc2C(=O)OCCOC(=O)c2ccc(-c3c4nc(c(-c5c(F)cccc5F)c5ccc([nH]5)c(-c5c(F)cccc5F)c5nc(c(-c6c(F)cccc6F)c6ccc3[nH]6)C=C5)C=C4)cc2)cc1Cl
REMARK SMILES IDX 17 1 16 2 15 3 13 4 14 5 12 6 6 7 7 8 8 9 11 10 9 11 10 13
REMARK SMILES IDX 5 14 1 15 2 16 3 17 76 18 4 19 75 20 77 21 18 22 19 23 20 24
REMARK SMILES IDX 21 25 22 26 74 27 23 28 73 29 24 30 25 31 26 32 67 33 27 34
REMARK SMILES IDX 72 35 66 36 68 37 28 38 71 39 65 40 64 41 29 43 55 44 38 45
REMARK SMILES IDX 54 46 39 47 42 48 53 49 69 50 40 51 41 52 52 54 70 55 43 56
REMARK SMILES IDX 30 57 31 58 36 59 32 60 33 61 35 62 37 63 34 64 56 65 57 66
REMARK SMILES IDX 62 67 58 68 59 69 61 70 63 71 60 72 44 73 45 74 50 75 46 76
REMARK SMILES IDX 47 77 49 78 51 79 48 80
REMARK H PARENT 8 12 68 42 42 53
REMARK Flexibility Score: inf
ROOT
ATOM      1  C   UNL A   1      37.834  22.137  25.322  1.00  0.00     0.275 C 
ENDROOT
BRANCH   1   2
ATOM      2  C   UNL A   1      36.821  22.080  24.183  1.00  0.00     0.275 C 
BRANCH   2   3
ATOM      3  O   UNL A   1      35.702  22.949  24.470  1.00  0.00    -0.458 OA
BRANCH   3   4
ATOM      4  C   UNL A   1      34.703  22.951  23.552  1.00  0.00     0.339 C 
ATOM      5  O   UNL A   1      34.796  23.328  22.393  1.00  0.00    -0.246 OA
BRANCH   4   6
ATOM      6  C   UNL A   1      33.429  22.479  24.144  1.00  0.00     0.074 A 
ATOM      7  C   UNL A   1      32.454  23.376  24.783  1.00  0.00     0.013 A 
ATOM      8  C   UNL A   1      31.492  22.819  25.538  1.00  0.00     0.095 A 
ATOM      9  N   UNL A   1      31.403  21.453  25.665  1.00  0.00    -0.328 N 
ATOM     10  C   UNL A   1      33.338  21.143  24.250  1.00  0.00     0.087 A 
ATOM     11  C   UNL A   1      32.249  20.559  25.058  1.00  0.00     0.248 A 
ATOM     12  H   UNL A   1      30.681  21.091  26.230  1.00  0.00     0.169 HD
ATOM     13  O   UNL A   1      32.154  19.346  25.201  1.00  0.00    -0.270 OA
BRANCH   7  14
ATOM     14  C   UNL A   1      32.592  24.841  24.810  1.00  0.00    -0.015 A 
ATOM     15  C   UNL A   1      31.746  29.952  25.378  1.00  0.00     0.046 C 
ATOM     16  C   UNL A   1      31.892  28.465  25.346  1.00  0.00    -0.032 A 
ATOM     17  C   UNL A   1      33.277  27.729  26.213  1.00  0.00     0.005 A 
ATOM     18  C   UNL A   1      30.955  27.441  24.282  1.00  0.00     0.044 A 
ATOM     19  C   UNL A   1      33.698  25.772  25.905  1.00  0.00     0.009 A 
ATOM     20  C   UNL A   1      31.271  25.720  24.024  1.00  0.00     0.029 A 
ATOM     21  Cl  UNL A   1      29.717  28.154  23.308  1.00  0.00    -0.084 Cl
ENDBRANCH   7  14
ENDBRANCH   4   6
ENDBRANCH   3   4
ENDBRANCH   2   3
ENDBRANCH   1   2
BRANCH   1  22
ATOM     22  O   UNL A   1      38.286  23.495  25.469  1.00  0.00    -0.458 OA
BRANCH  22  23
ATOM     23  C   UNL A   1      39.335  23.632  26.301  1.00  0.00     0.338 C 
ATOM     24  O   UNL A   1      40.257  22.852  26.479  1.00  0.00    -0.246 OA
BRANCH  23  25
ATOM     25  C   UNL A   1      39.336  24.948  26.939  1.00  0.00     0.060 A 
ATOM     26  C   UNL A   1      40.656  26.118  26.601  1.00  0.00     0.016 A 
ATOM     27  C   UNL A   1      38.527  25.039  28.493  1.00  0.00     0.016 A 
ATOM     28  C   UNL A   1      41.166  27.424  28.061  1.00  0.00     0.010 A 
ATOM     29  C   UNL A   1      38.932  26.237  29.740  1.00  0.00     0.010 A 
ATOM     30  C   UNL A   1      40.217  27.453  29.595  1.00  0.00    -0.014 A 
BRANCH  30  31
ATOM     31  C   UNL A   1      40.258  28.638  30.565  1.00  0.00     0.031 A 
ATOM     32  C   UNL A   1      41.125  28.591  31.819  1.00  0.00     0.074 A 
ATOM     33  C   UNL A   1      39.413  29.698  30.466  1.00  0.00     0.049 A 
ATOM     34  N   UNL A   1      41.032  29.287  32.932  1.00  0.00    -0.248 NA
ATOM     35  C   UNL A   1      42.205  27.597  31.849  1.00  0.00     0.031 C 
ATOM     36  C   UNL A   1      38.473  29.973  29.390  1.00  0.00     0.029 A 
ATOM     37  N   UNL A   1      39.168  30.752  31.333  1.00  0.00    -0.354 N 
ATOM     38  C   UNL A   1      41.978  28.753  33.806  1.00  0.00     0.074 A 
ATOM     39  C   UNL A   1      42.560  27.615  33.127  1.00  0.00     0.031 C 
ATOM     40  C   UNL A   1      37.769  31.077  29.627  1.00  0.00     0.029 A 
ATOM     41  C   UNL A   1      38.140  31.581  30.925  1.00  0.00     0.049 A 
ATOM     42  H   UNL A   1      39.678  30.896  32.161  1.00  0.00     0.167 HD
ATOM     43  C   UNL A   1      42.381  29.191  35.028  1.00  0.00     0.037 A 
ATOM     44  C   UNL A   1      37.505  32.622  31.490  1.00  0.00     0.037 A 
ATOM     45  C   UNL A   1      41.917  30.408  35.651  1.00  0.00     0.049 A 
ATOM     46  C   UNL A   1      37.976  33.121  32.807  1.00  0.00     0.074 A 
ATOM     47  C   UNL A   1      42.362  31.006  36.819  1.00  0.00     0.029 A 
ATOM     48  N   UNL A   1      40.928  31.235  35.139  1.00  0.00    -0.354 N 
ATOM     49  N   UNL A   1      38.880  32.603  33.595  1.00  0.00    -0.248 NA
ATOM     50  C   UNL A   1      37.378  34.369  33.289  1.00  0.00     0.031 C 
ATOM     51  C   UNL A   1      41.632  32.183  37.023  1.00  0.00     0.029 A 
ATOM     52  C   UNL A   1      40.755  32.338  35.964  1.00  0.00     0.049 A 
ATOM     53  H   UNL A   1      40.423  31.065  34.311  1.00  0.00     0.167 HD
ATOM     54  C   UNL A   1      39.004  33.492  34.648  1.00  0.00     0.074 A 
ATOM     55  C   UNL A   1      38.078  34.578  34.395  1.00  0.00     0.031 C 
ATOM     56  C   UNL A   1      39.832  33.415  35.716  1.00  0.00     0.037 A 
BRANCH  43  57
ATOM     57  C   UNL A   1      43.425  28.376  35.757  1.00  0.00     0.057 A 
ATOM     58  C   UNL A   1      43.080  27.347  36.647  1.00  0.00     0.134 A 
ATOM     59  C   UNL A   1      44.793  28.610  35.558  1.00  0.00     0.134 A 
ATOM     60  F   UNL A   1      41.791  27.057  36.883  1.00  0.00    -0.206 F 
ATOM     61  C   UNL A   1      44.047  26.634  37.361  1.00  0.00     0.040 A 
ATOM     62  C   UNL A   1      45.771  27.875  36.236  1.00  0.00     0.040 A 
ATOM     63  F   UNL A   1      45.206  29.553  34.699  1.00  0.00    -0.206 F 
ATOM     64  C   UNL A   1      45.398  26.897  37.154  1.00  0.00     0.006 A 
ENDBRANCH  43  57
BRANCH  44  65
ATOM     65  C   UNL A   1      36.405  33.297  30.745  1.00  0.00     0.057 A 
ATOM     66  C   UNL A   1      36.682  34.071  29.612  1.00  0.00     0.134 A 
ATOM     67  C   UNL A   1      35.059  33.103  31.080  1.00  0.00     0.134 A 
ATOM     68  F   UNL A   1      37.952  34.287  29.238  1.00  0.00    -0.206 F 
ATOM     69  C   UNL A   1      35.663  34.637  28.845  1.00  0.00     0.040 A 
ATOM     70  C   UNL A   1      34.028  33.644  30.307  1.00  0.00     0.040 A 
ATOM     71  F   UNL A   1      34.725  32.340  32.132  1.00  0.00    -0.206 F 
ATOM     72  C   UNL A   1      34.330  34.416  29.188  1.00  0.00     0.006 A 
ENDBRANCH  44  65
BRANCH  56  73
ATOM     73  C   UNL A   1      39.802  34.576  36.660  1.00  0.00     0.057 A 
ATOM     74  C   UNL A   1      40.638  35.686  36.496  1.00  0.00     0.134 A 
ATOM     75  C   UNL A   1      38.946  34.562  37.768  1.00  0.00     0.134 A 
ATOM     76  F   UNL A   1      41.500  35.743  35.470  1.00  0.00    -0.206 F 
ATOM     77  C   UNL A   1      40.646  36.732  37.420  1.00  0.00     0.040 A 
ATOM     78  C   UNL A   1      38.925  35.614  38.683  1.00  0.00     0.040 A 
ATOM     79  F   UNL A   1      38.125  33.523  37.985  1.00  0.00    -0.206 F 
ATOM     80  C   UNL A   1      39.784  36.698  38.516  1.00  0.00     0.006 A 
ENDBRANCH  56  73
ENDBRANCH  30  31
ENDBRANCH  23  25
ENDBRANCH  22  23
ENDBRANCH   1  22
TORSDOF 12
ENDMDL
MODEL 3
REMARK VINA RESULT:     -11.9      1.055      1.854
REMARK SMILES Cc1ccc(-c2c[nH]c(=O)cc2C(=O)OCCOC(=O)c2ccc(-c3c4nc(c(-c5c(F)cccc5F)c5ccc([nH]5)c(-c5c(F)cccc5F)c5nc(c(-c6c(F)cccc6F)c6ccc3[nH]6)C=C5)C=C4)cc2)cc1Cl
REMARK SMILES IDX 17 1 16 2 15 3 13 4 14 5 12 6 6 7 7 8 8 9 11 10 9 11 10 13
REMARK SMILES IDX 5 14 1 15 2 16 3 17 76 18 4 19 75 20 77 21 18 22 19 23 20 24
REMARK SMILES IDX 21 25 22 26 74 27 23 28 73 29 24 30 25 31 26 32 67 33 27 34
REMARK SMILES IDX 72 35 66 36 68 37 28 38 71 39 65 40 64 41 29 43 55 44 38 45
REMARK SMILES IDX 54 46 39 47 42 48 53 49 69 50 40 51 41 52 52 54 70 55 43 56
REMARK SMILES IDX 30 57 31 58 36 59 32 60 33 61 35 62 37 63 34 64 56 65 57 66
REMARK SMILES IDX 62 67 58 68 59 69 61 70 63 71 60 72 44 73 45 74 50 75 46 76
REMARK SMILES IDX 47 77 49 78 51 79 48 80
REMARK H PARENT 8 12 68 42 42 53
REMARK Flexibility Score: inf
ROOT
ATOM      1  C   UNL A   1      32.966  30.325  26.959  1.00  0.00     0.275 C 
ENDROOT
BRANCH   1   2
ATOM      2  C   UNL A   1      32.201  29.295  26.133  1.00  0.00     0.275 C 
BRANCH   2   3
ATOM      3  O   UNL A   1      32.011  29.781  24.785  1.00  0.00    -0.458 OA
BRANCH   3   4
ATOM      4  C   UNL A   1      31.749  28.836  23.848  1.00  0.00     0.339 C 
ATOM      5  O   UNL A   1      32.547  28.389  23.037  1.00  0.00    -0.246 OA
BRANCH   4   6
ATOM      6  C   UNL A   1      30.324  28.429  23.880  1.00  0.00     0.074 A 
ATOM      7  C   UNL A   1      29.883  27.048  24.129  1.00  0.00     0.013 A 
ATOM      8  C   UNL A   1      28.607  26.737  23.846  1.00  0.00     0.095 A 
ATOM      9  N   UNL A   1      27.737  27.697  23.384  1.00  0.00    -0.328 N 
ATOM     10  C   UNL A   1      29.476  29.375  23.445  1.00  0.00     0.087 A 
ATOM     11  C   UNL A   1      28.071  29.012  23.176  1.00  0.00     0.248 A 
ATOM     12  H   UNL A   1      26.812  27.421  23.189  1.00  0.00     0.169 HD
ATOM     13  O   UNL A   1      27.277  29.842  22.749  1.00  0.00    -0.270 OA
BRANCH   7  14
ATOM     14  C   UNL A   1      30.802  25.950  24.472  1.00  0.00    -0.015 A 
ATOM     15  C   UNL A   1      34.872  22.703  24.717  1.00  0.00     0.046 C 
ATOM     16  C   UNL A   1      33.813  23.754  24.619  1.00  0.00    -0.032 A 
ATOM     17  C   UNL A   1      33.274  24.559  26.126  1.00  0.00     0.005 A 
ATOM     18  C   UNL A   1      32.883  24.032  23.163  1.00  0.00     0.044 A 
ATOM     19  C   UNL A   1      31.618  25.725  26.076  1.00  0.00     0.009 A 
ATOM     20  C   UNL A   1      31.458  25.076  23.078  1.00  0.00     0.029 A 
ATOM     21  Cl  UNL A   1      33.278  23.144  21.734  1.00  0.00    -0.084 Cl
ENDBRANCH   7  14
ENDBRANCH   4   6
ENDBRANCH   3   4
ENDBRANCH   2   3
ENDBRANCH   1   2
BRANCH   1  22
ATOM     22  O   UNL A   1      33.833  29.631  27.873  1.00  0.00    -0.458 OA
BRANCH  22  23
ATOM     23  C   UNL A   1      34.818  30.396  28.376  1.00  0.00     0.338 C 
ATOM     24  O   UNL A   1      34.738  31.538  28.801  1.00  0.00    -0.246 OA
BRANCH  23  25
ATOM     25  C   UNL A   1      36.069  29.646  28.483  1.00  0.00     0.060 A 
ATOM     26  C   UNL A   1      36.800  29.329  30.093  1.00  0.00     0.016 A 
ATOM     27  C   UNL A   1      37.136  29.745  27.094  1.00  0.00     0.016 A 
ATOM     28  C   UNL A   1      38.815  29.171  30.207  1.00  0.00     0.010 A 
ATOM     29  C   UNL A   1      38.895  29.531  27.193  1.00  0.00     0.010 A 
ATOM     30  C   UNL A   1      39.797  29.234  28.694  1.00  0.00    -0.014 A 
BRANCH  30  31
ATOM     31  C   UNL A   1      41.242  28.732  28.629  1.00  0.00     0.031 A 
ATOM     32  C   UNL A   1      42.411  29.712  28.639  1.00  0.00     0.074 A 
ATOM     33  C   UNL A   1      41.557  27.433  28.384  1.00  0.00     0.049 A 
ATOM     34  N   UNL A   1      43.650  29.547  28.227  1.00  0.00    -0.248 NA
ATOM     35  C   UNL A   1      42.141  31.070  29.126  1.00  0.00     0.031 C 
ATOM     36  C   UNL A   1      40.639  26.307  28.304  1.00  0.00     0.029 A 
ATOM     37  N   UNL A   1      42.772  26.827  28.105  1.00  0.00    -0.354 N 
ATOM     38  C   UNL A   1      44.263  30.794  28.328  1.00  0.00     0.074 A 
ATOM     39  C   UNL A   1      43.232  31.720  28.745  1.00  0.00     0.031 C 
ATOM     40  C   UNL A   1      41.276  25.177  28.010  1.00  0.00     0.029 A 
ATOM     41  C   UNL A   1      42.668  25.484  27.799  1.00  0.00     0.049 A 
ATOM     42  H   UNL A   1      43.630  27.309  28.123  1.00  0.00     0.167 HD
ATOM     43  C   UNL A   1      45.567  31.140  28.159  1.00  0.00     0.037 A 
ATOM     44  C   UNL A   1      43.541  24.557  27.366  1.00  0.00     0.037 A 
ATOM     45  C   UNL A   1      46.631  30.202  27.890  1.00  0.00     0.049 A 
ATOM     46  C   UNL A   1      44.971  24.932  27.221  1.00  0.00     0.074 A 
ATOM     47  C   UNL A   1      47.996  30.434  27.837  1.00  0.00     0.029 A 
ATOM     48  N   UNL A   1      46.455  28.844  27.668  1.00  0.00    -0.354 N 
ATOM     49  N   UNL A   1      45.517  26.112  27.341  1.00  0.00    -0.248 NA
ATOM     50  C   UNL A   1      45.909  23.843  26.932  1.00  0.00     0.031 C 
ATOM     51  C   UNL A   1      48.643  29.223  27.565  1.00  0.00     0.029 A 
ATOM     52  C   UNL A   1      47.685  28.228  27.483  1.00  0.00     0.049 A 
ATOM     53  H   UNL A   1      45.585  28.384  27.645  1.00  0.00     0.167 HD
ATOM     54  C   UNL A   1      46.878  25.906  27.195  1.00  0.00     0.074 A 
ATOM     55  C   UNL A   1      47.068  24.486  26.976  1.00  0.00     0.031 C 
ATOM     56  C   UNL A   1      47.875  26.818  27.261  1.00  0.00     0.037 A 
BRANCH  43  57
ATOM     57  C   UNL A   1      45.932  32.599  28.315  1.00  0.00     0.057 A 
ATOM     58  C   UNL A   1      45.906  33.494  27.235  1.00  0.00     0.134 A 
ATOM     59  C   UNL A   1      46.301  33.121  29.563  1.00  0.00     0.134 A 
ATOM     60  F   UNL A   1      45.555  33.072  26.011  1.00  0.00    -0.206 F 
ATOM     61  C   UNL A   1      46.298  34.828  27.373  1.00  0.00     0.040 A 
ATOM     62  C   UNL A   1      46.656  34.465  29.722  1.00  0.00     0.040 A 
ATOM     63  F   UNL A   1      46.319  32.339  30.652  1.00  0.00    -0.206 F 
ATOM     64  C   UNL A   1      46.673  35.317  28.622  1.00  0.00     0.006 A 
ENDBRANCH  43  57
BRANCH  44  65
ATOM     65  C   UNL A   1      43.068  23.166  27.126  1.00  0.00     0.057 A 
ATOM     66  C   UNL A   1      42.772  22.317  28.199  1.00  0.00     0.134 A 
ATOM     67  C   UNL A   1      42.803  22.688  25.835  1.00  0.00     0.134 A 
ATOM     68  F   UNL A   1      42.999  22.721  29.458  1.00  0.00    -0.206 F 
ATOM     69  C   UNL A   1      42.241  21.042  28.001  1.00  0.00     0.040 A 
ATOM     70  C   UNL A   1      42.249  21.423  25.624  1.00  0.00     0.040 A 
ATOM     71  F   UNL A   1      43.028  23.465  24.765  1.00  0.00    -0.206 F 
ATOM     72  C   UNL A   1      41.970  20.595  26.710  1.00  0.00     0.006 A 
ENDBRANCH  44  65
BRANCH  56  73
ATOM     73  C   UNL A   1      49.268  26.283  27.145  1.00  0.00     0.057 A 
ATOM     74  C   UNL A   1      50.054  26.014  28.272  1.00  0.00     0.134 A 
ATOM     75  C   UNL A   1      49.839  26.069  25.885  1.00  0.00     0.134 A 
ATOM     76  F   UNL A   1      49.571  26.229  29.505  1.00  0.00    -0.206 F 
ATOM     77  C   UNL A   1      51.373  25.578  28.149  1.00  0.00     0.040 A 
ATOM     78  C   UNL A   1      51.148  25.606  25.750  1.00  0.00     0.040 A 
ATOM     79  F   UNL A   1      49.140  26.315  24.767  1.00  0.00    -0.206 F 
ATOM     80  C   UNL A   1      51.922  25.370  26.884  1.00  0.00     0.006 A 
ENDBRANCH  56  73
ENDBRANCH  30  31
ENDBRANCH  23  25
ENDBRANCH  22  23
ENDBRANCH   1  22
TORSDOF 12
ENDMDL
