MODEL 1
REMARK VINA RESULT:     -11.8      0.000      0.000
REMARK SMILES Cc1oc2ccc(NS(=O)(=O)c3ccc(C(C)C)cc3)cc2c1C(=O)OCCOC(=O)c1ccc(-c2c3nc(c(-c4c(F)cccc4F)c4ccc([nH]4)c(-c4c(F)cccc4F)c4nc(c(-c5c(F)cccc5F)c5ccc2[nH]5)C=C4)C=C3)cc1
REMARK SMILES IDX 27 1 26 2 24 3 25 4 23 5 1 6 2 7 3 8 4 9 22 10 5 11 21 12
REMARK SMILES IDX 6 13 7 14 8 15 9 17 10 18 11 19 12 20 13 21 20 22 14 23
REMARK SMILES IDX 19 24 15 25 16 26 17 27 18 28 28 29 29 30 30 31 31 32 32 33
REMARK SMILES IDX 33 34 85 35 34 36 84 37 35 38 36 39 37 40 78 41 38 42 83 43
REMARK SMILES IDX 77 44 79 45 39 46 82 47 76 48 75 49 40 51 66 52 49 53 65 54
REMARK SMILES IDX 50 55 53 56 64 57 80 58 51 59 52 60 63 62 81 63 54 64 41 65
REMARK SMILES IDX 42 66 47 67 43 68 44 69 46 70 48 71 45 72 67 73 68 74 73 75
REMARK SMILES IDX 69 76 70 77 72 78 74 79 71 80 55 81 56 82 61 83 57 84 58 85
REMARK SMILES IDX 60 86 62 87 59 88
REMARK H PARENT 8 16 79 50 53 61
REMARK Flexibility Score: inf
ROOT
ATOM      1  C   UNL A   1      33.065  35.405  29.223  1.00  0.00     0.275 C 
ENDROOT
BRANCH   1   2
ATOM      2  O   UNL A   1      34.437  34.977  29.145  1.00  0.00    -0.458 OA
BRANCH   2   3
ATOM      3  C   UNL A   1      34.861  34.325  28.021  1.00  0.00     0.342 C 
ATOM      4  O   UNL A   1      34.763  34.753  26.880  1.00  0.00    -0.246 OA
BRANCH   3   5
ATOM      5  C   UNL A   1      35.580  33.119  28.381  1.00  0.00     0.109 A 
ATOM      6  C   UNL A   1      37.854  34.071  29.286  1.00  0.00     0.088 C 
ATOM      7  C   UNL A   1      36.893  33.054  28.810  1.00  0.00     0.116 A 
ATOM      8  O   UNL A   1      37.372  31.782  28.669  1.00  0.00    -0.460 OA
ATOM      9  C   UNL A   1      36.361  31.038  28.139  1.00  0.00     0.135 A 
ATOM     10  C   UNL A   1      35.184  31.770  28.136  1.00  0.00     0.037 A 
ATOM     11  C   UNL A   1      36.473  29.765  27.592  1.00  0.00     0.050 A 
ATOM     12  C   UNL A   1      34.001  31.145  27.704  1.00  0.00     0.039 A 
ATOM     13  C   UNL A   1      35.340  29.300  26.900  1.00  0.00     0.030 A 
ATOM     14  C   UNL A   1      34.114  29.985  26.932  1.00  0.00     0.050 A 
BRANCH  14  15
ATOM     15  N   UNL A   1      33.144  29.647  25.931  1.00  0.00    -0.280 N 
ATOM     16  H   UNL A   1      33.024  30.286  25.191  1.00  0.00     0.180 HD
BRANCH  15  17
ATOM     17  S   UNL A   1      32.189  28.261  25.905  1.00  0.00     0.261 S 
ATOM     18  O   UNL A   1      32.054  27.893  27.298  1.00  0.00    -0.201 OA
ATOM     19  O   UNL A   1      31.022  28.510  25.089  1.00  0.00    -0.201 OA
BRANCH  17  20
ATOM     20  C   UNL A   1      33.106  26.942  25.122  1.00  0.00     0.087 A 
ATOM     21  C   UNL A   1      33.934  26.112  25.888  1.00  0.00     0.022 A 
ATOM     22  C   UNL A   1      32.943  26.646  23.784  1.00  0.00     0.022 A 
ATOM     23  C   UNL A   1      34.547  24.979  25.314  1.00  0.00     0.005 A 
ATOM     24  C   UNL A   1      33.441  25.460  23.264  1.00  0.00     0.005 A 
ATOM     25  C   UNL A   1      34.260  24.608  23.998  1.00  0.00    -0.045 A 
BRANCH  25  26
ATOM     26  C   UNL A   1      34.748  23.344  23.315  1.00  0.00     0.013 C 
ATOM     27  C   UNL A   1      36.232  23.078  23.560  1.00  0.00     0.012 C 
ATOM     28  C   UNL A   1      33.895  22.128  23.663  1.00  0.00     0.012 C 
ENDBRANCH  25  26
ENDBRANCH  17  20
ENDBRANCH  15  17
ENDBRANCH  14  15
ENDBRANCH   3   5
ENDBRANCH   2   3
ENDBRANCH   1   2
BRANCH   1  29
ATOM     29  C   UNL A   1      32.973  36.845  29.767  1.00  0.00     0.275 C 
BRANCH  29  30
ATOM     30  O   UNL A   1      33.429  36.988  31.138  1.00  0.00    -0.458 OA
BRANCH  30  31
ATOM     31  C   UNL A   1      32.844  36.187  32.067  1.00  0.00     0.338 C 
ATOM     32  O   UNL A   1      31.650  36.155  32.322  1.00  0.00    -0.246 OA
BRANCH  31  33
ATOM     33  C   UNL A   1      33.815  35.235  32.690  1.00  0.00     0.060 A 
ATOM     34  C   UNL A   1      35.117  35.701  32.908  1.00  0.00     0.016 A 
ATOM     35  C   UNL A   1      33.501  33.919  33.063  1.00  0.00     0.016 A 
ATOM     36  C   UNL A   1      36.078  34.878  33.508  1.00  0.00     0.010 A 
ATOM     37  C   UNL A   1      34.479  33.082  33.649  1.00  0.00     0.010 A 
ATOM     38  C   UNL A   1      35.781  33.552  33.869  1.00  0.00    -0.014 A 
BRANCH  38  39
ATOM     39  C   UNL A   1      36.915  32.699  34.345  1.00  0.00     0.031 A 
ATOM     40  C   UNL A   1      37.568  31.766  33.366  1.00  0.00     0.074 A 
ATOM     41  C   UNL A   1      37.476  32.838  35.561  1.00  0.00     0.049 A 
ATOM     42  N   UNL A   1      38.745  31.197  33.412  1.00  0.00    -0.248 NA
ATOM     43  C   UNL A   1      36.772  31.429  32.178  1.00  0.00     0.031 C 
ATOM     44  C   UNL A   1      36.940  33.647  36.641  1.00  0.00     0.029 A 
ATOM     45  N   UNL A   1      38.679  32.377  36.055  1.00  0.00    -0.354 N 
ATOM     46  C   UNL A   1      38.833  30.430  32.262  1.00  0.00     0.074 A 
ATOM     47  C   UNL A   1      37.597  30.623  31.527  1.00  0.00     0.031 C 
ATOM     48  C   UNL A   1      37.874  33.779  37.598  1.00  0.00     0.029 A 
ATOM     49  C   UNL A   1      39.064  33.027  37.209  1.00  0.00     0.049 A 
ATOM     50  H   UNL A   1      39.205  31.661  35.630  1.00  0.00     0.167 HD
ATOM     51  C   UNL A   1      39.831  29.607  31.864  1.00  0.00     0.037 A 
ATOM     52  C   UNL A   1      40.254  33.059  37.844  1.00  0.00     0.037 A 
ATOM     53  C   UNL A   1      41.029  29.341  32.612  1.00  0.00     0.049 A 
ATOM     54  C   UNL A   1      41.378  32.180  37.364  1.00  0.00     0.074 A 
ATOM     55  C   UNL A   1      42.048  28.448  32.326  1.00  0.00     0.029 A 
ATOM     56  N   UNL A   1      41.359  29.953  33.809  1.00  0.00    -0.354 N 
ATOM     57  N   UNL A   1      41.464  31.466  36.269  1.00  0.00    -0.248 NA
ATOM     58  C   UNL A   1      42.554  32.073  38.245  1.00  0.00     0.031 C 
ATOM     59  C   UNL A   1      42.979  28.495  33.371  1.00  0.00     0.029 A 
ATOM     60  C   UNL A   1      42.554  29.440  34.288  1.00  0.00     0.049 A 
ATOM     61  H   UNL A   1      40.825  30.650  34.255  1.00  0.00     0.167 HD
ATOM     62  C   UNL A   1      42.677  30.794  36.351  1.00  0.00     0.074 A 
ATOM     63  C   UNL A   1      43.327  31.237  37.566  1.00  0.00     0.031 C 
ATOM     64  C   UNL A   1      43.185  29.859  35.512  1.00  0.00     0.037 A 
BRANCH  51  65
ATOM     65  C   UNL A   1      39.604  28.871  30.584  1.00  0.00     0.057 A 
ATOM     66  C   UNL A   1      39.012  27.603  30.561  1.00  0.00     0.134 A 
ATOM     67  C   UNL A   1      40.032  29.418  29.369  1.00  0.00     0.134 A 
ATOM     68  F   UNL A   1      38.609  27.020  31.699  1.00  0.00    -0.206 F 
ATOM     69  C   UNL A   1      38.874  26.892  29.368  1.00  0.00     0.040 A 
ATOM     70  C   UNL A   1      39.888  28.722  28.170  1.00  0.00     0.040 A 
ATOM     71  F   UNL A   1      40.619  30.625  29.335  1.00  0.00    -0.206 F 
ATOM     72  C   UNL A   1      39.314  27.453  28.169  1.00  0.00     0.006 A 
ENDBRANCH  51  65
BRANCH  52  73
ATOM     73  C   UNL A   1      40.498  33.985  38.982  1.00  0.00     0.057 A 
ATOM     74  C   UNL A   1      41.063  35.249  38.753  1.00  0.00     0.134 A 
ATOM     75  C   UNL A   1      40.249  33.625  40.309  1.00  0.00     0.134 A 
ATOM     76  F   UNL A   1      41.365  35.637  37.504  1.00  0.00    -0.206 F 
ATOM     77  C   UNL A   1      41.381  36.113  39.802  1.00  0.00     0.040 A 
ATOM     78  C   UNL A   1      40.545  34.489  41.368  1.00  0.00     0.040 A 
ATOM     79  F   UNL A   1      39.728  32.425  40.600  1.00  0.00    -0.206 F 
ATOM     80  C   UNL A   1      41.119  35.734  41.115  1.00  0.00     0.006 A 
ENDBRANCH  52  73
BRANCH  64  81
ATOM     81  C   UNL A   1      44.464  29.194  35.919  1.00  0.00     0.057 A 
ATOM     82  C   UNL A   1      45.704  29.760  35.592  1.00  0.00     0.134 A 
ATOM     83  C   UNL A   1      44.468  28.018  36.675  1.00  0.00     0.134 A 
ATOM     84  F   UNL A   1      45.768  30.883  34.861  1.00  0.00    -0.206 F 
ATOM     85  C   UNL A   1      46.905  29.171  35.994  1.00  0.00     0.040 A 
ATOM     86  C   UNL A   1      45.663  27.428  37.096  1.00  0.00     0.040 A 
ATOM     87  F   UNL A   1      43.315  27.428  37.024  1.00  0.00    -0.206 F 
ATOM     88  C   UNL A   1      46.885  28.004  36.754  1.00  0.00     0.006 A 
ENDBRANCH  64  81
ENDBRANCH  38  39
ENDBRANCH  31  33
ENDBRANCH  30  31
ENDBRANCH  29  30
ENDBRANCH   1  29
TORSDOF 15
ENDMDL
MODEL 2
REMARK VINA RESULT:     -11.7      6.220      8.839
REMARK SMILES Cc1oc2ccc(NS(=O)(=O)c3ccc(C(C)C)cc3)cc2c1C(=O)OCCOC(=O)c1ccc(-c2c3nc(c(-c4c(F)cccc4F)c4ccc([nH]4)c(-c4c(F)cccc4F)c4nc(c(-c5c(F)cccc5F)c5ccc2[nH]5)C=C4)C=C3)cc1
REMARK SMILES IDX 27 1 26 2 24 3 25 4 23 5 1 6 2 7 3 8 4 9 22 10 5 11 21 12
REMARK SMILES IDX 6 13 7 14 8 15 9 17 10 18 11 19 12 20 13 21 20 22 14 23
REMARK SMILES IDX 19 24 15 25 16 26 17 27 18 28 28 29 29 30 30 31 31 32 32 33
REMARK SMILES IDX 33 34 85 35 34 36 84 37 35 38 36 39 37 40 78 41 38 42 83 43
REMARK SMILES IDX 77 44 79 45 39 46 82 47 76 48 75 49 40 51 66 52 49 53 65 54
REMARK SMILES IDX 50 55 53 56 64 57 80 58 51 59 52 60 63 62 81 63 54 64 41 65
REMARK SMILES IDX 42 66 47 67 43 68 44 69 46 70 48 71 45 72 67 73 68 74 73 75
REMARK SMILES IDX 69 76 70 77 72 78 74 79 71 80 55 81 56 82 61 83 57 84 58 85
REMARK SMILES IDX 60 86 62 87 59 88
REMARK H PARENT 8 16 79 50 53 61
REMARK Flexibility Score: inf
ROOT
ATOM      1  C   UNL A   1      33.663  28.930  25.345  1.00  0.00     0.275 C 
ENDROOT
BRANCH   1   2
ATOM      2  O   UNL A   1      32.627  29.455  24.497  1.00  0.00    -0.458 OA
BRANCH   2   3
ATOM      3  C   UNL A   1      32.518  28.983  23.219  1.00  0.00     0.342 C 
ATOM      4  O   UNL A   1      33.422  28.968  22.395  1.00  0.00    -0.246 OA
BRANCH   3   5
ATOM      5  C   UNL A   1      31.223  28.365  23.019  1.00  0.00     0.109 A 
ATOM      6  C   UNL A   1      29.926  30.207  21.670  1.00  0.00     0.088 C 
ATOM      7  C   UNL A   1      30.115  28.968  22.453  1.00  0.00     0.116 A 
ATOM      8  O   UNL A   1      28.983  28.278  22.783  1.00  0.00    -0.460 OA
ATOM      9  C   UNL A   1      29.373  27.237  23.571  1.00  0.00     0.135 A 
ATOM     10  C   UNL A   1      30.755  27.136  23.574  1.00  0.00     0.037 A 
ATOM     11  C   UNL A   1      28.545  26.429  24.341  1.00  0.00     0.050 A 
ATOM     12  C   UNL A   1      31.353  26.067  24.264  1.00  0.00     0.039 A 
ATOM     13  C   UNL A   1      29.200  25.575  25.247  1.00  0.00     0.030 A 
ATOM     14  C   UNL A   1      30.594  25.401  25.231  1.00  0.00     0.050 A 
BRANCH  14  15
ATOM     15  N   UNL A   1      31.198  24.812  26.391  1.00  0.00    -0.280 N 
ATOM     16  H   UNL A   1      31.370  25.407  27.156  1.00  0.00     0.180 HD
BRANCH  15  17
ATOM     17  S   UNL A   1      31.641  23.197  26.565  1.00  0.00     0.261 S 
ATOM     18  O   UNL A   1      31.716  23.000  27.997  1.00  0.00    -0.201 OA
ATOM     19  O   UNL A   1      30.770  22.380  25.750  1.00  0.00    -0.201 OA
BRANCH  17  20
ATOM     20  C   UNL A   1      33.301  22.982  25.939  1.00  0.00     0.087 A 
ATOM     21  C   UNL A   1      34.108  24.099  25.692  1.00  0.00     0.022 A 
ATOM     22  C   UNL A   1      33.857  21.728  25.787  1.00  0.00     0.022 A 
ATOM     23  C   UNL A   1      35.466  23.942  25.341  1.00  0.00     0.005 A 
ATOM     24  C   UNL A   1      35.221  21.588  25.572  1.00  0.00     0.005 A 
ATOM     25  C   UNL A   1      36.054  22.675  25.330  1.00  0.00    -0.045 A 
BRANCH  25  26
ATOM     26  C   UNL A   1      37.527  22.393  25.101  1.00  0.00     0.013 C 
ATOM     27  C   UNL A   1      38.425  23.085  26.124  1.00  0.00     0.012 C 
ATOM     28  C   UNL A   1      37.826  20.900  25.011  1.00  0.00     0.012 C 
ENDBRANCH  25  26
ENDBRANCH  17  20
ENDBRANCH  15  17
ENDBRANCH  14  15
ENDBRANCH   3   5
ENDBRANCH   2   3
ENDBRANCH   1   2
BRANCH   1  29
ATOM     29  C   UNL A   1      33.468  29.402  26.801  1.00  0.00     0.275 C 
BRANCH  29  30
ATOM     30  O   UNL A   1      34.563  29.049  27.687  1.00  0.00    -0.458 OA
BRANCH  30  31
ATOM     31  C   UNL A   1      35.258  30.076  28.246  1.00  0.00     0.338 C 
ATOM     32  O   UNL A   1      34.778  31.139  28.609  1.00  0.00    -0.246 OA
BRANCH  31  33
ATOM     33  C   UNL A   1      36.693  29.729  28.486  1.00  0.00     0.060 A 
ATOM     34  C   UNL A   1      37.563  29.821  27.393  1.00  0.00     0.016 A 
ATOM     35  C   UNL A   1      37.209  29.321  29.725  1.00  0.00     0.016 A 
ATOM     36  C   UNL A   1      38.926  29.534  27.542  1.00  0.00     0.010 A 
ATOM     37  C   UNL A   1      38.581  29.012  29.868  1.00  0.00     0.010 A 
ATOM     38  C   UNL A   1      39.453  29.107  28.774  1.00  0.00    -0.014 A 
BRANCH  38  39
ATOM     39  C   UNL A   1      40.881  28.662  28.794  1.00  0.00     0.031 A 
ATOM     40  C   UNL A   1      41.199  27.258  28.369  1.00  0.00     0.074 A 
ATOM     41  C   UNL A   1      41.907  29.503  29.026  1.00  0.00     0.049 A 
ATOM     42  N   UNL A   1      42.333  26.742  27.970  1.00  0.00    -0.248 NA
ATOM     43  C   UNL A   1      40.077  26.310  28.410  1.00  0.00     0.031 C 
ATOM     44  C   UNL A   1      41.777  30.869  29.500  1.00  0.00     0.029 A 
ATOM     45  N   UNL A   1      43.260  29.358  28.794  1.00  0.00    -0.354 N 
ATOM     46  C   UNL A   1      42.066  25.407  27.715  1.00  0.00     0.074 A 
ATOM     47  C   UNL A   1      40.656  25.197  27.985  1.00  0.00     0.031 C 
ATOM     48  C   UNL A   1      42.956  31.498  29.361  1.00  0.00     0.029 A 
ATOM     49  C   UNL A   1      43.936  30.560  28.819  1.00  0.00     0.049 A 
ATOM     50  H   UNL A   1      43.695  28.491  28.630  1.00  0.00     0.167 HD
ATOM     51  C   UNL A   1      42.918  24.429  27.328  1.00  0.00     0.037 A 
ATOM     52  C   UNL A   1      45.177  30.879  28.398  1.00  0.00     0.037 A 
ATOM     53  C   UNL A   1      44.332  24.596  27.129  1.00  0.00     0.049 A 
ATOM     54  C   UNL A   1      46.103  29.793  27.919  1.00  0.00     0.074 A 
ATOM     55  C   UNL A   1      45.283  23.636  26.829  1.00  0.00     0.029 A 
ATOM     56  N   UNL A   1      45.001  25.804  27.233  1.00  0.00    -0.354 N 
ATOM     57  N   UNL A   1      45.844  28.534  27.665  1.00  0.00    -0.248 NA
ATOM     58  C   UNL A   1      47.513  30.169  27.718  1.00  0.00     0.031 C 
ATOM     59  C   UNL A   1      46.536  24.260  26.786  1.00  0.00     0.029 A 
ATOM     60  C   UNL A   1      46.358  25.611  27.027  1.00  0.00     0.049 A 
ATOM     61  H   UNL A   1      44.577  26.671  27.425  1.00  0.00     0.167 HD
ATOM     62  C   UNL A   1      47.062  27.960  27.321  1.00  0.00     0.074 A 
ATOM     63  C   UNL A   1      48.047  29.021  27.326  1.00  0.00     0.031 C 
ATOM     64  C   UNL A   1      47.342  26.660  27.065  1.00  0.00     0.037 A 
BRANCH  51  65
ATOM     65  C   UNL A   1      42.328  23.063  27.183  1.00  0.00     0.057 A 
ATOM     66  C   UNL A   1      42.033  22.269  28.296  1.00  0.00     0.134 A 
ATOM     67  C   UNL A   1      42.104  22.522  25.912  1.00  0.00     0.134 A 
ATOM     68  F   UNL A   1      42.255  22.727  29.537  1.00  0.00    -0.206 F 
ATOM     69  C   UNL A   1      41.554  20.967  28.148  1.00  0.00     0.040 A 
ATOM     70  C   UNL A   1      41.614  21.228  25.752  1.00  0.00     0.040 A 
ATOM     71  F   UNL A   1      42.382  23.236  24.810  1.00  0.00    -0.206 F 
ATOM     72  C   UNL A   1      41.344  20.444  26.872  1.00  0.00     0.006 A 
ENDBRANCH  51  65
BRANCH  52  73
ATOM     73  C   UNL A   1      45.637  32.293  28.349  1.00  0.00     0.057 A 
ATOM     74  C   UNL A   1      46.263  32.867  29.465  1.00  0.00     0.134 A 
ATOM     75  C   UNL A   1      45.412  33.119  27.244  1.00  0.00     0.134 A 
ATOM     76  F   UNL A   1      46.470  32.139  30.573  1.00  0.00    -0.206 F 
ATOM     77  C   UNL A   1      46.636  34.213  29.487  1.00  0.00     0.040 A 
ATOM     78  C   UNL A   1      45.797  34.462  27.246  1.00  0.00     0.040 A 
ATOM     79  F   UNL A   1      44.801  32.638  26.152  1.00  0.00    -0.206 F 
ATOM     80  C   UNL A   1      46.405  35.014  28.373  1.00  0.00     0.006 A 
ENDBRANCH  52  73
BRANCH  64  81
ATOM     81  C   UNL A   1      48.780  26.297  26.851  1.00  0.00     0.057 A 
ATOM     82  C   UNL A   1      49.577  25.856  27.916  1.00  0.00     0.134 A 
ATOM     83  C   UNL A   1      49.362  26.339  25.580  1.00  0.00     0.134 A 
ATOM     84  F   UNL A   1      49.079  25.801  29.161  1.00  0.00    -0.206 F 
ATOM     85  C   UNL A   1      50.908  25.481  27.727  1.00  0.00     0.040 A 
ATOM     86  C   UNL A   1      50.689  25.951  25.375  1.00  0.00     0.040 A 
ATOM     87  F   UNL A   1      48.653  26.748  24.518  1.00  0.00    -0.206 F 
ATOM     88  C   UNL A   1      51.466  25.523  26.451  1.00  0.00     0.006 A 
ENDBRANCH  64  81
ENDBRANCH  38  39
ENDBRANCH  31  33
ENDBRANCH  30  31
ENDBRANCH  29  30
ENDBRANCH   1  29
TORSDOF 15
ENDMDL
MODEL 3
REMARK VINA RESULT:     -11.7      6.245      8.914
REMARK SMILES Cc1oc2ccc(NS(=O)(=O)c3ccc(C(C)C)cc3)cc2c1C(=O)OCCOC(=O)c1ccc(-c2c3nc(c(-c4c(F)cccc4F)c4ccc([nH]4)c(-c4c(F)cccc4F)c4nc(c(-c5c(F)cccc5F)c5ccc2[nH]5)C=C4)C=C3)cc1
REMARK SMILES IDX 27 1 26 2 24 3 25 4 23 5 1 6 2 7 3 8 4 9 22 10 5 11 21 12
REMARK SMILES IDX 6 13 7 14 8 15 9 17 10 18 11 19 12 20 13 21 20 22 14 23
REMARK SMILES IDX 19 24 15 25 16 26 17 27 18 28 28 29 29 30 30 31 31 32 32 33
REMARK SMILES IDX 33 34 85 35 34 36 84 37 35 38 36 39 37 40 78 41 38 42 83 43
REMARK SMILES IDX 77 44 79 45 39 46 82 47 76 48 75 49 40 51 66 52 49 53 65 54
REMARK SMILES IDX 50 55 53 56 64 57 80 58 51 59 52 60 63 62 81 63 54 64 41 65
REMARK SMILES IDX 42 66 47 67 43 68 44 69 46 70 48 71 45 72 67 73 68 74 73 75
REMARK SMILES IDX 69 76 70 77 72 78 74 79 71 80 55 81 56 82 61 83 57 84 58 85
REMARK SMILES IDX 60 86 62 87 59 88
REMARK H PARENT 8 16 79 50 53 61
REMARK Flexibility Score: inf
ROOT
ATOM      1  C   UNL A   1      32.533  30.563  27.044  1.00  0.00     0.275 C 
ENDROOT
BRANCH   1   2
ATOM      2  O   UNL A   1      31.780  30.125  25.899  1.00  0.00    -0.458 OA
BRANCH   2   3
ATOM      3  C   UNL A   1      31.618  28.783  25.692  1.00  0.00     0.342 C 
ATOM      4  O   UNL A   1      31.402  27.957  26.567  1.00  0.00    -0.246 OA
BRANCH   3   5
ATOM      5  C   UNL A   1      31.590  28.494  24.272  1.00  0.00     0.109 A 
ATOM      6  C   UNL A   1      29.504  29.869  23.462  1.00  0.00     0.088 C 
ATOM      7  C   UNL A   1      30.606  28.888  23.383  1.00  0.00     0.116 A 
ATOM      8  O   UNL A   1      30.665  28.127  22.250  1.00  0.00    -0.460 OA
ATOM      9  C   UNL A   1      31.683  27.239  22.424  1.00  0.00     0.135 A 
ATOM     10  C   UNL A   1      32.405  27.563  23.562  1.00  0.00     0.037 A 
ATOM     11  C   UNL A   1      31.940  26.114  21.649  1.00  0.00     0.050 A 
ATOM     12  C   UNL A   1      33.555  26.813  23.869  1.00  0.00     0.039 A 
ATOM     13  C   UNL A   1      32.904  25.228  22.164  1.00  0.00     0.030 A 
ATOM     14  C   UNL A   1      33.698  25.556  23.276  1.00  0.00     0.050 A 
BRANCH  14  15
ATOM     15  N   UNL A   1      34.378  24.481  23.939  1.00  0.00    -0.280 N 
ATOM     16  H   UNL A   1      35.280  24.256  23.614  1.00  0.00     0.180 HD
BRANCH  15  17
ATOM     17  S   UNL A   1      33.779  23.570  25.221  1.00  0.00     0.261 S 
ATOM     18  O   UNL A   1      34.826  23.623  26.218  1.00  0.00    -0.201 OA
ATOM     19  O   UNL A   1      32.439  24.018  25.529  1.00  0.00    -0.201 OA
BRANCH  17  20
ATOM     20  C   UNL A   1      33.657  21.862  24.709  1.00  0.00     0.087 A 
ATOM     21  C   UNL A   1      34.681  20.960  25.024  1.00  0.00     0.022 A 
ATOM     22  C   UNL A   1      32.523  21.373  24.094  1.00  0.00     0.022 A 
ATOM     23  C   UNL A   1      34.534  19.583  24.759  1.00  0.00     0.005 A 
ATOM     24  C   UNL A   1      32.334  20.004  23.960  1.00  0.00     0.005 A 
ATOM     25  C   UNL A   1      33.326  19.080  24.269  1.00  0.00    -0.045 A 
BRANCH  25  26
ATOM     26  C   UNL A   1      33.002  17.611  24.072  1.00  0.00     0.013 C 
ATOM     27  C   UNL A   1      34.090  16.866  23.301  1.00  0.00     0.012 C 
ATOM     28  C   UNL A   1      32.663  16.909  25.383  1.00  0.00     0.012 C 
ENDBRANCH  25  26
ENDBRANCH  17  20
ENDBRANCH  15  17
ENDBRANCH  14  15
ENDBRANCH   3   5
ENDBRANCH   2   3
ENDBRANCH   1   2
BRANCH   1  29
ATOM     29  C   UNL A   1      34.033  30.251  26.862  1.00  0.00     0.275 C 
BRANCH  29  30
ATOM     30  O   UNL A   1      34.650  29.627  28.019  1.00  0.00    -0.458 OA
BRANCH  30  31
ATOM     31  C   UNL A   1      35.550  30.373  28.713  1.00  0.00     0.338 C 
ATOM     32  O   UNL A   1      35.274  31.309  29.448  1.00  0.00    -0.246 OA
BRANCH  31  33
ATOM     33  C   UNL A   1      36.946  29.853  28.578  1.00  0.00     0.060 A 
ATOM     34  C   UNL A   1      37.558  29.359  29.737  1.00  0.00     0.016 A 
ATOM     35  C   UNL A   1      37.667  29.832  27.376  1.00  0.00     0.016 A 
ATOM     36  C   UNL A   1      38.856  28.835  29.689  1.00  0.00     0.010 A 
ATOM     37  C   UNL A   1      38.985  29.322  27.333  1.00  0.00     0.010 A 
ATOM     38  C   UNL A   1      39.596  28.825  28.493  1.00  0.00    -0.014 A 
BRANCH  38  39
ATOM     39  C   UNL A   1      41.029  28.403  28.575  1.00  0.00     0.031 A 
ATOM     40  C   UNL A   1      41.385  26.998  28.184  1.00  0.00     0.074 A 
ATOM     41  C   UNL A   1      42.032  29.263  28.834  1.00  0.00     0.049 A 
ATOM     42  N   UNL A   1      42.541  26.495  27.837  1.00  0.00    -0.248 NA
ATOM     43  C   UNL A   1      40.277  26.033  28.196  1.00  0.00     0.031 C 
ATOM     44  C   UNL A   1      41.863  30.634  29.282  1.00  0.00     0.029 A 
ATOM     45  N   UNL A   1      43.395  29.137  28.657  1.00  0.00    -0.354 N 
ATOM     46  C   UNL A   1      42.305  25.152  27.592  1.00  0.00     0.074 A 
ATOM     47  C   UNL A   1      40.889  24.923  27.810  1.00  0.00     0.031 C 
ATOM     48  C   UNL A   1      43.036  31.280  29.179  1.00  0.00     0.029 A 
ATOM     49  C   UNL A   1      44.051  30.350  28.690  1.00  0.00     0.049 A 
ATOM     50  H   UNL A   1      43.849  28.274  28.523  1.00  0.00     0.167 HD
ATOM     51  C   UNL A   1      43.186  24.182  27.253  1.00  0.00     0.037 A 
ATOM     52  C   UNL A   1      45.303  30.682  28.313  1.00  0.00     0.037 A 
ATOM     53  C   UNL A   1      44.604  24.369  27.107  1.00  0.00     0.049 A 
ATOM     54  C   UNL A   1      46.263  29.604  27.886  1.00  0.00     0.074 A 
ATOM     55  C   UNL A   1      45.581  23.420  26.858  1.00  0.00     0.029 A 
ATOM     56  N   UNL A   1      45.250  25.588  27.218  1.00  0.00    -0.354 N 
ATOM     57  N   UNL A   1      46.034  28.338  27.642  1.00  0.00    -0.248 NA
ATOM     58  C   UNL A   1      47.674  29.999  27.735  1.00  0.00     0.031 C 
ATOM     59  C   UNL A   1      46.825  24.062  26.855  1.00  0.00     0.029 A 
ATOM     60  C   UNL A   1      46.617  25.414  27.069  1.00  0.00     0.049 A 
ATOM     61  H   UNL A   1      44.805  26.452  27.381  1.00  0.00     0.167 HD
ATOM     62  C   UNL A   1      47.273  27.778  27.354  1.00  0.00     0.074 A 
ATOM     63  C   UNL A   1      48.241  28.854  27.382  1.00  0.00     0.031 C 
ATOM     64  C   UNL A   1      47.582  26.479  27.128  1.00  0.00     0.037 A 
BRANCH  51  65
ATOM     65  C   UNL A   1      42.623  22.805  27.106  1.00  0.00     0.057 A 
ATOM     66  C   UNL A   1      42.379  22.243  25.848  1.00  0.00     0.134 A 
ATOM     67  C   UNL A   1      42.274  22.060  28.238  1.00  0.00     0.134 A 
ATOM     68  F   UNL A   1      42.668  22.925  24.730  1.00  0.00    -0.206 F 
ATOM     69  C   UNL A   1      41.783  20.988  25.722  1.00  0.00     0.040 A 
ATOM     70  C   UNL A   1      41.690  20.800  28.124  1.00  0.00     0.040 A 
ATOM     71  F   UNL A   1      42.474  22.558  29.468  1.00  0.00    -0.206 F 
ATOM     72  C   UNL A   1      41.436  20.264  26.863  1.00  0.00     0.006 A 
ENDBRANCH  51  65
BRANCH  52  73
ATOM     73  C   UNL A   1      45.743  32.102  28.261  1.00  0.00     0.057 A 
ATOM     74  C   UNL A   1      45.587  32.845  27.082  1.00  0.00     0.134 A 
ATOM     75  C   UNL A   1      46.382  32.730  29.334  1.00  0.00     0.134 A 
ATOM     76  F   UNL A   1      45.019  32.285  26.002  1.00  0.00    -0.206 F 
ATOM     77  C   UNL A   1      46.060  34.154  26.969  1.00  0.00     0.040 A 
ATOM     78  C   UNL A   1      46.844  34.045  29.240  1.00  0.00     0.040 A 
ATOM     79  F   UNL A   1      46.581  32.070  30.484  1.00  0.00    -0.206 F 
ATOM     80  C   UNL A   1      46.689  34.758  28.053  1.00  0.00     0.006 A 
ENDBRANCH  52  73
BRANCH  64  81
ATOM     81  C   UNL A   1      49.033  26.136  26.976  1.00  0.00     0.057 A 
ATOM     82  C   UNL A   1      49.656  26.186  25.721  1.00  0.00     0.134 A 
ATOM     83  C   UNL A   1      49.824  25.801  28.079  1.00  0.00     0.134 A 
ATOM     84  F   UNL A   1      48.949  26.492  24.622  1.00  0.00    -0.206 F 
ATOM     85  C   UNL A   1      51.014  25.904  25.568  1.00  0.00     0.040 A 
ATOM     86  C   UNL A   1      51.188  25.532  27.941  1.00  0.00     0.040 A 
ATOM     87  F   UNL A   1      49.290  25.740  29.307  1.00  0.00    -0.206 F 
ATOM     88  C   UNL A   1      51.786  25.580  26.682  1.00  0.00     0.006 A 
ENDBRANCH  64  81
ENDBRANCH  38  39
ENDBRANCH  31  33
ENDBRANCH  30  31
ENDBRANCH  29  30
ENDBRANCH   1  29
TORSDOF 15
ENDMDL
