MODEL 1
REMARK VINA RESULT:     -11.5      0.000      0.000
REMARK SMILES CCCC[C@@H](C(=O)OCCOC(=O)c1ccc(-c2c3nc(c(-c4c(F)cccc4F)c4ccc([nH]4)c(-c4c(F)cccc4F)c4nc(c(-c5c(F)cccc5F)c5ccc2[nH]5)C=C4)C=C3)cc1)C1(O)Cc2ccccc2C1
REMARK SMILES IDX 9 1 8 2 6 3 7 4 5 5 4 6 3 7 2 8 1 9 68 10 70 11 77 12 71 13
REMARK SMILES IDX 76 14 72 15 75 16 73 17 74 18 69 19 10 21 11 22 12 23 13 24
REMARK SMILES IDX 14 25 15 26 67 27 16 28 66 29 17 30 18 31 19 32 60 33 20 34
REMARK SMILES IDX 65 35 59 36 61 37 21 38 64 39 58 40 57 41 22 43 48 44 31 45
REMARK SMILES IDX 47 46 32 47 35 48 46 49 62 50 33 51 34 52 45 54 63 55 36 56
REMARK SMILES IDX 23 57 24 58 29 59 25 60 26 61 28 62 30 63 27 64 49 65 50 66
REMARK SMILES IDX 55 67 51 68 52 69 54 70 56 71 53 72 37 73 38 74 43 75 39 76
REMARK SMILES IDX 40 77 42 78 44 79 41 80
REMARK H PARENT 69 20 61 42 35 53
REMARK Flexibility Score: inf
ROOT
ATOM      1  C   UNL A   1      36.748  19.290  24.993  1.00  0.00     0.274 C 
ENDROOT
BRANCH   1   2
ATOM      2  O   UNL A   1      35.832  20.396  25.146  1.00  0.00    -0.462 OA
BRANCH   2   3
ATOM      3  C   UNL A   1      34.522  20.317  24.790  1.00  0.00     0.312 C 
ATOM      4  O   UNL A   1      33.911  19.282  24.562  1.00  0.00    -0.252 OA
BRANCH   3   5
ATOM      5  C   UNL A   1      33.896  21.725  24.781  1.00  0.00     0.131 C 
BRANCH   5   6
ATOM      6  C   UNL A   1      35.043  22.736  24.198  1.00  0.00     0.018 C 
BRANCH   6   7
ATOM      7  C   UNL A   1      34.992  23.300  22.774  1.00  0.00     0.001 C 
BRANCH   7   8
ATOM      8  C   UNL A   1      33.626  23.392  22.153  1.00  0.00    -0.003 C 
ATOM      9  C   UNL A   1      33.127  24.821  22.164  1.00  0.00     0.004 C 
ENDBRANCH   7   8
ENDBRANCH   6   7
ENDBRANCH   5   6
BRANCH   5  10
ATOM     10  C   UNL A   1      33.009  22.166  26.275  1.00  0.00     0.086 C 
ATOM     11  C   UNL A   1      32.003  22.382  25.272  1.00  0.00     0.072 C 
ATOM     12  C   UNL A   1      31.450  22.868  27.128  1.00  0.00     0.072 C 
ATOM     13  C   UNL A   1      32.304  23.833  25.750  1.00  0.00    -0.042 A 
ATOM     14  C   UNL A   1      30.663  24.179  26.146  1.00  0.00    -0.042 A 
ATOM     15  C   UNL A   1      33.671  25.040  25.730  1.00  0.00     0.004 A 
ATOM     16  C   UNL A   1      30.262  25.957  26.128  1.00  0.00     0.004 A 
ATOM     17  C   UNL A   1      33.303  26.817  25.962  1.00  0.00     0.000 A 
ATOM     18  C   UNL A   1      31.548  27.298  25.998  1.00  0.00     0.000 A 
BRANCH  10  19
ATOM     19  O   UNL A   1      33.195  20.991  27.061  1.00  0.00    -0.388 OA
ATOM     20  H   UNL A   1      32.509  20.947  27.745  1.00  0.00     0.211 HD
ENDBRANCH  10  19
ENDBRANCH   5  10
ENDBRANCH   3   5
ENDBRANCH   2   3
ENDBRANCH   1   2
BRANCH   1  21
ATOM     21  C   UNL A   1      38.115  19.899  24.627  1.00  0.00     0.275 C 
BRANCH  21  22
ATOM     22  O   UNL A   1      39.159  19.184  25.342  1.00  0.00    -0.458 OA
BRANCH  22  23
ATOM     23  C   UNL A   1      40.324  19.885  26.026  1.00  0.00     0.338 C 
ATOM     24  O   UNL A   1      41.235  19.015  25.876  1.00  0.00    -0.246 OA
BRANCH  23  25
ATOM     25  C   UNL A   1      40.257  21.831  26.940  1.00  0.00     0.060 A 
ATOM     26  C   UNL A   1      39.312  22.986  26.832  1.00  0.00     0.016 A 
ATOM     27  C   UNL A   1      41.226  22.433  28.010  1.00  0.00     0.016 A 
ATOM     28  C   UNL A   1      39.634  24.348  27.096  1.00  0.00     0.010 A 
ATOM     29  C   UNL A   1      41.512  23.754  28.349  1.00  0.00     0.010 A 
ATOM     30  C   UNL A   1      40.830  24.733  27.700  1.00  0.00    -0.014 A 
BRANCH  30  31
ATOM     31  C   UNL A   1      41.389  26.097  27.698  1.00  0.00     0.031 A 
ATOM     32  C   UNL A   1      42.750  26.388  27.081  1.00  0.00     0.074 A 
ATOM     33  C   UNL A   1      40.675  27.053  28.307  1.00  0.00     0.049 A 
ATOM     34  N   UNL A   1      43.527  27.430  27.250  1.00  0.00    -0.248 NA
ATOM     35  C   UNL A   1      43.340  25.361  26.201  1.00  0.00     0.031 C 
ATOM     36  C   UNL A   1      39.372  26.847  28.941  1.00  0.00     0.029 A 
ATOM     37  N   UNL A   1      40.944  28.373  28.512  1.00  0.00    -0.354 N 
ATOM     38  C   UNL A   1      44.712  27.155  26.563  1.00  0.00     0.074 A 
ATOM     39  C   UNL A   1      44.554  25.848  25.967  1.00  0.00     0.031 C 
ATOM     40  C   UNL A   1      38.911  28.013  29.392  1.00  0.00     0.029 A 
ATOM     41  C   UNL A   1      39.979  28.986  29.268  1.00  0.00     0.049 A 
ATOM     42  H   UNL A   1      41.738  28.834  28.157  1.00  0.00     0.167 HD
ATOM     43  C   UNL A   1      45.823  27.931  26.467  1.00  0.00     0.037 A 
ATOM     44  C   UNL A   1      39.997  30.159  29.913  1.00  0.00     0.037 A 
ATOM     45  C   UNL A   1      45.897  29.254  27.052  1.00  0.00     0.049 A 
ATOM     46  C   UNL A   1      41.232  30.982  29.806  1.00  0.00     0.074 A 
ATOM     47  C   UNL A   1      46.927  30.176  26.994  1.00  0.00     0.029 A 
ATOM     48  N   UNL A   1      44.881  29.839  27.799  1.00  0.00    -0.354 N 
ATOM     49  N   UNL A   1      42.361  30.701  29.201  1.00  0.00    -0.248 NA
ATOM     50  C   UNL A   1      41.193  32.282  30.470  1.00  0.00     0.031 C 
ATOM     51  C   UNL A   1      46.558  31.291  27.757  1.00  0.00     0.029 A 
ATOM     52  C   UNL A   1      45.267  31.099  28.226  1.00  0.00     0.049 A 
ATOM     53  H   UNL A   1      44.013  29.419  27.996  1.00  0.00     0.167 HD
ATOM     54  C   UNL A   1      43.174  31.803  29.394  1.00  0.00     0.074 A 
ATOM     55  C   UNL A   1      42.383  32.764  30.145  1.00  0.00     0.031 C 
ATOM     56  C   UNL A   1      44.454  32.009  28.995  1.00  0.00     0.037 A 
BRANCH  43  57
ATOM     57  C   UNL A   1      47.049  27.400  25.753  1.00  0.00     0.057 A 
ATOM     58  C   UNL A   1      48.053  26.668  26.401  1.00  0.00     0.134 A 
ATOM     59  C   UNL A   1      47.183  27.549  24.361  1.00  0.00     0.134 A 
ATOM     60  F   UNL A   1      48.002  26.471  27.727  1.00  0.00    -0.206 F 
ATOM     61  C   UNL A   1      49.143  26.126  25.706  1.00  0.00     0.040 A 
ATOM     62  C   UNL A   1      48.251  26.987  23.651  1.00  0.00     0.040 A 
ATOM     63  F   UNL A   1      46.261  28.222  23.656  1.00  0.00    -0.206 F 
ATOM     64  C   UNL A   1      49.239  26.277  24.325  1.00  0.00     0.006 A 
ENDBRANCH  43  57
BRANCH  44  65
ATOM     65  C   UNL A   1      38.823  30.538  30.729  1.00  0.00     0.057 A 
ATOM     66  C   UNL A   1      37.747  31.213  30.150  1.00  0.00     0.134 A 
ATOM     67  C   UNL A   1      38.681  30.103  32.057  1.00  0.00     0.134 A 
ATOM     68  F   UNL A   1      37.825  31.644  28.883  1.00  0.00    -0.206 F 
ATOM     69  C   UNL A   1      36.568  31.442  30.858  1.00  0.00     0.040 A 
ATOM     70  C   UNL A   1      37.493  30.288  32.761  1.00  0.00     0.040 A 
ATOM     71  F   UNL A   1      39.663  29.409  32.653  1.00  0.00    -0.206 F 
ATOM     72  C   UNL A   1      36.433  30.963  32.162  1.00  0.00     0.006 A 
ENDBRANCH  44  65
BRANCH  56  73
ATOM     73  C   UNL A   1      45.024  33.350  29.345  1.00  0.00     0.057 A 
ATOM     74  C   UNL A   1      45.722  33.568  30.541  1.00  0.00     0.134 A 
ATOM     75  C   UNL A   1      44.805  34.450  28.508  1.00  0.00     0.134 A 
ATOM     76  F   UNL A   1      45.943  32.556  31.395  1.00  0.00    -0.206 F 
ATOM     77  C   UNL A   1      46.121  34.847  30.923  1.00  0.00     0.040 A 
ATOM     78  C   UNL A   1      45.238  35.726  28.859  1.00  0.00     0.040 A 
ATOM     79  F   UNL A   1      44.151  34.304  27.345  1.00  0.00    -0.206 F 
ATOM     80  C   UNL A   1      45.879  35.931  30.079  1.00  0.00     0.006 A 
ENDBRANCH  56  73
ENDBRANCH  30  31
ENDBRANCH  23  25
ENDBRANCH  22  23
ENDBRANCH  21  22
ENDBRANCH   1  21
TORSDOF 16
ENDMDL
MODEL 2
REMARK VINA RESULT:     -11.3      4.597      9.340
REMARK SMILES CCCC[C@@H](C(=O)OCCOC(=O)c1ccc(-c2c3nc(c(-c4c(F)cccc4F)c4ccc([nH]4)c(-c4c(F)cccc4F)c4nc(c(-c5c(F)cccc5F)c5ccc2[nH]5)C=C4)C=C3)cc1)C1(O)Cc2ccccc2C1
REMARK SMILES IDX 9 1 8 2 6 3 7 4 5 5 4 6 3 7 2 8 1 9 68 10 70 11 77 12 71 13
REMARK SMILES IDX 76 14 72 15 75 16 73 17 74 18 69 19 10 21 11 22 12 23 13 24
REMARK SMILES IDX 14 25 15 26 67 27 16 28 66 29 17 30 18 31 19 32 60 33 20 34
REMARK SMILES IDX 65 35 59 36 61 37 21 38 64 39 58 40 57 41 22 43 48 44 31 45
REMARK SMILES IDX 47 46 32 47 35 48 46 49 62 50 33 51 34 52 45 54 63 55 36 56
REMARK SMILES IDX 23 57 24 58 29 59 25 60 26 61 28 62 30 63 27 64 49 65 50 66
REMARK SMILES IDX 55 67 51 68 52 69 54 70 56 71 53 72 37 73 38 74 43 75 39 76
REMARK SMILES IDX 40 77 42 78 44 79 41 80
REMARK H PARENT 69 20 61 42 35 53
REMARK Flexibility Score: inf
ROOT
ATOM      1  C   UNL A   1      31.786  31.161  25.898  1.00  0.00     0.274 C 
ENDROOT
BRANCH   1   2
ATOM      2  O   UNL A   1      31.498  29.766  26.132  1.00  0.00    -0.462 OA
BRANCH   2   3
ATOM      3  C   UNL A   1      31.308  28.877  25.121  1.00  0.00     0.312 C 
ATOM      4  O   UNL A   1      30.513  29.011  24.200  1.00  0.00    -0.252 OA
BRANCH   3   5
ATOM      5  C   UNL A   1      32.292  27.701  25.265  1.00  0.00     0.131 C 
BRANCH   5   6
ATOM      6  C   UNL A   1      33.682  28.171  24.538  1.00  0.00     0.018 C 
BRANCH   6   7
ATOM      7  C   UNL A   1      33.693  28.968  23.230  1.00  0.00     0.001 C 
BRANCH   7   8
ATOM      8  C   UNL A   1      34.100  28.208  22.000  1.00  0.00    -0.003 C 
ATOM      9  C   UNL A   1      33.547  26.799  22.032  1.00  0.00     0.004 C 
ENDBRANCH   7   8
ENDBRANCH   6   7
ENDBRANCH   5   6
BRANCH   5  10
ATOM     10  C   UNL A   1      31.603  26.089  24.890  1.00  0.00     0.086 C 
ATOM     11  C   UNL A   1      31.527  26.105  26.325  1.00  0.00     0.072 C 
ATOM     12  C   UNL A   1      30.939  24.396  25.477  1.00  0.00     0.072 C 
ATOM     13  C   UNL A   1      32.618  25.023  26.068  1.00  0.00    -0.042 A 
ATOM     14  C   UNL A   1      31.798  23.801  26.965  1.00  0.00    -0.042 A 
ATOM     15  C   UNL A   1      34.309  24.897  25.396  1.00  0.00     0.004 A 
ATOM     16  C   UNL A   1      32.897  22.494  27.598  1.00  0.00     0.004 A 
ATOM     17  C   UNL A   1      35.341  23.450  25.831  1.00  0.00     0.000 A 
ATOM     18  C   UNL A   1      34.678  22.311  27.086  1.00  0.00     0.000 A 
BRANCH  10  19
ATOM     19  O   UNL A   1      30.568  26.441  23.975  1.00  0.00    -0.388 OA
ATOM     20  H   UNL A   1      29.856  25.784  24.024  1.00  0.00     0.211 HD
ENDBRANCH  10  19
ENDBRANCH   5  10
ENDBRANCH   3   5
ENDBRANCH   2   3
ENDBRANCH   1   2
BRANCH   1  21
ATOM     21  C   UNL A   1      31.155  31.942  27.068  1.00  0.00     0.275 C 
BRANCH  21  22
ATOM     22  O   UNL A   1      31.744  33.270  27.123  1.00  0.00    -0.458 OA
BRANCH  22  23
ATOM     23  C   UNL A   1      33.021  33.579  27.891  1.00  0.00     0.338 C 
ATOM     24  O   UNL A   1      32.731  34.717  28.370  1.00  0.00    -0.246 OA
BRANCH  23  25
ATOM     25  C   UNL A   1      34.747  32.302  28.023  1.00  0.00     0.060 A 
ATOM     26  C   UNL A   1      34.938  30.819  27.955  1.00  0.00     0.016 A 
ATOM     27  C   UNL A   1      36.249  32.714  28.170  1.00  0.00     0.016 A 
ATOM     28  C   UNL A   1      36.022  30.096  28.529  1.00  0.00     0.010 A 
ATOM     29  C   UNL A   1      37.349  32.012  28.656  1.00  0.00     0.010 A 
ATOM     30  C   UNL A   1      37.154  30.724  29.042  1.00  0.00    -0.014 A 
BRANCH  30  31
ATOM     31  C   UNL A   1      38.142  30.103  29.944  1.00  0.00     0.031 A 
ATOM     32  C   UNL A   1      38.251  30.525  31.402  1.00  0.00     0.074 A 
ATOM     33  C   UNL A   1      38.972  29.195  29.413  1.00  0.00     0.049 A 
ATOM     34  N   UNL A   1      39.231  30.326  32.249  1.00  0.00    -0.248 NA
ATOM     35  C   UNL A   1      37.141  31.314  31.974  1.00  0.00     0.031 C 
ATOM     36  C   UNL A   1      38.944  28.754  28.017  1.00  0.00     0.029 A 
ATOM     37  N   UNL A   1      40.003  28.497  29.966  1.00  0.00    -0.354 N 
ATOM     38  C   UNL A   1      38.892  31.016  33.416  1.00  0.00     0.074 A 
ATOM     39  C   UNL A   1      37.611  31.639  33.174  1.00  0.00     0.031 C 
ATOM     40  C   UNL A   1      39.857  27.800  27.838  1.00  0.00     0.029 A 
ATOM     41  C   UNL A   1      40.661  27.728  29.042  1.00  0.00     0.049 A 
ATOM     42  H   UNL A   1      40.247  28.540  30.918  1.00  0.00     0.167 HD
ATOM     43  C   UNL A   1      39.610  31.120  34.565  1.00  0.00     0.037 A 
ATOM     44  C   UNL A   1      41.858  27.131  29.105  1.00  0.00     0.037 A 
ATOM     45  C   UNL A   1      40.869  30.431  34.757  1.00  0.00     0.049 A 
ATOM     46  C   UNL A   1      42.631  27.274  30.368  1.00  0.00     0.074 A 
ATOM     47  C   UNL A   1      41.681  30.394  35.877  1.00  0.00     0.029 A 
ATOM     48  N   UNL A   1      41.489  29.646  33.792  1.00  0.00    -0.354 N 
ATOM     49  N   UNL A   1      42.333  27.962  31.444  1.00  0.00    -0.248 NA
ATOM     50  C   UNL A   1      43.903  26.559  30.423  1.00  0.00     0.031 C 
ATOM     51  C   UNL A   1      42.819  29.640  35.567  1.00  0.00     0.029 A 
ATOM     52  C   UNL A   1      42.682  29.140  34.280  1.00  0.00     0.049 A 
ATOM     53  H   UNL A   1      41.132  29.475  32.890  1.00  0.00     0.167 HD
ATOM     54  C   UNL A   1      43.379  27.751  32.325  1.00  0.00     0.074 A 
ATOM     55  C   UNL A   1      44.294  26.841  31.656  1.00  0.00     0.031 C 
ATOM     56  C   UNL A   1      43.573  28.258  33.568  1.00  0.00     0.037 A 
BRANCH  43  57
ATOM     57  C   UNL A   1      39.107  32.007  35.685  1.00  0.00     0.057 A 
ATOM     58  C   UNL A   1      39.423  33.369  35.780  1.00  0.00     0.134 A 
ATOM     59  C   UNL A   1      38.211  31.505  36.645  1.00  0.00     0.134 A 
ATOM     60  F   UNL A   1      40.265  33.935  34.903  1.00  0.00    -0.206 F 
ATOM     61  C   UNL A   1      38.889  34.186  36.787  1.00  0.00     0.040 A 
ATOM     62  C   UNL A   1      37.647  32.316  37.636  1.00  0.00     0.040 A 
ATOM     63  F   UNL A   1      37.841  30.215  36.621  1.00  0.00    -0.206 F 
ATOM     64  C   UNL A   1      37.990  33.663  37.712  1.00  0.00     0.006 A 
ENDBRANCH  43  57
BRANCH  44  65
ATOM     65  C   UNL A   1      42.359  26.418  27.909  1.00  0.00     0.057 A 
ATOM     66  C   UNL A   1      43.157  27.079  26.974  1.00  0.00     0.134 A 
ATOM     67  C   UNL A   1      42.183  25.034  27.753  1.00  0.00     0.134 A 
ATOM     68  F   UNL A   1      43.366  28.399  27.080  1.00  0.00    -0.206 F 
ATOM     69  C   UNL A   1      43.768  26.392  25.926  1.00  0.00     0.040 A 
ATOM     70  C   UNL A   1      42.820  24.328  26.735  1.00  0.00     0.040 A 
ATOM     71  F   UNL A   1      41.463  24.335  28.645  1.00  0.00    -0.206 F 
ATOM     72  C   UNL A   1      43.613  25.009  25.815  1.00  0.00     0.006 A 
ENDBRANCH  44  65
BRANCH  56  73
ATOM     73  C   UNL A   1      44.811  27.782  34.265  1.00  0.00     0.057 A 
ATOM     74  C   UNL A   1      44.814  26.629  35.063  1.00  0.00     0.134 A 
ATOM     75  C   UNL A   1      45.991  28.530  34.195  1.00  0.00     0.134 A 
ATOM     76  F   UNL A   1      43.705  25.883  35.187  1.00  0.00    -0.206 F 
ATOM     77  C   UNL A   1      45.930  26.277  35.821  1.00  0.00     0.040 A 
ATOM     78  C   UNL A   1      47.126  28.163  34.915  1.00  0.00     0.040 A 
ATOM     79  F   UNL A   1      46.054  29.638  33.442  1.00  0.00    -0.206 F 
ATOM     80  C   UNL A   1      47.090  27.046  35.747  1.00  0.00     0.006 A 
ENDBRANCH  56  73
ENDBRANCH  30  31
ENDBRANCH  23  25
ENDBRANCH  22  23
ENDBRANCH  21  22
ENDBRANCH   1  21
TORSDOF 16
ENDMDL
MODEL 3
REMARK VINA RESULT:     -11.1      4.438      9.320
REMARK SMILES CCCC[C@@H](C(=O)OCCOC(=O)c1ccc(-c2c3nc(c(-c4c(F)cccc4F)c4ccc([nH]4)c(-c4c(F)cccc4F)c4nc(c(-c5c(F)cccc5F)c5ccc2[nH]5)C=C4)C=C3)cc1)C1(O)Cc2ccccc2C1
REMARK SMILES IDX 9 1 8 2 6 3 7 4 5 5 4 6 3 7 2 8 1 9 68 10 70 11 77 12 71 13
REMARK SMILES IDX 76 14 72 15 75 16 73 17 74 18 69 19 10 21 11 22 12 23 13 24
REMARK SMILES IDX 14 25 15 26 67 27 16 28 66 29 17 30 18 31 19 32 60 33 20 34
REMARK SMILES IDX 65 35 59 36 61 37 21 38 64 39 58 40 57 41 22 43 48 44 31 45
REMARK SMILES IDX 47 46 32 47 35 48 46 49 62 50 33 51 34 52 45 54 63 55 36 56
REMARK SMILES IDX 23 57 24 58 29 59 25 60 26 61 28 62 30 63 27 64 49 65 50 66
REMARK SMILES IDX 55 67 51 68 52 69 54 70 56 71 53 72 37 73 38 74 43 75 39 76
REMARK SMILES IDX 40 77 42 78 44 79 41 80
REMARK H PARENT 69 20 61 42 35 53
REMARK Flexibility Score: inf
ROOT
ATOM      1  C   UNL A   1      31.510  30.261  27.056  1.00  0.00     0.274 C 
ENDROOT
BRANCH   1   2
ATOM      2  O   UNL A   1      31.698  29.101  26.217  1.00  0.00    -0.462 OA
BRANCH   2   3
ATOM      3  C   UNL A   1      31.443  27.837  26.648  1.00  0.00     0.312 C 
ATOM      4  O   UNL A   1      31.003  27.539  27.751  1.00  0.00    -0.252 OA
BRANCH   3   5
ATOM      5  C   UNL A   1      31.725  26.830  25.517  1.00  0.00     0.131 C 
BRANCH   5   6
ATOM      6  C   UNL A   1      30.560  27.063  24.391  1.00  0.00     0.018 C 
BRANCH   6   7
ATOM      7  C   UNL A   1      30.875  27.546  22.972  1.00  0.00     0.001 C 
BRANCH   7   8
ATOM      8  C   UNL A   1      30.957  29.035  22.787  1.00  0.00    -0.003 C 
ATOM      9  C   UNL A   1      29.624  29.688  23.087  1.00  0.00     0.004 C 
ENDBRANCH   7   8
ENDBRANCH   6   7
ENDBRANCH   5   6
BRANCH   5  10
ATOM     10  C   UNL A   1      32.102  25.166  26.063  1.00  0.00     0.086 C 
ATOM     11  C   UNL A   1      33.377  25.812  26.218  1.00  0.00     0.072 C 
ATOM     12  C   UNL A   1      33.376  23.858  26.631  1.00  0.00     0.072 C 
ATOM     13  C   UNL A   1      33.649  24.832  25.038  1.00  0.00    -0.042 A 
ATOM     14  C   UNL A   1      34.985  24.068  25.812  1.00  0.00    -0.042 A 
ATOM     15  C   UNL A   1      33.129  24.573  23.308  1.00  0.00     0.004 A 
ATOM     16  C   UNL A   1      36.154  23.285  24.655  1.00  0.00     0.004 A 
ATOM     17  C   UNL A   1      34.182  23.571  22.197  1.00  0.00     0.000 A 
ATOM     18  C   UNL A   1      35.804  23.055  22.839  1.00  0.00     0.000 A 
BRANCH  10  19
ATOM     19  O   UNL A   1      31.111  24.978  27.071  1.00  0.00    -0.388 OA
ATOM     20  H   UNL A   1      30.620  25.805  27.199  1.00  0.00     0.211 HD
ENDBRANCH  10  19
ENDBRANCH   5  10
ENDBRANCH   3   5
ENDBRANCH   2   3
ENDBRANCH   1   2
BRANCH   1  21
ATOM     21  C   UNL A   1      31.519  31.486  26.120  1.00  0.00     0.275 C 
BRANCH  21  22
ATOM     22  O   UNL A   1      31.576  32.695  26.924  1.00  0.00    -0.458 OA
BRANCH  22  23
ATOM     23  C   UNL A   1      32.832  33.144  27.657  1.00  0.00     0.338 C 
ATOM     24  O   UNL A   1      32.458  34.280  28.079  1.00  0.00    -0.246 OA
BRANCH  23  25
ATOM     25  C   UNL A   1      34.654  32.015  27.833  1.00  0.00     0.060 A 
ATOM     26  C   UNL A   1      34.981  30.561  27.702  1.00  0.00     0.016 A 
ATOM     27  C   UNL A   1      36.102  32.546  28.096  1.00  0.00     0.016 A 
ATOM     28  C   UNL A   1      36.089  29.902  28.306  1.00  0.00     0.010 A 
ATOM     29  C   UNL A   1      37.231  31.915  28.614  1.00  0.00     0.010 A 
ATOM     30  C   UNL A   1      37.129  30.596  28.921  1.00  0.00    -0.014 A 
BRANCH  30  31
ATOM     31  C   UNL A   1      38.114  30.012  29.851  1.00  0.00     0.031 A 
ATOM     32  C   UNL A   1      38.175  30.449  31.308  1.00  0.00     0.074 A 
ATOM     33  C   UNL A   1      38.984  29.127  29.347  1.00  0.00     0.049 A 
ATOM     34  N   UNL A   1      39.140  30.286  32.179  1.00  0.00    -0.248 NA
ATOM     35  C   UNL A   1      37.028  31.206  31.847  1.00  0.00     0.031 C 
ATOM     36  C   UNL A   1      39.003  28.675  27.954  1.00  0.00     0.029 A 
ATOM     37  N   UNL A   1      40.023  28.465  29.930  1.00  0.00    -0.354 N 
ATOM     38  C   UNL A   1      38.752  30.974  33.332  1.00  0.00     0.074 A 
ATOM     39  C   UNL A   1      37.458  31.554  33.055  1.00  0.00     0.031 C 
ATOM     40  C   UNL A   1      39.948  27.748  27.805  1.00  0.00     0.029 A 
ATOM     41  C   UNL A   1      40.726  27.710  29.027  1.00  0.00     0.049 A 
ATOM     42  H   UNL A   1      40.243  28.523  30.887  1.00  0.00     0.167 HD
ATOM     43  C   UNL A   1      39.439  31.108  34.497  1.00  0.00     0.037 A 
ATOM     44  C   UNL A   1      41.939  27.151  29.124  1.00  0.00     0.037 A 
ATOM     45  C   UNL A   1      40.714  30.461  34.724  1.00  0.00     0.049 A 
ATOM     46  C   UNL A   1      42.677  27.327  30.403  1.00  0.00     0.074 A 
ATOM     47  C   UNL A   1      41.499  30.457  35.863  1.00  0.00     0.029 A 
ATOM     48  N   UNL A   1      41.381  29.688  33.780  1.00  0.00    -0.354 N 
ATOM     49  N   UNL A   1      42.332  28.014  31.467  1.00  0.00    -0.248 NA
ATOM     50  C   UNL A   1      43.968  26.653  30.494  1.00  0.00     0.031 C 
ATOM     51  C   UNL A   1      42.667  29.737  35.586  1.00  0.00     0.029 A 
ATOM     52  C   UNL A   1      42.577  29.223  34.301  1.00  0.00     0.049 A 
ATOM     53  H   UNL A   1      41.051  29.499  32.871  1.00  0.00     0.167 HD
ATOM     54  C   UNL A   1      43.363  27.842  32.373  1.00  0.00     0.074 A 
ATOM     55  C   UNL A   1      44.322  26.956  31.734  1.00  0.00     0.031 C 
ATOM     56  C   UNL A   1      43.512  28.364  33.617  1.00  0.00     0.037 A 
BRANCH  43  57
ATOM     57  C   UNL A   1      38.882  31.988  35.598  1.00  0.00     0.057 A 
ATOM     58  C   UNL A   1      38.147  31.485  36.679  1.00  0.00     0.134 A 
ATOM     59  C   UNL A   1      39.166  33.365  35.621  1.00  0.00     0.134 A 
ATOM     60  F   UNL A   1      37.836  30.182  36.742  1.00  0.00    -0.206 F 
ATOM     61  C   UNL A   1      37.702  32.309  37.722  1.00  0.00     0.040 A 
ATOM     62  C   UNL A   1      38.753  34.194  36.671  1.00  0.00     0.040 A 
ATOM     63  F   UNL A   1      39.877  33.931  34.633  1.00  0.00    -0.206 F 
ATOM     64  C   UNL A   1      38.013  33.667  37.725  1.00  0.00     0.006 A 
ENDBRANCH  43  57
BRANCH  44  65
ATOM     65  C   UNL A   1      42.490  26.445  27.945  1.00  0.00     0.057 A 
ATOM     66  C   UNL A   1      42.184  25.102  27.719  1.00  0.00     0.134 A 
ATOM     67  C   UNL A   1      43.200  27.130  26.946  1.00  0.00     0.134 A 
ATOM     68  F   UNL A   1      41.500  24.403  28.636  1.00  0.00    -0.206 F 
ATOM     69  C   UNL A   1      42.561  24.462  26.540  1.00  0.00     0.040 A 
ATOM     70  C   UNL A   1      43.546  26.514  25.746  1.00  0.00     0.040 A 
ATOM     71  F   UNL A   1      43.483  28.435  27.087  1.00  0.00    -0.206 F 
ATOM     72  C   UNL A   1      43.229  25.173  25.542  1.00  0.00     0.006 A 
ENDBRANCH  44  65
BRANCH  56  73
ATOM     73  C   UNL A   1      44.746  27.932  34.347  1.00  0.00     0.057 A 
ATOM     74  C   UNL A   1      45.949  28.645  34.254  1.00  0.00     0.134 A 
ATOM     75  C   UNL A   1      44.747  26.746  35.091  1.00  0.00     0.134 A 
ATOM     76  F   UNL A   1      46.016  29.777  33.536  1.00  0.00    -0.206 F 
ATOM     77  C   UNL A   1      47.126  28.157  34.819  1.00  0.00     0.040 A 
ATOM     78  C   UNL A   1      45.907  26.270  35.696  1.00  0.00     0.040 A 
ATOM     79  F   UNL A   1      43.624  26.023  35.224  1.00  0.00    -0.206 F 
ATOM     80  C   UNL A   1      47.106  26.965  35.543  1.00  0.00     0.006 A 
ENDBRANCH  56  73
ENDBRANCH  30  31
ENDBRANCH  23  25
ENDBRANCH  22  23
ENDBRANCH  21  22
ENDBRANCH   1  21
TORSDOF 16
ENDMDL
