MODEL 1
REMARK VINA RESULT:     -12.8      0.000      0.000
REMARK SMILES C[C@H](C(=O)Nc1ccc(C(F)(F)F)cc1)n1nc(C(=O)OCCOC(=O)c2ccc(-c3c4nc(c(-c5c(F)cccc5F)c5ccc([nH]5)c(-c5c(F)cccc5F)c5nc(c(-c6c(F)cccc6F)c6ccc3[nH]6)C=C5)C=C4)cc2)c2ccccc2c1=O
REMARK SMILES IDX 22 1 21 2 19 3 20 4 18 5 16 6 17 7 87 8 86 9 88 10 81 11
REMARK SMILES IDX 85 12 82 13 84 14 83 15 2 16 1 17 3 18 4 19 5 20 6 22 7 23
REMARK SMILES IDX 15 24 8 25 14 26 9 27 10 28 11 29 12 30 13 31 23 32 24 33
REMARK SMILES IDX 25 34 26 35 27 36 28 37 80 38 29 39 79 40 30 41 31 42 32 43
REMARK SMILES IDX 73 44 33 45 78 46 72 47 74 48 34 49 77 50 71 51 70 52 35 54
REMARK SMILES IDX 61 55 44 56 60 57 45 58 48 59 59 60 75 61 46 62 47 63 58 65
REMARK SMILES IDX 76 66 49 67 36 68 37 69 42 70 38 71 39 72 41 73 43 74 40 75
REMARK SMILES IDX 62 76 63 77 68 78 64 79 65 80 67 81 69 82 66 83 50 84 51 85
REMARK SMILES IDX 56 86 52 87 53 88 55 89 57 90 54 91
REMARK H PARENT 5 21 74 53 48 64
REMARK Flexibility Score: inf
ROOT
ATOM      1  C   UNL A   1      37.708  19.759  24.648  1.00  0.00     0.275 C 
ENDROOT
BRANCH   1   2
ATOM      2  O   UNL A   1      36.965  20.699  25.449  1.00  0.00    -0.457 OA
BRANCH   2   3
ATOM      3  C   UNL A   1      36.311  21.603  24.708  1.00  0.00     0.359 C 
ATOM      4  O   UNL A   1      36.805  22.395  23.917  1.00  0.00    -0.244 OA
BRANCH   3   5
ATOM      5  C   UNL A   1      34.857  21.801  25.074  1.00  0.00     0.176 A 
ATOM      6  N   UNL A   1      33.248  23.408  24.926  1.00  0.00    -0.216 N 
ATOM      7  N   UNL A   1      34.494  22.999  25.421  1.00  0.00    -0.161 NA
ATOM      8  C   UNL A   1      32.832  22.844  23.695  1.00  0.00     0.275 A 
ATOM      9  C   UNL A   1      33.001  21.372  23.650  1.00  0.00     0.051 A 
ATOM     10  O   UNL A   1      32.264  23.433  22.785  1.00  0.00    -0.267 OA
ATOM     11  C   UNL A   1      33.903  20.824  24.548  1.00  0.00     0.022 A 
ATOM     12  C   UNL A   1      32.194  20.541  22.876  1.00  0.00     0.014 A 
ATOM     13  C   UNL A   1      33.907  19.462  24.829  1.00  0.00     0.011 A 
ATOM     14  C   UNL A   1      32.219  19.164  23.111  1.00  0.00     0.001 A 
ATOM     15  C   UNL A   1      33.033  18.634  24.120  1.00  0.00     0.001 A 
BRANCH   6  16
ATOM     16  C   UNL A   1      32.859  24.782  25.273  1.00  0.00     0.197 C 
ATOM     17  C   UNL A   1      34.064  25.619  25.735  1.00  0.00     0.044 C 
BRANCH  16  18
ATOM     18  C   UNL A   1      31.699  24.982  26.278  1.00  0.00     0.249 C 
ATOM     19  O   UNL A   1      31.519  24.127  27.160  1.00  0.00    -0.272 OA
ATOM     20  N   UNL A   1      30.827  26.033  26.266  1.00  0.00    -0.324 N 
ATOM     21  H   UNL A   1      30.318  26.138  27.102  1.00  0.00     0.170 HD
BRANCH  20  22
ATOM     22  C   UNL A   1      30.521  26.987  25.292  1.00  0.00     0.041 A 
ATOM     23  C   UNL A   1      29.571  26.645  24.326  1.00  0.00     0.027 A 
ATOM     24  C   UNL A   1      31.141  28.232  25.231  1.00  0.00     0.027 A 
ATOM     25  C   UNL A   1      29.173  27.579  23.365  1.00  0.00     0.015 A 
ATOM     26  C   UNL A   1      30.764  29.159  24.255  1.00  0.00     0.015 A 
ATOM     27  C   UNL A   1      29.751  28.855  23.333  1.00  0.00     0.056 A 
BRANCH  27  28
ATOM     28  C   UNL A   1      29.307  29.873  22.311  1.00  0.00     0.416 C 
ATOM     29  F   UNL A   1      29.128  31.108  22.852  1.00  0.00    -0.166 F 
ATOM     30  F   UNL A   1      30.203  30.032  21.297  1.00  0.00    -0.166 F 
ATOM     31  F   UNL A   1      28.125  29.549  21.712  1.00  0.00    -0.166 F 
ENDBRANCH  27  28
ENDBRANCH  20  22
ENDBRANCH  16  18
ENDBRANCH   6  16
ENDBRANCH   3   5
ENDBRANCH   2   3
ENDBRANCH   1   2
BRANCH   1  32
ATOM     32  C   UNL A   1      38.897  19.153  25.394  1.00  0.00     0.275 C 
BRANCH  32  33
ATOM     33  O   UNL A   1      39.681  20.154  26.074  1.00  0.00    -0.458 OA
BRANCH  33  34
ATOM     34  C   UNL A   1      41.010  19.921  26.102  1.00  0.00     0.338 C 
ATOM     35  O   UNL A   1      41.589  18.901  25.738  1.00  0.00    -0.246 OA
BRANCH  34  36
ATOM     36  C   UNL A   1      41.756  21.087  26.601  1.00  0.00     0.060 A 
ATOM     37  C   UNL A   1      42.055  21.198  27.955  1.00  0.00     0.016 A 
ATOM     38  C   UNL A   1      41.974  22.175  25.756  1.00  0.00     0.016 A 
ATOM     39  C   UNL A   1      42.438  22.429  28.483  1.00  0.00     0.010 A 
ATOM     40  C   UNL A   1      42.474  23.377  26.277  1.00  0.00     0.010 A 
ATOM     41  C   UNL A   1      42.660  23.542  27.661  1.00  0.00    -0.014 A 
BRANCH  41  42
ATOM     42  C   UNL A   1      43.015  24.873  28.250  1.00  0.00     0.031 A 
ATOM     43  C   UNL A   1      41.938  25.874  28.596  1.00  0.00     0.074 A 
ATOM     44  C   UNL A   1      44.297  25.198  28.524  1.00  0.00     0.049 A 
ATOM     45  N   UNL A   1      42.051  27.149  28.876  1.00  0.00    -0.248 NA
ATOM     46  C   UNL A   1      40.550  25.385  28.612  1.00  0.00     0.031 C 
ATOM     47  C   UNL A   1      45.462  24.337  28.317  1.00  0.00     0.029 A 
ATOM     48  N   UNL A   1      44.832  26.343  29.066  1.00  0.00    -0.354 N 
ATOM     49  C   UNL A   1      40.754  27.634  28.994  1.00  0.00     0.074 A 
ATOM     50  C   UNL A   1      39.867  26.508  28.790  1.00  0.00     0.031 C 
ATOM     51  C   UNL A   1      46.553  24.942  28.806  1.00  0.00     0.029 A 
ATOM     52  C   UNL A   1      46.194  26.284  29.244  1.00  0.00     0.049 A 
ATOM     53  H   UNL A   1      44.291  27.129  29.304  1.00  0.00     0.167 HD
ATOM     54  C   UNL A   1      40.341  28.901  29.234  1.00  0.00     0.037 A 
ATOM     55  C   UNL A   1      47.071  27.216  29.658  1.00  0.00     0.037 A 
ATOM     56  C   UNL A   1      41.217  30.001  29.547  1.00  0.00     0.049 A 
ATOM     57  C   UNL A   1      46.597  28.611  29.933  1.00  0.00     0.074 A 
ATOM     58  C   UNL A   1      40.886  31.316  29.832  1.00  0.00     0.029 A 
ATOM     59  N   UNL A   1      42.595  29.907  29.657  1.00  0.00    -0.354 N 
ATOM     60  N   UNL A   1      45.377  29.089  29.902  1.00  0.00    -0.248 NA
ATOM     61  C   UNL A   1      47.629  29.608  30.250  1.00  0.00     0.031 C 
ATOM     62  C   UNL A   1      42.066  32.021  30.094  1.00  0.00     0.029 A 
ATOM     63  C   UNL A   1      43.128  31.138  30.002  1.00  0.00     0.049 A 
ATOM     64  H   UNL A   1      43.117  29.086  29.512  1.00  0.00     0.167 HD
ATOM     65  C   UNL A   1      45.497  30.444  30.176  1.00  0.00     0.074 A 
ATOM     66  C   UNL A   1      46.902  30.706  30.408  1.00  0.00     0.031 C 
ATOM     67  C   UNL A   1      44.529  31.391  30.211  1.00  0.00     0.037 A 
BRANCH  54  68
ATOM     68  C   UNL A   1      38.873  29.189  29.119  1.00  0.00     0.057 A 
ATOM     69  C   UNL A   1      38.007  29.147  30.216  1.00  0.00     0.134 A 
ATOM     70  C   UNL A   1      38.330  29.562  27.880  1.00  0.00     0.134 A 
ATOM     71  F   UNL A   1      38.461  28.783  31.426  1.00  0.00    -0.206 F 
ATOM     72  C   UNL A   1      36.650  29.449  30.085  1.00  0.00     0.040 A 
ATOM     73  C   UNL A   1      36.981  29.888  27.741  1.00  0.00     0.040 A 
ATOM     74  F   UNL A   1      39.108  29.628  26.789  1.00  0.00    -0.206 F 
ATOM     75  C   UNL A   1      36.136  29.829  28.846  1.00  0.00     0.006 A 
ENDBRANCH  54  68
BRANCH  55  76
ATOM     76  C   UNL A   1      48.510  26.871  29.779  1.00  0.00     0.057 A 
ATOM     77  C   UNL A   1      49.392  27.100  28.718  1.00  0.00     0.134 A 
ATOM     78  C   UNL A   1      49.037  26.325  30.955  1.00  0.00     0.134 A 
ATOM     79  F   UNL A   1      48.938  27.596  27.557  1.00  0.00    -0.206 F 
ATOM     80  C   UNL A   1      50.751  26.803  28.823  1.00  0.00     0.040 A 
ATOM     81  C   UNL A   1      50.398  26.047  31.083  1.00  0.00     0.040 A 
ATOM     82  F   UNL A   1      48.240  26.081  32.006  1.00  0.00    -0.206 F 
ATOM     83  C   UNL A   1      51.259  26.284  30.014  1.00  0.00     0.006 A 
ENDBRANCH  55  76
BRANCH  67  84
ATOM     84  C   UNL A   1      44.966  32.792  30.507  1.00  0.00     0.057 A 
ATOM     85  C   UNL A   1      45.072  33.260  31.823  1.00  0.00     0.134 A 
ATOM     86  C   UNL A   1      45.282  33.681  29.473  1.00  0.00     0.134 A 
ATOM     87  F   UNL A   1      44.767  32.460  32.856  1.00  0.00    -0.206 F 
ATOM     88  C   UNL A   1      45.458  34.572  32.100  1.00  0.00     0.040 A 
ATOM     89  C   UNL A   1      45.686  34.990  29.739  1.00  0.00     0.040 A 
ATOM     90  F   UNL A   1      45.202  33.292  28.193  1.00  0.00    -0.206 F 
ATOM     91  C   UNL A   1      45.769  35.440  31.055  1.00  0.00     0.006 A 
ENDBRANCH  67  84
ENDBRANCH  41  42
ENDBRANCH  34  36
ENDBRANCH  33  34
ENDBRANCH  32  33
ENDBRANCH   1  32
TORSDOF 15
ENDMDL
MODEL 2
REMARK VINA RESULT:     -12.7      0.626      5.995
REMARK SMILES C[C@H](C(=O)Nc1ccc(C(F)(F)F)cc1)n1nc(C(=O)OCCOC(=O)c2ccc(-c3c4nc(c(-c5c(F)cccc5F)c5ccc([nH]5)c(-c5c(F)cccc5F)c5nc(c(-c6c(F)cccc6F)c6ccc3[nH]6)C=C5)C=C4)cc2)c2ccccc2c1=O
REMARK SMILES IDX 22 1 21 2 19 3 20 4 18 5 16 6 17 7 87 8 86 9 88 10 81 11
REMARK SMILES IDX 85 12 82 13 84 14 83 15 2 16 1 17 3 18 4 19 5 20 6 22 7 23
REMARK SMILES IDX 15 24 8 25 14 26 9 27 10 28 11 29 12 30 13 31 23 32 24 33
REMARK SMILES IDX 25 34 26 35 27 36 28 37 80 38 29 39 79 40 30 41 31 42 32 43
REMARK SMILES IDX 73 44 33 45 78 46 72 47 74 48 34 49 77 50 71 51 70 52 35 54
REMARK SMILES IDX 61 55 44 56 60 57 45 58 48 59 59 60 75 61 46 62 47 63 58 65
REMARK SMILES IDX 76 66 49 67 36 68 37 69 42 70 38 71 39 72 41 73 43 74 40 75
REMARK SMILES IDX 62 76 63 77 68 78 64 79 65 80 67 81 69 82 66 83 50 84 51 85
REMARK SMILES IDX 56 86 52 87 53 88 55 89 57 90 54 91
REMARK H PARENT 5 21 74 53 48 64
REMARK Flexibility Score: inf
ROOT
ATOM      1  C   UNL A   1      38.387  21.268  25.644  1.00  0.00     0.275 C 
ENDROOT
BRANCH   1   2
ATOM      2  O   UNL A   1      36.983  20.946  25.698  1.00  0.00    -0.457 OA
BRANCH   2   3
ATOM      3  C   UNL A   1      36.272  21.586  24.761  1.00  0.00     0.359 C 
ATOM      4  O   UNL A   1      36.711  22.168  23.779  1.00  0.00    -0.244 OA
BRANCH   3   5
ATOM      5  C   UNL A   1      34.810  21.791  25.095  1.00  0.00     0.176 A 
ATOM      6  N   UNL A   1      33.216  23.411  24.919  1.00  0.00    -0.216 N 
ATOM      7  N   UNL A   1      34.448  22.990  25.440  1.00  0.00    -0.161 NA
ATOM      8  C   UNL A   1      32.825  22.856  23.677  1.00  0.00     0.275 A 
ATOM      9  C   UNL A   1      32.985  21.384  23.626  1.00  0.00     0.051 A 
ATOM     10  O   UNL A   1      32.282  23.454  22.757  1.00  0.00    -0.267 OA
ATOM     11  C   UNL A   1      33.862  20.824  24.541  1.00  0.00     0.022 A 
ATOM     12  C   UNL A   1      32.191  20.563  22.828  1.00  0.00     0.014 A 
ATOM     13  C   UNL A   1      33.851  19.461  24.814  1.00  0.00     0.011 A 
ATOM     14  C   UNL A   1      32.201  19.185  23.055  1.00  0.00     0.001 A 
ATOM     15  C   UNL A   1      32.987  18.643  24.079  1.00  0.00     0.001 A 
BRANCH   6  16
ATOM     16  C   UNL A   1      32.829  24.785  25.266  1.00  0.00     0.197 C 
ATOM     17  C   UNL A   1      34.032  25.618  25.738  1.00  0.00     0.044 C 
BRANCH  16  18
ATOM     18  C   UNL A   1      31.662  24.986  26.264  1.00  0.00     0.249 C 
ATOM     19  O   UNL A   1      31.479  24.135  27.148  1.00  0.00    -0.272 OA
ATOM     20  N   UNL A   1      30.789  26.035  26.242  1.00  0.00    -0.324 N 
ATOM     21  H   UNL A   1      30.275  26.143  27.075  1.00  0.00     0.170 HD
BRANCH  20  22
ATOM     22  C   UNL A   1      30.487  26.985  25.263  1.00  0.00     0.041 A 
ATOM     23  C   UNL A   1      29.515  26.652  24.315  1.00  0.00     0.027 A 
ATOM     24  C   UNL A   1      31.130  28.216  25.179  1.00  0.00     0.027 A 
ATOM     25  C   UNL A   1      29.121  27.583  23.351  1.00  0.00     0.015 A 
ATOM     26  C   UNL A   1      30.756  29.141  24.199  1.00  0.00     0.015 A 
ATOM     27  C   UNL A   1      29.723  28.848  23.296  1.00  0.00     0.056 A 
BRANCH  27  28
ATOM     28  C   UNL A   1      29.283  29.863  22.270  1.00  0.00     0.416 C 
ATOM     29  F   UNL A   1      29.068  31.091  22.814  1.00  0.00    -0.166 F 
ATOM     30  F   UNL A   1      30.199  30.045  21.278  1.00  0.00    -0.166 F 
ATOM     31  F   UNL A   1      28.122  29.520  21.641  1.00  0.00    -0.166 F 
ENDBRANCH  27  28
ENDBRANCH  20  22
ENDBRANCH  16  18
ENDBRANCH   6  16
ENDBRANCH   3   5
ENDBRANCH   2   3
ENDBRANCH   1   2
BRANCH   1  32
ATOM     32  C   UNL A   1      39.256  20.072  25.256  1.00  0.00     0.275 C 
BRANCH  32  33
ATOM     33  O   UNL A   1      40.042  19.587  26.364  1.00  0.00    -0.458 OA
BRANCH  33  34
ATOM     34  C   UNL A   1      41.375  19.566  26.156  1.00  0.00     0.338 C 
ATOM     35  O   UNL A   1      42.022  18.682  25.600  1.00  0.00    -0.246 OA
BRANCH  34  36
ATOM     36  C   UNL A   1      42.022  20.792  26.648  1.00  0.00     0.060 A 
ATOM     37  C   UNL A   1      42.036  21.075  28.011  1.00  0.00     0.016 A 
ATOM     38  C   UNL A   1      42.428  21.767  25.738  1.00  0.00     0.016 A 
ATOM     39  C   UNL A   1      42.323  22.367  28.448  1.00  0.00     0.010 A 
ATOM     40  C   UNL A   1      42.831  23.029  26.197  1.00  0.00     0.010 A 
ATOM     41  C   UNL A   1      42.729  23.370  27.557  1.00  0.00    -0.014 A 
BRANCH  41  42
ATOM     42  C   UNL A   1      42.978  24.767  28.036  1.00  0.00     0.031 A 
ATOM     43  C   UNL A   1      44.387  25.264  28.260  1.00  0.00     0.074 A 
ATOM     44  C   UNL A   1      41.960  25.628  28.242  1.00  0.00     0.049 A 
ATOM     45  N   UNL A   1      44.796  26.335  28.896  1.00  0.00    -0.248 NA
ATOM     46  C   UNL A   1      45.481  24.444  27.715  1.00  0.00     0.031 C 
ATOM     47  C   UNL A   1      40.541  25.347  28.019  1.00  0.00     0.029 A 
ATOM     48  N   UNL A   1      41.968  26.938  28.664  1.00  0.00    -0.354 N 
ATOM     49  C   UNL A   1      46.184  26.260  28.920  1.00  0.00     0.074 A 
ATOM     50  C   UNL A   1      46.551  25.057  28.204  1.00  0.00     0.031 C 
ATOM     51  C   UNL A   1      39.830  26.466  28.216  1.00  0.00     0.029 A 
ATOM     52  C   UNL A   1      40.720  27.511  28.705  1.00  0.00     0.049 A 
ATOM     53  H   UNL A   1      42.790  27.418  28.912  1.00  0.00     0.167 HD
ATOM     54  C   UNL A   1      47.068  27.108  29.499  1.00  0.00     0.037 A 
ATOM     55  C   UNL A   1      40.316  28.720  29.136  1.00  0.00     0.037 A 
ATOM     56  C   UNL A   1      46.716  28.361  30.115  1.00  0.00     0.049 A 
ATOM     57  C   UNL A   1      41.310  29.653  29.763  1.00  0.00     0.074 A 
ATOM     58  C   UNL A   1      47.549  29.299  30.704  1.00  0.00     0.029 A 
ATOM     59  N   UNL A   1      45.431  28.873  30.186  1.00  0.00    -0.354 N 
ATOM     60  N   UNL A   1      42.603  29.504  29.906  1.00  0.00    -0.248 NA
ATOM     61  C   UNL A   1      40.776  30.897  30.333  1.00  0.00     0.031 C 
ATOM     62  C   UNL A   1      46.764  30.368  31.149  1.00  0.00     0.029 A 
ATOM     63  C   UNL A   1      45.447  30.109  30.811  1.00  0.00     0.049 A 
ATOM     64  H   UNL A   1      44.625  28.424  29.843  1.00  0.00     0.167 HD
ATOM     65  C   UNL A   1      43.035  30.626  30.599  1.00  0.00     0.074 A 
ATOM     66  C   UNL A   1      41.875  31.464  30.814  1.00  0.00     0.031 C 
ATOM     67  C   UNL A   1      44.283  30.925  31.036  1.00  0.00     0.037 A 
BRANCH  54  68
ATOM     68  C   UNL A   1      48.508  26.688  29.543  1.00  0.00     0.057 A 
ATOM     69  C   UNL A   1      49.442  27.093  28.584  1.00  0.00     0.134 A 
ATOM     70  C   UNL A   1      48.971  25.895  30.603  1.00  0.00     0.134 A 
ATOM     71  F   UNL A   1      49.060  27.840  27.537  1.00  0.00    -0.206 F 
ATOM     72  C   UNL A   1      50.783  26.712  28.667  1.00  0.00     0.040 A 
ATOM     73  C   UNL A   1      50.313  25.527  30.710  1.00  0.00     0.040 A 
ATOM     74  F   UNL A   1      48.128  25.478  31.560  1.00  0.00    -0.206 F 
ATOM     75  C   UNL A   1      51.223  25.932  29.737  1.00  0.00     0.006 A 
ENDBRANCH  54  68
BRANCH  55  76
ATOM     76  C   UNL A   1      38.884  29.095  29.046  1.00  0.00     0.057 A 
ATOM     77  C   UNL A   1      38.341  29.564  27.845  1.00  0.00     0.134 A 
ATOM     78  C   UNL A   1      38.023  28.977  30.144  1.00  0.00     0.134 A 
ATOM     79  F   UNL A   1      39.123  29.724  26.767  1.00  0.00    -0.206 F 
ATOM     80  C   UNL A   1      36.990  29.898  27.737  1.00  0.00     0.040 A 
ATOM     81  C   UNL A   1      36.667  29.282  30.043  1.00  0.00     0.040 A 
ATOM     82  F   UNL A   1      38.487  28.534  31.322  1.00  0.00    -0.206 F 
ATOM     83  C   UNL A   1      36.147  29.747  28.837  1.00  0.00     0.006 A 
ENDBRANCH  55  76
BRANCH  67  84
ATOM     84  C   UNL A   1      44.444  32.207  31.792  1.00  0.00     0.057 A 
ATOM     85  C   UNL A   1      44.708  33.414  31.132  1.00  0.00     0.134 A 
ATOM     86  C   UNL A   1      44.337  32.238  33.187  1.00  0.00     0.134 A 
ATOM     87  F   UNL A   1      44.839  33.445  29.797  1.00  0.00    -0.206 F 
ATOM     88  C   UNL A   1      44.880  34.607  31.837  1.00  0.00     0.040 A 
ATOM     89  C   UNL A   1      44.489  33.428  33.901  1.00  0.00     0.040 A 
ATOM     90  F   UNL A   1      44.083  31.117  33.876  1.00  0.00    -0.206 F 
ATOM     91  C   UNL A   1      44.768  34.615  33.226  1.00  0.00     0.006 A 
ENDBRANCH  67  84
ENDBRANCH  41  42
ENDBRANCH  34  36
ENDBRANCH  33  34
ENDBRANCH  32  33
ENDBRANCH   1  32
TORSDOF 15
ENDMDL
MODEL 3
REMARK VINA RESULT:     -12.6      3.783      7.459
REMARK SMILES C[C@H](C(=O)Nc1ccc(C(F)(F)F)cc1)n1nc(C(=O)OCCOC(=O)c2ccc(-c3c4nc(c(-c5c(F)cccc5F)c5ccc([nH]5)c(-c5c(F)cccc5F)c5nc(c(-c6c(F)cccc6F)c6ccc3[nH]6)C=C5)C=C4)cc2)c2ccccc2c1=O
REMARK SMILES IDX 22 1 21 2 19 3 20 4 18 5 16 6 17 7 87 8 86 9 88 10 81 11
REMARK SMILES IDX 85 12 82 13 84 14 83 15 2 16 1 17 3 18 4 19 5 20 6 22 7 23
REMARK SMILES IDX 15 24 8 25 14 26 9 27 10 28 11 29 12 30 13 31 23 32 24 33
REMARK SMILES IDX 25 34 26 35 27 36 28 37 80 38 29 39 79 40 30 41 31 42 32 43
REMARK SMILES IDX 73 44 33 45 78 46 72 47 74 48 34 49 77 50 71 51 70 52 35 54
REMARK SMILES IDX 61 55 44 56 60 57 45 58 48 59 59 60 75 61 46 62 47 63 58 65
REMARK SMILES IDX 76 66 49 67 36 68 37 69 42 70 38 71 39 72 41 73 43 74 40 75
REMARK SMILES IDX 62 76 63 77 68 78 64 79 65 80 67 81 69 82 66 83 50 84 51 85
REMARK SMILES IDX 56 86 52 87 53 88 55 89 57 90 54 91
REMARK H PARENT 5 21 74 53 48 64
REMARK Flexibility Score: inf
ROOT
ATOM      1  C   UNL A   1      38.676  21.005  25.320  1.00  0.00     0.275 C 
ENDROOT
BRANCH   1   2
ATOM      2  O   UNL A   1      37.274  20.713  25.487  1.00  0.00    -0.457 OA
BRANCH   2   3
ATOM      3  C   UNL A   1      36.498  21.434  24.667  1.00  0.00     0.359 C 
ATOM      4  O   UNL A   1      36.866  22.110  23.717  1.00  0.00    -0.244 OA
BRANCH   3   5
ATOM      5  C   UNL A   1      35.063  21.596  25.121  1.00  0.00     0.176 A 
ATOM      6  N   UNL A   1      33.399  23.151  25.045  1.00  0.00    -0.216 N 
ATOM      7  N   UNL A   1      34.686  22.790  25.467  1.00  0.00    -0.161 NA
ATOM      8  C   UNL A   1      32.925  22.548  23.854  1.00  0.00     0.275 A 
ATOM      9  C   UNL A   1      33.136  21.082  23.827  1.00  0.00     0.051 A 
ATOM     10  O   UNL A   1      32.282  23.101  22.971  1.00  0.00    -0.267 OA
ATOM     11  C   UNL A   1      34.109  20.580  24.676  1.00  0.00     0.022 A 
ATOM     12  C   UNL A   1      32.308  20.211  23.122  1.00  0.00     0.014 A 
ATOM     13  C   UNL A   1      34.174  19.225  24.982  1.00  0.00     0.011 A 
ATOM     14  C   UNL A   1      32.391  18.841  23.380  1.00  0.00     0.001 A 
ATOM     15  C   UNL A   1      33.283  18.357  24.346  1.00  0.00     0.001 A 
BRANCH   6  16
ATOM     16  C   UNL A   1      32.991  24.520  25.390  1.00  0.00     0.197 C 
ATOM     17  C   UNL A   1      34.177  25.364  25.883  1.00  0.00     0.044 C 
BRANCH  16  18
ATOM     18  C   UNL A   1      31.806  24.704  26.369  1.00  0.00     0.249 C 
ATOM     19  O   UNL A   1      31.601  23.834  27.229  1.00  0.00    -0.272 OA
ATOM     20  N   UNL A   1      30.938  25.758  26.355  1.00  0.00    -0.324 N 
ATOM     21  H   UNL A   1      30.409  25.850  27.180  1.00  0.00     0.170 HD
BRANCH  20  22
ATOM     22  C   UNL A   1      30.660  26.732  25.393  1.00  0.00     0.041 A 
ATOM     23  C   UNL A   1      29.619  26.477  24.495  1.00  0.00     0.027 A 
ATOM     24  C   UNL A   1      31.389  27.912  25.276  1.00  0.00     0.027 A 
ATOM     25  C   UNL A   1      29.248  27.439  23.552  1.00  0.00     0.015 A 
ATOM     26  C   UNL A   1      31.037  28.866  24.317  1.00  0.00     0.015 A 
ATOM     27  C   UNL A   1      29.941  28.655  23.467  1.00  0.00     0.056 A 
BRANCH  27  28
ATOM     28  C   UNL A   1      29.528  29.705  22.465  1.00  0.00     0.416 C 
ATOM     29  F   UNL A   1      28.509  29.287  21.666  1.00  0.00    -0.166 F 
ATOM     30  F   UNL A   1      29.099  30.857  23.051  1.00  0.00    -0.166 F 
ATOM     31  F   UNL A   1      30.539  30.071  21.626  1.00  0.00    -0.166 F 
ENDBRANCH  27  28
ENDBRANCH  20  22
ENDBRANCH  16  18
ENDBRANCH   6  16
ENDBRANCH   3   5
ENDBRANCH   2   3
ENDBRANCH   1   2
BRANCH   1  32
ATOM     32  C   UNL A   1      39.266  21.775  26.502  1.00  0.00     0.275 C 
BRANCH  32  33
ATOM     33  O   UNL A   1      39.748  23.078  26.116  1.00  0.00    -0.458 OA
BRANCH  33  34
ATOM     34  C   UNL A   1      38.872  24.089  26.293  1.00  0.00     0.338 C 
ATOM     35  O   UNL A   1      37.788  24.234  25.733  1.00  0.00    -0.246 OA
BRANCH  34  36
ATOM     36  C   UNL A   1      39.340  25.044  27.310  1.00  0.00     0.060 A 
ATOM     37  C   UNL A   1      38.903  24.933  28.626  1.00  0.00     0.016 A 
ATOM     38  C   UNL A   1      40.047  26.179  26.912  1.00  0.00     0.016 A 
ATOM     39  C   UNL A   1      39.052  26.008  29.500  1.00  0.00     0.010 A 
ATOM     40  C   UNL A   1      40.298  27.206  27.833  1.00  0.00     0.010 A 
ATOM     41  C   UNL A   1      39.753  27.163  29.129  1.00  0.00    -0.014 A 
BRANCH  41  42
ATOM     42  C   UNL A   1      39.855  28.332  30.060  1.00  0.00     0.031 A 
ATOM     43  C   UNL A   1      40.994  28.431  31.049  1.00  0.00     0.074 A 
ATOM     44  C   UNL A   1      38.961  29.342  30.016  1.00  0.00     0.049 A 
ATOM     45  N   UNL A   1      41.121  29.220  32.088  1.00  0.00    -0.248 NA
ATOM     46  C   UNL A   1      42.129  27.514  30.857  1.00  0.00     0.031 C 
ATOM     47  C   UNL A   1      37.834  29.449  29.088  1.00  0.00     0.029 A 
ATOM     48  N   UNL A   1      38.878  30.495  30.762  1.00  0.00    -0.354 N 
ATOM     49  C   UNL A   1      42.289  28.823  32.730  1.00  0.00     0.074 A 
ATOM     50  C   UNL A   1      42.853  27.746  31.944  1.00  0.00     0.031 C 
ATOM     51  C   UNL A   1      37.232  30.635  29.257  1.00  0.00     0.029 A 
ATOM     52  C   UNL A   1      37.843  31.319  30.389  1.00  0.00     0.049 A 
ATOM     53  H   UNL A   1      39.500  30.708  31.494  1.00  0.00     0.167 HD
ATOM     54  C   UNL A   1      42.831  29.301  33.876  1.00  0.00     0.037 A 
ATOM     55  C   UNL A   1      37.394  32.470  30.922  1.00  0.00     0.037 A 
ATOM     56  C   UNL A   1      42.335  30.444  34.600  1.00  0.00     0.049 A 
ATOM     57  C   UNL A   1      38.013  32.994  32.183  1.00  0.00     0.074 A 
ATOM     58  C   UNL A   1      42.836  31.018  35.757  1.00  0.00     0.029 A 
ATOM     59  N   UNL A   1      41.248  31.211  34.215  1.00  0.00    -0.354 N 
ATOM     60  N   UNL A   1      39.032  32.524  32.859  1.00  0.00    -0.248 NA
ATOM     61  C   UNL A   1      37.384  34.179  32.782  1.00  0.00     0.031 C 
ATOM     62  C   UNL A   1      42.040  32.121  36.083  1.00  0.00     0.029 A 
ATOM     63  C   UNL A   1      41.061  32.251  35.113  1.00  0.00     0.049 A 
ATOM     64  H   UNL A   1      40.691  31.043  33.422  1.00  0.00     0.167 HD
ATOM     65  C   UNL A   1      39.155  33.344  33.972  1.00  0.00     0.074 A 
ATOM     66  C   UNL A   1      38.132  34.362  33.862  1.00  0.00     0.031 C 
ATOM     67  C   UNL A   1      40.028  33.246  35.003  1.00  0.00     0.037 A 
BRANCH  54  68
ATOM     68  C   UNL A   1      43.999  28.561  34.455  1.00  0.00     0.057 A 
ATOM     69  C   UNL A   1      43.850  27.459  35.303  1.00  0.00     0.134 A 
ATOM     70  C   UNL A   1      45.305  28.940  34.110  1.00  0.00     0.134 A 
ATOM     71  F   UNL A   1      42.628  27.055  35.683  1.00  0.00    -0.206 F 
ATOM     72  C   UNL A   1      44.957  26.769  35.803  1.00  0.00     0.040 A 
ATOM     73  C   UNL A   1      46.418  28.245  34.585  1.00  0.00     0.040 A 
ATOM     74  F   UNL A   1      45.518  29.984  33.295  1.00  0.00    -0.206 F 
ATOM     75  C   UNL A   1      46.245  27.158  35.438  1.00  0.00     0.006 A 
ENDBRANCH  54  68
BRANCH  55  76
ATOM     76  C   UNL A   1      36.250  33.175  30.294  1.00  0.00     0.057 A 
ATOM     77  C   UNL A   1      36.434  33.963  29.153  1.00  0.00     0.134 A 
ATOM     78  C   UNL A   1      34.950  33.066  30.803  1.00  0.00     0.134 A 
ATOM     79  F   UNL A   1      37.662  34.128  28.636  1.00  0.00    -0.206 F 
ATOM     80  C   UNL A   1      35.365  34.615  28.537  1.00  0.00     0.040 A 
ATOM     81  C   UNL A   1      33.869  33.690  30.182  1.00  0.00     0.040 A 
ATOM     82  F   UNL A   1      34.712  32.326  31.896  1.00  0.00    -0.206 F 
ATOM     83  C   UNL A   1      34.075  34.470  29.046  1.00  0.00     0.006 A 
ENDBRANCH  55  76
BRANCH  67  84
ATOM     84  C   UNL A   1      39.903  34.268  36.091  1.00  0.00     0.057 A 
ATOM     85  C   UNL A   1      39.117  34.032  37.226  1.00  0.00     0.134 A 
ATOM     86  C   UNL A   1      40.570  35.495  36.006  1.00  0.00     0.134 A 
ATOM     87  F   UNL A   1      38.440  32.881  37.357  1.00  0.00    -0.206 F 
ATOM     88  C   UNL A   1      38.982  34.991  38.231  1.00  0.00     0.040 A 
ATOM     89  C   UNL A   1      40.457  36.455  37.013  1.00  0.00     0.040 A 
ATOM     90  F   UNL A   1      41.340  35.780  34.946  1.00  0.00    -0.206 F 
ATOM     91  C   UNL A   1      39.656  36.206  38.126  1.00  0.00     0.006 A 
ENDBRANCH  67  84
ENDBRANCH  41  42
ENDBRANCH  34  36
ENDBRANCH  33  34
ENDBRANCH  32  33
ENDBRANCH   1  32
TORSDOF 15
ENDMDL
