MODEL 1
REMARK VINA RESULT:     -11.1      0.000      0.000
REMARK SMILES CC[C@@]1(C)C[C@@H]([NH2+]C[C@H]2CC[C@@H](C(=O)OCCOC(=O)c3ccc(-c4c5nc(c(-c6c(F)cccc6F)c6ccc([nH]6)c(-c6c(F)cccc6F)c6nc(c(-c7c(F)cccc7F)c7ccc4[nH]7)C=C6)C=C5)cc3)CC2)CCO1
REMARK SMILES IDX 16 1 15 2 13 3 14 4 12 5 9 6 10 7 76 8 11 9 75 10 8 11 7 12
REMARK SMILES IDX 6 15 3 16 4 17 5 18 79 19 78 20 77 21 2 22 1 23 17 24 18 25
REMARK SMILES IDX 19 26 20 27 21 28 22 29 74 30 23 31 73 32 24 33 25 34 26 35
REMARK SMILES IDX 67 36 27 37 72 38 66 39 68 40 28 41 71 42 65 43 64 44 29 46
REMARK SMILES IDX 55 47 38 48 54 49 39 50 42 51 53 52 69 53 40 54 41 55 52 57
REMARK SMILES IDX 70 58 43 59 30 60 31 61 36 62 32 63 33 64 35 65 37 66 34 67
REMARK SMILES IDX 56 68 57 69 62 70 58 71 59 72 61 73 63 74 60 75 44 76 45 77
REMARK SMILES IDX 50 78 46 79 47 80 49 81 51 82 48 83
REMARK H PARENT 7 13 7 14 68 45 42 56
REMARK Flexibility Score: inf
ROOT
ATOM      1  C   UNL A   1      33.692  34.465  29.226  1.00  0.00     0.274 C 
ENDROOT
BRANCH   1   2
ATOM      2  O   UNL A   1      33.990  33.421  28.282  1.00  0.00    -0.462 OA
BRANCH   2   3
ATOM      3  C   UNL A   1      32.910  32.853  27.694  1.00  0.00     0.309 C 
ATOM      4  O   UNL A   1      31.942  33.464  27.255  1.00  0.00    -0.252 OA
BRANCH   3   5
ATOM      5  C   UNL A   1      33.001  31.349  27.620  1.00  0.00     0.099 C 
ATOM      6  C   UNL A   1      33.426  28.523  26.980  1.00  0.00     0.044 C 
ATOM      7  C   UNL A   1      34.520  29.395  27.630  1.00  0.00     0.010 C 
ATOM      8  C   UNL A   1      32.027  29.167  26.945  1.00  0.00     0.010 C 
ATOM      9  C   UNL A   1      34.416  30.882  27.318  1.00  0.00     0.016 C 
ATOM     10  C   UNL A   1      32.033  30.662  26.660  1.00  0.00     0.016 C 
BRANCH   6  11
ATOM     11  C   UNL A   1      33.829  27.966  25.601  1.00  0.00     0.264 C 
BRANCH  11  12
ATOM     12  N   UNL A   1      34.020  26.513  25.576  1.00  0.00    -0.343 N 
ATOM     13  H   UNL A   1      34.852  26.315  25.019  1.00  0.00     0.346 HD
ATOM     14  H   UNL A   1      34.099  26.224  26.551  1.00  0.00     0.346 HD
BRANCH  12  15
ATOM     15  C   UNL A   1      32.903  25.737  25.015  1.00  0.00     0.187 C 
ATOM     16  C   UNL A   1      33.875  23.552  23.926  1.00  0.00     0.071 C 
ATOM     17  C   UNL A   1      33.530  22.052  23.874  1.00  0.00     0.042 C 
ATOM     18  C   UNL A   1      32.993  24.196  25.025  1.00  0.00     0.100 C 
ATOM     19  O   UNL A   1      33.455  24.095  22.656  1.00  0.00    -0.375 OA
ATOM     20  C   UNL A   1      33.544  25.518  22.564  1.00  0.00     0.167 C 
ATOM     21  C   UNL A   1      32.629  26.193  23.573  1.00  0.00     0.093 C 
BRANCH  16  22
ATOM     22  C   UNL A   1      35.413  23.733  24.045  1.00  0.00     0.032 C 
ATOM     23  C   UNL A   1      36.033  23.587  25.429  1.00  0.00     0.007 C 
ENDBRANCH  16  22
ENDBRANCH  12  15
ENDBRANCH  11  12
ENDBRANCH   6  11
ENDBRANCH   3   5
ENDBRANCH   2   3
ENDBRANCH   1   2
BRANCH   1  24
ATOM     24  C   UNL A   1      34.152  34.080  30.635  1.00  0.00     0.275 C 
BRANCH  24  25
ATOM     25  O   UNL A   1      34.415  32.668  30.751  1.00  0.00    -0.458 OA
BRANCH  25  26
ATOM     26  C   UNL A   1      35.246  32.311  31.757  1.00  0.00     0.338 C 
ATOM     27  O   UNL A   1      35.069  32.465  32.956  1.00  0.00    -0.246 OA
BRANCH  26  28
ATOM     28  C   UNL A   1      36.425  31.617  31.219  1.00  0.00     0.060 A 
ATOM     29  C   UNL A   1      37.336  31.043  32.112  1.00  0.00     0.016 A 
ATOM     30  C   UNL A   1      36.693  31.634  29.849  1.00  0.00     0.016 A 
ATOM     31  C   UNL A   1      38.521  30.478  31.638  1.00  0.00     0.010 A 
ATOM     32  C   UNL A   1      37.882  31.069  29.376  1.00  0.00     0.010 A 
ATOM     33  C   UNL A   1      38.808  30.497  30.266  1.00  0.00    -0.014 A 
BRANCH  33  34
ATOM     34  C   UNL A   1      40.097  29.965  29.758  1.00  0.00     0.031 A 
ATOM     35  C   UNL A   1      41.282  30.878  29.623  1.00  0.00     0.074 A 
ATOM     36  C   UNL A   1      40.204  28.671  29.404  1.00  0.00     0.049 A 
ATOM     37  N   UNL A   1      42.441  30.654  29.059  1.00  0.00    -0.248 NA
ATOM     38  C   UNL A   1      41.141  32.224  30.199  1.00  0.00     0.031 C 
ATOM     39  C   UNL A   1      39.146  27.670  29.533  1.00  0.00     0.029 A 
ATOM     40  N   UNL A   1      41.252  27.984  28.848  1.00  0.00    -0.354 N 
ATOM     41  C   UNL A   1      43.159  31.836  29.185  1.00  0.00     0.074 A 
ATOM     42  C   UNL A   1      42.302  32.778  29.876  1.00  0.00     0.031 C 
ATOM     43  C   UNL A   1      39.596  26.497  29.059  1.00  0.00     0.029 A 
ATOM     44  C   UNL A   1      40.953  26.677  28.548  1.00  0.00     0.049 A 
ATOM     45  H   UNL A   1      42.134  28.387  28.680  1.00  0.00     0.167 HD
ATOM     46  C   UNL A   1      44.416  32.110  28.763  1.00  0.00     0.037 A 
ATOM     47  C   UNL A   1      41.675  25.743  27.900  1.00  0.00     0.037 A 
ATOM     48  C   UNL A   1      45.274  31.168  28.092  1.00  0.00     0.049 A 
ATOM     49  C   UNL A   1      43.044  26.091  27.385  1.00  0.00     0.074 A 
ATOM     50  C   UNL A   1      46.568  31.352  27.634  1.00  0.00     0.029 A 
ATOM     51  N   UNL A   1      44.924  29.861  27.787  1.00  0.00    -0.354 N 
ATOM     52  N   UNL A   1      43.704  27.218  27.487  1.00  0.00    -0.248 NA
ATOM     53  C   UNL A   1      43.763  25.038  26.652  1.00  0.00     0.031 C 
ATOM     54  C   UNL A   1      46.988  30.166  27.022  1.00  0.00     0.029 A 
ATOM     55  C   UNL A   1      45.970  29.233  27.132  1.00  0.00     0.049 A 
ATOM     56  H   UNL A   1      44.060  29.443  28.004  1.00  0.00     0.167 HD
ATOM     57  C   UNL A   1      44.919  27.007  26.849  1.00  0.00     0.074 A 
ATOM     58  C   UNL A   1      44.911  25.638  26.374  1.00  0.00     0.031 C 
ATOM     59  C   UNL A   1      45.949  27.869  26.669  1.00  0.00     0.037 A 
BRANCH  46  60
ATOM     60  C   UNL A   1      44.932  33.500  28.987  1.00  0.00     0.057 A 
ATOM     61  C   UNL A   1      44.730  34.525  28.056  1.00  0.00     0.134 A 
ATOM     62  C   UNL A   1      45.610  33.823  30.171  1.00  0.00     0.134 A 
ATOM     63  F   UNL A   1      44.101  34.275  26.897  1.00  0.00    -0.206 F 
ATOM     64  C   UNL A   1      45.197  35.821  28.285  1.00  0.00     0.040 A 
ATOM     65  C   UNL A   1      46.063  35.119  30.420  1.00  0.00     0.040 A 
ATOM     66  F   UNL A   1      45.832  32.888  31.106  1.00  0.00    -0.206 F 
ATOM     67  C   UNL A   1      45.861  36.121  29.473  1.00  0.00     0.006 A 
ENDBRANCH  46  60
BRANCH  47  68
ATOM     68  C   UNL A   1      41.101  24.395  27.665  1.00  0.00     0.057 A 
ATOM     69  C   UNL A   1      41.553  23.282  28.383  1.00  0.00     0.134 A 
ATOM     70  C   UNL A   1      40.098  24.186  26.711  1.00  0.00     0.134 A 
ATOM     71  F   UNL A   1      42.531  23.416  29.292  1.00  0.00    -0.206 F 
ATOM     72  C   UNL A   1      41.035  22.007  28.153  1.00  0.00     0.040 A 
ATOM     73  C   UNL A   1      39.555  22.920  26.488  1.00  0.00     0.040 A 
ATOM     74  F   UNL A   1      39.625  25.213  25.990  1.00  0.00    -0.206 F 
ATOM     75  C   UNL A   1      40.028  21.825  27.207  1.00  0.00     0.006 A 
ENDBRANCH  47  68
BRANCH  59  76
ATOM     76  C   UNL A   1      47.161  27.350  25.956  1.00  0.00     0.057 A 
ATOM     77  C   UNL A   1      48.192  26.695  26.640  1.00  0.00     0.134 A 
ATOM     78  C   UNL A   1      47.280  27.475  24.567  1.00  0.00     0.134 A 
ATOM     79  F   UNL A   1      48.144  26.556  27.974  1.00  0.00    -0.206 F 
ATOM     80  C   UNL A   1      49.311  26.201  25.968  1.00  0.00     0.040 A 
ATOM     81  C   UNL A   1      48.383  26.967  23.881  1.00  0.00     0.040 A 
ATOM     82  F   UNL A   1      46.322  28.087  23.854  1.00  0.00    -0.206 F 
ATOM     83  C   UNL A   1      49.405  26.330  24.583  1.00  0.00     0.006 A 
ENDBRANCH  59  76
ENDBRANCH  33  34
ENDBRANCH  26  28
ENDBRANCH  25  26
ENDBRANCH  24  25
ENDBRANCH   1  24
TORSDOF 15
ENDMDL
MODEL 2
REMARK VINA RESULT:     -11.1      5.099      9.991
REMARK SMILES CC[C@@]1(C)C[C@@H]([NH2+]C[C@H]2CC[C@@H](C(=O)OCCOC(=O)c3ccc(-c4c5nc(c(-c6c(F)cccc6F)c6ccc([nH]6)c(-c6c(F)cccc6F)c6nc(c(-c7c(F)cccc7F)c7ccc4[nH]7)C=C6)C=C5)cc3)CC2)CCO1
REMARK SMILES IDX 16 1 15 2 13 3 14 4 12 5 9 6 10 7 76 8 11 9 75 10 8 11 7 12
REMARK SMILES IDX 6 15 3 16 4 17 5 18 79 19 78 20 77 21 2 22 1 23 17 24 18 25
REMARK SMILES IDX 19 26 20 27 21 28 22 29 74 30 23 31 73 32 24 33 25 34 26 35
REMARK SMILES IDX 67 36 27 37 72 38 66 39 68 40 28 41 71 42 65 43 64 44 29 46
REMARK SMILES IDX 55 47 38 48 54 49 39 50 42 51 53 52 69 53 40 54 41 55 52 57
REMARK SMILES IDX 70 58 43 59 30 60 31 61 36 62 32 63 33 64 35 65 37 66 34 67
REMARK SMILES IDX 56 68 57 69 62 70 58 71 59 72 61 73 63 74 60 75 44 76 45 77
REMARK SMILES IDX 50 78 46 79 47 80 49 81 51 82 48 83
REMARK H PARENT 7 13 7 14 68 45 42 56
REMARK Flexibility Score: inf
ROOT
ATOM      1  C   UNL A   1      42.602  20.789  26.274  1.00  0.00     0.274 C 
ENDROOT
BRANCH   1   2
ATOM      2  O   UNL A   1      41.247  20.702  25.799  1.00  0.00    -0.462 OA
BRANCH   2   3
ATOM      3  C   UNL A   1      40.326  21.321  26.575  1.00  0.00     0.309 C 
ATOM      4  O   UNL A   1      40.421  21.492  27.786  1.00  0.00    -0.252 OA
BRANCH   3   5
ATOM      5  C   UNL A   1      39.127  21.804  25.796  1.00  0.00     0.099 C 
ATOM      6  C   UNL A   1      36.518  22.636  24.759  1.00  0.00     0.044 C 
ATOM      7  C   UNL A   1      37.421  23.584  25.576  1.00  0.00     0.010 C 
ATOM      8  C   UNL A   1      37.199  21.332  24.306  1.00  0.00     0.010 C 
ATOM      9  C   UNL A   1      38.363  22.885  26.547  1.00  0.00     0.016 C 
ATOM     10  C   UNL A   1      38.147  20.730  25.334  1.00  0.00     0.016 C 
BRANCH   6  11
ATOM     11  C   UNL A   1      35.157  22.363  25.430  1.00  0.00     0.264 C 
BRANCH  11  12
ATOM     12  N   UNL A   1      34.854  20.940  25.609  1.00  0.00    -0.343 N 
ATOM     13  H   UNL A   1      35.162  20.445  24.771  1.00  0.00     0.346 HD
ATOM     14  H   UNL A   1      35.343  20.654  26.458  1.00  0.00     0.346 HD
BRANCH  12  15
ATOM     15  C   UNL A   1      33.437  20.617  25.832  1.00  0.00     0.187 C 
ATOM     16  C   UNL A   1      32.966  18.224  24.855  1.00  0.00     0.071 C 
ATOM     17  C   UNL A   1      32.208  16.950  25.272  1.00  0.00     0.042 C 
ATOM     18  C   UNL A   1      33.044  19.148  26.095  1.00  0.00     0.100 C 
ATOM     19  O   UNL A   1      32.129  18.876  23.877  1.00  0.00    -0.375 OA
ATOM     20  C   UNL A   1      32.584  20.170  23.478  1.00  0.00     0.167 C 
ATOM     21  C   UNL A   1      32.597  21.135  24.652  1.00  0.00     0.093 C 
BRANCH  16  22
ATOM     22  C   UNL A   1      34.304  17.837  24.166  1.00  0.00     0.032 C 
ATOM     23  C   UNL A   1      34.294  16.626  23.241  1.00  0.00     0.007 C 
ENDBRANCH  16  22
ENDBRANCH  12  15
ENDBRANCH  11  12
ENDBRANCH   6  11
ENDBRANCH   3   5
ENDBRANCH   2   3
ENDBRANCH   1   2
BRANCH   1  24
ATOM     24  C   UNL A   1      43.454  21.662  25.349  1.00  0.00     0.275 C 
BRANCH  24  25
ATOM     25  O   UNL A   1      42.783  22.887  24.992  1.00  0.00    -0.458 OA
BRANCH  25  26
ATOM     26  C   UNL A   1      43.547  24.002  25.032  1.00  0.00     0.338 C 
ATOM     27  O   UNL A   1      44.519  24.262  24.338  1.00  0.00    -0.246 OA
BRANCH  26  28
ATOM     28  C   UNL A   1      43.008  24.951  26.017  1.00  0.00     0.060 A 
ATOM     29  C   UNL A   1      43.479  26.268  26.014  1.00  0.00     0.016 A 
ATOM     30  C   UNL A   1      42.131  24.517  27.013  1.00  0.00     0.016 A 
ATOM     31  C   UNL A   1      43.073  27.161  27.006  1.00  0.00     0.010 A 
ATOM     32  C   UNL A   1      41.726  25.413  28.008  1.00  0.00     0.010 A 
ATOM     33  C   UNL A   1      42.201  26.736  28.018  1.00  0.00    -0.014 A 
BRANCH  33  34
ATOM     34  C   UNL A   1      41.818  27.655  29.119  1.00  0.00     0.031 A 
ATOM     35  C   UNL A   1      42.584  27.633  30.411  1.00  0.00     0.074 A 
ATOM     36  C   UNL A   1      40.779  28.496  28.970  1.00  0.00     0.049 A 
ATOM     37  N   UNL A   1      42.319  28.236  31.542  1.00  0.00    -0.248 NA
ATOM     38  C   UNL A   1      43.812  26.824  30.432  1.00  0.00     0.031 C 
ATOM     39  C   UNL A   1      39.986  28.652  27.751  1.00  0.00     0.029 A 
ATOM     40  N   UNL A   1      40.204  29.368  29.859  1.00  0.00    -0.354 N 
ATOM     41  C   UNL A   1      43.328  27.858  32.418  1.00  0.00     0.074 A 
ATOM     42  C   UNL A   1      44.209  26.970  31.688  1.00  0.00     0.031 C 
ATOM     43  C   UNL A   1      39.019  29.557  27.972  1.00  0.00     0.029 A 
ATOM     44  C   UNL A   1      39.094  30.006  29.360  1.00  0.00     0.049 A 
ATOM     45  H   UNL A   1      40.552  29.522  30.767  1.00  0.00     0.167 HD
ATOM     46  C   UNL A   1      43.502  28.219  33.712  1.00  0.00     0.037 A 
ATOM     47  C   UNL A   1      38.215  30.828  29.965  1.00  0.00     0.037 A 
ATOM     48  C   UNL A   1      42.636  29.115  34.431  1.00  0.00     0.049 A 
ATOM     49  C   UNL A   1      38.395  31.164  31.419  1.00  0.00     0.074 A 
ATOM     50  C   UNL A   1      42.736  29.547  35.744  1.00  0.00     0.029 A 
ATOM     51  N   UNL A   1      41.510  29.723  33.896  1.00  0.00    -0.354 N 
ATOM     52  N   UNL A   1      39.338  30.782  32.246  1.00  0.00    -0.248 NA
ATOM     53  C   UNL A   1      37.378  32.035  32.028  1.00  0.00     0.031 C 
ATOM     54  C   UNL A   1      41.651  30.390  36.012  1.00  0.00     0.029 A 
ATOM     55  C   UNL A   1      40.897  30.511  34.856  1.00  0.00     0.049 A 
ATOM     56  H   UNL A   1      41.193  29.610  32.972  1.00  0.00     0.167 HD
ATOM     57  C   UNL A   1      39.040  31.378  33.465  1.00  0.00     0.074 A 
ATOM     58  C   UNL A   1      37.834  32.158  33.267  1.00  0.00     0.031 C 
ATOM     59  C   UNL A   1      39.702  31.285  34.643  1.00  0.00     0.037 A 
BRANCH  46  60
ATOM     60  C   UNL A   1      44.662  27.616  34.446  1.00  0.00     0.057 A 
ATOM     61  C   UNL A   1      45.908  28.251  34.513  1.00  0.00     0.134 A 
ATOM     62  C   UNL A   1      44.517  26.399  35.127  1.00  0.00     0.134 A 
ATOM     63  F   UNL A   1      46.114  29.411  33.871  1.00  0.00    -0.206 F 
ATOM     64  C   UNL A   1      46.975  27.690  35.217  1.00  0.00     0.040 A 
ATOM     65  C   UNL A   1      45.570  25.839  35.851  1.00  0.00     0.040 A 
ATOM     66  F   UNL A   1      43.348  25.743  35.106  1.00  0.00    -0.206 F 
ATOM     67  C   UNL A   1      46.805  26.483  35.894  1.00  0.00     0.006 A 
ENDBRANCH  46  60
BRANCH  47  68
ATOM     68  C   UNL A   1      37.059  31.364  29.204  1.00  0.00     0.057 A 
ATOM     69  C   UNL A   1      35.934  30.572  28.947  1.00  0.00     0.134 A 
ATOM     70  C   UNL A   1      37.058  32.672  28.706  1.00  0.00     0.134 A 
ATOM     71  F   UNL A   1      35.889  29.302  29.377  1.00  0.00    -0.206 F 
ATOM     72  C   UNL A   1      34.852  31.060  28.213  1.00  0.00     0.040 A 
ATOM     73  C   UNL A   1      35.973  33.180  27.991  1.00  0.00     0.040 A 
ATOM     74  F   UNL A   1      38.109  33.478  28.918  1.00  0.00    -0.206 F 
ATOM     75  C   UNL A   1      34.868  32.370  27.737  1.00  0.00     0.006 A 
ENDBRANCH  47  68
BRANCH  59  76
ATOM     76  C   UNL A   1      39.156  32.069  35.799  1.00  0.00     0.057 A 
ATOM     77  C   UNL A   1      39.485  33.415  35.996  1.00  0.00     0.134 A 
ATOM     78  C   UNL A   1      38.264  31.479  36.703  1.00  0.00     0.134 A 
ATOM     79  F   UNL A   1      40.345  34.033  35.172  1.00  0.00    -0.206 F 
ATOM     80  C   UNL A   1      38.961  34.143  37.065  1.00  0.00     0.040 A 
ATOM     81  C   UNL A   1      37.717  32.202  37.764  1.00  0.00     0.040 A 
ATOM     82  F   UNL A   1      37.904  30.194  36.565  1.00  0.00    -0.206 F 
ATOM     83  C   UNL A   1      38.069  33.538  37.949  1.00  0.00     0.006 A 
ENDBRANCH  59  76
ENDBRANCH  33  34
ENDBRANCH  26  28
ENDBRANCH  25  26
ENDBRANCH  24  25
ENDBRANCH   1  24
TORSDOF 15
ENDMDL
MODEL 3
REMARK VINA RESULT:     -10.9      0.894      2.029
REMARK SMILES CC[C@@]1(C)C[C@@H]([NH2+]C[C@H]2CC[C@@H](C(=O)OCCOC(=O)c3ccc(-c4c5nc(c(-c6c(F)cccc6F)c6ccc([nH]6)c(-c6c(F)cccc6F)c6nc(c(-c7c(F)cccc7F)c7ccc4[nH]7)C=C6)C=C5)cc3)CC2)CCO1
REMARK SMILES IDX 16 1 15 2 13 3 14 4 12 5 9 6 10 7 76 8 11 9 75 10 8 11 7 12
REMARK SMILES IDX 6 15 3 16 4 17 5 18 79 19 78 20 77 21 2 22 1 23 17 24 18 25
REMARK SMILES IDX 19 26 20 27 21 28 22 29 74 30 23 31 73 32 24 33 25 34 26 35
REMARK SMILES IDX 67 36 27 37 72 38 66 39 68 40 28 41 71 42 65 43 64 44 29 46
REMARK SMILES IDX 55 47 38 48 54 49 39 50 42 51 53 52 69 53 40 54 41 55 52 57
REMARK SMILES IDX 70 58 43 59 30 60 31 61 36 62 32 63 33 64 35 65 37 66 34 67
REMARK SMILES IDX 56 68 57 69 62 70 58 71 59 72 61 73 63 74 60 75 44 76 45 77
REMARK SMILES IDX 50 78 46 79 47 80 49 81 51 82 48 83
REMARK H PARENT 7 13 7 14 68 45 42 56
REMARK Flexibility Score: inf
ROOT
ATOM      1  C   UNL A   1      34.425  34.224  29.212  1.00  0.00     0.274 C 
ENDROOT
BRANCH   1   2
ATOM      2  O   UNL A   1      34.497  33.048  28.387  1.00  0.00    -0.462 OA
BRANCH   2   3
ATOM      3  C   UNL A   1      33.320  32.653  27.845  1.00  0.00     0.309 C 
ATOM      4  O   UNL A   1      32.419  33.405  27.490  1.00  0.00    -0.252 OA
BRANCH   3   5
ATOM      5  C   UNL A   1      33.207  31.155  27.709  1.00  0.00     0.099 C 
ATOM      6  C   UNL A   1      33.162  28.336  26.916  1.00  0.00     0.044 C 
ATOM      7  C   UNL A   1      34.448  29.036  27.402  1.00  0.00     0.010 C 
ATOM      8  C   UNL A   1      31.869  29.144  27.134  1.00  0.00     0.010 C 
ATOM      9  C   UNL A   1      34.485  30.539  27.160  1.00  0.00     0.016 C 
ATOM     10  C   UNL A   1      32.019  30.641  26.901  1.00  0.00     0.016 C 
BRANCH   6  11
ATOM     11  C   UNL A   1      33.264  27.809  25.471  1.00  0.00     0.264 C 
BRANCH  11  12
ATOM     12  N   UNL A   1      31.978  27.422  24.884  1.00  0.00    -0.343 N 
ATOM     13  H   UNL A   1      31.930  26.403  24.876  1.00  0.00     0.346 HD
ATOM     14  H   UNL A   1      31.262  27.863  25.462  1.00  0.00     0.346 HD
BRANCH  12  15
ATOM     15  C   UNL A   1      31.738  27.899  23.513  1.00  0.00     0.187 C 
ATOM     16  C   UNL A   1      32.928  26.257  21.843  1.00  0.00     0.071 C 
ATOM     17  C   UNL A   1      32.613  25.563  20.505  1.00  0.00     0.042 C 
ATOM     18  C   UNL A   1      31.607  26.860  22.380  1.00  0.00     0.100 C 
ATOM     19  O   UNL A   1      33.808  27.355  21.517  1.00  0.00    -0.375 OA
ATOM     20  C   UNL A   1      34.093  28.227  22.611  1.00  0.00     0.167 C 
ATOM     21  C   UNL A   1      32.831  28.906  23.118  1.00  0.00     0.093 C 
BRANCH  16  22
ATOM     22  C   UNL A   1      33.699  25.279  22.772  1.00  0.00     0.032 C 
ATOM     23  C   UNL A   1      33.460  23.787  22.575  1.00  0.00     0.007 C 
ENDBRANCH  16  22
ENDBRANCH  12  15
ENDBRANCH  11  12
ENDBRANCH   6  11
ENDBRANCH   3   5
ENDBRANCH   2   3
ENDBRANCH   1   2
BRANCH   1  24
ATOM     24  C   UNL A   1      34.265  33.852  30.688  1.00  0.00     0.275 C 
BRANCH  24  25
ATOM     25  O   UNL A   1      34.523  32.453  30.924  1.00  0.00    -0.458 OA
BRANCH  25  26
ATOM     26  C   UNL A   1      35.419  32.183  31.900  1.00  0.00     0.338 C 
ATOM     27  O   UNL A   1      35.301  32.396  33.097  1.00  0.00    -0.246 OA
BRANCH  26  28
ATOM     28  C   UNL A   1      36.595  31.503  31.336  1.00  0.00     0.060 A 
ATOM     29  C   UNL A   1      37.518  30.916  32.207  1.00  0.00     0.016 A 
ATOM     30  C   UNL A   1      36.847  31.546  29.964  1.00  0.00     0.016 A 
ATOM     31  C   UNL A   1      38.699  30.364  31.709  1.00  0.00     0.010 A 
ATOM     32  C   UNL A   1      38.032  30.994  29.466  1.00  0.00     0.010 A 
ATOM     33  C   UNL A   1      38.970  30.409  30.335  1.00  0.00    -0.014 A 
BRANCH  33  34
ATOM     34  C   UNL A   1      40.254  29.890  29.802  1.00  0.00     0.031 A 
ATOM     35  C   UNL A   1      41.430  30.813  29.657  1.00  0.00     0.074 A 
ATOM     36  C   UNL A   1      40.365  28.600  29.435  1.00  0.00     0.049 A 
ATOM     37  N   UNL A   1      42.583  30.602  29.073  1.00  0.00    -0.248 NA
ATOM     38  C   UNL A   1      41.289  32.153  30.247  1.00  0.00     0.031 C 
ATOM     39  C   UNL A   1      39.316  27.590  29.571  1.00  0.00     0.029 A 
ATOM     40  N   UNL A   1      41.409  27.925  28.856  1.00  0.00    -0.354 N 
ATOM     41  C   UNL A   1      43.294  31.788  29.199  1.00  0.00     0.074 A 
ATOM     42  C   UNL A   1      42.441  32.717  29.911  1.00  0.00     0.031 C 
ATOM     43  C   UNL A   1      39.767  26.425  29.079  1.00  0.00     0.029 A 
ATOM     44  C   UNL A   1      41.114  26.620  28.549  1.00  0.00     0.049 A 
ATOM     45  H   UNL A   1      42.286  28.336  28.678  1.00  0.00     0.167 HD
ATOM     46  C   UNL A   1      44.542  32.075  28.759  1.00  0.00     0.037 A 
ATOM     47  C   UNL A   1      41.833  25.697  27.881  1.00  0.00     0.037 A 
ATOM     48  C   UNL A   1      45.396  31.146  28.067  1.00  0.00     0.049 A 
ATOM     49  C   UNL A   1      43.191  26.058  27.348  1.00  0.00     0.074 A 
ATOM     50  C   UNL A   1      46.681  31.343  27.590  1.00  0.00     0.029 A 
ATOM     51  N   UNL A   1      45.051  29.839  27.756  1.00  0.00    -0.354 N 
ATOM     52  N   UNL A   1      43.845  27.190  27.450  1.00  0.00    -0.248 NA
ATOM     53  C   UNL A   1      43.906  25.017  26.595  1.00  0.00     0.031 C 
ATOM     54  C   UNL A   1      47.101  30.165  26.961  1.00  0.00     0.029 A 
ATOM     55  C   UNL A   1      46.091  29.224  27.079  1.00  0.00     0.049 A 
ATOM     56  H   UNL A   1      44.193  29.412  27.982  1.00  0.00     0.167 HD
ATOM     57  C   UNL A   1      45.051  26.993  26.792  1.00  0.00     0.074 A 
ATOM     58  C   UNL A   1      45.046  25.628  26.304  1.00  0.00     0.031 C 
ATOM     59  C   UNL A   1      46.072  27.864  26.604  1.00  0.00     0.037 A 
BRANCH  46  60
ATOM     60  C   UNL A   1      45.052  33.466  28.988  1.00  0.00     0.057 A 
ATOM     61  C   UNL A   1      45.799  33.805  30.122  1.00  0.00     0.134 A 
ATOM     62  C   UNL A   1      44.821  34.472  28.040  1.00  0.00     0.134 A 
ATOM     63  F   UNL A   1      46.043  32.890  31.073  1.00  0.00    -0.206 F 
ATOM     64  C   UNL A   1      46.287  35.099  30.315  1.00  0.00     0.040 A 
ATOM     65  C   UNL A   1      45.319  35.764  28.212  1.00  0.00     0.040 A 
ATOM     66  F   UNL A   1      44.115  34.212  26.930  1.00  0.00    -0.206 F 
ATOM     67  C   UNL A   1      46.051  36.081  29.354  1.00  0.00     0.006 A 
ENDBRANCH  46  60
BRANCH  47  68
ATOM     68  C   UNL A   1      41.265  24.347  27.643  1.00  0.00     0.057 A 
ATOM     69  C   UNL A   1      40.263  24.142  26.688  1.00  0.00     0.134 A 
ATOM     70  C   UNL A   1      41.698  23.234  28.374  1.00  0.00     0.134 A 
ATOM     71  F   UNL A   1      39.788  25.174  25.975  1.00  0.00    -0.206 F 
ATOM     72  C   UNL A   1      39.706  22.880  26.473  1.00  0.00     0.040 A 
ATOM     73  C   UNL A   1      41.168  21.963  28.153  1.00  0.00     0.040 A 
ATOM     74  F   UNL A   1      42.654  23.368  29.306  1.00  0.00    -0.206 F 
ATOM     75  C   UNL A   1      40.164  21.785  27.204  1.00  0.00     0.006 A 
ENDBRANCH  47  68
BRANCH  59  76
ATOM     76  C   UNL A   1      47.276  27.360  25.868  1.00  0.00     0.057 A 
ATOM     77  C   UNL A   1      47.409  27.513  24.482  1.00  0.00     0.134 A 
ATOM     78  C   UNL A   1      48.329  26.745  26.557  1.00  0.00     0.134 A 
ATOM     79  F   UNL A   1      46.428  28.080  23.763  1.00  0.00    -0.206 F 
ATOM     80  C   UNL A   1      48.540  27.054  23.805  1.00  0.00     0.040 A 
ATOM     81  C   UNL A   1      49.474  26.302  25.894  1.00  0.00     0.040 A 
ATOM     82  F   UNL A   1      48.265  26.575  27.887  1.00  0.00    -0.206 F 
ATOM     83  C   UNL A   1      49.579  26.452  24.512  1.00  0.00     0.006 A 
ENDBRANCH  59  76
ENDBRANCH  33  34
ENDBRANCH  26  28
ENDBRANCH  25  26
ENDBRANCH  24  25
ENDBRANCH   1  24
TORSDOF 15
ENDMDL
