MODEL 1
REMARK VINA RESULT:     -11.9      0.000      0.000
REMARK SMILES N#CCC[NH+]1CC[NH+]([C@@H](C(=O)OCCOC(=O)c2ccc(-c3c4nc(c(-c5c(F)cccc5F)c5ccc([nH]5)c(-c5c(F)cccc5F)c5nc(c(-c6c(F)cccc6F)c6ccc3[nH]6)C=C5)C=C4)cc2)c2c[nH]c3cc(Cl)ccc23)CC1
REMARK SMILES IDX 13 1 12 2 10 3 11 4 9 5 8 6 5 7 6 8 83 9 7 11 82 12 4 14
REMARK SMILES IDX 3 15 2 16 1 17 72 18 73 19 81 20 74 21 75 22 80 23 76 25
REMARK SMILES IDX 79 26 77 27 78 28 14 29 15 30 16 31 17 32 18 33 19 34 71 35
REMARK SMILES IDX 20 36 70 37 21 38 22 39 23 40 64 41 24 42 69 43 63 44 65 45
REMARK SMILES IDX 25 46 68 47 62 48 61 49 26 51 52 52 35 53 51 54 36 55 39 56
REMARK SMILES IDX 50 57 66 58 37 59 38 60 49 62 67 63 40 64 27 65 28 66 33 67
REMARK SMILES IDX 29 68 30 69 32 70 34 71 31 72 53 73 54 74 59 75 55 76 56 77
REMARK SMILES IDX 58 78 60 79 57 80 41 81 42 82 47 83 43 84 44 85 46 86 48 87
REMARK SMILES IDX 45 88
REMARK H PARENT 5 10 8 13 74 24 65 50 39 61
REMARK Flexibility Score: inf
ROOT
ATOM      1  C   UNL A   1      31.840  28.569  27.599  1.00  0.00     0.274 C 
ENDROOT
BRANCH   1   2
ATOM      2  O   UNL A   1      31.050  27.395  27.263  1.00  0.00    -0.457 OA
BRANCH   2   3
ATOM      3  C   UNL A   1      31.542  26.622  26.255  1.00  0.00     0.370 C 
ATOM      4  O   UNL A   1      32.731  26.302  26.183  1.00  0.00    -0.245 OA
BRANCH   3   5
ATOM      5  C   UNL A   1      30.568  26.288  25.117  1.00  0.00     0.328 C 
BRANCH   5   6
ATOM      6  N   UNL A   1      30.242  24.832  24.890  1.00  0.00    -0.310 N 
ATOM      7  N   UNL A   1      32.629  23.165  25.275  1.00  0.00    -0.325 N 
ATOM      8  C   UNL A   1      32.438  24.022  24.127  1.00  0.00     0.324 C 
ATOM      9  C   UNL A   1      31.551  23.051  26.254  1.00  0.00     0.324 C 
ATOM     10  H   UNL A   1      33.211  23.722  25.901  1.00  0.00     0.348 HD
ATOM     11  C   UNL A   1      30.963  24.167  23.800  1.00  0.00     0.325 C 
ATOM     12  C   UNL A   1      30.288  23.966  26.079  1.00  0.00     0.325 C 
ATOM     13  H   UNL A   1      29.267  24.934  24.607  1.00  0.00     0.349 HD
BRANCH   7  14
ATOM     14  C   UNL A   1      33.470  22.019  25.004  1.00  0.00     0.278 C 
BRANCH  14  15
ATOM     15  C   UNL A   1      32.803  21.231  23.879  1.00  0.00     0.181 C 
BRANCH  15  16
ATOM     16  C   UNL A   1      32.500  19.874  24.493  1.00  0.00     0.068 C 
ATOM     17  N   UNL A   1      32.249  18.748  25.002  1.00  0.00    -0.198 NA
ENDBRANCH  15  16
ENDBRANCH  14  15
ENDBRANCH   7  14
ENDBRANCH   5   6
BRANCH   5  18
ATOM     18  C   UNL A   1      30.611  27.037  23.781  1.00  0.00     0.046 A 
ATOM     19  C   UNL A   1      31.817  27.245  23.118  1.00  0.00     0.094 A 
ATOM     20  C   UNL A   1      29.659  27.910  23.126  1.00  0.00     0.009 A 
ATOM     21  N   UNL A   1      31.710  28.387  22.376  1.00  0.00    -0.361 N 
ATOM     22  C   UNL A   1      30.424  28.861  22.435  1.00  0.00     0.047 A 
ATOM     23  C   UNL A   1      28.264  28.129  23.180  1.00  0.00     0.012 A 
ATOM     24  H   UNL A   1      32.445  28.806  21.873  1.00  0.00     0.166 HD
ATOM     25  C   UNL A   1      29.903  30.077  21.971  1.00  0.00     0.047 A 
ATOM     26  C   UNL A   1      27.707  29.295  22.630  1.00  0.00     0.021 A 
ATOM     27  C   UNL A   1      28.528  30.276  22.088  1.00  0.00     0.043 A 
ATOM     28  Cl  UNL A   1      27.850  31.772  21.571  1.00  0.00    -0.084 Cl
ENDBRANCH   5  18
ENDBRANCH   3   5
ENDBRANCH   2   3
ENDBRANCH   1   2
BRANCH   1  29
ATOM     29  C   UNL A   1      31.777  29.635  26.510  1.00  0.00     0.275 C 
BRANCH  29  30
ATOM     30  O   UNL A   1      33.105  30.126  26.287  1.00  0.00    -0.458 OA
BRANCH  30  31
ATOM     31  C   UNL A   1      33.491  31.145  27.078  1.00  0.00     0.338 C 
ATOM     32  O   UNL A   1      32.797  32.093  27.444  1.00  0.00    -0.246 OA
BRANCH  31  33
ATOM     33  C   UNL A   1      34.839  30.885  27.627  1.00  0.00     0.060 A 
ATOM     34  C   UNL A   1      35.219  29.597  28.021  1.00  0.00     0.016 A 
ATOM     35  C   UNL A   1      35.667  31.969  27.926  1.00  0.00     0.016 A 
ATOM     36  C   UNL A   1      36.347  29.404  28.810  1.00  0.00     0.010 A 
ATOM     37  C   UNL A   1      36.853  31.762  28.629  1.00  0.00     0.010 A 
ATOM     38  C   UNL A   1      37.189  30.481  29.100  1.00  0.00    -0.014 A 
BRANCH  38  39
ATOM     39  C   UNL A   1      38.466  30.283  29.820  1.00  0.00     0.031 A 
ATOM     40  C   UNL A   1      39.516  29.361  29.277  1.00  0.00     0.074 A 
ATOM     41  C   UNL A   1      38.637  30.876  31.015  1.00  0.00     0.049 A 
ATOM     42  N   UNL A   1      40.528  28.808  29.893  1.00  0.00    -0.248 NA
ATOM     43  C   UNL A   1      39.412  29.012  27.853  1.00  0.00     0.031 C 
ATOM     44  C   UNL A   1      37.719  31.842  31.620  1.00  0.00     0.029 A 
ATOM     45  N   UNL A   1      39.625  30.718  31.952  1.00  0.00    -0.354 N 
ATOM     46  C   UNL A   1      41.158  28.011  28.945  1.00  0.00     0.074 A 
ATOM     47  C   UNL A   1      40.425  28.168  27.706  1.00  0.00     0.031 C 
ATOM     48  C   UNL A   1      38.171  32.173  32.837  1.00  0.00     0.029 A 
ATOM     49  C   UNL A   1      39.353  31.373  33.128  1.00  0.00     0.049 A 
ATOM     50  H   UNL A   1      40.442  30.191  31.800  1.00  0.00     0.167 HD
ATOM     51  C   UNL A   1      42.240  27.214  29.114  1.00  0.00     0.037 A 
ATOM     52  C   UNL A   1      39.936  31.282  34.336  1.00  0.00     0.037 A 
ATOM     53  C   UNL A   1      42.964  27.089  30.357  1.00  0.00     0.049 A 
ATOM     54  C   UNL A   1      41.091  30.351  34.519  1.00  0.00     0.074 A 
ATOM     55  C   UNL A   1      44.076  26.312  30.634  1.00  0.00     0.029 A 
ATOM     56  N   UNL A   1      42.651  27.767  31.526  1.00  0.00    -0.354 N 
ATOM     57  N   UNL A   1      41.637  29.535  33.650  1.00  0.00    -0.248 NA
ATOM     58  C   UNL A   1      41.707  30.317  35.851  1.00  0.00     0.031 C 
ATOM     59  C   UNL A   1      44.418  26.500  31.978  1.00  0.00     0.029 A 
ATOM     60  C   UNL A   1      43.546  27.426  32.526  1.00  0.00     0.049 A 
ATOM     61  H   UNL A   1      41.902  28.398  31.629  1.00  0.00     0.167 HD
ATOM     62  C   UNL A   1      42.668  28.900  34.322  1.00  0.00     0.074 A 
ATOM     63  C   UNL A   1      42.679  29.434  35.670  1.00  0.00     0.031 C 
ATOM     64  C   UNL A   1      43.532  27.961  33.863  1.00  0.00     0.037 A 
BRANCH  51  65
ATOM     65  C   UNL A   1      42.697  26.385  27.949  1.00  0.00     0.057 A 
ATOM     66  C   UNL A   1      43.675  26.833  27.054  1.00  0.00     0.134 A 
ATOM     67  C   UNL A   1      42.211  25.081  27.776  1.00  0.00     0.134 A 
ATOM     68  F   UNL A   1      44.171  28.075  27.154  1.00  0.00    -0.206 F 
ATOM     69  C   UNL A   1      44.155  26.014  26.029  1.00  0.00     0.040 A 
ATOM     70  C   UNL A   1      42.697  24.247  26.768  1.00  0.00     0.040 A 
ATOM     71  F   UNL A   1      41.277  24.587  28.602  1.00  0.00    -0.206 F 
ATOM     72  C   UNL A   1      43.673  24.713  25.891  1.00  0.00     0.006 A 
ENDBRANCH  51  65
BRANCH  52  73
ATOM     73  C   UNL A   1      39.375  32.066  35.461  1.00  0.00     0.057 A 
ATOM     74  C   UNL A   1      39.727  33.404  35.653  1.00  0.00     0.134 A 
ATOM     75  C   UNL A   1      38.406  31.519  36.312  1.00  0.00     0.134 A 
ATOM     76  F   UNL A   1      40.660  33.975  34.877  1.00  0.00    -0.206 F 
ATOM     77  C   UNL A   1      39.127  34.176  36.648  1.00  0.00     0.040 A 
ATOM     78  C   UNL A   1      37.781  32.285  37.293  1.00  0.00     0.040 A 
ATOM     79  F   UNL A   1      38.020  30.242  36.167  1.00  0.00    -0.206 F 
ATOM     80  C   UNL A   1      38.141  33.620  37.462  1.00  0.00     0.006 A 
ENDBRANCH  52  73
BRANCH  64  81
ATOM     81  C   UNL A   1      44.577  27.487  34.827  1.00  0.00     0.057 A 
ATOM     82  C   UNL A   1      44.374  26.369  35.644  1.00  0.00     0.134 A 
ATOM     83  C   UNL A   1      45.797  28.164  34.939  1.00  0.00     0.134 A 
ATOM     84  F   UNL A   1      43.218  25.690  35.593  1.00  0.00    -0.206 F 
ATOM     85  C   UNL A   1      45.341  25.957  36.563  1.00  0.00     0.040 A 
ATOM     86  C   UNL A   1      46.779  27.749  35.839  1.00  0.00     0.040 A 
ATOM     87  F   UNL A   1      46.052  29.240  34.179  1.00  0.00    -0.206 F 
ATOM     88  C   UNL A   1      46.548  26.647  36.660  1.00  0.00     0.006 A 
ENDBRANCH  64  81
ENDBRANCH  38  39
ENDBRANCH  31  33
ENDBRANCH  30  31
ENDBRANCH  29  30
ENDBRANCH   1  29
TORSDOF 16
ENDMDL
MODEL 2
REMARK VINA RESULT:     -11.8      4.363      9.303
REMARK SMILES N#CCC[NH+]1CC[NH+]([C@@H](C(=O)OCCOC(=O)c2ccc(-c3c4nc(c(-c5c(F)cccc5F)c5ccc([nH]5)c(-c5c(F)cccc5F)c5nc(c(-c6c(F)cccc6F)c6ccc3[nH]6)C=C5)C=C4)cc2)c2c[nH]c3cc(Cl)ccc23)CC1
REMARK SMILES IDX 13 1 12 2 10 3 11 4 9 5 8 6 5 7 6 8 83 9 7 11 82 12 4 14
REMARK SMILES IDX 3 15 2 16 1 17 72 18 73 19 81 20 74 21 75 22 80 23 76 25
REMARK SMILES IDX 79 26 77 27 78 28 14 29 15 30 16 31 17 32 18 33 19 34 71 35
REMARK SMILES IDX 20 36 70 37 21 38 22 39 23 40 64 41 24 42 69 43 63 44 65 45
REMARK SMILES IDX 25 46 68 47 62 48 61 49 26 51 52 52 35 53 51 54 36 55 39 56
REMARK SMILES IDX 50 57 66 58 37 59 38 60 49 62 67 63 40 64 27 65 28 66 33 67
REMARK SMILES IDX 29 68 30 69 32 70 34 71 31 72 53 73 54 74 59 75 55 76 56 77
REMARK SMILES IDX 58 78 60 79 57 80 41 81 42 82 47 83 43 84 44 85 46 86 48 87
REMARK SMILES IDX 45 88
REMARK H PARENT 5 10 8 13 74 24 65 50 39 61
REMARK Flexibility Score: inf
ROOT
ATOM      1  C   UNL A   1      36.454  22.536  23.719  1.00  0.00     0.274 C 
ENDROOT
BRANCH   1   2
ATOM      2  O   UNL A   1      36.193  23.698  24.553  1.00  0.00    -0.457 OA
BRANCH   2   3
ATOM      3  C   UNL A   1      34.883  23.934  24.844  1.00  0.00     0.370 C 
ATOM      4  O   UNL A   1      34.529  24.768  25.682  1.00  0.00    -0.245 OA
BRANCH   3   5
ATOM      5  C   UNL A   1      33.861  22.998  24.185  1.00  0.00     0.328 C 
BRANCH   5   6
ATOM      6  N   UNL A   1      32.857  23.622  23.246  1.00  0.00    -0.310 N 
ATOM      7  N   UNL A   1      31.938  26.211  24.283  1.00  0.00    -0.325 N 
ATOM      8  C   UNL A   1      31.541  24.944  24.851  1.00  0.00     0.324 C 
ATOM      9  C   UNL A   1      32.770  26.212  23.081  1.00  0.00     0.324 C 
ATOM     10  H   UNL A   1      32.708  26.516  24.879  1.00  0.00     0.348 HD
ATOM     11  C   UNL A   1      31.517  23.859  23.791  1.00  0.00     0.325 C 
ATOM     12  C   UNL A   1      33.298  24.836  22.542  1.00  0.00     0.325 C 
ATOM     13  H   UNL A   1      32.792  22.864  22.566  1.00  0.00     0.349 HD
BRANCH   7  14
ATOM     14  C   UNL A   1      30.961  27.260  24.473  1.00  0.00     0.278 C 
BRANCH  14  15
ATOM     15  C   UNL A   1      29.848  27.024  23.456  1.00  0.00     0.181 C 
BRANCH  15  16
ATOM     16  C   UNL A   1      29.852  28.274  22.591  1.00  0.00     0.068 C 
ATOM     17  N   UNL A   1      29.856  29.311  21.873  1.00  0.00    -0.198 NA
ENDBRANCH  15  16
ENDBRANCH  14  15
ENDBRANCH   7  14
ENDBRANCH   5   6
BRANCH   5  18
ATOM     18  C   UNL A   1      33.217  21.843  24.959  1.00  0.00     0.046 A 
ATOM     19  C   UNL A   1      33.230  21.822  26.351  1.00  0.00     0.094 A 
ATOM     20  C   UNL A   1      32.821  20.509  24.561  1.00  0.00     0.009 A 
ATOM     21  N   UNL A   1      33.201  20.520  26.764  1.00  0.00    -0.361 N 
ATOM     22  C   UNL A   1      33.040  19.693  25.681  1.00  0.00     0.047 A 
ATOM     23  C   UNL A   1      32.486  19.858  23.352  1.00  0.00     0.012 A 
ATOM     24  H   UNL A   1      33.282  20.220  27.697  1.00  0.00     0.166 HD
ATOM     25  C   UNL A   1      33.120  18.295  25.611  1.00  0.00     0.047 A 
ATOM     26  C   UNL A   1      32.461  18.455  23.285  1.00  0.00     0.021 A 
ATOM     27  C   UNL A   1      32.831  17.694  24.387  1.00  0.00     0.043 A 
ATOM     28  Cl  UNL A   1      32.959  15.983  24.242  1.00  0.00    -0.084 Cl
ENDBRANCH   5  18
ENDBRANCH   3   5
ENDBRANCH   2   3
ENDBRANCH   1   2
BRANCH   1  29
ATOM     29  C   UNL A   1      37.119  21.406  24.500  1.00  0.00     0.275 C 
BRANCH  29  30
ATOM     30  O   UNL A   1      37.566  21.933  25.756  1.00  0.00    -0.458 OA
BRANCH  30  31
ATOM     31  C   UNL A   1      38.852  21.683  26.069  1.00  0.00     0.338 C 
ATOM     32  O   UNL A   1      39.495  20.676  25.776  1.00  0.00    -0.246 OA
BRANCH  31  33
ATOM     33  C   UNL A   1      39.477  22.883  26.667  1.00  0.00     0.060 A 
ATOM     34  C   UNL A   1      39.188  24.163  26.180  1.00  0.00     0.016 A 
ATOM     35  C   UNL A   1      40.504  22.716  27.597  1.00  0.00     0.016 A 
ATOM     36  C   UNL A   1      39.988  25.246  26.521  1.00  0.00     0.010 A 
ATOM     37  C   UNL A   1      41.243  23.821  28.019  1.00  0.00     0.010 A 
ATOM     38  C   UNL A   1      41.008  25.090  27.464  1.00  0.00    -0.014 A 
BRANCH  38  39
ATOM     39  C   UNL A   1      41.787  26.251  27.948  1.00  0.00     0.031 A 
ATOM     40  C   UNL A   1      41.129  27.334  28.750  1.00  0.00     0.074 A 
ATOM     41  C   UNL A   1      43.077  26.365  27.584  1.00  0.00     0.049 A 
ATOM     42  N   UNL A   1      41.537  28.555  28.979  1.00  0.00    -0.248 NA
ATOM     43  C   UNL A   1      39.842  26.999  29.374  1.00  0.00     0.031 C 
ATOM     44  C   UNL A   1      43.846  25.351  26.860  1.00  0.00     0.029 A 
ATOM     45  N   UNL A   1      43.956  27.407  27.739  1.00  0.00    -0.354 N 
ATOM     46  C   UNL A   1      40.537  29.151  29.738  1.00  0.00     0.074 A 
ATOM     47  C   UNL A   1      39.511  28.150  29.947  1.00  0.00     0.031 C 
ATOM     48  C   UNL A   1      45.073  25.828  26.610  1.00  0.00     0.029 A 
ATOM     49  C   UNL A   1      45.140  27.207  27.073  1.00  0.00     0.049 A 
ATOM     50  H   UNL A   1      43.759  28.211  28.270  1.00  0.00     0.167 HD
ATOM     51  C   UNL A   1      40.488  30.425  30.196  1.00  0.00     0.037 A 
ATOM     52  C   UNL A   1      46.139  28.061  26.790  1.00  0.00     0.037 A 
ATOM     53  C   UNL A   1      41.533  31.398  29.988  1.00  0.00     0.049 A 
ATOM     54  C   UNL A   1      46.039  29.480  27.252  1.00  0.00     0.074 A 
ATOM     55  C   UNL A   1      41.584  32.715  30.414  1.00  0.00     0.029 A 
ATOM     56  N   UNL A   1      42.714  31.156  29.303  1.00  0.00    -0.354 N 
ATOM     57  N   UNL A   1      45.060  30.068  27.897  1.00  0.00    -0.248 NA
ATOM     58  C   UNL A   1      47.173  30.356  26.941  1.00  0.00     0.031 C 
ATOM     59  C   UNL A   1      42.784  33.276  29.962  1.00  0.00     0.029 A 
ATOM     60  C   UNL A   1      43.499  32.297  29.292  1.00  0.00     0.049 A 
ATOM     61  H   UNL A   1      42.959  30.299  28.884  1.00  0.00     0.167 HD
ATOM     62  C   UNL A   1      45.463  31.380  28.081  1.00  0.00     0.074 A 
ATOM     63  C   UNL A   1      46.783  31.498  27.490  1.00  0.00     0.031 C 
ATOM     64  C   UNL A   1      44.803  32.397  28.689  1.00  0.00     0.037 A 
BRANCH  51  65
ATOM     65  C   UNL A   1      39.259  30.861  30.938  1.00  0.00     0.057 A 
ATOM     66  C   UNL A   1      38.143  31.394  30.283  1.00  0.00     0.134 A 
ATOM     67  C   UNL A   1      39.160  30.661  32.323  1.00  0.00     0.134 A 
ATOM     68  F   UNL A   1      38.175  31.626  28.962  1.00  0.00    -0.206 F 
ATOM     69  C   UNL A   1      36.972  31.711  30.977  1.00  0.00     0.040 A 
ATOM     70  C   UNL A   1      37.988  30.954  33.023  1.00  0.00     0.040 A 
ATOM     71  F   UNL A   1      40.190  30.148  33.011  1.00  0.00    -0.206 F 
ATOM     72  C   UNL A   1      36.889  31.481  32.349  1.00  0.00     0.006 A 
ENDBRANCH  51  65
BRANCH  52  73
ATOM     73  C   UNL A   1      47.281  27.580  25.978  1.00  0.00     0.057 A 
ATOM     74  C   UNL A   1      48.408  27.018  26.581  1.00  0.00     0.134 A 
ATOM     75  C   UNL A   1      47.228  27.591  24.578  1.00  0.00     0.134 A 
ATOM     76  F   UNL A   1      48.518  26.994  27.917  1.00  0.00    -0.206 F 
ATOM     77  C   UNL A   1      49.442  26.472  25.820  1.00  0.00     0.040 A 
ATOM     78  C   UNL A   1      48.241  27.027  23.806  1.00  0.00     0.040 A 
ATOM     79  F   UNL A   1      46.165  28.108  23.944  1.00  0.00    -0.206 F 
ATOM     80  C   UNL A   1      49.353  26.463  24.428  1.00  0.00     0.006 A 
ENDBRANCH  52  73
BRANCH  64  81
ATOM     81  C   UNL A   1      45.523  33.708  28.769  1.00  0.00     0.057 A 
ATOM     82  C   UNL A   1      46.382  34.014  29.831  1.00  0.00     0.134 A 
ATOM     83  C   UNL A   1      45.348  34.675  27.772  1.00  0.00     0.134 A 
ATOM     84  F   UNL A   1      46.575  33.133  30.824  1.00  0.00    -0.206 F 
ATOM     85  C   UNL A   1      47.021  35.252  29.914  1.00  0.00     0.040 A 
ATOM     86  C   UNL A   1      45.998  35.908  27.833  1.00  0.00     0.040 A 
ATOM     87  F   UNL A   1      44.541  34.438  26.726  1.00  0.00    -0.206 F 
ATOM     88  C   UNL A   1      46.830  36.202  28.911  1.00  0.00     0.006 A 
ENDBRANCH  64  81
ENDBRANCH  38  39
ENDBRANCH  31  33
ENDBRANCH  30  31
ENDBRANCH  29  30
ENDBRANCH   1  29
TORSDOF 16
ENDMDL
MODEL 3
REMARK VINA RESULT:     -11.7      3.901      8.304
REMARK SMILES N#CCC[NH+]1CC[NH+]([C@@H](C(=O)OCCOC(=O)c2ccc(-c3c4nc(c(-c5c(F)cccc5F)c5ccc([nH]5)c(-c5c(F)cccc5F)c5nc(c(-c6c(F)cccc6F)c6ccc3[nH]6)C=C5)C=C4)cc2)c2c[nH]c3cc(Cl)ccc23)CC1
REMARK SMILES IDX 13 1 12 2 10 3 11 4 9 5 8 6 5 7 6 8 83 9 7 11 82 12 4 14
REMARK SMILES IDX 3 15 2 16 1 17 72 18 73 19 81 20 74 21 75 22 80 23 76 25
REMARK SMILES IDX 79 26 77 27 78 28 14 29 15 30 16 31 17 32 18 33 19 34 71 35
REMARK SMILES IDX 20 36 70 37 21 38 22 39 23 40 64 41 24 42 69 43 63 44 65 45
REMARK SMILES IDX 25 46 68 47 62 48 61 49 26 51 52 52 35 53 51 54 36 55 39 56
REMARK SMILES IDX 50 57 66 58 37 59 38 60 49 62 67 63 40 64 27 65 28 66 33 67
REMARK SMILES IDX 29 68 30 69 32 70 34 71 31 72 53 73 54 74 59 75 55 76 56 77
REMARK SMILES IDX 58 78 60 79 57 80 41 81 42 82 47 83 43 84 44 85 46 86 48 87
REMARK SMILES IDX 45 88
REMARK H PARENT 5 10 8 13 74 24 65 50 39 61
REMARK Flexibility Score: inf
ROOT
ATOM      1  C   UNL A   1      36.557  22.771  23.624  1.00  0.00     0.274 C 
ENDROOT
BRANCH   1   2
ATOM      2  O   UNL A   1      35.129  22.952  23.824  1.00  0.00    -0.457 OA
BRANCH   2   3
ATOM      3  C   UNL A   1      34.772  23.989  24.633  1.00  0.00     0.370 C 
ATOM      4  O   UNL A   1      35.572  24.548  25.387  1.00  0.00    -0.245 OA
BRANCH   3   5
ATOM      5  C   UNL A   1      33.277  24.334  24.677  1.00  0.00     0.328 C 
BRANCH   5   6
ATOM      6  N   UNL A   1      32.356  23.333  25.331  1.00  0.00    -0.310 N 
ATOM      7  N   UNL A   1      33.293  20.593  24.849  1.00  0.00    -0.325 N 
ATOM      8  C   UNL A   1      32.683  21.412  23.828  1.00  0.00     0.324 C 
ATOM      9  C   UNL A   1      33.375  21.114  26.212  1.00  0.00     0.324 C 
ATOM     10  H   UNL A   1      34.294  20.708  24.688  1.00  0.00     0.348 HD
ATOM     11  C   UNL A   1      31.688  22.383  24.436  1.00  0.00     0.325 C 
ATOM     12  C   UNL A   1      32.913  22.590  26.472  1.00  0.00     0.325 C 
ATOM     13  H   UNL A   1      31.651  23.981  25.685  1.00  0.00     0.349 HD
BRANCH   7  14
ATOM     14  C   UNL A   1      33.103  19.174  24.638  1.00  0.00     0.278 C 
BRANCH  14  15
ATOM     15  C   UNL A   1      34.490  18.555  24.486  1.00  0.00     0.181 C 
BRANCH  15  16
ATOM     16  C   UNL A   1      34.253  17.283  23.689  1.00  0.00     0.068 C 
ATOM     17  N   UNL A   1      34.057  16.227  23.028  1.00  0.00    -0.198 NA
ENDBRANCH  15  16
ENDBRANCH  14  15
ENDBRANCH   7  14
ENDBRANCH   5   6
BRANCH   5  18
ATOM     18  C   UNL A   1      32.576  25.007  23.492  1.00  0.00     0.046 A 
ATOM     19  C   UNL A   1      33.287  25.361  22.349  1.00  0.00     0.094 A 
ATOM     20  C   UNL A   1      31.303  25.687  23.376  1.00  0.00     0.009 A 
ATOM     21  N   UNL A   1      32.667  26.431  21.769  1.00  0.00    -0.361 N 
ATOM     22  C   UNL A   1      31.497  26.705  22.432  1.00  0.00     0.047 A 
ATOM     23  C   UNL A   1      30.077  25.693  24.079  1.00  0.00     0.012 A 
ATOM     24  H   UNL A   1      33.007  26.930  20.993  1.00  0.00     0.166 HD
ATOM     25  C   UNL A   1      30.633  27.801  22.292  1.00  0.00     0.047 A 
ATOM     26  C   UNL A   1      29.149  26.728  23.879  1.00  0.00     0.021 A 
ATOM     27  C   UNL A   1      29.457  27.793  23.041  1.00  0.00     0.043 A 
ATOM     28  Cl  UNL A   1      28.385  29.137  22.934  1.00  0.00    -0.084 Cl
ENDBRANCH   5  18
ENDBRANCH   3   5
ENDBRANCH   2   3
ENDBRANCH   1   2
BRANCH   1  29
ATOM     29  C   UNL A   1      37.064  21.471  24.240  1.00  0.00     0.275 C 
BRANCH  29  30
ATOM     30  O   UNL A   1      37.393  21.724  25.612  1.00  0.00    -0.458 OA
BRANCH  30  31
ATOM     31  C   UNL A   1      38.662  21.448  25.968  1.00  0.00     0.338 C 
ATOM     32  O   UNL A   1      39.296  20.430  25.693  1.00  0.00    -0.246 OA
BRANCH  31  33
ATOM     33  C   UNL A   1      39.289  22.633  26.593  1.00  0.00     0.060 A 
ATOM     34  C   UNL A   1      38.953  23.926  26.179  1.00  0.00     0.016 A 
ATOM     35  C   UNL A   1      40.359  22.446  27.470  1.00  0.00     0.016 A 
ATOM     36  C   UNL A   1      39.747  25.010  26.534  1.00  0.00     0.010 A 
ATOM     37  C   UNL A   1      41.094  23.547  27.910  1.00  0.00     0.010 A 
ATOM     38  C   UNL A   1      40.810  24.834  27.425  1.00  0.00    -0.014 A 
BRANCH  38  39
ATOM     39  C   UNL A   1      41.586  25.989  27.928  1.00  0.00     0.031 A 
ATOM     40  C   UNL A   1      40.925  27.061  28.740  1.00  0.00     0.074 A 
ATOM     41  C   UNL A   1      42.878  26.108  27.572  1.00  0.00     0.049 A 
ATOM     42  N   UNL A   1      41.331  28.279  28.987  1.00  0.00    -0.248 NA
ATOM     43  C   UNL A   1      39.634  26.718  29.354  1.00  0.00     0.031 C 
ATOM     44  C   UNL A   1      43.651  25.103  26.839  1.00  0.00     0.029 A 
ATOM     45  N   UNL A   1      43.756  27.147  27.745  1.00  0.00    -0.354 N 
ATOM     46  C   UNL A   1      40.327  28.865  29.749  1.00  0.00     0.074 A 
ATOM     47  C   UNL A   1      39.300  27.861  29.940  1.00  0.00     0.031 C 
ATOM     48  C   UNL A   1      44.879  25.583  26.602  1.00  0.00     0.029 A 
ATOM     49  C   UNL A   1      44.944  26.956  27.083  1.00  0.00     0.049 A 
ATOM     50  H   UNL A   1      43.557  27.944  28.286  1.00  0.00     0.167 HD
ATOM     51  C   UNL A   1      40.275  30.133  30.224  1.00  0.00     0.037 A 
ATOM     52  C   UNL A   1      45.944  27.813  26.816  1.00  0.00     0.037 A 
ATOM     53  C   UNL A   1      41.321  31.109  30.034  1.00  0.00     0.049 A 
ATOM     54  C   UNL A   1      45.841  29.226  27.296  1.00  0.00     0.074 A 
ATOM     55  C   UNL A   1      41.370  32.420  30.477  1.00  0.00     0.029 A 
ATOM     56  N   UNL A   1      42.506  30.875  29.351  1.00  0.00    -0.354 N 
ATOM     57  N   UNL A   1      44.860  29.806  27.943  1.00  0.00    -0.248 NA
ATOM     58  C   UNL A   1      46.978  30.107  27.003  1.00  0.00     0.031 C 
ATOM     59  C   UNL A   1      42.572  32.986  30.038  1.00  0.00     0.029 A 
ATOM     60  C   UNL A   1      43.291  32.017  29.360  1.00  0.00     0.049 A 
ATOM     61  H   UNL A   1      42.753  30.024  28.923  1.00  0.00     0.167 HD
ATOM     62  C   UNL A   1      45.262  31.116  28.147  1.00  0.00     0.074 A 
ATOM     63  C   UNL A   1      46.584  31.241  27.564  1.00  0.00     0.031 C 
ATOM     64  C   UNL A   1      44.598  32.124  28.764  1.00  0.00     0.037 A 
BRANCH  51  65
ATOM     65  C   UNL A   1      39.042  30.560  30.965  1.00  0.00     0.057 A 
ATOM     66  C   UNL A   1      37.939  31.122  30.314  1.00  0.00     0.134 A 
ATOM     67  C   UNL A   1      38.927  30.320  32.342  1.00  0.00     0.134 A 
ATOM     68  F   UNL A   1      37.988  31.391  29.001  1.00  0.00    -0.206 F 
ATOM     69  C   UNL A   1      36.763  31.430  31.004  1.00  0.00     0.040 A 
ATOM     70  C   UNL A   1      37.751  30.605  33.038  1.00  0.00     0.040 A 
ATOM     71  F   UNL A   1      39.945  29.779  33.026  1.00  0.00    -0.206 F 
ATOM     72  C   UNL A   1      36.664  31.161  32.368  1.00  0.00     0.006 A 
ENDBRANCH  51  65
BRANCH  52  73
ATOM     73  C   UNL A   1      47.090  27.343  26.004  1.00  0.00     0.057 A 
ATOM     74  C   UNL A   1      47.111  27.520  24.618  1.00  0.00     0.134 A 
ATOM     75  C   UNL A   1      48.227  26.790  26.607  1.00  0.00     0.134 A 
ATOM     76  F   UNL A   1      46.044  28.031  23.987  1.00  0.00    -0.206 F 
ATOM     77  C   UNL A   1      48.229  27.172  23.859  1.00  0.00     0.040 A 
ATOM     78  C   UNL A   1      49.360  26.462  25.864  1.00  0.00     0.040 A 
ATOM     79  F   UNL A   1      48.268  26.608  27.935  1.00  0.00    -0.206 F 
ATOM     80  C   UNL A   1      49.362  26.654  24.485  1.00  0.00     0.006 A 
ENDBRANCH  52  73
BRANCH  64  81
ATOM     81  C   UNL A   1      45.318  33.434  28.865  1.00  0.00     0.057 A 
ATOM     82  C   UNL A   1      45.220  34.409  27.866  1.00  0.00     0.134 A 
ATOM     83  C   UNL A   1      46.122  33.718  29.976  1.00  0.00     0.134 A 
ATOM     84  F   UNL A   1      44.478  34.186  26.770  1.00  0.00    -0.206 F 
ATOM     85  C   UNL A   1      45.922  35.611  27.953  1.00  0.00     0.040 A 
ATOM     86  C   UNL A   1      46.811  34.925  30.084  1.00  0.00     0.040 A 
ATOM     87  F   UNL A   1      46.251  32.825  30.970  1.00  0.00    -0.206 F 
ATOM     88  C   UNL A   1      46.719  35.873  29.067  1.00  0.00     0.006 A 
ENDBRANCH  64  81
ENDBRANCH  38  39
ENDBRANCH  31  33
ENDBRANCH  30  31
ENDBRANCH  29  30
ENDBRANCH   1  29
TORSDOF 16
ENDMDL
