MODEL 1
REMARK VINA RESULT:     -11.4      0.000      0.000
REMARK SMILES CC(C)(CC(=O)Nc1cccc(S(N)(=O)=O)c1)CC(=O)OCCOC(=O)c1ccc(-c2c3nc(c(-c4c(F)cccc4F)c4ccc([nH]4)c(-c4c(F)cccc4F)c4nc(c(-c5c(F)cccc5F)c5ccc2[nH]5)C=C4)C=C3)cc1
REMARK SMILES IDX 19 1 20 2 18 3 2 4 1 5 3 6 4 7 5 8 6 9 7 10 8 12 9 13 17 14
REMARK SMILES IDX 10 15 12 16 11 17 13 18 15 19 16 20 14 21 21 24 22 25 23 26
REMARK SMILES IDX 24 27 25 28 26 29 27 30 28 31 80 32 29 33 79 34 30 35 31 36
REMARK SMILES IDX 32 37 73 38 33 39 78 40 72 41 74 42 34 43 77 44 71 45 70 46
REMARK SMILES IDX 35 48 61 49 44 50 60 51 45 52 48 53 59 54 75 55 46 56 47 57
REMARK SMILES IDX 58 59 76 60 49 61 36 62 37 63 42 64 38 65 39 66 41 67 43 68
REMARK SMILES IDX 40 69 62 70 63 71 68 72 64 73 65 74 67 75 69 76 66 77 50 78
REMARK SMILES IDX 51 79 56 80 52 81 53 82 55 83 57 84 54 85
REMARK H PARENT 7 11 14 22 14 23 74 47 48 58
REMARK Flexibility Score: inf
ROOT
ATOM      1  C   UNL A   1      33.004  30.227  26.335  1.00  0.00     0.306 C 
ATOM      2  O   UNL A   1      34.061  30.534  26.874  1.00  0.00    -0.252 OA
ENDROOT
BRANCH   1   3
ATOM      3  C   UNL A   1      32.917  29.320  25.124  1.00  0.00     0.129 C 
BRANCH   3   4
ATOM      4  C   UNL A   1      32.814  27.785  25.291  1.00  0.00    -0.016 C 
ATOM      5  C   UNL A   1      31.522  27.418  26.021  1.00  0.00     0.012 C 
ATOM      6  C   UNL A   1      33.948  27.396  26.293  1.00  0.00     0.012 C 
BRANCH   4   7
ATOM      7  C   UNL A   1      33.079  26.896  24.031  1.00  0.00     0.107 C 
BRANCH   7   8
ATOM      8  C   UNL A   1      32.935  27.351  22.584  1.00  0.00     0.224 C 
ATOM      9  O   UNL A   1      33.874  27.153  21.798  1.00  0.00    -0.275 OA
ATOM     10  N   UNL A   1      31.775  27.783  22.016  1.00  0.00    -0.326 N 
ATOM     11  H   UNL A   1      31.832  27.792  21.033  1.00  0.00     0.169 HD
BRANCH  10  12
ATOM     12  C   UNL A   1      30.516  28.221  22.468  1.00  0.00     0.042 A 
ATOM     13  C   UNL A   1      29.662  27.249  23.017  1.00  0.00     0.026 A 
ATOM     14  C   UNL A   1      30.023  29.506  22.317  1.00  0.00     0.047 A 
ATOM     15  C   UNL A   1      28.345  27.558  23.385  1.00  0.00     0.004 A 
ATOM     16  C   UNL A   1      28.686  29.801  22.613  1.00  0.00     0.084 A 
ATOM     17  C   UNL A   1      27.846  28.837  23.167  1.00  0.00     0.022 A 
BRANCH  16  18
ATOM     18  S   UNL A   1      28.033  31.389  22.200  1.00  0.00     0.238 S 
ATOM     19  O   UNL A   1      27.592  31.372  20.829  1.00  0.00    -0.207 OA
ATOM     20  O   UNL A   1      27.203  31.879  23.277  1.00  0.00    -0.207 OA
BRANCH  18  21
ATOM     21  N   UNL A   1      29.401  32.366  22.252  1.00  0.00    -0.225 NA
ATOM     22  H   UNL A   1      29.343  33.070  21.517  1.00  0.00     0.137 HD
ATOM     23  H   UNL A   1      30.233  31.794  22.111  1.00  0.00     0.137 HD
ENDBRANCH  18  21
ENDBRANCH  16  18
ENDBRANCH  10  12
ENDBRANCH   7   8
ENDBRANCH   4   7
ENDBRANCH   3   4
ENDBRANCH   1   3
BRANCH   1  24
ATOM     24  O   UNL A   1      31.799  30.741  26.650  1.00  0.00    -0.462 OA
BRANCH  24  25
ATOM     25  C   UNL A   1      31.636  32.169  26.627  1.00  0.00     0.274 C 
BRANCH  25  26
ATOM     26  C   UNL A   1      32.371  32.854  27.777  1.00  0.00     0.275 C 
BRANCH  26  27
ATOM     27  O   UNL A   1      32.373  34.283  27.612  1.00  0.00    -0.458 OA
BRANCH  27  28
ATOM     28  C   UNL A   1      32.927  34.957  28.641  1.00  0.00     0.338 C 
ATOM     29  O   UNL A   1      32.514  35.974  29.166  1.00  0.00    -0.246 OA
BRANCH  28  30
ATOM     30  C   UNL A   1      34.124  34.277  29.136  1.00  0.00     0.060 A 
ATOM     31  C   UNL A   1      34.061  33.641  30.376  1.00  0.00     0.016 A 
ATOM     32  C   UNL A   1      35.337  34.409  28.464  1.00  0.00     0.016 A 
ATOM     33  C   UNL A   1      35.220  33.173  30.980  1.00  0.00     0.010 A 
ATOM     34  C   UNL A   1      36.491  33.872  29.037  1.00  0.00     0.010 A 
ATOM     35  C   UNL A   1      36.442  33.262  30.304  1.00  0.00    -0.014 A 
BRANCH  35  36
ATOM     36  C   UNL A   1      37.654  32.655  30.900  1.00  0.00     0.031 A 
ATOM     37  C   UNL A   1      38.303  31.454  30.278  1.00  0.00     0.074 A 
ATOM     38  C   UNL A   1      38.158  33.200  32.024  1.00  0.00     0.049 A 
ATOM     39  N   UNL A   1      39.354  30.784  30.675  1.00  0.00    -0.248 NA
ATOM     40  C   UNL A   1      37.699  30.941  29.040  1.00  0.00     0.031 C 
ATOM     41  C   UNL A   1      37.620  34.380  32.706  1.00  0.00     0.029 A 
ATOM     42  N   UNL A   1      39.226  32.828  32.796  1.00  0.00    -0.354 N 
ATOM     43  C   UNL A   1      39.543  29.780  29.735  1.00  0.00     0.074 A 
ATOM     44  C   UNL A   1      38.489  29.914  28.754  1.00  0.00     0.031 C 
ATOM     45  C   UNL A   1      38.360  34.635  33.794  1.00  0.00     0.029 A 
ATOM     46  C   UNL A   1      39.384  33.605  33.918  1.00  0.00     0.049 A 
ATOM     47  H   UNL A   1      39.823  32.079  32.569  1.00  0.00     0.167 HD
ATOM     48  C   UNL A   1      40.503  28.824  29.704  1.00  0.00     0.037 A 
ATOM     49  C   UNL A   1      40.232  33.475  34.954  1.00  0.00     0.037 A 
ATOM     50  C   UNL A   1      41.507  28.658  30.723  1.00  0.00     0.049 A 
ATOM     51  C   UNL A   1      41.215  32.341  34.947  1.00  0.00     0.074 A 
ATOM     52  C   UNL A   1      42.515  27.713  30.795  1.00  0.00     0.029 A 
ATOM     53  N   UNL A   1      41.609  29.440  31.864  1.00  0.00    -0.354 N 
ATOM     54  N   UNL A   1      41.410  31.421  34.032  1.00  0.00    -0.248 NA
ATOM     55  C   UNL A   1      42.092  32.222  36.119  1.00  0.00     0.031 C 
ATOM     56  C   UNL A   1      43.185  27.882  32.010  1.00  0.00     0.029 A 
ATOM     57  C   UNL A   1      42.638  28.974  32.666  1.00  0.00     0.049 A 
ATOM     58  H   UNL A   1      41.035  30.212  32.073  1.00  0.00     0.167 HD
ATOM     59  C   UNL A   1      42.449  30.632  34.504  1.00  0.00     0.074 A 
ATOM     60  C   UNL A   1      42.851  31.190  35.780  1.00  0.00     0.031 C 
ATOM     61  C   UNL A   1      43.022  29.544  33.933  1.00  0.00     0.037 A 
BRANCH  48  62
ATOM     62  C   UNL A   1      40.478  27.855  28.558  1.00  0.00     0.057 A 
ATOM     63  C   UNL A   1      41.183  28.096  27.371  1.00  0.00     0.134 A 
ATOM     64  C   UNL A   1      39.768  26.652  28.654  1.00  0.00     0.134 A 
ATOM     65  F   UNL A   1      41.868  29.238  27.206  1.00  0.00    -0.206 F 
ATOM     66  C   UNL A   1      41.171  27.180  26.316  1.00  0.00     0.040 A 
ATOM     67  C   UNL A   1      39.765  25.719  27.615  1.00  0.00     0.040 A 
ATOM     68  F   UNL A   1      39.071  26.360  29.762  1.00  0.00    -0.206 F 
ATOM     69  C   UNL A   1      40.465  25.984  26.439  1.00  0.00     0.006 A 
ENDBRANCH  48  62
BRANCH  49  70
ATOM     70  C   UNL A   1      40.164  34.427  36.090  1.00  0.00     0.057 A 
ATOM     71  C   UNL A   1      40.904  35.614  36.086  1.00  0.00     0.134 A 
ATOM     72  C   UNL A   1      39.359  34.172  37.207  1.00  0.00     0.134 A 
ATOM     73  F   UNL A   1      41.707  35.905  35.052  1.00  0.00    -0.206 F 
ATOM     74  C   UNL A   1      40.862  36.504  37.159  1.00  0.00     0.040 A 
ATOM     75  C   UNL A   1      39.284  35.067  38.275  1.00  0.00     0.040 A 
ATOM     76  F   UNL A   1      38.619  33.055  37.270  1.00  0.00    -0.206 F 
ATOM     77  C   UNL A   1      40.044  36.234  38.256  1.00  0.00     0.006 A 
ENDBRANCH  49  70
BRANCH  61  78
ATOM     78  C   UNL A   1      44.168  28.913  34.667  1.00  0.00     0.057 A 
ATOM     79  C   UNL A   1      45.492  29.322  34.468  1.00  0.00     0.134 A 
ATOM     80  C   UNL A   1      43.937  27.902  35.608  1.00  0.00     0.134 A 
ATOM     81  F   UNL A   1      45.782  30.275  33.567  1.00  0.00    -0.206 F 
ATOM     82  C   UNL A   1      46.549  28.730  35.160  1.00  0.00     0.040 A 
ATOM     83  C   UNL A   1      44.981  27.323  36.330  1.00  0.00     0.040 A 
ATOM     84  F   UNL A   1      42.690  27.471  35.853  1.00  0.00    -0.206 F 
ATOM     85  C   UNL A   1      46.293  27.733  36.100  1.00  0.00     0.006 A 
ENDBRANCH  61  78
ENDBRANCH  35  36
ENDBRANCH  28  30
ENDBRANCH  27  28
ENDBRANCH  26  27
ENDBRANCH  25  26
ENDBRANCH  24  25
ENDBRANCH   1  24
TORSDOF 17
ENDMDL
MODEL 2
REMARK VINA RESULT:     -11.3      0.352      6.380
REMARK SMILES CC(C)(CC(=O)Nc1cccc(S(N)(=O)=O)c1)CC(=O)OCCOC(=O)c1ccc(-c2c3nc(c(-c4c(F)cccc4F)c4ccc([nH]4)c(-c4c(F)cccc4F)c4nc(c(-c5c(F)cccc5F)c5ccc2[nH]5)C=C4)C=C3)cc1
REMARK SMILES IDX 19 1 20 2 18 3 2 4 1 5 3 6 4 7 5 8 6 9 7 10 8 12 9 13 17 14
REMARK SMILES IDX 10 15 12 16 11 17 13 18 15 19 16 20 14 21 21 24 22 25 23 26
REMARK SMILES IDX 24 27 25 28 26 29 27 30 28 31 80 32 29 33 79 34 30 35 31 36
REMARK SMILES IDX 32 37 73 38 33 39 78 40 72 41 74 42 34 43 77 44 71 45 70 46
REMARK SMILES IDX 35 48 61 49 44 50 60 51 45 52 48 53 59 54 75 55 46 56 47 57
REMARK SMILES IDX 58 59 76 60 49 61 36 62 37 63 42 64 38 65 39 66 41 67 43 68
REMARK SMILES IDX 40 69 62 70 63 71 68 72 64 73 65 74 67 75 69 76 66 77 50 78
REMARK SMILES IDX 51 79 56 80 52 81 53 82 55 83 57 84 54 85
REMARK H PARENT 7 11 14 22 14 23 74 47 48 58
REMARK Flexibility Score: inf
ROOT
ATOM      1  C   UNL A   1      33.068  30.304  26.475  1.00  0.00     0.306 C 
ATOM      2  O   UNL A   1      34.173  30.543  26.949  1.00  0.00    -0.252 OA
ENDROOT
BRANCH   1   3
ATOM      3  C   UNL A   1      32.853  29.421  25.262  1.00  0.00     0.129 C 
BRANCH   3   4
ATOM      4  C   UNL A   1      32.782  27.881  25.405  1.00  0.00    -0.016 C 
ATOM      5  C   UNL A   1      31.471  27.473  26.075  1.00  0.00     0.012 C 
ATOM      6  C   UNL A   1      33.883  27.507  26.449  1.00  0.00     0.012 C 
BRANCH   4   7
ATOM      7  C   UNL A   1      33.124  27.017  24.146  1.00  0.00     0.107 C 
BRANCH   7   8
ATOM      8  C   UNL A   1      33.022  27.486  22.700  1.00  0.00     0.224 C 
ATOM      9  O   UNL A   1      33.991  27.308  21.945  1.00  0.00    -0.275 OA
ATOM     10  N   UNL A   1      31.877  27.909  22.097  1.00  0.00    -0.326 N 
ATOM     11  H   UNL A   1      31.968  27.928  21.116  1.00  0.00     0.169 HD
BRANCH  10  12
ATOM     12  C   UNL A   1      30.598  28.324  22.510  1.00  0.00     0.042 A 
ATOM     13  C   UNL A   1      29.732  27.333  23.004  1.00  0.00     0.026 A 
ATOM     14  C   UNL A   1      30.098  29.608  22.369  1.00  0.00     0.047 A 
ATOM     15  C   UNL A   1      28.400  27.621  23.328  1.00  0.00     0.004 A 
ATOM     16  C   UNL A   1      28.747  29.884  22.620  1.00  0.00     0.084 A 
ATOM     17  C   UNL A   1      27.896  28.901  23.120  1.00  0.00     0.022 A 
BRANCH  16  18
ATOM     18  S   UNL A   1      28.094  31.474  22.217  1.00  0.00     0.238 S 
ATOM     19  O   UNL A   1      27.744  31.497  20.820  1.00  0.00    -0.207 OA
ATOM     20  O   UNL A   1      27.187  31.915  23.253  1.00  0.00    -0.207 OA
BRANCH  18  21
ATOM     21  N   UNL A   1      29.438  32.471  22.391  1.00  0.00    -0.225 NA
ATOM     22  H   UNL A   1      29.408  32.927  23.302  1.00  0.00     0.137 HD
ATOM     23  H   UNL A   1      29.433  33.179  21.656  1.00  0.00     0.137 HD
ENDBRANCH  18  21
ENDBRANCH  16  18
ENDBRANCH  10  12
ENDBRANCH   7   8
ENDBRANCH   4   7
ENDBRANCH   3   4
ENDBRANCH   1   3
BRANCH   1  24
ATOM     24  O   UNL A   1      31.917  30.878  26.873  1.00  0.00    -0.462 OA
BRANCH  24  25
ATOM     25  C   UNL A   1      31.786  32.305  26.753  1.00  0.00     0.274 C 
BRANCH  25  26
ATOM     26  C   UNL A   1      32.517  33.048  27.868  1.00  0.00     0.275 C 
BRANCH  26  27
ATOM     27  O   UNL A   1      32.593  34.458  27.589  1.00  0.00    -0.458 OA
BRANCH  27  28
ATOM     28  C   UNL A   1      32.963  35.211  28.645  1.00  0.00     0.338 C 
ATOM     29  O   UNL A   1      32.438  36.233  29.045  1.00  0.00    -0.246 OA
BRANCH  28  30
ATOM     30  C   UNL A   1      34.104  34.618  29.343  1.00  0.00     0.060 A 
ATOM     31  C   UNL A   1      35.337  34.587  28.692  1.00  0.00     0.016 A 
ATOM     32  C   UNL A   1      33.920  33.953  30.553  1.00  0.00     0.016 A 
ATOM     33  C   UNL A   1      36.387  33.849  29.220  1.00  0.00     0.010 A 
ATOM     34  C   UNL A   1      34.998  33.272  31.122  1.00  0.00     0.010 A 
ATOM     35  C   UNL A   1      36.234  33.205  30.454  1.00  0.00    -0.014 A 
BRANCH  35  36
ATOM     36  C   UNL A   1      37.393  32.519  31.070  1.00  0.00     0.031 A 
ATOM     37  C   UNL A   1      38.002  33.024  32.344  1.00  0.00     0.074 A 
ATOM     38  C   UNL A   1      37.897  31.432  30.454  1.00  0.00     0.049 A 
ATOM     39  N   UNL A   1      39.029  32.560  33.010  1.00  0.00    -0.248 NA
ATOM     40  C   UNL A   1      37.373  34.201  32.959  1.00  0.00     0.031 C 
ATOM     41  C   UNL A   1      37.372  30.841  29.220  1.00  0.00     0.029 A 
ATOM     42  N   UNL A   1      38.967  30.640  30.774  1.00  0.00    -0.354 N 
ATOM     43  C   UNL A   1      39.162  33.379  34.124  1.00  0.00     0.074 A 
ATOM     44  C   UNL A   1      38.123  34.382  34.038  1.00  0.00     0.031 C 
ATOM     45  C   UNL A   1      38.121  29.780  28.888  1.00  0.00     0.029 A 
ATOM     46  C   UNL A   1      39.210  29.654  29.849  1.00  0.00     0.049 A 
ATOM     47  H   UNL A   1      39.508  30.763  31.587  1.00  0.00     0.167 HD
ATOM     48  C   UNL A   1      40.078  33.306  35.118  1.00  0.00     0.037 A 
ATOM     49  C   UNL A   1      40.223  28.774  29.761  1.00  0.00     0.037 A 
ATOM     50  C   UNL A   1      41.149  32.345  35.158  1.00  0.00     0.049 A 
ATOM     51  C   UNL A   1      41.287  28.787  30.820  1.00  0.00     0.074 A 
ATOM     52  C   UNL A   1      42.140  32.195  36.112  1.00  0.00     0.029 A 
ATOM     53  N   UNL A   1      41.386  31.389  34.182  1.00  0.00    -0.354 N 
ATOM     54  N   UNL A   1      41.379  29.539  31.891  1.00  0.00    -0.248 NA
ATOM     55  C   UNL A   1      42.390  27.831  30.658  1.00  0.00     0.031 C 
ATOM     56  C   UNL A   1      43.013  31.192  35.680  1.00  0.00     0.029 A 
ATOM     57  C   UNL A   1      42.531  30.671  34.490  1.00  0.00     0.049 A 
ATOM     58  H   UNL A   1      40.824  31.240  33.387  1.00  0.00     0.167 HD
ATOM     59  C   UNL A   1      42.534  29.131  32.542  1.00  0.00     0.074 A 
ATOM     60  C   UNL A   1      43.100  28.055  31.754  1.00  0.00     0.031 C 
ATOM     61  C   UNL A   1      43.077  29.602  33.692  1.00  0.00     0.037 A 
BRANCH  48  62
ATOM     62  C   UNL A   1      39.990  34.326  36.217  1.00  0.00     0.057 A 
ATOM     63  C   UNL A   1      39.268  34.085  37.393  1.00  0.00     0.134 A 
ATOM     64  C   UNL A   1      40.662  35.550  36.111  1.00  0.00     0.134 A 
ATOM     65  F   UNL A   1      38.585  32.941  37.550  1.00  0.00    -0.206 F 
ATOM     66  C   UNL A   1      39.207  35.032  38.419  1.00  0.00     0.040 A 
ATOM     67  C   UNL A   1      40.626  36.495  37.138  1.00  0.00     0.040 A 
ATOM     68  F   UNL A   1      41.371  35.845  35.011  1.00  0.00    -0.206 F 
ATOM     69  C   UNL A   1      39.893  36.239  38.295  1.00  0.00     0.006 A 
ENDBRANCH  48  62
BRANCH  49  70
ATOM     70  C   UNL A   1      40.290  27.833  28.616  1.00  0.00     0.057 A 
ATOM     71  C   UNL A   1      39.665  26.583  28.667  1.00  0.00     0.134 A 
ATOM     72  C   UNL A   1      40.982  28.161  27.443  1.00  0.00     0.134 A 
ATOM     73  F   UNL A   1      39.001  26.205  29.771  1.00  0.00    -0.206 F 
ATOM     74  C   UNL A   1      39.740  25.684  27.603  1.00  0.00     0.040 A 
ATOM     75  C   UNL A   1      41.042  27.284  26.359  1.00  0.00     0.040 A 
ATOM     76  F   UNL A   1      41.598  29.347  27.327  1.00  0.00    -0.206 F 
ATOM     77  C   UNL A   1      40.425  26.038  26.441  1.00  0.00     0.006 A 
ENDBRANCH  49  70
BRANCH  61  78
ATOM     78  C   UNL A   1      44.324  28.929  34.182  1.00  0.00     0.057 A 
ATOM     79  C   UNL A   1      44.283  27.821  35.037  1.00  0.00     0.134 A 
ATOM     80  C   UNL A   1      45.584  29.380  33.766  1.00  0.00     0.134 A 
ATOM     81  F   UNL A   1      43.108  27.351  35.484  1.00  0.00    -0.206 F 
ATOM     82  C   UNL A   1      45.450  27.200  35.482  1.00  0.00     0.040 A 
ATOM     83  C   UNL A   1      46.758  28.749  34.180  1.00  0.00     0.040 A 
ATOM     84  F   UNL A   1      45.693  30.431  32.940  1.00  0.00    -0.206 F 
ATOM     85  C   UNL A   1      46.693  27.660  35.047  1.00  0.00     0.006 A 
ENDBRANCH  61  78
ENDBRANCH  35  36
ENDBRANCH  28  30
ENDBRANCH  27  28
ENDBRANCH  26  27
ENDBRANCH  25  26
ENDBRANCH  24  25
ENDBRANCH   1  24
TORSDOF 17
ENDMDL
MODEL 3
REMARK VINA RESULT:     -11.2      4.826      9.305
REMARK SMILES CC(C)(CC(=O)Nc1cccc(S(N)(=O)=O)c1)CC(=O)OCCOC(=O)c1ccc(-c2c3nc(c(-c4c(F)cccc4F)c4ccc([nH]4)c(-c4c(F)cccc4F)c4nc(c(-c5c(F)cccc5F)c5ccc2[nH]5)C=C4)C=C3)cc1
REMARK SMILES IDX 19 1 20 2 18 3 2 4 1 5 3 6 4 7 5 8 6 9 7 10 8 12 9 13 17 14
REMARK SMILES IDX 10 15 12 16 11 17 13 18 15 19 16 20 14 21 21 24 22 25 23 26
REMARK SMILES IDX 24 27 25 28 26 29 27 30 28 31 80 32 29 33 79 34 30 35 31 36
REMARK SMILES IDX 32 37 73 38 33 39 78 40 72 41 74 42 34 43 77 44 71 45 70 46
REMARK SMILES IDX 35 48 61 49 44 50 60 51 45 52 48 53 59 54 75 55 46 56 47 57
REMARK SMILES IDX 58 59 76 60 49 61 36 62 37 63 42 64 38 65 39 66 41 67 43 68
REMARK SMILES IDX 40 69 62 70 63 71 68 72 64 73 65 74 67 75 69 76 66 77 50 78
REMARK SMILES IDX 51 79 56 80 52 81 53 82 55 83 57 84 54 85
REMARK H PARENT 7 11 14 22 14 23 74 47 48 58
REMARK Flexibility Score: inf
ROOT
ATOM      1  C   UNL A   1      35.063  24.191  25.008  1.00  0.00     0.306 C 
ATOM      2  O   UNL A   1      34.540  25.239  24.649  1.00  0.00    -0.252 OA
ENDROOT
BRANCH   1   3
ATOM      3  C   UNL A   1      34.739  23.501  26.317  1.00  0.00     0.129 C 
BRANCH   3   4
ATOM      4  C   UNL A   1      33.309  22.983  26.605  1.00  0.00    -0.016 C 
ATOM      5  C   UNL A   1      33.353  21.846  27.626  1.00  0.00     0.012 C 
ATOM      6  C   UNL A   1      32.837  22.296  25.283  1.00  0.00     0.012 C 
BRANCH   4   7
ATOM      7  C   UNL A   1      32.200  24.042  26.916  1.00  0.00     0.107 C 
BRANCH   7   8
ATOM      8  C   UNL A   1      30.719  23.892  26.590  1.00  0.00     0.224 C 
ATOM      9  O   UNL A   1      30.022  23.154  27.304  1.00  0.00    -0.275 OA
ATOM     10  N   UNL A   1      30.037  24.658  25.694  1.00  0.00    -0.326 N 
ATOM     11  H   UNL A   1      29.063  24.573  25.810  1.00  0.00     0.169 HD
BRANCH  10  12
ATOM     12  C   UNL A   1      30.362  25.540  24.647  1.00  0.00     0.042 A 
ATOM     13  C   UNL A   1      29.475  26.606  24.412  1.00  0.00     0.026 A 
ATOM     14  C   UNL A   1      31.424  25.377  23.775  1.00  0.00     0.047 A 
ATOM     15  C   UNL A   1      29.643  27.468  23.320  1.00  0.00     0.004 A 
ATOM     16  C   UNL A   1      31.553  26.190  22.641  1.00  0.00     0.084 A 
ATOM     17  C   UNL A   1      30.679  27.252  22.417  1.00  0.00     0.022 A 
BRANCH  16  18
ATOM     18  S   UNL A   1      32.787  25.813  21.436  1.00  0.00     0.238 S 
ATOM     19  O   UNL A   1      33.680  26.936  21.312  1.00  0.00    -0.207 OA
ATOM     20  O   UNL A   1      33.262  24.460  21.617  1.00  0.00    -0.207 OA
BRANCH  18  21
ATOM     21  N   UNL A   1      31.894  25.752  20.012  1.00  0.00    -0.225 NA
ATOM     22  H   UNL A   1      32.522  25.833  19.212  1.00  0.00     0.137 HD
ATOM     23  H   UNL A   1      31.225  26.522  19.997  1.00  0.00     0.137 HD
ENDBRANCH  18  21
ENDBRANCH  16  18
ENDBRANCH  10  12
ENDBRANCH   7   8
ENDBRANCH   4   7
ENDBRANCH   3   4
ENDBRANCH   1   3
BRANCH   1  24
ATOM     24  O   UNL A   1      36.076  23.576  24.367  1.00  0.00    -0.462 OA
BRANCH  24  25
ATOM     25  C   UNL A   1      35.955  22.171  24.085  1.00  0.00     0.274 C 
BRANCH  25  26
ATOM     26  C   UNL A   1      37.233  21.403  24.415  1.00  0.00     0.275 C 
BRANCH  26  27
ATOM     27  O   UNL A   1      37.560  21.518  25.812  1.00  0.00    -0.458 OA
BRANCH  27  28
ATOM     28  C   UNL A   1      38.863  21.312  26.093  1.00  0.00     0.338 C 
ATOM     29  O   UNL A   1      39.503  20.291  25.924  1.00  0.00    -0.246 OA
BRANCH  28  30
ATOM     30  C   UNL A   1      39.493  22.528  26.608  1.00  0.00     0.060 A 
ATOM     31  C   UNL A   1      39.053  23.759  26.123  1.00  0.00     0.016 A 
ATOM     32  C   UNL A   1      40.613  22.446  27.432  1.00  0.00     0.016 A 
ATOM     33  C   UNL A   1      39.758  24.917  26.416  1.00  0.00     0.010 A 
ATOM     34  C   UNL A   1      41.279  23.621  27.787  1.00  0.00     0.010 A 
ATOM     35  C   UNL A   1      40.864  24.862  27.272  1.00  0.00    -0.014 A 
BRANCH  35  36
ATOM     36  C   UNL A   1      41.540  26.115  27.677  1.00  0.00     0.031 A 
ATOM     37  C   UNL A   1      40.808  27.174  28.447  1.00  0.00     0.074 A 
ATOM     38  C   UNL A   1      42.830  26.289  27.330  1.00  0.00     0.049 A 
ATOM     39  N   UNL A   1      41.237  28.338  28.865  1.00  0.00    -0.248 NA
ATOM     40  C   UNL A   1      39.411  26.889  28.803  1.00  0.00     0.031 C 
ATOM     41  C   UNL A   1      43.646  25.317  26.597  1.00  0.00     0.029 A 
ATOM     42  N   UNL A   1      43.675  27.347  27.535  1.00  0.00    -0.354 N 
ATOM     43  C   UNL A   1      40.171  28.917  29.539  1.00  0.00     0.074 A 
ATOM     44  C   UNL A   1      39.066  27.987  29.462  1.00  0.00     0.031 C 
ATOM     45  C   UNL A   1      44.874  25.824  26.415  1.00  0.00     0.029 A 
ATOM     46  C   UNL A   1      44.912  27.174  26.963  1.00  0.00     0.049 A 
ATOM     47  H   UNL A   1      43.423  28.151  28.044  1.00  0.00     0.167 HD
ATOM     48  C   UNL A   1      40.118  30.122  30.155  1.00  0.00     0.037 A 
ATOM     49  C   UNL A   1      45.947  28.026  26.854  1.00  0.00     0.037 A 
ATOM     50  C   UNL A   1      41.203  31.069  30.166  1.00  0.00     0.049 A 
ATOM     51  C   UNL A   1      45.821  29.398  27.450  1.00  0.00     0.074 A 
ATOM     52  C   UNL A   1      41.248  32.324  30.747  1.00  0.00     0.029 A 
ATOM     53  N   UNL A   1      42.426  30.874  29.541  1.00  0.00    -0.354 N 
ATOM     54  N   UNL A   1      44.822  29.919  28.122  1.00  0.00    -0.248 NA
ATOM     55  C   UNL A   1      46.964  30.302  27.271  1.00  0.00     0.031 C 
ATOM     56  C   UNL A   1      42.472  32.914  30.418  1.00  0.00     0.029 A 
ATOM     57  C   UNL A   1      43.217  32.002  29.688  1.00  0.00     0.049 A 
ATOM     58  H   UNL A   1      42.693  30.055  29.064  1.00  0.00     0.167 HD
ATOM     59  C   UNL A   1      45.226  31.201  28.468  1.00  0.00     0.074 A 
ATOM     60  C   UNL A   1      46.566  31.372  27.944  1.00  0.00     0.031 C 
ATOM     61  C   UNL A   1      44.550  32.152  29.159  1.00  0.00     0.037 A 
BRANCH  48  62
ATOM     62  C   UNL A   1      38.827  30.504  30.820  1.00  0.00     0.057 A 
ATOM     63  C   UNL A   1      37.818  31.195  30.136  1.00  0.00     0.134 A 
ATOM     64  C   UNL A   1      38.578  30.149  32.152  1.00  0.00     0.134 A 
ATOM     65  F   UNL A   1      38.001  31.582  28.864  1.00  0.00    -0.206 F 
ATOM     66  C   UNL A   1      36.613  31.530  30.757  1.00  0.00     0.040 A 
ATOM     67  C   UNL A   1      37.368  30.460  32.777  1.00  0.00     0.040 A 
ATOM     68  F   UNL A   1      39.502  29.489  32.865  1.00  0.00    -0.206 F 
ATOM     69  C   UNL A   1      36.383  31.156  32.080  1.00  0.00     0.006 A 
ENDBRANCH  48  62
BRANCH  49  70
ATOM     70  C   UNL A   1      47.172  27.614  26.127  1.00  0.00     0.057 A 
ATOM     71  C   UNL A   1      47.252  27.700  24.733  1.00  0.00     0.134 A 
ATOM     72  C   UNL A   1      48.292  27.121  26.808  1.00  0.00     0.134 A 
ATOM     73  F   UNL A   1      46.205  28.148  24.024  1.00  0.00    -0.206 F 
ATOM     74  C   UNL A   1      48.393  27.295  24.040  1.00  0.00     0.040 A 
ATOM     75  C   UNL A   1      49.451  26.739  26.131  1.00  0.00     0.040 A 
ATOM     76  F   UNL A   1      48.283  27.019  28.146  1.00  0.00    -0.206 F 
ATOM     77  C   UNL A   1      49.500  26.819  24.741  1.00  0.00     0.006 A 
ENDBRANCH  49  70
BRANCH  61  78
ATOM     78  C   UNL A   1      45.266  33.443  29.419  1.00  0.00     0.057 A 
ATOM     79  C   UNL A   1      46.079  33.628  30.544  1.00  0.00     0.134 A 
ATOM     80  C   UNL A   1      45.163  34.507  28.514  1.00  0.00     0.134 A 
ATOM     81  F   UNL A   1      46.206  32.653  31.459  1.00  0.00    -0.206 F 
ATOM     82  C   UNL A   1      46.744  34.832  30.773  1.00  0.00     0.040 A 
ATOM     83  C   UNL A   1      45.847  35.706  28.715  1.00  0.00     0.040 A 
ATOM     84  F   UNL A   1      44.407  34.392  27.411  1.00  0.00    -0.206 F 
ATOM     85  C   UNL A   1      46.635  35.874  29.852  1.00  0.00     0.006 A 
ENDBRANCH  61  78
ENDBRANCH  35  36
ENDBRANCH  28  30
ENDBRANCH  27  28
ENDBRANCH  26  27
ENDBRANCH  25  26
ENDBRANCH  24  25
ENDBRANCH   1  24
TORSDOF 17
ENDMDL
