MODEL 1
REMARK VINA RESULT:     -10.6      0.000      0.000
REMARK SMILES [NH3+][C@@H](Cc1c[nH]c2ccccc12)C(=O)N[C@@H](CS)C(=O)N[C@@H](CO)C(=O)OCCOC(=O)c1ccc(-c2c3nc(c(-c4c(F)cccc4F)c4ccc([nH]4)c(-c4c(F)cccc4F)c4nc(c(-c5c(F)cccc5F)c5ccc2[nH]5)C=C4)C=C3)cc1
REMARK SMILES IDX 25 1 26 2 22 3 21 4 19 5 20 6 16 8 15 9 13 10 14 11 2 13
REMARK SMILES IDX 1 14 3 18 4 19 5 20 12 21 6 22 7 23 11 24 8 26 10 27 9 28
REMARK SMILES IDX 17 29 18 30 23 32 24 33 27 35 28 36 29 37 30 38 31 39 32 40
REMARK SMILES IDX 33 41 34 42 86 43 35 44 85 45 36 46 37 47 38 48 79 49 39 50
REMARK SMILES IDX 84 51 78 52 80 53 40 54 83 55 77 56 76 57 41 59 67 60 50 61
REMARK SMILES IDX 66 62 51 63 54 64 65 65 81 66 52 67 53 68 64 70 82 71 55 72
REMARK SMILES IDX 42 73 43 74 48 75 44 76 45 77 47 78 49 79 46 80 68 81 69 82
REMARK SMILES IDX 74 83 70 84 71 85 73 86 75 87 72 88 56 89 57 90 62 91 58 92
REMARK SMILES IDX 59 93 61 94 63 95 60 96
REMARK H PARENT 21 7 15 12 1 15 1 16 1 17 6 25 18 31 24 34 80 58 54 69
REMARK Flexibility Score: inf
ROOT
ATOM      1  C   UNL A   1      31.433  28.389  23.366  1.00  0.00     0.331 C 
ATOM      2  O   UNL A   1      30.992  29.284  22.652  1.00  0.00    -0.250 OA
ENDROOT
BRANCH   1   3
ATOM      3  C   UNL A   1      32.654  27.552  22.967  1.00  0.00     0.218 C 
BRANCH   3   4
ATOM      4  N   UNL A   1      32.459  26.629  21.844  1.00  0.00    -0.339 N 
ATOM      5  C   UNL A   1      32.912  25.366  21.642  1.00  0.00     0.244 C 
ATOM      6  O   UNL A   1      33.194  25.095  20.466  1.00  0.00    -0.273 OA
ATOM      7  H   UNL A   1      31.907  26.987  21.113  1.00  0.00     0.164 HD
BRANCH   5   8
ATOM      8  C   UNL A   1      33.120  24.303  22.761  1.00  0.00     0.181 C 
BRANCH   8   9
ATOM      9  N   UNL A   1      32.200  24.473  23.878  1.00  0.00    -0.338 N 
ATOM     10  C   UNL A   1      32.435  24.441  25.217  1.00  0.00     0.279 C 
ATOM     11  O   UNL A   1      31.437  24.540  25.945  1.00  0.00    -0.268 OA
ATOM     12  H   UNL A   1      31.263  24.636  23.624  1.00  0.00     0.164 HD
BRANCH  10  13
ATOM     13  C   UNL A   1      33.826  24.204  25.863  1.00  0.00     0.275 C 
BRANCH  13  14
ATOM     14  N   UNL A   1      33.785  23.075  26.816  1.00  0.00    -0.347 N 
ATOM     15  H   UNL A   1      34.278  22.275  26.418  1.00  0.00     0.345 HD
ATOM     16  H   UNL A   1      32.815  22.820  27.000  1.00  0.00     0.345 HD
ATOM     17  H   UNL A   1      34.235  23.351  27.689  1.00  0.00     0.345 HD
ENDBRANCH  13  14
BRANCH  13  18
ATOM     18  C   UNL A   1      35.080  24.341  24.972  1.00  0.00     0.113 C 
BRANCH  18  19
ATOM     19  C   UNL A   1      36.217  23.356  25.025  1.00  0.00    -0.016 A 
ATOM     20  C   UNL A   1      36.205  22.145  24.354  1.00  0.00     0.087 A 
ATOM     21  C   UNL A   1      37.488  23.417  25.706  1.00  0.00     0.003 A 
ATOM     22  N   UNL A   1      37.347  21.458  24.652  1.00  0.00    -0.361 N 
ATOM     23  C   UNL A   1      38.128  22.190  25.510  1.00  0.00     0.046 A 
ATOM     24  C   UNL A   1      38.127  24.350  26.546  1.00  0.00     0.010 A 
ATOM     25  H   UNL A   1      37.576  20.566  24.303  1.00  0.00     0.166 HD
ATOM     26  C   UNL A   1      39.333  21.840  26.132  1.00  0.00     0.026 A 
ATOM     27  C   UNL A   1      39.301  23.995  27.215  1.00  0.00     0.001 A 
ATOM     28  C   UNL A   1      39.899  22.761  27.008  1.00  0.00     0.002 A 
ENDBRANCH  18  19
ENDBRANCH  13  18
ENDBRANCH  10  13
ENDBRANCH   8   9
BRANCH   8  29
ATOM     29  C   UNL A   1      33.394  22.856  22.352  1.00  0.00     0.101 C 
BRANCH  29  30
ATOM     30  S   UNL A   1      32.117  21.630  22.822  1.00  0.00    -0.177 SA
ATOM     31  H   UNL A   1      30.944  22.271  23.073  1.00  0.00     0.102 HD
ENDBRANCH  29  30
ENDBRANCH   8  29
ENDBRANCH   5   8
ENDBRANCH   3   4
BRANCH   3  32
ATOM     32  C   UNL A   1      33.807  28.517  22.647  1.00  0.00     0.193 C 
BRANCH  32  33
ATOM     33  O   UNL A   1      33.656  29.749  23.358  1.00  0.00    -0.394 OA
ATOM     34  H   UNL A   1      34.290  30.400  23.015  1.00  0.00     0.210 HD
ENDBRANCH  32  33
ENDBRANCH   3  32
ENDBRANCH   1   3
BRANCH   1  35
ATOM     35  O   UNL A   1      30.879  27.995  24.547  1.00  0.00    -0.460 OA
BRANCH  35  36
ATOM     36  C   UNL A   1      31.735  28.095  25.704  1.00  0.00     0.274 C 
BRANCH  36  37
ATOM     37  C   UNL A   1      31.758  29.518  26.249  1.00  0.00     0.275 C 
BRANCH  37  38
ATOM     38  O   UNL A   1      33.043  30.122  26.003  1.00  0.00    -0.458 OA
BRANCH  38  39
ATOM     39  C   UNL A   1      33.417  31.042  26.920  1.00  0.00     0.338 C 
ATOM     40  O   UNL A   1      32.778  32.007  27.299  1.00  0.00    -0.246 OA
BRANCH  39  41
ATOM     41  C   UNL A   1      34.757  30.740  27.447  1.00  0.00     0.060 A 
ATOM     42  C   UNL A   1      35.135  29.415  27.633  1.00  0.00     0.016 A 
ATOM     43  C   UNL A   1      35.555  31.772  27.942  1.00  0.00     0.016 A 
ATOM     44  C   UNL A   1      36.237  29.122  28.440  1.00  0.00     0.010 A 
ATOM     45  C   UNL A   1      36.726  31.470  28.649  1.00  0.00     0.010 A 
ATOM     46  C   UNL A   1      37.053  30.141  28.965  1.00  0.00    -0.014 A 
BRANCH  46  47
ATOM     47  C   UNL A   1      38.217  29.798  29.846  1.00  0.00     0.031 A 
ATOM     48  C   UNL A   1      39.335  28.896  29.371  1.00  0.00     0.074 A 
ATOM     49  C   UNL A   1      38.320  30.351  31.072  1.00  0.00     0.049 A 
ATOM     50  N   UNL A   1      40.446  28.554  29.984  1.00  0.00    -0.248 NA
ATOM     51  C   UNL A   1      39.211  28.316  28.028  1.00  0.00     0.031 C 
ATOM     52  C   UNL A   1      37.349  31.266  31.674  1.00  0.00     0.029 A 
ATOM     53  N   UNL A   1      39.302  30.237  32.028  1.00  0.00    -0.354 N 
ATOM     54  C   UNL A   1      41.151  27.754  29.091  1.00  0.00     0.074 A 
ATOM     55  C   UNL A   1      40.346  27.647  27.896  1.00  0.00     0.031 C 
ATOM     56  C   UNL A   1      37.804  31.669  32.868  1.00  0.00     0.029 A 
ATOM     57  C   UNL A   1      39.055  30.977  33.160  1.00  0.00     0.049 A 
ATOM     58  H   UNL A   1      40.104  29.677  31.914  1.00  0.00     0.167 HD
ATOM     59  C   UNL A   1      42.350  27.142  29.245  1.00  0.00     0.037 A 
ATOM     60  C   UNL A   1      39.729  31.065  34.322  1.00  0.00     0.037 A 
ATOM     61  C   UNL A   1      43.132  27.159  30.451  1.00  0.00     0.049 A 
ATOM     62  C   UNL A   1      40.973  30.252  34.529  1.00  0.00     0.074 A 
ATOM     63  C   UNL A   1      44.337  26.524  30.708  1.00  0.00     0.029 A 
ATOM     64  N   UNL A   1      42.772  27.816  31.614  1.00  0.00    -0.354 N 
ATOM     65  N   UNL A   1      41.614  29.495  33.675  1.00  0.00    -0.248 NA
ATOM     66  C   UNL A   1      41.566  30.281  35.874  1.00  0.00     0.031 C 
ATOM     67  C   UNL A   1      44.677  26.753  32.046  1.00  0.00     0.029 A 
ATOM     68  C   UNL A   1      43.707  27.567  32.606  1.00  0.00     0.049 A 
ATOM     69  H   UNL A   1      41.971  28.379  31.721  1.00  0.00     0.167 HD
ATOM     70  C   UNL A   1      42.679  28.948  34.380  1.00  0.00     0.074 A 
ATOM     71  C   UNL A   1      42.614  29.483  35.724  1.00  0.00     0.031 C 
ATOM     72  C   UNL A   1      43.620  28.075  33.949  1.00  0.00     0.037 A 
BRANCH  59  73
ATOM     73  C   UNL A   1      42.871  26.348  28.086  1.00  0.00     0.057 A 
ATOM     74  C   UNL A   1      43.571  26.955  27.037  1.00  0.00     0.134 A 
ATOM     75  C   UNL A   1      42.708  24.958  28.041  1.00  0.00     0.134 A 
ATOM     76  F   UNL A   1      43.748  28.285  27.017  1.00  0.00    -0.206 F 
ATOM     77  C   UNL A   1      44.088  26.205  25.978  1.00  0.00     0.040 A 
ATOM     78  C   UNL A   1      43.231  24.196  26.996  1.00  0.00     0.040 A 
ATOM     79  F   UNL A   1      42.043  24.321  29.017  1.00  0.00    -0.206 F 
ATOM     80  C   UNL A   1      43.924  24.820  25.960  1.00  0.00     0.006 A 
ENDBRANCH  59  73
BRANCH  60  81
ATOM     81  C   UNL A   1      39.192  31.913  35.415  1.00  0.00     0.057 A 
ATOM     82  C   UNL A   1      39.519  33.268  35.514  1.00  0.00     0.134 A 
ATOM     83  C   UNL A   1      38.322  31.383  36.377  1.00  0.00     0.134 A 
ATOM     84  F   UNL A   1      40.372  33.822  34.639  1.00  0.00    -0.206 F 
ATOM     85  C   UNL A   1      38.996  34.071  36.528  1.00  0.00     0.040 A 
ATOM     86  C   UNL A   1      37.771  32.179  37.380  1.00  0.00     0.040 A 
ATOM     87  F   UNL A   1      37.975  30.088  36.338  1.00  0.00    -0.206 F 
ATOM     88  C   UNL A   1      38.110  33.528  37.459  1.00  0.00     0.006 A 
ENDBRANCH  60  81
BRANCH  72  89
ATOM     89  C   UNL A   1      44.643  27.625  34.946  1.00  0.00     0.057 A 
ATOM     90  C   UNL A   1      44.474  26.445  35.682  1.00  0.00     0.134 A 
ATOM     91  C   UNL A   1      45.814  28.361  35.158  1.00  0.00     0.134 A 
ATOM     92  F   UNL A   1      43.366  25.704  35.532  1.00  0.00    -0.206 F 
ATOM     93  C   UNL A   1      45.429  26.022  36.608  1.00  0.00     0.040 A 
ATOM     94  C   UNL A   1      46.784  27.939  36.069  1.00  0.00     0.040 A 
ATOM     95  F   UNL A   1      46.037  29.497  34.480  1.00  0.00    -0.206 F 
ATOM     96  C   UNL A   1      46.590  26.769  36.800  1.00  0.00     0.006 A 
ENDBRANCH  72  89
ENDBRANCH  46  47
ENDBRANCH  39  41
ENDBRANCH  38  39
ENDBRANCH  37  38
ENDBRANCH  36  37
ENDBRANCH  35  36
ENDBRANCH   1  35
TORSDOF 22
ENDMDL
MODEL 2
REMARK VINA RESULT:     -10.6      2.968      7.853
REMARK SMILES [NH3+][C@@H](Cc1c[nH]c2ccccc12)C(=O)N[C@@H](CS)C(=O)N[C@@H](CO)C(=O)OCCOC(=O)c1ccc(-c2c3nc(c(-c4c(F)cccc4F)c4ccc([nH]4)c(-c4c(F)cccc4F)c4nc(c(-c5c(F)cccc5F)c5ccc2[nH]5)C=C4)C=C3)cc1
REMARK SMILES IDX 25 1 26 2 22 3 21 4 19 5 20 6 16 8 15 9 13 10 14 11 2 13
REMARK SMILES IDX 1 14 3 18 4 19 5 20 12 21 6 22 7 23 11 24 8 26 10 27 9 28
REMARK SMILES IDX 17 29 18 30 23 32 24 33 27 35 28 36 29 37 30 38 31 39 32 40
REMARK SMILES IDX 33 41 34 42 86 43 35 44 85 45 36 46 37 47 38 48 79 49 39 50
REMARK SMILES IDX 84 51 78 52 80 53 40 54 83 55 77 56 76 57 41 59 67 60 50 61
REMARK SMILES IDX 66 62 51 63 54 64 65 65 81 66 52 67 53 68 64 70 82 71 55 72
REMARK SMILES IDX 42 73 43 74 48 75 44 76 45 77 47 78 49 79 46 80 68 81 69 82
REMARK SMILES IDX 74 83 70 84 71 85 73 86 75 87 72 88 56 89 57 90 62 91 58 92
REMARK SMILES IDX 59 93 61 94 63 95 60 96
REMARK H PARENT 21 7 15 12 1 15 1 16 1 17 6 25 18 31 24 34 80 58 54 69
REMARK Flexibility Score: inf
ROOT
ATOM      1  C   UNL A   1      38.140  20.777  25.389  1.00  0.00     0.331 C 
ATOM      2  O   UNL A   1      38.412  19.696  24.877  1.00  0.00    -0.250 OA
ENDROOT
BRANCH   1   3
ATOM      3  C   UNL A   1      36.829  21.515  25.090  1.00  0.00     0.218 C 
BRANCH   3   4
ATOM      4  N   UNL A   1      35.946  21.744  26.238  1.00  0.00    -0.339 N 
ATOM      5  C   UNL A   1      34.654  22.155  26.299  1.00  0.00     0.244 C 
ATOM      6  O   UNL A   1      34.383  22.882  27.265  1.00  0.00    -0.273 OA
ATOM      7  H   UNL A   1      36.361  21.571  27.113  1.00  0.00     0.164 HD
BRANCH   5   8
ATOM      8  C   UNL A   1      33.557  21.807  25.249  1.00  0.00     0.181 C 
BRANCH   8   9
ATOM      9  N   UNL A   1      33.877  22.298  23.915  1.00  0.00    -0.338 N 
ATOM     10  C   UNL A   1      33.821  23.559  23.409  1.00  0.00     0.279 C 
ATOM     11  O   UNL A   1      34.080  23.672  22.203  1.00  0.00    -0.268 OA
ATOM     12  H   UNL A   1      34.182  21.609  23.281  1.00  0.00     0.164 HD
BRANCH  10  13
ATOM     13  C   UNL A   1      33.377  24.811  24.211  1.00  0.00     0.275 C 
BRANCH  13  14
ATOM     14  N   UNL A   1      34.406  25.205  25.197  1.00  0.00    -0.347 N 
ATOM     15  H   UNL A   1      34.115  24.910  26.129  1.00  0.00     0.345 HD
ATOM     16  H   UNL A   1      34.522  26.219  25.181  1.00  0.00     0.345 HD
ATOM     17  H   UNL A   1      35.291  24.758  24.960  1.00  0.00     0.345 HD
ENDBRANCH  13  14
BRANCH  13  18
ATOM     18  C   UNL A   1      32.641  25.941  23.457  1.00  0.00     0.113 C 
BRANCH  18  19
ATOM     19  C   UNL A   1      32.750  27.385  23.865  1.00  0.00    -0.016 A 
ATOM     20  C   UNL A   1      33.313  28.362  23.061  1.00  0.00     0.087 A 
ATOM     21  C   UNL A   1      32.326  28.061  25.068  1.00  0.00     0.003 A 
ATOM     22  N   UNL A   1      33.319  29.549  23.736  1.00  0.00    -0.361 N 
ATOM     23  C   UNL A   1      32.764  29.386  24.980  1.00  0.00     0.046 A 
ATOM     24  C   UNL A   1      31.698  27.668  26.266  1.00  0.00     0.010 A 
ATOM     25  H   UNL A   1      33.671  30.397  23.382  1.00  0.00     0.166 HD
ATOM     26  C   UNL A   1      32.642  30.310  26.025  1.00  0.00     0.026 A 
ATOM     27  C   UNL A   1      31.618  28.563  27.336  1.00  0.00     0.001 A 
ATOM     28  C   UNL A   1      32.077  29.866  27.217  1.00  0.00     0.002 A 
ENDBRANCH  18  19
ENDBRANCH  13  18
ENDBRANCH  10  13
ENDBRANCH   8   9
BRANCH   8  29
ATOM     29  C   UNL A   1      32.909  20.425  25.301  1.00  0.00     0.101 C 
BRANCH  29  30
ATOM     30  S   UNL A   1      33.948  19.026  24.734  1.00  0.00    -0.177 SA
ATOM     31  H   UNL A   1      34.670  18.544  25.781  1.00  0.00     0.102 HD
ENDBRANCH  29  30
ENDBRANCH   8  29
ENDBRANCH   5   8
ENDBRANCH   3   4
BRANCH   3  32
ATOM     32  C   UNL A   1      37.180  22.859  24.433  1.00  0.00     0.193 C 
BRANCH  32  33
ATOM     33  O   UNL A   1      37.794  23.745  25.373  1.00  0.00    -0.394 OA
ATOM     34  H   UNL A   1      37.247  24.542  25.471  1.00  0.00     0.210 HD
ENDBRANCH  32  33
ENDBRANCH   3  32
ENDBRANCH   1   3
BRANCH   1  35
ATOM     35  O   UNL A   1      38.964  21.470  26.222  1.00  0.00    -0.460 OA
BRANCH  35  36
ATOM     36  C   UNL A   1      40.343  21.045  26.236  1.00  0.00     0.274 C 
BRANCH  36  37
ATOM     37  C   UNL A   1      41.260  22.169  26.705  1.00  0.00     0.275 C 
BRANCH  37  38
ATOM     38  O   UNL A   1      40.611  23.444  26.530  1.00  0.00    -0.458 OA
BRANCH  38  39
ATOM     39  C   UNL A   1      41.456  24.490  26.394  1.00  0.00     0.338 C 
ATOM     40  O   UNL A   1      42.448  24.550  25.689  1.00  0.00    -0.246 OA
BRANCH  39  41
ATOM     41  C   UNL A   1      41.030  25.618  27.236  1.00  0.00     0.060 A 
ATOM     42  C   UNL A   1      41.760  26.800  27.213  1.00  0.00     0.016 A 
ATOM     43  C   UNL A   1      40.031  25.430  28.191  1.00  0.00     0.016 A 
ATOM     44  C   UNL A   1      41.588  27.735  28.238  1.00  0.00     0.010 A 
ATOM     45  C   UNL A   1      39.782  26.427  29.144  1.00  0.00     0.010 A 
ATOM     46  C   UNL A   1      40.598  27.567  29.224  1.00  0.00    -0.014 A 
BRANCH  46  47
ATOM     47  C   UNL A   1      40.449  28.575  30.323  1.00  0.00     0.031 A 
ATOM     48  C   UNL A   1      39.440  29.700  30.241  1.00  0.00     0.074 A 
ATOM     49  C   UNL A   1      41.179  28.454  31.451  1.00  0.00     0.049 A 
ATOM     50  N   UNL A   1      39.139  30.614  31.134  1.00  0.00    -0.248 NA
ATOM     51  C   UNL A   1      38.645  29.804  29.011  1.00  0.00     0.031 C 
ATOM     52  C   UNL A   1      42.174  27.412  31.710  1.00  0.00     0.029 A 
ATOM     53  N   UNL A   1      41.184  29.206  32.602  1.00  0.00    -0.354 N 
ATOM     54  C   UNL A   1      38.110  31.371  30.583  1.00  0.00     0.074 A 
ATOM     55  C   UNL A   1      37.839  30.822  29.274  1.00  0.00     0.031 C 
ATOM     56  C   UNL A   1      42.654  27.558  32.953  1.00  0.00     0.029 A 
ATOM     57  C   UNL A   1      42.069  28.753  33.552  1.00  0.00     0.049 A 
ATOM     58  H   UNL A   1      40.610  29.995  32.733  1.00  0.00     0.167 HD
ATOM     59  C   UNL A   1      37.455  32.439  31.099  1.00  0.00     0.037 A 
ATOM     60  C   UNL A   1      42.411  29.257  34.753  1.00  0.00     0.037 A 
ATOM     61  C   UNL A   1      37.760  33.060  32.359  1.00  0.00     0.049 A 
ATOM     62  C   UNL A   1      41.785  30.532  35.234  1.00  0.00     0.074 A 
ATOM     63  C   UNL A   1      37.177  34.177  32.934  1.00  0.00     0.029 A 
ATOM     64  N   UNL A   1      38.757  32.641  33.223  1.00  0.00    -0.354 N 
ATOM     65  N   UNL A   1      40.823  31.235  34.691  1.00  0.00    -0.248 NA
ATOM     66  C   UNL A   1      42.319  31.102  36.480  1.00  0.00     0.031 C 
ATOM     67  C   UNL A   1      37.858  34.466  34.122  1.00  0.00     0.029 A 
ATOM     68  C   UNL A   1      38.835  33.502  34.306  1.00  0.00     0.049 A 
ATOM     69  H   UNL A   1      39.324  31.848  33.088  1.00  0.00     0.167 HD
ATOM     70  C   UNL A   1      40.644  32.334  35.521  1.00  0.00     0.074 A 
ATOM     71  C   UNL A   1      41.576  32.191  36.619  1.00  0.00     0.031 C 
ATOM     72  C   UNL A   1      39.786  33.372  35.377  1.00  0.00     0.037 A 
BRANCH  59  73
ATOM     73  C   UNL A   1      36.365  33.045  30.267  1.00  0.00     0.057 A 
ATOM     74  C   UNL A   1      36.650  33.895  29.193  1.00  0.00     0.134 A 
ATOM     75  C   UNL A   1      35.022  32.739  30.517  1.00  0.00     0.134 A 
ATOM     76  F   UNL A   1      37.917  34.234  28.911  1.00  0.00    -0.206 F 
ATOM     77  C   UNL A   1      35.633  34.425  28.396  1.00  0.00     0.040 A 
ATOM     78  C   UNL A   1      33.998  33.253  29.722  1.00  0.00     0.040 A 
ATOM     79  F   UNL A   1      34.687  31.933  31.536  1.00  0.00    -0.206 F 
ATOM     80  C   UNL A   1      34.303  34.099  28.657  1.00  0.00     0.006 A 
ENDBRANCH  59  73
BRANCH  60  81
ATOM     81  C   UNL A   1      43.459  28.579  35.556  1.00  0.00     0.057 A 
ATOM     82  C   UNL A   1      44.812  28.888  35.397  1.00  0.00     0.134 A 
ATOM     83  C   UNL A   1      43.121  27.616  36.516  1.00  0.00     0.134 A 
ATOM     84  F   UNL A   1      45.197  29.779  34.472  1.00  0.00    -0.206 F 
ATOM     85  C   UNL A   1      45.795  28.267  36.168  1.00  0.00     0.040 A 
ATOM     86  C   UNL A   1      44.090  27.007  37.312  1.00  0.00     0.040 A 
ATOM     87  F   UNL A   1      41.838  27.274  36.710  1.00  0.00    -0.206 F 
ATOM     88  C   UNL A   1      45.433  27.331  37.137  1.00  0.00     0.006 A 
ENDBRANCH  60  81
BRANCH  72  89
ATOM     89  C   UNL A   1      39.830  34.445  36.421  1.00  0.00     0.057 A 
ATOM     90  C   UNL A   1      40.614  35.594  36.252  1.00  0.00     0.134 A 
ATOM     91  C   UNL A   1      39.070  34.345  37.591  1.00  0.00     0.134 A 
ATOM     92  F   UNL A   1      41.375  35.742  35.157  1.00  0.00    -0.206 F 
ATOM     93  C   UNL A   1      40.653  36.598  37.221  1.00  0.00     0.040 A 
ATOM     94  C   UNL A   1      39.087  35.349  38.560  1.00  0.00     0.040 A 
ATOM     95  F   UNL A   1      38.294  33.272  37.809  1.00  0.00    -0.206 F 
ATOM     96  C   UNL A   1      39.885  36.478  38.378  1.00  0.00     0.006 A 
ENDBRANCH  72  89
ENDBRANCH  46  47
ENDBRANCH  39  41
ENDBRANCH  38  39
ENDBRANCH  37  38
ENDBRANCH  36  37
ENDBRANCH  35  36
ENDBRANCH   1  35
TORSDOF 22
ENDMDL
MODEL 3
REMARK VINA RESULT:     -10.5      2.038      7.496
REMARK SMILES [NH3+][C@@H](Cc1c[nH]c2ccccc12)C(=O)N[C@@H](CS)C(=O)N[C@@H](CO)C(=O)OCCOC(=O)c1ccc(-c2c3nc(c(-c4c(F)cccc4F)c4ccc([nH]4)c(-c4c(F)cccc4F)c4nc(c(-c5c(F)cccc5F)c5ccc2[nH]5)C=C4)C=C3)cc1
REMARK SMILES IDX 25 1 26 2 22 3 21 4 19 5 20 6 16 8 15 9 13 10 14 11 2 13
REMARK SMILES IDX 1 14 3 18 4 19 5 20 12 21 6 22 7 23 11 24 8 26 10 27 9 28
REMARK SMILES IDX 17 29 18 30 23 32 24 33 27 35 28 36 29 37 30 38 31 39 32 40
REMARK SMILES IDX 33 41 34 42 86 43 35 44 85 45 36 46 37 47 38 48 79 49 39 50
REMARK SMILES IDX 84 51 78 52 80 53 40 54 83 55 77 56 76 57 41 59 67 60 50 61
REMARK SMILES IDX 66 62 51 63 54 64 65 65 81 66 52 67 53 68 64 70 82 71 55 72
REMARK SMILES IDX 42 73 43 74 48 75 44 76 45 77 47 78 49 79 46 80 68 81 69 82
REMARK SMILES IDX 74 83 70 84 71 85 73 86 75 87 72 88 56 89 57 90 62 91 58 92
REMARK SMILES IDX 59 93 61 94 63 95 60 96
REMARK H PARENT 21 7 15 12 1 15 1 16 1 17 6 25 18 31 24 34 80 58 54 69
REMARK Flexibility Score: inf
ROOT
ATOM      1  C   UNL A   1      32.073  29.650  26.668  1.00  0.00     0.331 C 
ATOM      2  O   UNL A   1      31.403  29.278  27.626  1.00  0.00    -0.250 OA
ENDROOT
BRANCH   1   3
ATOM      3  C   UNL A   1      33.191  28.787  26.069  1.00  0.00     0.218 C 
BRANCH   3   4
ATOM      4  N   UNL A   1      33.257  28.750  24.605  1.00  0.00    -0.339 N 
ATOM      5  C   UNL A   1      33.716  27.792  23.760  1.00  0.00     0.244 C 
ATOM      6  O   UNL A   1      34.272  28.221  22.739  1.00  0.00    -0.273 OA
ATOM      7  H   UNL A   1      32.910  29.555  24.160  1.00  0.00     0.164 HD
BRANCH   5   8
ATOM      8  C   UNL A   1      33.617  26.259  24.010  1.00  0.00     0.181 C 
BRANCH   8   9
ATOM      9  N   UNL A   1      32.709  25.923  25.099  1.00  0.00    -0.338 N 
ATOM     10  C   UNL A   1      31.362  25.737  25.089  1.00  0.00     0.279 C 
ATOM     11  O   UNL A   1      30.834  25.534  26.192  1.00  0.00    -0.268 OA
ATOM     12  H   UNL A   1      33.137  25.813  25.979  1.00  0.00     0.164 HD
BRANCH  10  13
ATOM     13  C   UNL A   1      30.465  25.851  23.827  1.00  0.00     0.275 C 
BRANCH  13  14
ATOM     14  N   UNL A   1      30.057  24.516  23.342  1.00  0.00    -0.347 N 
ATOM     15  H   UNL A   1      30.079  23.851  24.115  1.00  0.00     0.345 HD
ATOM     16  H   UNL A   1      30.699  24.209  22.611  1.00  0.00     0.345 HD
ATOM     17  H   UNL A   1      29.112  24.566  22.964  1.00  0.00     0.345 HD
ENDBRANCH  13  14
BRANCH  13  18
ATOM     18  C   UNL A   1      29.414  26.981  23.776  1.00  0.00     0.113 C 
BRANCH  18  19
ATOM     19  C   UNL A   1      29.630  28.247  22.990  1.00  0.00    -0.016 A 
ATOM     20  C   UNL A   1      30.705  28.438  22.139  1.00  0.00     0.087 A 
ATOM     21  C   UNL A   1      28.847  29.457  22.915  1.00  0.00     0.003 A 
ATOM     22  N   UNL A   1      30.650  29.703  21.626  1.00  0.00    -0.361 N 
ATOM     23  C   UNL A   1      29.552  30.363  22.117  1.00  0.00     0.046 A 
ATOM     24  C   UNL A   1      27.657  29.915  23.514  1.00  0.00     0.010 A 
ATOM     25  H   UNL A   1      31.304  30.086  20.998  1.00  0.00     0.166 HD
ATOM     26  C   UNL A   1      29.155  31.692  21.923  1.00  0.00     0.026 A 
ATOM     27  C   UNL A   1      27.278  31.252  23.374  1.00  0.00     0.001 A 
ATOM     28  C   UNL A   1      28.011  32.127  22.587  1.00  0.00     0.002 A 
ENDBRANCH  18  19
ENDBRANCH  13  18
ENDBRANCH  10  13
ENDBRANCH   8   9
BRANCH   8  29
ATOM     29  C   UNL A   1      33.567  25.323  22.803  1.00  0.00     0.101 C 
BRANCH  29  30
ATOM     30  S   UNL A   1      33.994  23.571  23.124  1.00  0.00    -0.177 SA
ATOM     31  H   UNL A   1      33.711  22.826  22.022  1.00  0.00     0.102 HD
ENDBRANCH  29  30
ENDBRANCH   8  29
ENDBRANCH   5   8
ENDBRANCH   3   4
BRANCH   3  32
ATOM     32  C   UNL A   1      34.530  29.288  26.634  1.00  0.00     0.193 C 
BRANCH  32  33
ATOM     33  O   UNL A   1      34.372  29.784  27.966  1.00  0.00    -0.394 OA
ATOM     34  H   UNL A   1      34.504  29.060  28.598  1.00  0.00     0.210 HD
ENDBRANCH  32  33
ENDBRANCH   3  32
ENDBRANCH   1   3
BRANCH   1  35
ATOM     35  O   UNL A   1      31.953  30.864  26.063  1.00  0.00    -0.460 OA
BRANCH  35  36
ATOM     36  C   UNL A   1      31.407  31.920  26.880  1.00  0.00     0.274 C 
BRANCH  36  37
ATOM     37  C   UNL A   1      32.263  33.179  26.795  1.00  0.00     0.275 C 
BRANCH  37  38
ATOM     38  O   UNL A   1      32.153  33.935  28.017  1.00  0.00    -0.458 OA
BRANCH  38  39
ATOM     39  C   UNL A   1      33.278  34.593  28.373  1.00  0.00     0.338 C 
ATOM     40  O   UNL A   1      33.444  35.799  28.421  1.00  0.00    -0.246 OA
BRANCH  39  41
ATOM     41  C   UNL A   1      34.350  33.646  28.717  1.00  0.00     0.060 A 
ATOM     42  C   UNL A   1      34.133  32.702  29.713  1.00  0.00     0.016 A 
ATOM     43  C   UNL A   1      35.630  33.829  28.193  1.00  0.00     0.016 A 
ATOM     44  C   UNL A   1      35.224  32.043  30.286  1.00  0.00     0.010 A 
ATOM     45  C   UNL A   1      36.702  33.075  28.691  1.00  0.00     0.010 A 
ATOM     46  C   UNL A   1      36.529  32.217  29.789  1.00  0.00    -0.014 A 
BRANCH  46  47
ATOM     47  C   UNL A   1      37.683  31.513  30.436  1.00  0.00     0.031 A 
ATOM     48  C   UNL A   1      38.093  31.801  31.864  1.00  0.00     0.074 A 
ATOM     49  C   UNL A   1      38.344  30.547  29.765  1.00  0.00     0.049 A 
ATOM     50  N   UNL A   1      39.025  31.232  32.593  1.00  0.00    -0.248 NA
ATOM     51  C   UNL A   1      37.351  32.846  32.580  1.00  0.00     0.031 C 
ATOM     52  C   UNL A   1      38.061  30.120  28.394  1.00  0.00     0.029 A 
ATOM     53  N   UNL A   1      39.384  29.735  30.154  1.00  0.00    -0.354 N 
ATOM     54  C   UNL A   1      38.954  31.828  33.848  1.00  0.00     0.074 A 
ATOM     55  C   UNL A   1      37.897  32.811  33.787  1.00  0.00     0.031 C 
ATOM     56  C   UNL A   1      38.865  29.097  28.074  1.00  0.00     0.029 A 
ATOM     57  C   UNL A   1      39.782  28.848  29.182  1.00  0.00     0.049 A 
ATOM     58  H   UNL A   1      39.803  29.784  31.043  1.00  0.00     0.167 HD
ATOM     59  C   UNL A   1      39.705  31.602  34.952  1.00  0.00     0.037 A 
ATOM     60  C   UNL A   1      40.795  27.961  29.157  1.00  0.00     0.037 A 
ATOM     61  C   UNL A   1      40.818  30.694  35.018  1.00  0.00     0.049 A 
ATOM     62  C   UNL A   1      41.713  27.841  30.337  1.00  0.00     0.074 A 
ATOM     63  C   UNL A   1      41.664  30.441  36.086  1.00  0.00     0.029 A 
ATOM     64  N   UNL A   1      41.263  29.916  33.963  1.00  0.00    -0.354 N 
ATOM     65  N   UNL A   1      41.633  28.423  31.507  1.00  0.00    -0.248 NA
ATOM     66  C   UNL A   1      42.884  26.967  30.176  1.00  0.00     0.031 C 
ATOM     67  C   UNL A   1      42.654  29.550  35.659  1.00  0.00     0.029 A 
ATOM     68  C   UNL A   1      42.397  29.216  34.340  1.00  0.00     0.049 A 
ATOM     69  H   UNL A   1      40.835  29.867  33.077  1.00  0.00     0.167 HD
ATOM     70  C   UNL A   1      42.746  27.994  32.219  1.00  0.00     0.074 A 
ATOM     71  C   UNL A   1      43.471  27.082  31.360  1.00  0.00     0.031 C 
ATOM     72  C   UNL A   1      43.132  28.336  33.471  1.00  0.00     0.037 A 
BRANCH  59  73
ATOM     73  C   UNL A   1      39.379  32.397  36.180  1.00  0.00     0.057 A 
ATOM     74  C   UNL A   1      40.000  33.624  36.445  1.00  0.00     0.134 A 
ATOM     75  C   UNL A   1      38.405  31.952  37.082  1.00  0.00     0.134 A 
ATOM     76  F   UNL A   1      40.950  34.097  35.624  1.00  0.00    -0.206 F 
ATOM     77  C   UNL A   1      39.664  34.380  37.570  1.00  0.00     0.040 A 
ATOM     78  C   UNL A   1      38.052  32.704  38.203  1.00  0.00     0.040 A 
ATOM     79  F   UNL A   1      37.779  30.783  36.883  1.00  0.00    -0.206 F 
ATOM     80  C   UNL A   1      38.683  33.923  38.449  1.00  0.00     0.006 A 
ENDBRANCH  59  73
BRANCH  60  81
ATOM     81  C   UNL A   1      41.033  27.160  27.930  1.00  0.00     0.057 A 
ATOM     82  C   UNL A   1      41.844  27.636  26.897  1.00  0.00     0.134 A 
ATOM     83  C   UNL A   1      40.462  25.890  27.776  1.00  0.00     0.134 A 
ATOM     84  F   UNL A   1      42.392  28.857  26.976  1.00  0.00    -0.206 F 
ATOM     85  C   UNL A   1      42.086  26.874  25.752  1.00  0.00     0.040 A 
ATOM     86  C   UNL A   1      40.716  25.108  26.651  1.00  0.00     0.040 A 
ATOM     87  F   UNL A   1      39.669  25.383  28.731  1.00  0.00    -0.206 F 
ATOM     88  C   UNL A   1      41.529  25.600  25.633  1.00  0.00     0.006 A 
ENDBRANCH  60  81
BRANCH  72  89
ATOM     89  C   UNL A   1      44.407  27.737  33.980  1.00  0.00     0.057 A 
ATOM     90  C   UNL A   1      45.629  28.410  33.853  1.00  0.00     0.134 A 
ATOM     91  C   UNL A   1      44.414  26.494  34.620  1.00  0.00     0.134 A 
ATOM     92  F   UNL A   1      45.689  29.600  33.237  1.00  0.00    -0.206 F 
ATOM     93  C   UNL A   1      46.818  27.857  34.331  1.00  0.00     0.040 A 
ATOM     94  C   UNL A   1      45.593  25.937  35.118  1.00  0.00     0.040 A 
ATOM     95  F   UNL A   1      43.276  25.802  34.779  1.00  0.00    -0.206 F 
ATOM     96  C   UNL A   1      46.801  26.618  34.969  1.00  0.00     0.006 A 
ENDBRANCH  72  89
ENDBRANCH  46  47
ENDBRANCH  39  41
ENDBRANCH  38  39
ENDBRANCH  37  38
ENDBRANCH  36  37
ENDBRANCH  35  36
ENDBRANCH   1  35
TORSDOF 22
ENDMDL
