MODEL 1
REMARK VINA RESULT:     -10.1      0.000      0.000
REMARK SMILES O=C(CCc1nc(-c2ccccc2)c(-c2ccccc2)o1)OCCOC(=O)c1ccc(-c2c3nc(c(-c4c(F)cccc4F)c4ccc([nH]4)c(-c4c(F)cccc4F)c4nc(c(-c5c(F)cccc5F)c5ccc2[nH]5)C=C4)C=C3)cc1
REMARK SMILES IDX 23 1 22 2 2 3 1 4 3 5 4 6 5 7 6 8 21 9 7 10 14 11 8 12 9 13
REMARK SMILES IDX 13 14 10 15 12 16 11 17 15 18 16 19 20 20 17 21 19 22 18 23
REMARK SMILES IDX 24 24 25 25 26 26 27 27 28 28 29 29 81 30 30 31 80 32 31 33
REMARK SMILES IDX 32 34 33 35 74 36 34 37 79 38 73 39 75 40 35 41 78 42 72 43
REMARK SMILES IDX 71 44 36 46 62 47 45 48 61 49 46 50 49 51 60 52 76 53 47 54
REMARK SMILES IDX 48 55 59 57 77 58 50 59 37 60 38 61 43 62 39 63 40 64 42 65
REMARK SMILES IDX 44 66 41 67 63 68 64 69 69 70 65 71 66 72 68 73 70 74 67 75
REMARK SMILES IDX 51 76 52 77 57 78 53 79 54 80 56 81 58 82 55 83
REMARK H PARENT 75 45 49 56
REMARK Flexibility Score: inf
ROOT
ATOM      1  C   UNL A   1      33.211  37.136  30.683  1.00  0.00     0.274 C 
ENDROOT
BRANCH   1   2
ATOM      2  O   UNL A   1      33.102  36.329  31.872  1.00  0.00    -0.462 OA
BRANCH   2   3
ATOM      3  C   UNL A   1      33.993  36.435  32.889  1.00  0.00     0.306 C 
ATOM      4  O   UNL A   1      33.995  37.423  33.620  1.00  0.00    -0.252 OA
BRANCH   3   5
ATOM      5  C   UNL A   1      35.080  35.389  32.998  1.00  0.00     0.132 C 
BRANCH   5   6
ATOM      6  C   UNL A   1      34.584  34.105  33.651  1.00  0.00     0.109 C 
BRANCH   6   7
ATOM      7  C   UNL A   1      35.624  33.553  34.553  1.00  0.00     0.196 A 
ATOM      8  N   UNL A   1      35.969  33.969  35.757  1.00  0.00    -0.213 NA
ATOM      9  O   UNL A   1      36.459  32.624  34.008  1.00  0.00    -0.440 OA
ATOM     10  C   UNL A   1      37.152  33.308  36.000  1.00  0.00     0.117 A 
ATOM     11  C   UNL A   1      37.430  32.449  34.953  1.00  0.00     0.162 A 
BRANCH  10  12
ATOM     12  C   UNL A   1      38.018  33.590  37.126  1.00  0.00     0.004 A 
ATOM     13  C   UNL A   1      37.960  32.799  38.284  1.00  0.00     0.010 A 
ATOM     14  C   UNL A   1      38.936  34.644  37.067  1.00  0.00     0.010 A 
ATOM     15  C   UNL A   1      38.775  33.082  39.380  1.00  0.00     0.001 A 
ATOM     16  C   UNL A   1      39.745  34.931  38.169  1.00  0.00     0.001 A 
ATOM     17  C   UNL A   1      39.660  34.155  39.325  1.00  0.00     0.000 A 
ENDBRANCH  10  12
BRANCH  11  18
ATOM     18  C   UNL A   1      38.465  31.489  34.638  1.00  0.00     0.020 A 
ATOM     19  C   UNL A   1      38.210  30.431  33.758  1.00  0.00     0.012 A 
ATOM     20  C   UNL A   1      39.741  31.621  35.202  1.00  0.00     0.012 A 
ATOM     21  C   UNL A   1      39.220  29.522  33.441  1.00  0.00     0.001 A 
ATOM     22  C   UNL A   1      40.745  30.706  34.893  1.00  0.00     0.001 A 
ATOM     23  C   UNL A   1      40.486  29.658  34.010  1.00  0.00     0.000 A 
ENDBRANCH  11  18
ENDBRANCH   6   7
ENDBRANCH   5   6
ENDBRANCH   3   5
ENDBRANCH   2   3
ENDBRANCH   1   2
BRANCH   1  24
ATOM     24  C   UNL A   1      32.958  36.356  29.394  1.00  0.00     0.275 C 
BRANCH  24  25
ATOM     25  O   UNL A   1      32.654  34.985  29.685  1.00  0.00    -0.458 OA
BRANCH  25  26
ATOM     26  C   UNL A   1      33.191  34.097  28.814  1.00  0.00     0.338 C 
ATOM     27  O   UNL A   1      32.779  33.811  27.703  1.00  0.00    -0.246 OA
BRANCH  26  28
ATOM     28  C   UNL A   1      34.487  33.632  29.345  1.00  0.00     0.060 A 
ATOM     29  C   UNL A   1      35.654  34.141  28.761  1.00  0.00     0.016 A 
ATOM     30  C   UNL A   1      34.561  32.712  30.396  1.00  0.00     0.016 A 
ATOM     31  C   UNL A   1      36.902  33.698  29.196  1.00  0.00     0.010 A 
ATOM     32  C   UNL A   1      35.809  32.265  30.825  1.00  0.00     0.010 A 
ATOM     33  C   UNL A   1      36.982  32.729  30.204  1.00  0.00    -0.014 A 
BRANCH  33  34
ATOM     34  C   UNL A   1      38.264  32.054  30.497  1.00  0.00     0.031 A 
ATOM     35  C   UNL A   1      39.272  32.776  31.342  1.00  0.00     0.074 A 
ATOM     36  C   UNL A   1      38.550  30.849  29.979  1.00  0.00     0.049 A 
ATOM     37  N   UNL A   1      40.503  32.446  31.632  1.00  0.00    -0.248 NA
ATOM     38  C   UNL A   1      38.833  34.054  31.926  1.00  0.00     0.031 C 
ATOM     39  C   UNL A   1      37.647  30.043  29.159  1.00  0.00     0.029 A 
ATOM     40  N   UNL A   1      39.703  30.108  30.045  1.00  0.00    -0.354 N 
ATOM     41  C   UNL A   1      40.990  33.481  32.420  1.00  0.00     0.074 A 
ATOM     42  C   UNL A   1      39.933  34.460  32.540  1.00  0.00     0.031 C 
ATOM     43  C   UNL A   1      38.295  28.933  28.767  1.00  0.00     0.029 A 
ATOM     44  C   UNL A   1      39.662  28.965  29.285  1.00  0.00     0.049 A 
ATOM     45  H   UNL A   1      40.483  30.370  30.585  1.00  0.00     0.167 HD
ATOM     46  C   UNL A   1      42.212  33.603  32.992  1.00  0.00     0.037 A 
ATOM     47  C   UNL A   1      40.630  28.068  29.016  1.00  0.00     0.037 A 
ATOM     48  C   UNL A   1      43.263  32.632  32.864  1.00  0.00     0.049 A 
ATOM     49  C   UNL A   1      41.997  28.245  29.621  1.00  0.00     0.074 A 
ATOM     50  C   UNL A   1      44.522  32.645  33.435  1.00  0.00     0.029 A 
ATOM     51  N   UNL A   1      43.180  31.481  32.096  1.00  0.00    -0.354 N 
ATOM     52  N   UNL A   1      42.437  29.201  30.403  1.00  0.00    -0.248 NA
ATOM     53  C   UNL A   1      43.001  27.217  29.308  1.00  0.00     0.031 C 
ATOM     54  C   UNL A   1      45.219  31.522  32.974  1.00  0.00     0.029 A 
ATOM     55  C   UNL A   1      44.377  30.787  32.155  1.00  0.00     0.049 A 
ATOM     56  H   UNL A   1      42.387  31.197  31.585  1.00  0.00     0.167 HD
ATOM     57  C   UNL A   1      43.756  28.878  30.697  1.00  0.00     0.074 A 
ATOM     58  C   UNL A   1      44.045  27.636  30.011  1.00  0.00     0.031 C 
ATOM     59  C   UNL A   1      44.645  29.547  31.472  1.00  0.00     0.037 A 
BRANCH  46  60
ATOM     60  C   UNL A   1      42.472  34.855  33.774  1.00  0.00     0.057 A 
ATOM     61  C   UNL A   1      42.293  34.914  35.162  1.00  0.00     0.134 A 
ATOM     62  C   UNL A   1      42.891  36.023  33.126  1.00  0.00     0.134 A 
ATOM     63  F   UNL A   1      41.874  33.834  35.839  1.00  0.00    -0.206 F 
ATOM     64  C   UNL A   1      42.492  36.098  35.873  1.00  0.00     0.040 A 
ATOM     65  C   UNL A   1      43.118  37.207  33.829  1.00  0.00     0.040 A 
ATOM     66  F   UNL A   1      43.082  36.035  31.798  1.00  0.00    -0.206 F 
ATOM     67  C   UNL A   1      42.907  37.248  35.207  1.00  0.00     0.006 A 
ENDBRANCH  46  60
BRANCH  47  68
ATOM     68  C   UNL A   1      40.337  26.928  28.113  1.00  0.00     0.057 A 
ATOM     69  C   UNL A   1      39.536  25.861  28.530  1.00  0.00     0.134 A 
ATOM     70  C   UNL A   1      40.840  26.889  26.807  1.00  0.00     0.134 A 
ATOM     71  F   UNL A   1      39.044  25.833  29.777  1.00  0.00    -0.206 F 
ATOM     72  C   UNL A   1      39.248  24.791  27.681  1.00  0.00     0.040 A 
ATOM     73  C   UNL A   1      40.544  25.836  25.942  1.00  0.00     0.040 A 
ATOM     74  F   UNL A   1      41.613  27.885  26.349  1.00  0.00    -0.206 F 
ATOM     75  C   UNL A   1      39.746  24.781  26.380  1.00  0.00     0.006 A 
ENDBRANCH  47  68
BRANCH  59  76
ATOM     76  C   UNL A   1      46.005  28.938  31.654  1.00  0.00     0.057 A 
ATOM     77  C   UNL A   1      46.269  28.009  32.667  1.00  0.00     0.134 A 
ATOM     78  C   UNL A   1      47.039  29.231  30.755  1.00  0.00     0.134 A 
ATOM     79  F   UNL A   1      45.324  27.694  33.565  1.00  0.00    -0.206 F 
ATOM     80  C   UNL A   1      47.519  27.398  32.785  1.00  0.00     0.040 A 
ATOM     81  C   UNL A   1      48.285  28.609  30.850  1.00  0.00     0.040 A 
ATOM     82  F   UNL A   1      46.846  30.106  29.757  1.00  0.00    -0.206 F 
ATOM     83  C   UNL A   1      48.528  27.691  31.868  1.00  0.00     0.006 A 
ENDBRANCH  59  76
ENDBRANCH  33  34
ENDBRANCH  26  28
ENDBRANCH  25  26
ENDBRANCH  24  25
ENDBRANCH   1  24
TORSDOF 15
ENDMDL
MODEL 2
REMARK VINA RESULT:     -10.0      2.110      3.652
REMARK SMILES O=C(CCc1nc(-c2ccccc2)c(-c2ccccc2)o1)OCCOC(=O)c1ccc(-c2c3nc(c(-c4c(F)cccc4F)c4ccc([nH]4)c(-c4c(F)cccc4F)c4nc(c(-c5c(F)cccc5F)c5ccc2[nH]5)C=C4)C=C3)cc1
REMARK SMILES IDX 23 1 22 2 2 3 1 4 3 5 4 6 5 7 6 8 21 9 7 10 14 11 8 12 9 13
REMARK SMILES IDX 13 14 10 15 12 16 11 17 15 18 16 19 20 20 17 21 19 22 18 23
REMARK SMILES IDX 24 24 25 25 26 26 27 27 28 28 29 29 81 30 30 31 80 32 31 33
REMARK SMILES IDX 32 34 33 35 74 36 34 37 79 38 73 39 75 40 35 41 78 42 72 43
REMARK SMILES IDX 71 44 36 46 62 47 45 48 61 49 46 50 49 51 60 52 76 53 47 54
REMARK SMILES IDX 48 55 59 57 77 58 50 59 37 60 38 61 43 62 39 63 40 64 42 65
REMARK SMILES IDX 44 66 41 67 63 68 64 69 69 70 65 71 66 72 68 73 70 74 67 75
REMARK SMILES IDX 51 76 52 77 57 78 53 79 54 80 56 81 58 82 55 83
REMARK H PARENT 75 45 49 56
REMARK Flexibility Score: inf
ROOT
ATOM      1  C   UNL A   1      33.567  34.719  29.253  1.00  0.00     0.274 C 
ENDROOT
BRANCH   1   2
ATOM      2  O   UNL A   1      32.526  35.071  30.185  1.00  0.00    -0.462 OA
BRANCH   2   3
ATOM      3  C   UNL A   1      32.616  36.172  30.972  1.00  0.00     0.306 C 
ATOM      4  O   UNL A   1      32.873  37.270  30.486  1.00  0.00    -0.252 OA
BRANCH   3   5
ATOM      5  C   UNL A   1      32.550  35.986  32.472  1.00  0.00     0.132 C 
BRANCH   5   6
ATOM      6  C   UNL A   1      33.794  36.513  33.177  1.00  0.00     0.109 C 
BRANCH   6   7
ATOM      7  C   UNL A   1      34.814  35.442  33.285  1.00  0.00     0.196 A 
ATOM      8  N   UNL A   1      34.999  34.583  34.269  1.00  0.00    -0.213 NA
ATOM      9  O   UNL A   1      35.804  35.460  32.347  1.00  0.00    -0.440 OA
ATOM     10  C   UNL A   1      36.231  34.034  33.991  1.00  0.00     0.117 A 
ATOM     11  C   UNL A   1      36.704  34.533  32.793  1.00  0.00     0.162 A 
BRANCH  10  12
ATOM     12  C   UNL A   1      36.955  33.171  34.902  1.00  0.00     0.004 A 
ATOM     13  C   UNL A   1      37.230  33.592  36.213  1.00  0.00     0.010 A 
ATOM     14  C   UNL A   1      37.372  31.901  34.492  1.00  0.00     0.010 A 
ATOM     15  C   UNL A   1      37.947  32.774  37.085  1.00  0.00     0.001 A 
ATOM     16  C   UNL A   1      38.097  31.087  35.365  1.00  0.00     0.001 A 
ATOM     17  C   UNL A   1      38.390  31.525  36.657  1.00  0.00     0.000 A 
ENDBRANCH  10  12
BRANCH  11  18
ATOM     18  C   UNL A   1      37.876  34.331  31.968  1.00  0.00     0.020 A 
ATOM     19  C   UNL A   1      39.157  34.560  32.484  1.00  0.00     0.012 A 
ATOM     20  C   UNL A   1      37.736  33.888  30.647  1.00  0.00     0.012 A 
ATOM     21  C   UNL A   1      40.283  34.340  31.691  1.00  0.00     0.001 A 
ATOM     22  C   UNL A   1      38.861  33.681  29.851  1.00  0.00     0.001 A 
ATOM     23  C   UNL A   1      40.135  33.904  30.374  1.00  0.00     0.000 A 
ENDBRANCH  11  18
ENDBRANCH   6   7
ENDBRANCH   5   6
ENDBRANCH   3   5
ENDBRANCH   2   3
ENDBRANCH   1   2
BRANCH   1  24
ATOM     24  C   UNL A   1      34.369  33.489  29.673  1.00  0.00     0.275 C 
BRANCH  24  25
ATOM     25  O   UNL A   1      35.018  32.897  28.540  1.00  0.00    -0.458 OA
BRANCH  25  26
ATOM     26  C   UNL A   1      34.723  31.588  28.348  1.00  0.00     0.338 C 
ATOM     27  O   UNL A   1      33.702  31.125  27.871  1.00  0.00    -0.246 OA
BRANCH  26  28
ATOM     28  C   UNL A   1      35.920  30.780  28.647  1.00  0.00     0.060 A 
ATOM     29  C   UNL A   1      35.876  29.932  29.762  1.00  0.00     0.016 A 
ATOM     30  C   UNL A   1      37.068  30.849  27.852  1.00  0.00     0.016 A 
ATOM     31  C   UNL A   1      36.997  29.182  30.112  1.00  0.00     0.010 A 
ATOM     32  C   UNL A   1      38.192  30.104  28.209  1.00  0.00     0.010 A 
ATOM     33  C   UNL A   1      38.172  29.296  29.358  1.00  0.00    -0.014 A 
BRANCH  33  34
ATOM     34  C   UNL A   1      39.442  28.725  29.856  1.00  0.00     0.031 A 
ATOM     35  C   UNL A   1      40.129  29.409  31.001  1.00  0.00     0.074 A 
ATOM     36  C   UNL A   1      40.000  27.653  29.270  1.00  0.00     0.049 A 
ATOM     37  N   UNL A   1      41.301  29.172  31.528  1.00  0.00    -0.248 NA
ATOM     38  C   UNL A   1      39.398  30.524  31.623  1.00  0.00     0.031 C 
ATOM     39  C   UNL A   1      39.420  26.895  28.163  1.00  0.00     0.029 A 
ATOM     40  N   UNL A   1      41.203  27.040  29.510  1.00  0.00    -0.354 N 
ATOM     41  C   UNL A   1      41.455  30.117  32.534  1.00  0.00     0.074 A 
ATOM     42  C   UNL A   1      40.270  30.945  32.527  1.00  0.00     0.031 C 
ATOM     43  C   UNL A   1      40.287  25.936  27.796  1.00  0.00     0.029 A 
ATOM     44  C   UNL A   1      41.490  26.033  28.622  1.00  0.00     0.049 A 
ATOM     45  H   UNL A   1      41.802  27.296  30.248  1.00  0.00     0.167 HD
ATOM     46  C   UNL A   1      42.493  30.279  33.388  1.00  0.00     0.037 A 
ATOM     47  C   UNL A   1      42.610  25.299  28.476  1.00  0.00     0.037 A 
ATOM     48  C   UNL A   1      43.673  29.458  33.389  1.00  0.00     0.049 A 
ATOM     49  C   UNL A   1      43.773  25.525  29.403  1.00  0.00     0.074 A 
ATOM     50  C   UNL A   1      44.763  29.517  34.238  1.00  0.00     0.029 A 
ATOM     51  N   UNL A   1      43.922  28.440  32.482  1.00  0.00    -0.354 N 
ATOM     52  N   UNL A   1      43.894  26.388  30.383  1.00  0.00    -0.248 NA
ATOM     53  C   UNL A   1      44.956  24.673  29.207  1.00  0.00     0.031 C 
ATOM     54  C   UNL A   1      45.695  28.562  33.814  1.00  0.00     0.029 A 
ATOM     55  C   UNL A   1      45.163  27.878  32.732  1.00  0.00     0.049 A 
ATOM     56  H   UNL A   1      43.308  28.156  31.767  1.00  0.00     0.167 HD
ATOM     57  C   UNL A   1      45.149  26.166  30.936  1.00  0.00     0.074 A 
ATOM     58  C   UNL A   1      45.753  25.086  30.184  1.00  0.00     0.031 C 
ATOM     59  C   UNL A   1      45.745  26.797  31.978  1.00  0.00     0.037 A 
BRANCH  46  60
ATOM     60  C   UNL A   1      42.398  31.413  34.364  1.00  0.00     0.057 A 
ATOM     61  C   UNL A   1      42.785  32.716  34.028  1.00  0.00     0.134 A 
ATOM     62  C   UNL A   1      41.926  31.192  35.665  1.00  0.00     0.134 A 
ATOM     63  F   UNL A   1      43.263  32.988  32.805  1.00  0.00    -0.206 F 
ATOM     64  C   UNL A   1      42.738  33.753  34.960  1.00  0.00     0.040 A 
ATOM     65  C   UNL A   1      41.851  32.226  36.598  1.00  0.00     0.040 A 
ATOM     66  F   UNL A   1      41.539  29.967  36.050  1.00  0.00    -0.206 F 
ATOM     67  C   UNL A   1      42.267  33.510  36.249  1.00  0.00     0.006 A 
ENDBRANCH  46  60
BRANCH  47  68
ATOM     68  C   UNL A   1      42.683  24.290  27.391  1.00  0.00     0.057 A 
ATOM     69  C   UNL A   1      42.263  22.973  27.596  1.00  0.00     0.134 A 
ATOM     70  C   UNL A   1      43.163  24.627  26.119  1.00  0.00     0.134 A 
ATOM     71  F   UNL A   1      41.814  22.587  28.799  1.00  0.00    -0.206 F 
ATOM     72  C   UNL A   1      42.320  22.022  26.575  1.00  0.00     0.040 A 
ATOM     73  C   UNL A   1      43.207  23.692  25.084  1.00  0.00     0.040 A 
ATOM     74  F   UNL A   1      43.579  25.875  25.860  1.00  0.00    -0.206 F 
ATOM     75  C   UNL A   1      42.786  22.383  25.313  1.00  0.00     0.006 A 
ENDBRANCH  47  68
BRANCH  59  76
ATOM     76  C   UNL A   1      47.104  26.318  32.396  1.00  0.00     0.057 A 
ATOM     77  C   UNL A   1      47.270  25.288  33.330  1.00  0.00     0.134 A 
ATOM     78  C   UNL A   1      48.257  26.843  31.796  1.00  0.00     0.134 A 
ATOM     79  F   UNL A   1      46.207  24.751  33.946  1.00  0.00    -0.206 F 
ATOM     80  C   UNL A   1      48.537  24.803  33.660  1.00  0.00     0.040 A 
ATOM     81  C   UNL A   1      49.527  26.350  32.102  1.00  0.00     0.040 A 
ATOM     82  F   UNL A   1      48.165  27.824  30.887  1.00  0.00    -0.206 F 
ATOM     83  C   UNL A   1      49.669  25.328  33.038  1.00  0.00     0.006 A 
ENDBRANCH  59  76
ENDBRANCH  33  34
ENDBRANCH  26  28
ENDBRANCH  25  26
ENDBRANCH  24  25
ENDBRANCH   1  24
TORSDOF 15
ENDMDL
MODEL 3
REMARK VINA RESULT:      -9.9      0.583      6.270
REMARK SMILES O=C(CCc1nc(-c2ccccc2)c(-c2ccccc2)o1)OCCOC(=O)c1ccc(-c2c3nc(c(-c4c(F)cccc4F)c4ccc([nH]4)c(-c4c(F)cccc4F)c4nc(c(-c5c(F)cccc5F)c5ccc2[nH]5)C=C4)C=C3)cc1
REMARK SMILES IDX 23 1 22 2 2 3 1 4 3 5 4 6 5 7 6 8 21 9 7 10 14 11 8 12 9 13
REMARK SMILES IDX 13 14 10 15 12 16 11 17 15 18 16 19 20 20 17 21 19 22 18 23
REMARK SMILES IDX 24 24 25 25 26 26 27 27 28 28 29 29 81 30 30 31 80 32 31 33
REMARK SMILES IDX 32 34 33 35 74 36 34 37 79 38 73 39 75 40 35 41 78 42 72 43
REMARK SMILES IDX 71 44 36 46 62 47 45 48 61 49 46 50 49 51 60 52 76 53 47 54
REMARK SMILES IDX 48 55 59 57 77 58 50 59 37 60 38 61 43 62 39 63 40 64 42 65
REMARK SMILES IDX 44 66 41 67 63 68 64 69 69 70 65 71 66 72 68 73 70 74 67 75
REMARK SMILES IDX 51 76 52 77 57 78 53 79 54 80 56 81 58 82 55 83
REMARK H PARENT 75 45 49 56
REMARK Flexibility Score: inf
ROOT
ATOM      1  C   UNL A   1      33.260  36.932  30.364  1.00  0.00     0.274 C 
ENDROOT
BRANCH   1   2
ATOM      2  O   UNL A   1      33.092  36.289  31.643  1.00  0.00    -0.462 OA
BRANCH   2   3
ATOM      3  C   UNL A   1      34.008  36.426  32.635  1.00  0.00     0.306 C 
ATOM      4  O   UNL A   1      34.062  37.458  33.300  1.00  0.00    -0.252 OA
BRANCH   3   5
ATOM      5  C   UNL A   1      35.057  35.347  32.793  1.00  0.00     0.132 C 
BRANCH   5   6
ATOM      6  C   UNL A   1      34.504  34.094  33.459  1.00  0.00     0.109 C 
BRANCH   6   7
ATOM      7  C   UNL A   1      35.514  33.512  34.375  1.00  0.00     0.196 A 
ATOM      8  N   UNL A   1      35.832  33.897  35.597  1.00  0.00    -0.213 NA
ATOM      9  O   UNL A   1      36.353  32.585  33.831  1.00  0.00    -0.440 OA
ATOM     10  C   UNL A   1      37.002  33.218  35.855  1.00  0.00     0.117 A 
ATOM     11  C   UNL A   1      37.298  32.379  34.797  1.00  0.00     0.162 A 
BRANCH  10  12
ATOM     12  C   UNL A   1      37.842  33.466  37.008  1.00  0.00     0.004 A 
ATOM     13  C   UNL A   1      37.767  32.631  38.135  1.00  0.00     0.010 A 
ATOM     14  C   UNL A   1      38.750  34.529  37.007  1.00  0.00     0.010 A 
ATOM     15  C   UNL A   1      38.556  32.881  39.257  1.00  0.00     0.001 A 
ATOM     16  C   UNL A   1      39.533  34.782  38.136  1.00  0.00     0.001 A 
ATOM     17  C   UNL A   1      39.432  33.963  39.261  1.00  0.00     0.000 A 
ENDBRANCH  10  12
BRANCH  11  18
ATOM     18  C   UNL A   1      38.330  31.415  34.487  1.00  0.00     0.020 A 
ATOM     19  C   UNL A   1      39.551  31.434  35.172  1.00  0.00     0.012 A 
ATOM     20  C   UNL A   1      38.109  30.439  33.507  1.00  0.00     0.012 A 
ATOM     21  C   UNL A   1      40.533  30.486  34.885  1.00  0.00     0.001 A 
ATOM     22  C   UNL A   1      39.095  29.500  33.212  1.00  0.00     0.001 A 
ATOM     23  C   UNL A   1      40.306  29.522  33.903  1.00  0.00     0.000 A 
ENDBRANCH  11  18
ENDBRANCH   6   7
ENDBRANCH   5   6
ENDBRANCH   3   5
ENDBRANCH   2   3
ENDBRANCH   1   2
BRANCH   1  24
ATOM     24  C   UNL A   1      32.901  36.033  29.182  1.00  0.00     0.275 C 
BRANCH  24  25
ATOM     25  O   UNL A   1      32.812  34.664  29.597  1.00  0.00    -0.458 OA
BRANCH  25  26
ATOM     26  C   UNL A   1      33.424  33.787  28.764  1.00  0.00     0.338 C 
ATOM     27  O   UNL A   1      33.035  33.413  27.672  1.00  0.00    -0.246 OA
BRANCH  26  28
ATOM     28  C   UNL A   1      34.759  33.466  29.305  1.00  0.00     0.060 A 
ATOM     29  C   UNL A   1      35.857  34.175  28.801  1.00  0.00     0.016 A 
ATOM     30  C   UNL A   1      34.935  32.488  30.289  1.00  0.00     0.016 A 
ATOM     31  C   UNL A   1      37.143  33.877  29.247  1.00  0.00     0.010 A 
ATOM     32  C   UNL A   1      36.223  32.185  30.728  1.00  0.00     0.010 A 
ATOM     33  C   UNL A   1      37.334  32.854  30.184  1.00  0.00    -0.014 A 
BRANCH  33  34
ATOM     34  C   UNL A   1      38.691  32.342  30.472  1.00  0.00     0.031 A 
ATOM     35  C   UNL A   1      39.104  31.038  29.856  1.00  0.00     0.074 A 
ATOM     36  C   UNL A   1      39.518  32.993  31.305  1.00  0.00     0.049 A 
ATOM     37  N   UNL A   1      40.185  30.330  30.055  1.00  0.00    -0.248 NA
ATOM     38  C   UNL A   1      38.158  30.443  28.898  1.00  0.00     0.031 C 
ATOM     39  C   UNL A   1      39.236  34.274  31.949  1.00  0.00     0.029 A 
ATOM     40  N   UNL A   1      40.758  32.641  31.775  1.00  0.00    -0.354 N 
ATOM     41  C   UNL A   1      40.044  29.202  29.257  1.00  0.00     0.074 A 
ATOM     42  C   UNL A   1      38.763  29.306  28.594  1.00  0.00     0.031 C 
ATOM     43  C   UNL A   1      40.261  34.585  32.760  1.00  0.00     0.029 A 
ATOM     44  C   UNL A   1      41.255  33.513  32.712  1.00  0.00     0.049 A 
ATOM     45  H   UNL A   1      41.245  31.842  31.469  1.00  0.00     0.167 HD
ATOM     46  C   UNL A   1      40.906  28.170  29.094  1.00  0.00     0.037 A 
ATOM     47  C   UNL A   1      42.368  33.433  33.466  1.00  0.00     0.037 A 
ATOM     48  C   UNL A   1      42.175  28.067  29.760  1.00  0.00     0.049 A 
ATOM     49  C   UNL A   1      43.291  32.256  33.306  1.00  0.00     0.074 A 
ATOM     50  C   UNL A   1      43.137  27.081  29.633  1.00  0.00     0.029 A 
ATOM     51  N   UNL A   1      42.649  28.975  30.694  1.00  0.00    -0.354 N 
ATOM     52  N   UNL A   1      43.175  31.215  32.517  1.00  0.00    -0.248 NA
ATOM     53  C   UNL A   1      44.502  32.242  34.141  1.00  0.00     0.031 C 
ATOM     54  C   UNL A   1      44.174  27.370  30.527  1.00  0.00     0.029 A 
ATOM     55  C   UNL A   1      43.879  28.560  31.174  1.00  0.00     0.049 A 
ATOM     56  H   UNL A   1      42.181  29.795  30.974  1.00  0.00     0.167 HD
ATOM     57  C   UNL A   1      44.306  30.439  32.738  1.00  0.00     0.074 A 
ATOM     58  C   UNL A   1      45.098  31.128  33.735  1.00  0.00     0.031 C 
ATOM     59  C   UNL A   1      44.659  29.263  32.161  1.00  0.00     0.037 A 
BRANCH  46  60
ATOM     60  C   UNL A   1      40.473  27.063  28.182  1.00  0.00     0.057 A 
ATOM     61  C   UNL A   1      39.569  26.074  28.591  1.00  0.00     0.134 A 
ATOM     62  C   UNL A   1      40.981  26.976  26.880  1.00  0.00     0.134 A 
ATOM     63  F   UNL A   1      39.061  26.090  29.832  1.00  0.00    -0.206 F 
ATOM     64  C   UNL A   1      39.211  25.020  27.749  1.00  0.00     0.040 A 
ATOM     65  C   UNL A   1      40.612  25.942  26.020  1.00  0.00     0.040 A 
ATOM     66  F   UNL A   1      41.850  27.892  26.425  1.00  0.00    -0.206 F 
ATOM     67  C   UNL A   1      39.731  24.954  26.458  1.00  0.00     0.006 A 
ENDBRANCH  46  60
BRANCH  47  68
ATOM     68  C   UNL A   1      42.657  34.501  34.454  1.00  0.00     0.057 A 
ATOM     69  C   UNL A   1      43.207  35.724  34.059  1.00  0.00     0.134 A 
ATOM     70  C   UNL A   1      42.375  34.326  35.814  1.00  0.00     0.134 A 
ATOM     71  F   UNL A   1      43.518  35.941  32.774  1.00  0.00    -0.206 F 
ATOM     72  C   UNL A   1      43.471  36.737  34.984  1.00  0.00     0.040 A 
ATOM     73  C   UNL A   1      42.615  35.336  36.746  1.00  0.00     0.040 A 
ATOM     74  F   UNL A   1      41.844  33.175  36.254  1.00  0.00    -0.206 F 
ATOM     75  C   UNL A   1      43.167  36.546  36.330  1.00  0.00     0.006 A 
ENDBRANCH  47  68
BRANCH  59  76
ATOM     76  C   UNL A   1      45.973  28.660  32.561  1.00  0.00     0.057 A 
ATOM     77  C   UNL A   1      47.169  28.998  31.916  1.00  0.00     0.134 A 
ATOM     78  C   UNL A   1      46.050  27.788  33.655  1.00  0.00     0.134 A 
ATOM     79  F   UNL A   1      47.161  29.819  30.855  1.00  0.00    -0.206 F 
ATOM     80  C   UNL A   1      48.395  28.483  32.340  1.00  0.00     0.040 A 
ATOM     81  C   UNL A   1      47.273  27.285  34.102  1.00  0.00     0.040 A 
ATOM     82  F   UNL A   1      44.942  27.433  34.322  1.00  0.00    -0.206 F 
ATOM     83  C   UNL A   1      48.450  27.631  33.443  1.00  0.00     0.006 A 
ENDBRANCH  59  76
ENDBRANCH  33  34
ENDBRANCH  26  28
ENDBRANCH  25  26
ENDBRANCH  24  25
ENDBRANCH   1  24
TORSDOF 15
ENDMDL
