MODEL 1
REMARK VINA RESULT:     -11.3      0.000      0.000
REMARK SMILES CCC[NH+]1CCC(NC(=O)NC2(CC(=O)OCCOC(=O)c3ccc(-c4c5nc(c(-c6c(F)cccc6F)c6ccc([nH]6)c(-c6c(F)cccc6F)c6nc(c(-c7c(F)cccc7F)c7ccc4[nH]7)C=C6)C=C5)cc3)CCC2)CC1
REMARK SMILES IDX 16 1 14 2 15 3 13 4 12 5 76 6 78 7 77 8 11 9 8 10 9 11 10 13
REMARK SMILES IDX 7 15 4 16 5 17 80 18 6 20 79 21 3 22 2 23 1 24 17 25 18 26
REMARK SMILES IDX 19 27 20 28 21 29 22 30 23 31 75 32 24 33 74 34 25 35 26 36
REMARK SMILES IDX 27 37 68 38 28 39 73 40 67 41 69 42 29 43 72 44 66 45 65 46
REMARK SMILES IDX 30 48 56 49 39 50 55 51 40 52 43 53 54 54 70 55 41 56 42 57
REMARK SMILES IDX 53 59 71 60 44 61 31 62 32 63 37 64 33 65 34 66 36 67 38 68
REMARK SMILES IDX 35 69 57 70 58 71 63 72 59 73 60 74 62 75 64 76 61 77 45 78
REMARK SMILES IDX 46 79 51 80 47 81 48 82 50 83 52 84 49 85
REMARK H PARENT 8 12 11 14 4 19 69 47 43 58
REMARK Flexibility Score: inf
ROOT
ATOM      1  O   UNL A   1      35.034  22.717  24.940  1.00  0.00    -0.462 OA
ENDROOT
BRANCH   1   2
ATOM      2  C   UNL A   1      34.737  23.457  23.841  1.00  0.00     0.308 C 
ATOM      3  O   UNL A   1      35.228  23.295  22.731  1.00  0.00    -0.252 OA
BRANCH   2   4
ATOM      4  C   UNL A   1      33.680  24.512  24.108  1.00  0.00     0.151 C 
BRANCH   4   5
ATOM      5  C   UNL A   1      32.309  24.302  23.430  1.00  0.00     0.052 C 
ATOM      6  C   UNL A   1      31.168  25.063  24.152  1.00  0.00     0.029 C 
ATOM      7  C   UNL A   1      31.729  22.972  23.941  1.00  0.00     0.029 C 
ATOM      8  C   UNL A   1      30.801  23.761  24.886  1.00  0.00     0.005 C 
BRANCH   5   9
ATOM      9  N   UNL A   1      32.418  24.618  21.980  1.00  0.00    -0.332 N 
ATOM     10  N   UNL A   1      32.893  26.907  21.456  1.00  0.00    -0.335 N 
ATOM     11  C   UNL A   1      32.753  25.619  21.151  1.00  0.00     0.315 C 
ATOM     12  H   UNL A   1      33.252  27.447  20.715  1.00  0.00     0.165 HD
ATOM     13  O   UNL A   1      32.956  25.298  19.974  1.00  0.00    -0.249 OA
ATOM     14  H   UNL A   1      32.157  23.829  21.453  1.00  0.00     0.165 HD
BRANCH  10  15
ATOM     15  C   UNL A   1      32.628  27.674  22.645  1.00  0.00     0.095 C 
ATOM     16  N   UNL A   1      32.116  29.797  24.560  1.00  0.00    -0.335 N 
ATOM     17  C   UNL A   1      33.447  29.185  24.400  1.00  0.00     0.264 C 
ATOM     18  C   UNL A   1      31.012  29.018  23.966  1.00  0.00     0.264 C 
ATOM     19  H   UNL A   1      32.185  30.679  24.051  1.00  0.00     0.348 HD
ATOM     20  C   UNL A   1      33.723  28.667  22.986  1.00  0.00     0.086 C 
ATOM     21  C   UNL A   1      31.309  28.434  22.583  1.00  0.00     0.086 C 
BRANCH  16  22
ATOM     22  C   UNL A   1      31.796  30.031  25.987  1.00  0.00     0.261 C 
BRANCH  22  23
ATOM     23  C   UNL A   1      32.458  29.088  26.998  1.00  0.00     0.058 C 
ATOM     24  C   UNL A   1      31.501  28.060  27.575  1.00  0.00     0.010 C 
ENDBRANCH  22  23
ENDBRANCH  16  22
ENDBRANCH  10  15
ENDBRANCH   5   9
ENDBRANCH   4   5
ENDBRANCH   2   4
ENDBRANCH   1   2
BRANCH   1  25
ATOM     25  C   UNL A   1      34.923  21.285  24.822  1.00  0.00     0.274 C 
BRANCH  25  26
ATOM     26  C   UNL A   1      36.306  20.656  24.955  1.00  0.00     0.275 C 
BRANCH  26  27
ATOM     27  O   UNL A   1      37.111  21.520  25.774  1.00  0.00    -0.458 OA
BRANCH  27  28
ATOM     28  C   UNL A   1      38.421  21.209  25.850  1.00  0.00     0.338 C 
ATOM     29  O   UNL A   1      38.941  20.131  25.592  1.00  0.00    -0.246 OA
BRANCH  28  30
ATOM     30  C   UNL A   1      39.164  22.391  26.325  1.00  0.00     0.060 A 
ATOM     31  C   UNL A   1      38.722  23.682  26.026  1.00  0.00     0.016 A 
ATOM     32  C   UNL A   1      40.340  22.212  27.049  1.00  0.00     0.016 A 
ATOM     33  C   UNL A   1      39.467  24.794  26.406  1.00  0.00     0.010 A 
ATOM     34  C   UNL A   1      41.043  23.328  27.506  1.00  0.00     0.010 A 
ATOM     35  C   UNL A   1      40.623  24.630  27.178  1.00  0.00    -0.014 A 
BRANCH  35  36
ATOM     36  C   UNL A   1      41.401  25.805  27.644  1.00  0.00     0.031 A 
ATOM     37  C   UNL A   1      40.740  26.843  28.505  1.00  0.00     0.074 A 
ATOM     38  C   UNL A   1      42.686  25.961  27.272  1.00  0.00     0.049 A 
ATOM     39  N   UNL A   1      41.156  28.042  28.823  1.00  0.00    -0.248 NA
ATOM     40  C   UNL A   1      39.429  26.489  29.072  1.00  0.00     0.031 C 
ATOM     41  C   UNL A   1      43.463  25.008  26.476  1.00  0.00     0.029 A 
ATOM     42  N   UNL A   1      43.563  26.991  27.504  1.00  0.00    -0.354 N 
ATOM     43  C   UNL A   1      40.136  28.606  29.580  1.00  0.00     0.074 A 
ATOM     44  C   UNL A   1      39.084  27.616  29.678  1.00  0.00     0.031 C 
ATOM     45  C   UNL A   1      44.703  25.490  26.300  1.00  0.00     0.029 A 
ATOM     46  C   UNL A   1      44.784  26.818  26.896  1.00  0.00     0.049 A 
ATOM     47  H   UNL A   1      43.340  27.777  28.053  1.00  0.00     0.167 HD
ATOM     48  C   UNL A   1      40.085  29.840  30.133  1.00  0.00     0.037 A 
ATOM     49  C   UNL A   1      45.833  27.654  26.787  1.00  0.00     0.037 A 
ATOM     50  C   UNL A   1      41.152  30.803  30.067  1.00  0.00     0.049 A 
ATOM     51  C   UNL A   1      45.740  29.028  27.383  1.00  0.00     0.074 A 
ATOM     52  C   UNL A   1      41.201  32.079  30.604  1.00  0.00     0.029 A 
ATOM     53  N   UNL A   1      42.368  30.589  29.435  1.00  0.00    -0.354 N 
ATOM     54  N   UNL A   1      44.751  29.574  28.047  1.00  0.00    -0.248 NA
ATOM     55  C   UNL A   1      46.901  29.909  27.197  1.00  0.00     0.031 C 
ATOM     56  C   UNL A   1      42.437  32.645  30.273  1.00  0.00     0.029 A 
ATOM     57  C   UNL A   1      43.170  31.710  29.560  1.00  0.00     0.049 A 
ATOM     58  H   UNL A   1      42.622  29.762  28.964  1.00  0.00     0.167 HD
ATOM     59  C   UNL A   1      45.170  30.858  28.365  1.00  0.00     0.074 A 
ATOM     60  C   UNL A   1      46.512  31.003  27.837  1.00  0.00     0.031 C 
ATOM     61  C   UNL A   1      44.503  31.831  29.029  1.00  0.00     0.037 A 
BRANCH  48  62
ATOM     62  C   UNL A   1      38.817  30.230  30.831  1.00  0.00     0.057 A 
ATOM     63  C   UNL A   1      37.769  30.875  30.164  1.00  0.00     0.134 A 
ATOM     64  C   UNL A   1      38.636  29.932  32.189  1.00  0.00     0.134 A 
ATOM     65  F   UNL A   1      37.887  31.202  28.869  1.00  0.00    -0.206 F 
ATOM     66  C   UNL A   1      36.591  31.226  30.827  1.00  0.00     0.040 A 
ATOM     67  C   UNL A   1      37.454  30.258  32.856  1.00  0.00     0.040 A 
ATOM     68  F   UNL A   1      39.600  29.312  32.884  1.00  0.00    -0.206 F 
ATOM     69  C   UNL A   1      36.430  30.912  32.176  1.00  0.00     0.006 A 
ENDBRANCH  48  62
BRANCH  49  70
ATOM     70  C   UNL A   1      47.042  27.225  26.043  1.00  0.00     0.057 A 
ATOM     71  C   UNL A   1      48.113  26.611  26.699  1.00  0.00     0.134 A 
ATOM     72  C   UNL A   1      47.151  27.406  24.658  1.00  0.00     0.134 A 
ATOM     73  F   UNL A   1      48.077  26.431  28.028  1.00  0.00    -0.206 F 
ATOM     74  C   UNL A   1      49.252  26.195  26.008  1.00  0.00     0.040 A 
ATOM     75  C   UNL A   1      48.271  26.975  23.950  1.00  0.00     0.040 A 
ATOM     76  F   UNL A   1      46.155  27.987  23.972  1.00  0.00    -0.206 F 
ATOM     77  C   UNL A   1      49.329  26.370  24.627  1.00  0.00     0.006 A 
ENDBRANCH  49  70
BRANCH  61  78
ATOM     78  C   UNL A   1      45.228  33.125  29.243  1.00  0.00     0.057 A 
ATOM     79  C   UNL A   1      45.110  34.189  28.341  1.00  0.00     0.134 A 
ATOM     80  C   UNL A   1      46.030  33.314  30.373  1.00  0.00     0.134 A 
ATOM     81  F   UNL A   1      44.368  34.062  27.230  1.00  0.00    -0.206 F 
ATOM     82  C   UNL A   1      45.782  35.395  28.550  1.00  0.00     0.040 A 
ATOM     83  C   UNL A   1      46.691  34.521  30.602  1.00  0.00     0.040 A 
ATOM     84  F   UNL A   1      46.178  32.333  31.276  1.00  0.00    -0.206 F 
ATOM     85  C   UNL A   1      46.571  35.564  29.686  1.00  0.00     0.006 A 
ENDBRANCH  61  78
ENDBRANCH  35  36
ENDBRANCH  28  30
ENDBRANCH  27  28
ENDBRANCH  26  27
ENDBRANCH  25  26
ENDBRANCH   1  25
TORSDOF 16
ENDMDL
MODEL 2
REMARK VINA RESULT:     -11.1      2.950      7.205
REMARK SMILES CCC[NH+]1CCC(NC(=O)NC2(CC(=O)OCCOC(=O)c3ccc(-c4c5nc(c(-c6c(F)cccc6F)c6ccc([nH]6)c(-c6c(F)cccc6F)c6nc(c(-c7c(F)cccc7F)c7ccc4[nH]7)C=C6)C=C5)cc3)CCC2)CC1
REMARK SMILES IDX 16 1 14 2 15 3 13 4 12 5 76 6 78 7 77 8 11 9 8 10 9 11 10 13
REMARK SMILES IDX 7 15 4 16 5 17 80 18 6 20 79 21 3 22 2 23 1 24 17 25 18 26
REMARK SMILES IDX 19 27 20 28 21 29 22 30 23 31 75 32 24 33 74 34 25 35 26 36
REMARK SMILES IDX 27 37 68 38 28 39 73 40 67 41 69 42 29 43 72 44 66 45 65 46
REMARK SMILES IDX 30 48 56 49 39 50 55 51 40 52 43 53 54 54 70 55 41 56 42 57
REMARK SMILES IDX 53 59 71 60 44 61 31 62 32 63 37 64 33 65 34 66 36 67 38 68
REMARK SMILES IDX 35 69 57 70 58 71 63 72 59 73 60 74 62 75 64 76 61 77 45 78
REMARK SMILES IDX 46 79 51 80 47 81 48 82 50 83 52 84 49 85
REMARK H PARENT 8 12 11 14 4 19 69 47 43 58
REMARK Flexibility Score: inf
ROOT
ATOM      1  O   UNL A   1      32.666  27.750  26.626  1.00  0.00    -0.462 OA
ENDROOT
BRANCH   1   2
ATOM      2  C   UNL A   1      31.774  26.742  26.448  1.00  0.00     0.308 C 
ATOM      3  O   UNL A   1      30.643  26.713  26.915  1.00  0.00    -0.252 OA
BRANCH   2   4
ATOM      4  C   UNL A   1      32.305  25.636  25.556  1.00  0.00     0.151 C 
BRANCH   4   5
ATOM      5  C   UNL A   1      31.253  24.763  24.838  1.00  0.00     0.052 C 
ATOM      6  C   UNL A   1      31.873  23.882  23.724  1.00  0.00     0.029 C 
ATOM      7  C   UNL A   1      30.579  25.630  23.760  1.00  0.00     0.029 C 
ATOM      8  C   UNL A   1      31.442  24.936  22.688  1.00  0.00     0.005 C 
BRANCH   5   9
ATOM      9  N   UNL A   1      30.472  23.996  25.845  1.00  0.00    -0.332 N 
ATOM     10  N   UNL A   1      31.738  22.461  27.180  1.00  0.00    -0.335 N 
ATOM     11  C   UNL A   1      30.638  23.147  26.870  1.00  0.00     0.315 C 
ATOM     12  H   UNL A   1      31.670  21.983  28.038  1.00  0.00     0.165 HD
ATOM     13  O   UNL A   1      29.658  22.992  27.607  1.00  0.00    -0.249 OA
ATOM     14  H   UNL A   1      29.511  24.171  25.717  1.00  0.00     0.165 HD
BRANCH  10  15
ATOM     15  C   UNL A   1      33.003  22.275  26.520  1.00  0.00     0.095 C 
ATOM     16  N   UNL A   1      35.698  21.472  25.792  1.00  0.00    -0.335 N 
ATOM     17  C   UNL A   1      35.401  22.788  26.385  1.00  0.00     0.264 C 
ATOM     18  C   UNL A   1      34.517  20.764  25.260  1.00  0.00     0.264 C 
ATOM     19  H   UNL A   1      36.065  20.925  26.570  1.00  0.00     0.348 HD
ATOM     20  C   UNL A   1      34.188  22.786  27.318  1.00  0.00     0.086 C 
ATOM     21  C   UNL A   1      33.276  20.821  26.153  1.00  0.00     0.086 C 
BRANCH  16  22
ATOM     22  C   UNL A   1      36.695  21.582  24.702  1.00  0.00     0.261 C 
BRANCH  22  23
ATOM     23  C   UNL A   1      38.145  21.245  25.069  1.00  0.00     0.058 C 
ATOM     24  C   UNL A   1      38.727  22.169  26.124  1.00  0.00     0.010 C 
ENDBRANCH  22  23
ENDBRANCH  16  22
ENDBRANCH  10  15
ENDBRANCH   5   9
ENDBRANCH   4   5
ENDBRANCH   2   4
ENDBRANCH   1   2
BRANCH   1  25
ATOM     25  C   UNL A   1      32.183  28.957  27.250  1.00  0.00     0.274 C 
BRANCH  25  26
ATOM     26  C   UNL A   1      33.269  30.027  27.191  1.00  0.00     0.275 C 
BRANCH  26  27
ATOM     27  O   UNL A   1      34.483  29.458  27.705  1.00  0.00    -0.458 OA
BRANCH  27  28
ATOM     28  C   UNL A   1      35.228  30.265  28.489  1.00  0.00     0.338 C 
ATOM     29  O   UNL A   1      34.853  31.266  29.086  1.00  0.00    -0.246 OA
BRANCH  28  30
ATOM     30  C   UNL A   1      36.614  29.760  28.511  1.00  0.00     0.060 A 
ATOM     31  C   UNL A   1      37.178  29.268  29.690  1.00  0.00     0.016 A 
ATOM     32  C   UNL A   1      37.377  29.814  27.347  1.00  0.00     0.016 A 
ATOM     33  C   UNL A   1      38.510  28.868  29.727  1.00  0.00     0.010 A 
ATOM     34  C   UNL A   1      38.687  29.331  27.361  1.00  0.00     0.010 A 
ATOM     35  C   UNL A   1      39.272  28.868  28.553  1.00  0.00    -0.014 A 
BRANCH  35  36
ATOM     36  C   UNL A   1      40.677  28.389  28.558  1.00  0.00     0.031 A 
ATOM     37  C   UNL A   1      41.793  29.356  28.832  1.00  0.00     0.074 A 
ATOM     38  C   UNL A   1      40.958  27.100  28.284  1.00  0.00     0.049 A 
ATOM     39  N   UNL A   1      43.081  29.205  28.657  1.00  0.00    -0.248 NA
ATOM     40  C   UNL A   1      41.407  30.674  29.362  1.00  0.00     0.031 C 
ATOM     41  C   UNL A   1      39.969  26.047  28.044  1.00  0.00     0.029 A 
ATOM     42  N   UNL A   1      42.164  26.460  28.147  1.00  0.00    -0.354 N 
ATOM     43  C   UNL A   1      43.653  30.424  29.000  1.00  0.00     0.074 A 
ATOM     44  C   UNL A   1      42.574  31.301  29.399  1.00  0.00     0.031 C 
ATOM     45  C   UNL A   1      40.607  24.891  27.805  1.00  0.00     0.029 A 
ATOM     46  C   UNL A   1      42.044  25.137  27.794  1.00  0.00     0.049 A 
ATOM     47  H   UNL A   1      43.031  26.904  28.290  1.00  0.00     0.167 HD
ATOM     48  C   UNL A   1      44.960  30.775  28.976  1.00  0.00     0.037 A 
ATOM     49  C   UNL A   1      42.982  24.235  27.448  1.00  0.00     0.037 A 
ATOM     50  C   UNL A   1      46.033  29.884  28.618  1.00  0.00     0.049 A 
ATOM     51  C   UNL A   1      44.421  24.657  27.399  1.00  0.00     0.074 A 
ATOM     52  C   UNL A   1      47.392  30.142  28.571  1.00  0.00     0.029 A 
ATOM     53  N   UNL A   1      45.865  28.555  28.258  1.00  0.00    -0.354 N 
ATOM     54  N   UNL A   1      44.948  25.826  27.670  1.00  0.00    -0.248 NA
ATOM     55  C   UNL A   1      45.394  23.640  26.977  1.00  0.00     0.031 C 
ATOM     56  C   UNL A   1      48.044  28.975  28.158  1.00  0.00     0.029 A 
ATOM     57  C   UNL A   1      47.094  27.982  27.980  1.00  0.00     0.049 A 
ATOM     58  H   UNL A   1      44.999  28.088  28.207  1.00  0.00     0.167 HD
ATOM     59  C   UNL A   1      46.312  25.686  27.459  1.00  0.00     0.074 A 
ATOM     60  C   UNL A   1      46.535  24.312  27.056  1.00  0.00     0.031 C 
ATOM     61  C   UNL A   1      47.292  26.612  27.583  1.00  0.00     0.037 A 
BRANCH  48  62
ATOM     62  C   UNL A   1      45.299  32.196  29.315  1.00  0.00     0.057 A 
ATOM     63  C   UNL A   1      45.282  33.214  28.355  1.00  0.00     0.134 A 
ATOM     64  C   UNL A   1      45.622  32.551  30.632  1.00  0.00     0.134 A 
ATOM     65  F   UNL A   1      44.997  32.936  27.074  1.00  0.00    -0.206 F 
ATOM     66  C   UNL A   1      45.594  34.533  28.689  1.00  0.00     0.040 A 
ATOM     67  C   UNL A   1      45.914  33.870  30.981  1.00  0.00     0.040 A 
ATOM     68  F   UNL A   1      45.652  31.623  31.600  1.00  0.00    -0.206 F 
ATOM     69  C   UNL A   1      45.905  34.865  30.006  1.00  0.00     0.006 A 
ENDBRANCH  48  62
BRANCH  49  70
ATOM     70  C   UNL A   1      42.578  22.857  27.077  1.00  0.00     0.057 A 
ATOM     71  C   UNL A   1      42.544  22.451  25.740  1.00  0.00     0.134 A 
ATOM     72  C   UNL A   1      42.231  21.911  28.049  1.00  0.00     0.134 A 
ATOM     73  F   UNL A   1      42.843  23.320  24.763  1.00  0.00    -0.206 F 
ATOM     74  C   UNL A   1      42.175  21.154  25.379  1.00  0.00     0.040 A 
ATOM     75  C   UNL A   1      41.883  20.604  27.707  1.00  0.00     0.040 A 
ATOM     76  F   UNL A   1      42.247  22.239  29.350  1.00  0.00    -0.206 F 
ATOM     77  C   UNL A   1      41.851  20.224  26.367  1.00  0.00     0.006 A 
ENDBRANCH  49  70
BRANCH  61  78
ATOM     78  C   UNL A   1      48.692  26.159  27.304  1.00  0.00     0.057 A 
ATOM     79  C   UNL A   1      49.267  26.289  26.035  1.00  0.00     0.134 A 
ATOM     80  C   UNL A   1      49.479  25.609  28.322  1.00  0.00     0.134 A 
ATOM     81  F   UNL A   1      48.556  26.794  25.015  1.00  0.00    -0.206 F 
ATOM     82  C   UNL A   1      50.575  25.871  25.783  1.00  0.00     0.040 A 
ATOM     83  C   UNL A   1      50.794  25.205  28.088  1.00  0.00     0.040 A 
ATOM     84  F   UNL A   1      48.986  25.462  29.562  1.00  0.00    -0.206 F 
ATOM     85  C   UNL A   1      51.343  25.332  26.813  1.00  0.00     0.006 A 
ENDBRANCH  61  78
ENDBRANCH  35  36
ENDBRANCH  28  30
ENDBRANCH  27  28
ENDBRANCH  26  27
ENDBRANCH  25  26
ENDBRANCH   1  25
TORSDOF 16
ENDMDL
MODEL 3
REMARK VINA RESULT:     -11.0      3.981      8.777
REMARK SMILES CCC[NH+]1CCC(NC(=O)NC2(CC(=O)OCCOC(=O)c3ccc(-c4c5nc(c(-c6c(F)cccc6F)c6ccc([nH]6)c(-c6c(F)cccc6F)c6nc(c(-c7c(F)cccc7F)c7ccc4[nH]7)C=C6)C=C5)cc3)CCC2)CC1
REMARK SMILES IDX 16 1 14 2 15 3 13 4 12 5 76 6 78 7 77 8 11 9 8 10 9 11 10 13
REMARK SMILES IDX 7 15 4 16 5 17 80 18 6 20 79 21 3 22 2 23 1 24 17 25 18 26
REMARK SMILES IDX 19 27 20 28 21 29 22 30 23 31 75 32 24 33 74 34 25 35 26 36
REMARK SMILES IDX 27 37 68 38 28 39 73 40 67 41 69 42 29 43 72 44 66 45 65 46
REMARK SMILES IDX 30 48 56 49 39 50 55 51 40 52 43 53 54 54 70 55 41 56 42 57
REMARK SMILES IDX 53 59 71 60 44 61 31 62 32 63 37 64 33 65 34 66 36 67 38 68
REMARK SMILES IDX 35 69 57 70 58 71 63 72 59 73 60 74 62 75 64 76 61 77 45 78
REMARK SMILES IDX 46 79 51 80 47 81 48 82 50 83 52 84 49 85
REMARK H PARENT 8 12 11 14 4 19 69 47 43 58
REMARK Flexibility Score: inf
ROOT
ATOM      1  O   UNL A   1      30.412  28.028  23.978  1.00  0.00    -0.462 OA
ENDROOT
BRANCH   1   2
ATOM      2  C   UNL A   1      29.981  26.747  23.852  1.00  0.00     0.308 C 
ATOM      3  O   UNL A   1      28.884  26.335  24.210  1.00  0.00    -0.252 OA
BRANCH   2   4
ATOM      4  C   UNL A   1      30.994  25.847  23.170  1.00  0.00     0.151 C 
BRANCH   4   5
ATOM      5  C   UNL A   1      31.631  24.741  24.039  1.00  0.00     0.052 C 
ATOM      6  C   UNL A   1      33.071  25.094  24.488  1.00  0.00     0.029 C 
ATOM      7  C   UNL A   1      32.202  23.670  23.093  1.00  0.00     0.029 C 
ATOM      8  C   UNL A   1      33.614  24.243  23.326  1.00  0.00     0.005 C 
BRANCH   5   9
ATOM      9  N   UNL A   1      30.716  24.404  25.163  1.00  0.00    -0.332 N 
ATOM     10  N   UNL A   1      31.664  23.040  26.890  1.00  0.00    -0.335 N 
ATOM     11  C   UNL A   1      30.716  23.818  26.370  1.00  0.00     0.315 C 
ATOM     12  H   UNL A   1      31.506  22.810  27.834  1.00  0.00     0.165 HD
ATOM     13  O   UNL A   1      29.723  24.034  27.074  1.00  0.00    -0.249 OA
ATOM     14  H   UNL A   1      29.807  24.716  24.950  1.00  0.00     0.165 HD
BRANCH  10  15
ATOM     15  C   UNL A   1      32.872  22.467  26.357  1.00  0.00     0.095 C 
ATOM     16  N   UNL A   1      35.145  20.757  25.767  1.00  0.00    -0.335 N 
ATOM     17  C   UNL A   1      35.253  21.937  26.642  1.00  0.00     0.264 C 
ATOM     18  C   UNL A   1      33.926  20.726  24.934  1.00  0.00     0.264 C 
ATOM     19  H   UNL A   1      35.100  19.970  26.414  1.00  0.00     0.348 HD
ATOM     20  C   UNL A   1      33.963  22.270  27.394  1.00  0.00     0.086 C 
ATOM     21  C   UNL A   1      32.642  21.131  25.660  1.00  0.00     0.086 C 
BRANCH  16  22
ATOM     22  C   UNL A   1      36.317  20.641  24.868  1.00  0.00     0.261 C 
BRANCH  22  23
ATOM     23  C   UNL A   1      37.126  21.921  24.634  1.00  0.00     0.058 C 
ATOM     24  C   UNL A   1      36.744  22.647  23.356  1.00  0.00     0.010 C 
ENDBRANCH  22  23
ENDBRANCH  16  22
ENDBRANCH  10  15
ENDBRANCH   5   9
ENDBRANCH   4   5
ENDBRANCH   2   4
ENDBRANCH   1   2
BRANCH   1  25
ATOM     25  C   UNL A   1      31.371  28.303  25.019  1.00  0.00     0.274 C 
BRANCH  25  26
ATOM     26  C   UNL A   1      31.505  29.813  25.198  1.00  0.00     0.275 C 
BRANCH  26  27
ATOM     27  O   UNL A   1      32.802  30.082  25.750  1.00  0.00    -0.458 OA
BRANCH  27  28
ATOM     28  C   UNL A   1      32.855  31.049  26.690  1.00  0.00     0.338 C 
ATOM     29  O   UNL A   1      32.024  31.922  26.898  1.00  0.00    -0.246 OA
BRANCH  28  30
ATOM     30  C   UNL A   1      34.114  30.909  27.445  1.00  0.00     0.060 A 
ATOM     31  C   UNL A   1      34.884  32.030  27.767  1.00  0.00     0.016 A 
ATOM     32  C   UNL A   1      34.555  29.638  27.807  1.00  0.00     0.016 A 
ATOM     33  C   UNL A   1      36.111  31.888  28.409  1.00  0.00     0.010 A 
ATOM     34  C   UNL A   1      35.742  29.502  28.528  1.00  0.00     0.010 A 
ATOM     35  C   UNL A   1      36.540  30.622  28.824  1.00  0.00    -0.014 A 
BRANCH  35  36
ATOM     36  C   UNL A   1      37.817  30.455  29.563  1.00  0.00     0.031 A 
ATOM     37  C   UNL A   1      38.934  29.661  28.950  1.00  0.00     0.074 A 
ATOM     38  C   UNL A   1      37.964  30.985  30.793  1.00  0.00     0.049 A 
ATOM     39  N   UNL A   1      40.025  29.201  29.508  1.00  0.00    -0.248 NA
ATOM     40  C   UNL A   1      38.800  29.328  27.523  1.00  0.00     0.031 C 
ATOM     41  C   UNL A   1      36.977  31.815  31.486  1.00  0.00     0.029 A 
ATOM     42  N   UNL A   1      39.002  30.889  31.686  1.00  0.00    -0.354 N 
ATOM     43  C   UNL A   1      40.678  28.479  28.517  1.00  0.00     0.074 A 
ATOM     44  C   UNL A   1      39.865  28.566  27.323  1.00  0.00     0.031 C 
ATOM     45  C   UNL A   1      37.462  32.165  32.687  1.00  0.00     0.029 A 
ATOM     46  C   UNL A   1      38.754  31.518  32.883  1.00  0.00     0.049 A 
ATOM     47  H   UNL A   1      39.843  30.417  31.488  1.00  0.00     0.167 HD
ATOM     48  C   UNL A   1      41.847  27.801  28.604  1.00  0.00     0.037 A 
ATOM     49  C   UNL A   1      39.463  31.532  34.027  1.00  0.00     0.037 A 
ATOM     50  C   UNL A   1      42.671  27.754  29.782  1.00  0.00     0.049 A 
ATOM     51  C   UNL A   1      40.740  30.747  34.108  1.00  0.00     0.074 A 
ATOM     52  C   UNL A   1      43.878  27.101  29.968  1.00  0.00     0.029 A 
ATOM     53  N   UNL A   1      42.378  28.399  30.974  1.00  0.00    -0.354 N 
ATOM     54  N   UNL A   1      41.321  30.021  33.186  1.00  0.00    -0.248 NA
ATOM     55  C   UNL A   1      41.448  30.768  35.395  1.00  0.00     0.031 C 
ATOM     56  C   UNL A   1      44.302  27.331  31.282  1.00  0.00     0.029 A 
ATOM     57  C   UNL A   1      43.376  28.154  31.903  1.00  0.00     0.049 A 
ATOM     58  H   UNL A   1      41.577  28.949  31.137  1.00  0.00     0.167 HD
ATOM     59  C   UNL A   1      42.465  29.504  33.775  1.00  0.00     0.074 A 
ATOM     60  C   UNL A   1      42.507  30.015  35.130  1.00  0.00     0.031 C 
ATOM     61  C   UNL A   1      43.397  28.675  33.245  1.00  0.00     0.037 A 
BRANCH  48  62
ATOM     62  C   UNL A   1      42.285  27.027  27.397  1.00  0.00     0.057 A 
ATOM     63  C   UNL A   1      43.019  27.617  26.361  1.00  0.00     0.134 A 
ATOM     64  C   UNL A   1      41.987  25.662  27.285  1.00  0.00     0.134 A 
ATOM     65  F   UNL A   1      43.322  28.923  26.401  1.00  0.00    -0.206 F 
ATOM     66  C   UNL A   1      43.425  26.880  25.246  1.00  0.00     0.040 A 
ATOM     67  C   UNL A   1      42.407  24.911  26.186  1.00  0.00     0.040 A 
ATOM     68  F   UNL A   1      41.290  25.036  28.245  1.00  0.00    -0.206 F 
ATOM     69  C   UNL A   1      43.124  25.522  25.160  1.00  0.00     0.006 A 
ENDBRANCH  48  62
BRANCH  49  70
ATOM     70  C   UNL A   1      38.951  32.279  35.201  1.00  0.00     0.057 A 
ATOM     71  C   UNL A   1      38.267  31.625  36.231  1.00  0.00     0.134 A 
ATOM     72  C   UNL A   1      39.145  33.660  35.330  1.00  0.00     0.134 A 
ATOM     73  F   UNL A   1      38.031  30.306  36.153  1.00  0.00    -0.206 F 
ATOM     74  C   UNL A   1      37.790  32.316  37.345  1.00  0.00     0.040 A 
ATOM     75  C   UNL A   1      38.696  34.361  36.449  1.00  0.00     0.040 A 
ATOM     76  F   UNL A   1      39.797  34.344  34.377  1.00  0.00    -0.206 F 
ATOM     77  C   UNL A   1      38.012  33.688  37.460  1.00  0.00     0.006 A 
ENDBRANCH  49  70
BRANCH  61  78
ATOM     78  C   UNL A   1      44.547  28.297  34.125  1.00  0.00     0.057 A 
ATOM     79  C   UNL A   1      44.519  27.140  34.913  1.00  0.00     0.134 A 
ATOM     80  C   UNL A   1      45.703  29.085  34.166  1.00  0.00     0.134 A 
ATOM     81  F   UNL A   1      43.432  26.354  34.929  1.00  0.00    -0.206 F 
ATOM     82  C   UNL A   1      45.598  26.789  35.727  1.00  0.00     0.040 A 
ATOM     83  C   UNL A   1      46.795  28.734  34.960  1.00  0.00     0.040 A 
ATOM     84  F   UNL A   1      45.792  30.203  33.429  1.00  0.00    -0.206 F 
ATOM     85  C   UNL A   1      46.742  27.585  35.747  1.00  0.00     0.006 A 
ENDBRANCH  61  78
ENDBRANCH  35  36
ENDBRANCH  28  30
ENDBRANCH  27  28
ENDBRANCH  26  27
ENDBRANCH  25  26
ENDBRANCH   1  25
TORSDOF 16
ENDMDL
