MODEL 1
REMARK VINA RESULT:     -10.9      0.000      0.000
REMARK SMILES CCC[NH2+]CC(=O)N1[C@@H](C(=O)OCCOC(=O)c2ccc(-c3c4nc(c(-c5c(F)cccc5F)c5ccc([nH]5)c(-c5c(F)cccc5F)c5nc(c(-c6c(F)cccc6F)c6ccc3[nH]6)C=C5)C=C4)cc2)CC[C@@H]2CCCC[C@@H]21
REMARK SMILES IDX 12 1 10 2 11 3 9 4 8 5 79 6 72 7 74 8 78 9 73 10 75 11 77 12
REMARK SMILES IDX 76 13 6 14 7 15 5 16 4 17 3 20 2 21 1 22 13 23 14 24 15 25
REMARK SMILES IDX 16 26 17 27 18 28 19 29 71 30 20 31 70 32 21 33 22 34 23 35
REMARK SMILES IDX 64 36 24 37 69 38 63 39 65 40 25 41 68 42 62 43 61 44 26 46
REMARK SMILES IDX 52 47 35 48 51 49 36 50 39 51 50 52 66 53 37 54 38 55 49 57
REMARK SMILES IDX 67 58 40 59 27 60 28 61 33 62 29 63 30 64 32 65 34 66 31 67
REMARK SMILES IDX 53 68 54 69 59 70 55 71 56 72 58 73 60 74 57 75 41 76 42 77
REMARK SMILES IDX 47 78 43 79 44 80 46 81 48 82 45 83
REMARK H PARENT 4 18 4 19 65 45 39 56
REMARK Flexibility Score: inf
ROOT
ATOM      1  O   UNL A   1      31.579  29.765  26.510  1.00  0.00    -0.461 OA
ENDROOT
BRANCH   1   2
ATOM      2  C   UNL A   1      32.694  29.152  26.043  1.00  0.00     0.328 C 
ATOM      3  O   UNL A   1      33.795  29.676  26.048  1.00  0.00    -0.250 OA
BRANCH   2   4
ATOM      4  C   UNL A   1      32.509  27.699  25.607  1.00  0.00     0.195 C 
ATOM      5  N   UNL A   1      32.349  27.459  24.162  1.00  0.00    -0.321 N 
ATOM      6  C   UNL A   1      32.270  26.062  23.685  1.00  0.00     0.089 C 
ATOM      7  C   UNL A   1      31.567  26.877  26.472  1.00  0.00     0.037 C 
ATOM      8  C   UNL A   1      31.378  25.199  24.622  1.00  0.00     0.012 C 
ATOM      9  C   UNL A   1      33.677  25.477  23.473  1.00  0.00     0.025 C 
ATOM     10  C   UNL A   1      31.717  25.408  26.107  1.00  0.00     0.008 C 
ATOM     11  C   UNL A   1      31.439  23.712  24.257  1.00  0.00     0.006 C 
ATOM     12  C   UNL A   1      33.752  23.960  23.305  1.00  0.00     0.002 C 
ATOM     13  C   UNL A   1      32.863  23.175  24.258  1.00  0.00     0.000 C 
BRANCH   5  14
ATOM     14  C   UNL A   1      32.185  28.548  23.315  1.00  0.00     0.278 C 
ATOM     15  O   UNL A   1      33.153  29.053  22.745  1.00  0.00    -0.268 OA
BRANCH  14  16
ATOM     16  C   UNL A   1      30.721  28.916  22.951  1.00  0.00     0.362 C 
BRANCH  16  17
ATOM     17  N   UNL A   1      30.667  29.967  21.893  1.00  0.00    -0.338 N 
ATOM     18  H   UNL A   1      31.208  30.774  22.202  1.00  0.00     0.346 HD
ATOM     19  H   UNL A   1      31.051  29.572  21.035  1.00  0.00     0.346 HD
BRANCH  17  20
ATOM     20  C   UNL A   1      29.289  30.398  21.619  1.00  0.00     0.260 C 
BRANCH  20  21
ATOM     21  C   UNL A   1      28.252  30.216  22.752  1.00  0.00     0.058 C 
ATOM     22  C   UNL A   1      27.653  31.450  23.416  1.00  0.00     0.010 C 
ENDBRANCH  20  21
ENDBRANCH  17  20
ENDBRANCH  16  17
ENDBRANCH  14  16
ENDBRANCH   5  14
ENDBRANCH   2   4
ENDBRANCH   1   2
BRANCH   1  23
ATOM     23  C   UNL A   1      31.366  31.069  25.938  1.00  0.00     0.274 C 
BRANCH  23  24
ATOM     24  C   UNL A   1      31.480  32.186  26.990  1.00  0.00     0.275 C 
BRANCH  24  25
ATOM     25  O   UNL A   1      32.564  33.118  26.761  1.00  0.00    -0.458 OA
BRANCH  25  26
ATOM     26  C   UNL A   1      33.026  33.765  27.856  1.00  0.00     0.338 C 
ATOM     27  O   UNL A   1      32.453  34.664  28.464  1.00  0.00    -0.246 OA
BRANCH  26  28
ATOM     28  C   UNL A   1      34.290  33.181  28.355  1.00  0.00     0.060 A 
ATOM     29  C   UNL A   1      34.240  31.898  28.915  1.00  0.00     0.016 A 
ATOM     30  C   UNL A   1      35.490  33.896  28.382  1.00  0.00     0.016 A 
ATOM     31  C   UNL A   1      35.373  31.314  29.477  1.00  0.00     0.010 A 
ATOM     32  C   UNL A   1      36.624  33.322  28.979  1.00  0.00     0.010 A 
ATOM     33  C   UNL A   1      36.572  32.030  29.535  1.00  0.00    -0.014 A 
BRANCH  33  34
ATOM     34  C   UNL A   1      37.735  31.446  30.248  1.00  0.00     0.031 A 
ATOM     35  C   UNL A   1      38.620  30.454  29.550  1.00  0.00     0.074 A 
ATOM     36  C   UNL A   1      38.035  31.837  31.500  1.00  0.00     0.049 A 
ATOM     37  N   UNL A   1      39.643  29.784  30.017  1.00  0.00    -0.248 NA
ATOM     38  C   UNL A   1      38.320  30.190  28.135  1.00  0.00     0.031 C 
ATOM     39  C   UNL A   1      37.316  32.855  32.263  1.00  0.00     0.029 A 
ATOM     40  N   UNL A   1      39.024  31.411  32.351  1.00  0.00    -0.354 N 
ATOM     41  C   UNL A   1      40.108  29.016  28.958  1.00  0.00     0.074 A 
ATOM     42  C   UNL A   1      39.248  29.294  27.827  1.00  0.00     0.031 C 
ATOM     43  C   UNL A   1      37.877  32.960  33.481  1.00  0.00     0.029 A 
ATOM     44  C   UNL A   1      38.964  31.990  33.595  1.00  0.00     0.049 A 
ATOM     45  H   UNL A   1      39.712  30.755  32.094  1.00  0.00     0.167 HD
ATOM     46  C   UNL A   1      41.156  28.158  28.931  1.00  0.00     0.037 A 
ATOM     47  C   UNL A   1      39.677  31.737  34.710  1.00  0.00     0.037 A 
ATOM     48  C   UNL A   1      42.010  27.869  30.053  1.00  0.00     0.049 A 
ATOM     49  C   UNL A   1      40.750  30.679  34.692  1.00  0.00     0.074 A 
ATOM     50  C   UNL A   1      43.098  27.014  30.111  1.00  0.00     0.029 A 
ATOM     51  N   UNL A   1      41.866  28.415  31.318  1.00  0.00    -0.354 N 
ATOM     52  N   UNL A   1      41.183  29.956  33.687  1.00  0.00    -0.248 NA
ATOM     53  C   UNL A   1      41.424  30.394  35.968  1.00  0.00     0.031 C 
ATOM     54  C   UNL A   1      43.581  27.003  31.424  1.00  0.00     0.029 A 
ATOM     55  C   UNL A   1      42.822  27.888  32.172  1.00  0.00     0.049 A 
ATOM     56  H   UNL A   1      41.185  29.079  31.573  1.00  0.00     0.167 HD
ATOM     57  C   UNL A   1      42.191  29.151  34.203  1.00  0.00     0.074 A 
ATOM     58  C   UNL A   1      42.314  29.480  35.607  1.00  0.00     0.031 C 
ATOM     59  C   UNL A   1      42.944  28.221  33.568  1.00  0.00     0.037 A 
BRANCH  46  60
ATOM     60  C   UNL A   1      41.417  27.433  27.646  1.00  0.00     0.057 A 
ATOM     61  C   UNL A   1      42.214  27.982  26.633  1.00  0.00     0.134 A 
ATOM     62  C   UNL A   1      40.898  26.149  27.437  1.00  0.00     0.134 A 
ATOM     63  F   UNL A   1      42.730  29.213  26.769  1.00  0.00    -0.206 F 
ATOM     64  C   UNL A   1      42.471  27.287  25.451  1.00  0.00     0.040 A 
ATOM     65  C   UNL A   1      41.166  25.435  26.269  1.00  0.00     0.040 A 
ATOM     66  F   UNL A   1      40.132  25.564  28.370  1.00  0.00    -0.206 F 
ATOM     67  C   UNL A   1      41.951  26.006  25.269  1.00  0.00     0.006 A 
ENDBRANCH  46  60
BRANCH  47  68
ATOM     68  C   UNL A   1      39.370  32.460  35.970  1.00  0.00     0.057 A 
ATOM     69  C   UNL A   1      38.422  31.970  36.875  1.00  0.00     0.134 A 
ATOM     70  C   UNL A   1      39.984  33.682  36.273  1.00  0.00     0.134 A 
ATOM     71  F   UNL A   1      37.778  30.821  36.622  1.00  0.00    -0.206 F 
ATOM     72  C   UNL A   1      38.084  32.676  38.030  1.00  0.00     0.040 A 
ATOM     73  C   UNL A   1      39.674  34.385  37.437  1.00  0.00     0.040 A 
ATOM     74  F   UNL A   1      40.894  34.207  35.442  1.00  0.00    -0.206 F 
ATOM     75  C   UNL A   1      38.715  33.886  38.316  1.00  0.00     0.006 A 
ENDBRANCH  47  68
BRANCH  59  76
ATOM     76  C   UNL A   1      43.992  27.507  34.373  1.00  0.00     0.057 A 
ATOM     77  C   UNL A   1      43.742  26.265  34.972  1.00  0.00     0.134 A 
ATOM     78  C   UNL A   1      45.281  28.039  34.505  1.00  0.00     0.134 A 
ATOM     79  F   UNL A   1      42.524  25.706  34.895  1.00  0.00    -0.206 F 
ATOM     80  C   UNL A   1      44.732  25.587  35.685  1.00  0.00     0.040 A 
ATOM     81  C   UNL A   1      46.285  27.359  35.195  1.00  0.00     0.040 A 
ATOM     82  F   UNL A   1      45.589  29.220  33.950  1.00  0.00    -0.206 F 
ATOM     83  C   UNL A   1      46.011  26.129  35.791  1.00  0.00     0.006 A 
ENDBRANCH  59  76
ENDBRANCH  33  34
ENDBRANCH  26  28
ENDBRANCH  25  26
ENDBRANCH  24  25
ENDBRANCH  23  24
ENDBRANCH   1  23
TORSDOF 16
ENDMDL
MODEL 2
REMARK VINA RESULT:     -10.6      4.990      9.558
REMARK SMILES CCC[NH2+]CC(=O)N1[C@@H](C(=O)OCCOC(=O)c2ccc(-c3c4nc(c(-c5c(F)cccc5F)c5ccc([nH]5)c(-c5c(F)cccc5F)c5nc(c(-c6c(F)cccc6F)c6ccc3[nH]6)C=C5)C=C4)cc2)CC[C@@H]2CCCC[C@@H]21
REMARK SMILES IDX 12 1 10 2 11 3 9 4 8 5 79 6 72 7 74 8 78 9 73 10 75 11 77 12
REMARK SMILES IDX 76 13 6 14 7 15 5 16 4 17 3 20 2 21 1 22 13 23 14 24 15 25
REMARK SMILES IDX 16 26 17 27 18 28 19 29 71 30 20 31 70 32 21 33 22 34 23 35
REMARK SMILES IDX 64 36 24 37 69 38 63 39 65 40 25 41 68 42 62 43 61 44 26 46
REMARK SMILES IDX 52 47 35 48 51 49 36 50 39 51 50 52 66 53 37 54 38 55 49 57
REMARK SMILES IDX 67 58 40 59 27 60 28 61 33 62 29 63 30 64 32 65 34 66 31 67
REMARK SMILES IDX 53 68 54 69 59 70 55 71 56 72 58 73 60 74 57 75 41 76 42 77
REMARK SMILES IDX 47 78 43 79 44 80 46 81 48 82 45 83
REMARK H PARENT 4 18 4 19 65 45 39 56
REMARK Flexibility Score: inf
ROOT
ATOM      1  O   UNL A   1      36.591  21.583  24.306  1.00  0.00    -0.461 OA
ENDROOT
BRANCH   1   2
ATOM      2  C   UNL A   1      36.032  22.498  25.135  1.00  0.00     0.328 C 
ATOM      3  O   UNL A   1      36.621  22.982  26.086  1.00  0.00    -0.250 OA
BRANCH   2   4
ATOM      4  C   UNL A   1      34.638  22.977  24.736  1.00  0.00     0.195 C 
ATOM      5  N   UNL A   1      33.498  22.308  25.387  1.00  0.00    -0.321 N 
ATOM      6  C   UNL A   1      32.135  22.808  25.109  1.00  0.00     0.089 C 
ATOM      7  C   UNL A   1      34.437  23.222  23.250  1.00  0.00     0.037 C 
ATOM      8  C   UNL A   1      31.957  23.144  23.602  1.00  0.00     0.012 C 
ATOM      9  C   UNL A   1      31.784  23.981  26.041  1.00  0.00     0.025 C 
ATOM     10  C   UNL A   1      33.128  23.971  23.045  1.00  0.00     0.008 C 
ATOM     11  C   UNL A   1      30.622  23.843  23.326  1.00  0.00     0.006 C 
ATOM     12  C   UNL A   1      30.555  24.801  25.649  1.00  0.00     0.002 C 
ATOM     13  C   UNL A   1      30.447  25.103  24.162  1.00  0.00     0.000 C 
BRANCH   5  14
ATOM     14  C   UNL A   1      33.736  21.177  26.160  1.00  0.00     0.278 C 
ATOM     15  O   UNL A   1      33.880  21.269  27.380  1.00  0.00    -0.268 OA
BRANCH  14  16
ATOM     16  C   UNL A   1      33.564  19.811  25.443  1.00  0.00     0.362 C 
BRANCH  16  17
ATOM     17  N   UNL A   1      32.983  18.783  26.355  1.00  0.00    -0.338 N 
ATOM     18  H   UNL A   1      33.676  18.539  27.062  1.00  0.00     0.346 HD
ATOM     19  H   UNL A   1      32.144  19.176  26.782  1.00  0.00     0.346 HD
BRANCH  17  20
ATOM     20  C   UNL A   1      32.595  17.565  25.631  1.00  0.00     0.260 C 
BRANCH  20  21
ATOM     21  C   UNL A   1      33.736  16.666  25.098  1.00  0.00     0.058 C 
ATOM     22  C   UNL A   1      33.963  16.565  23.595  1.00  0.00     0.010 C 
ENDBRANCH  20  21
ENDBRANCH  17  20
ENDBRANCH  16  17
ENDBRANCH  14  16
ENDBRANCH   5  14
ENDBRANCH   2   4
ENDBRANCH   1   2
BRANCH   1  23
ATOM     23  C   UNL A   1      37.173  20.464  25.001  1.00  0.00     0.274 C 
BRANCH  23  24
ATOM     24  C   UNL A   1      38.709  20.538  25.031  1.00  0.00     0.275 C 
BRANCH  24  25
ATOM     25  O   UNL A   1      39.323  19.831  26.135  1.00  0.00    -0.458 OA
BRANCH  25  26
ATOM     26  C   UNL A   1      40.674  19.762  26.112  1.00  0.00     0.338 C 
ATOM     27  O   UNL A   1      41.347  18.842  25.656  1.00  0.00    -0.246 OA
BRANCH  26  28
ATOM     28  C   UNL A   1      41.303  21.011  26.596  1.00  0.00     0.060 A 
ATOM     29  C   UNL A   1      41.168  21.325  27.955  1.00  0.00     0.016 A 
ATOM     30  C   UNL A   1      41.923  21.922  25.739  1.00  0.00     0.016 A 
ATOM     31  C   UNL A   1      41.664  22.521  28.470  1.00  0.00     0.010 A 
ATOM     32  C   UNL A   1      42.393  23.143  26.251  1.00  0.00     0.010 A 
ATOM     33  C   UNL A   1      42.262  23.452  27.617  1.00  0.00    -0.014 A 
BRANCH  33  34
ATOM     34  C   UNL A   1      42.671  24.773  28.155  1.00  0.00     0.031 A 
ATOM     35  C   UNL A   1      41.641  25.841  28.381  1.00  0.00     0.074 A 
ATOM     36  C   UNL A   1      43.953  25.006  28.491  1.00  0.00     0.049 A 
ATOM     37  N   UNL A   1      41.803  27.077  28.783  1.00  0.00    -0.248 NA
ATOM     38  C   UNL A   1      40.241  25.464  28.135  1.00  0.00     0.031 C 
ATOM     39  C   UNL A   1      45.040  24.032  28.407  1.00  0.00     0.029 A 
ATOM     40  N   UNL A   1      44.555  26.146  28.963  1.00  0.00    -0.354 N 
ATOM     41  C   UNL A   1      40.529  27.628  28.833  1.00  0.00     0.074 A 
ATOM     42  C   UNL A   1      39.606  26.595  28.411  1.00  0.00     0.031 C 
ATOM     43  C   UNL A   1      46.183  24.624  28.796  1.00  0.00     0.029 A 
ATOM     44  C   UNL A   1      45.915  26.026  29.114  1.00  0.00     0.049 A 
ATOM     45  H   UNL A   1      44.060  26.970  29.175  1.00  0.00     0.167 HD
ATOM     46  C   UNL A   1      40.163  28.880  29.198  1.00  0.00     0.037 A 
ATOM     47  C   UNL A   1      46.842  26.950  29.433  1.00  0.00     0.037 A 
ATOM     48  C   UNL A   1      41.075  29.915  29.610  1.00  0.00     0.049 A 
ATOM     49  C   UNL A   1      46.423  28.371  29.703  1.00  0.00     0.074 A 
ATOM     50  C   UNL A   1      40.787  31.213  30.002  1.00  0.00     0.029 A 
ATOM     51  N   UNL A   1      42.452  29.778  29.673  1.00  0.00    -0.354 N 
ATOM     52  N   UNL A   1      45.218  28.886  29.748  1.00  0.00    -0.248 NA
ATOM     53  C   UNL A   1      47.498  29.345  29.955  1.00  0.00     0.031 C 
ATOM     54  C   UNL A   1      41.993  31.875  30.250  1.00  0.00     0.029 A 
ATOM     55  C   UNL A   1      43.030  30.977  30.060  1.00  0.00     0.049 A 
ATOM     56  H   UNL A   1      42.947  28.951  29.471  1.00  0.00     0.167 HD
ATOM     57  C   UNL A   1      45.388  30.231  30.054  1.00  0.00     0.074 A 
ATOM     58  C   UNL A   1      46.811  30.453  30.195  1.00  0.00     0.031 C 
ATOM     59  C   UNL A   1      44.446  31.194  30.203  1.00  0.00     0.037 A 
BRANCH  46  60
ATOM     60  C   UNL A   1      38.704  29.217  29.132  1.00  0.00     0.057 A 
ATOM     61  C   UNL A   1      38.086  29.604  27.936  1.00  0.00     0.134 A 
ATOM     62  C   UNL A   1      37.899  29.111  30.273  1.00  0.00     0.134 A 
ATOM     63  F   UNL A   1      38.806  29.735  26.811  1.00  0.00    -0.206 F 
ATOM     64  C   UNL A   1      36.721  29.890  27.881  1.00  0.00     0.040 A 
ATOM     65  C   UNL A   1      36.529  29.374  30.226  1.00  0.00     0.040 A 
ATOM     66  F   UNL A   1      38.428  28.740  31.448  1.00  0.00    -0.206 F 
ATOM     67  C   UNL A   1      35.938  29.770  29.028  1.00  0.00     0.006 A 
ENDBRANCH  46  60
BRANCH  47  68
ATOM     68  C   UNL A   1      48.280  26.581  29.464  1.00  0.00     0.057 A 
ATOM     69  C   UNL A   1      49.082  26.694  28.323  1.00  0.00     0.134 A 
ATOM     70  C   UNL A   1      48.872  26.065  30.623  1.00  0.00     0.134 A 
ATOM     71  F   UNL A   1      48.563  27.152  27.174  1.00  0.00    -0.206 F 
ATOM     72  C   UNL A   1      50.419  26.291  28.328  1.00  0.00     0.040 A 
ATOM     73  C   UNL A   1      50.213  25.683  30.650  1.00  0.00     0.040 A 
ATOM     74  F   UNL A   1      48.153  25.926  31.746  1.00  0.00    -0.206 F 
ATOM     75  C   UNL A   1      50.989  25.788  29.497  1.00  0.00     0.006 A 
ENDBRANCH  47  68
BRANCH  59  76
ATOM     76  C   UNL A   1      44.914  32.574  30.562  1.00  0.00     0.057 A 
ATOM     77  C   UNL A   1      45.159  33.548  29.585  1.00  0.00     0.134 A 
ATOM     78  C   UNL A   1      45.070  32.952  31.903  1.00  0.00     0.134 A 
ATOM     79  F   UNL A   1      45.042  33.248  28.282  1.00  0.00    -0.206 F 
ATOM     80  C   UNL A   1      45.555  34.842  29.928  1.00  0.00     0.040 A 
ATOM     81  C   UNL A   1      45.442  34.249  32.258  1.00  0.00     0.040 A 
ATOM     82  F   UNL A   1      44.845  32.071  32.888  1.00  0.00    -0.206 F 
ATOM     83  C   UNL A   1      45.689  35.198  31.268  1.00  0.00     0.006 A 
ENDBRANCH  59  76
ENDBRANCH  33  34
ENDBRANCH  26  28
ENDBRANCH  25  26
ENDBRANCH  24  25
ENDBRANCH  23  24
ENDBRANCH   1  23
TORSDOF 16
ENDMDL
MODEL 3
REMARK VINA RESULT:     -10.4      0.554      6.170
REMARK SMILES CCC[NH2+]CC(=O)N1[C@@H](C(=O)OCCOC(=O)c2ccc(-c3c4nc(c(-c5c(F)cccc5F)c5ccc([nH]5)c(-c5c(F)cccc5F)c5nc(c(-c6c(F)cccc6F)c6ccc3[nH]6)C=C5)C=C4)cc2)CC[C@@H]2CCCC[C@@H]21
REMARK SMILES IDX 12 1 10 2 11 3 9 4 8 5 79 6 72 7 74 8 78 9 73 10 75 11 77 12
REMARK SMILES IDX 76 13 6 14 7 15 5 16 4 17 3 20 2 21 1 22 13 23 14 24 15 25
REMARK SMILES IDX 16 26 17 27 18 28 19 29 71 30 20 31 70 32 21 33 22 34 23 35
REMARK SMILES IDX 64 36 24 37 69 38 63 39 65 40 25 41 68 42 62 43 61 44 26 46
REMARK SMILES IDX 52 47 35 48 51 49 36 50 39 51 50 52 66 53 37 54 38 55 49 57
REMARK SMILES IDX 67 58 40 59 27 60 28 61 33 62 29 63 30 64 32 65 34 66 31 67
REMARK SMILES IDX 53 68 54 69 59 70 55 71 56 72 58 73 60 74 57 75 41 76 42 77
REMARK SMILES IDX 47 78 43 79 44 80 46 81 48 82 45 83
REMARK H PARENT 4 18 4 19 65 45 39 56
REMARK Flexibility Score: inf
ROOT
ATOM      1  O   UNL A   1      31.804  29.784  26.650  1.00  0.00    -0.461 OA
ENDROOT
BRANCH   1   2
ATOM      2  C   UNL A   1      32.812  29.030  26.147  1.00  0.00     0.328 C 
ATOM      3  O   UNL A   1      33.983  29.364  26.197  1.00  0.00    -0.250 OA
BRANCH   2   4
ATOM      4  C   UNL A   1      32.399  27.662  25.605  1.00  0.00     0.195 C 
ATOM      5  N   UNL A   1      32.152  27.573  24.156  1.00  0.00    -0.321 N 
ATOM      6  C   UNL A   1      31.851  26.248  23.572  1.00  0.00     0.089 C 
ATOM      7  C   UNL A   1      31.379  26.912  26.447  1.00  0.00     0.037 C 
ATOM      8  C   UNL A   1      30.877  25.445  24.479  1.00  0.00     0.012 C 
ATOM      9  C   UNL A   1      33.149  25.488  23.246  1.00  0.00     0.025 C 
ATOM     10  C   UNL A   1      31.297  25.473  25.958  1.00  0.00     0.008 C 
ATOM     11  C   UNL A   1      30.705  24.002  23.993  1.00  0.00     0.006 C 
ATOM     12  C   UNL A   1      32.993  23.996  22.952  1.00  0.00     0.002 C 
ATOM     13  C   UNL A   1      32.034  23.268  23.881  1.00  0.00     0.000 C 
BRANCH   5  14
ATOM     14  C   UNL A   1      32.119  28.744  23.407  1.00  0.00     0.278 C 
ATOM     15  O   UNL A   1      33.124  29.140  22.814  1.00  0.00    -0.268 OA
BRANCH  14  16
ATOM     16  C   UNL A   1      30.716  29.365  23.172  1.00  0.00     0.362 C 
BRANCH  16  17
ATOM     17  N   UNL A   1      30.597  29.949  21.804  1.00  0.00    -0.338 N 
ATOM     18  H   UNL A   1      31.201  30.768  21.741  1.00  0.00     0.346 HD
ATOM     19  H   UNL A   1      30.875  29.234  21.130  1.00  0.00     0.346 HD
BRANCH  17  20
ATOM     20  C   UNL A   1      29.218  30.351  21.497  1.00  0.00     0.260 C 
BRANCH  20  21
ATOM     21  C   UNL A   1      28.351  30.856  22.675  1.00  0.00     0.058 C 
ATOM     22  C   UNL A   1      28.447  32.317  23.095  1.00  0.00     0.010 C 
ENDBRANCH  20  21
ENDBRANCH  17  20
ENDBRANCH  16  17
ENDBRANCH  14  16
ENDBRANCH   5  14
ENDBRANCH   2   4
ENDBRANCH   1   2
BRANCH   1  23
ATOM     23  C   UNL A   1      31.777  31.123  26.122  1.00  0.00     0.274 C 
BRANCH  23  24
ATOM     24  C   UNL A   1      31.714  32.182  27.236  1.00  0.00     0.275 C 
BRANCH  24  25
ATOM     25  O   UNL A   1      32.405  33.417  26.930  1.00  0.00    -0.458 OA
BRANCH  25  26
ATOM     26  C   UNL A   1      32.998  34.034  27.978  1.00  0.00     0.338 C 
ATOM     27  O   UNL A   1      32.553  34.993  28.602  1.00  0.00    -0.246 OA
BRANCH  26  28
ATOM     28  C   UNL A   1      34.233  33.341  28.407  1.00  0.00     0.060 A 
ATOM     29  C   UNL A   1      34.105  32.053  28.943  1.00  0.00     0.016 A 
ATOM     30  C   UNL A   1      35.485  33.958  28.394  1.00  0.00     0.016 A 
ATOM     31  C   UNL A   1      35.211  31.367  29.441  1.00  0.00     0.010 A 
ATOM     32  C   UNL A   1      36.595  33.282  28.928  1.00  0.00     0.010 A 
ATOM     33  C   UNL A   1      36.464  31.986  29.458  1.00  0.00    -0.014 A 
BRANCH  33  34
ATOM     34  C   UNL A   1      37.607  31.295  30.106  1.00  0.00     0.031 A 
ATOM     35  C   UNL A   1      37.907  31.543  31.556  1.00  0.00     0.074 A 
ATOM     36  C   UNL A   1      38.348  30.408  29.417  1.00  0.00     0.049 A 
ATOM     37  N   UNL A   1      38.894  31.089  32.287  1.00  0.00    -0.248 NA
ATOM     38  C   UNL A   1      36.965  32.407  32.282  1.00  0.00     0.031 C 
ATOM     39  C   UNL A   1      38.114  30.006  28.032  1.00  0.00     0.029 A 
ATOM     40  N   UNL A   1      39.456  29.692  29.796  1.00  0.00    -0.354 N 
ATOM     41  C   UNL A   1      38.696  31.613  33.557  1.00  0.00     0.074 A 
ATOM     42  C   UNL A   1      37.501  32.429  33.495  1.00  0.00     0.031 C 
ATOM     43  C   UNL A   1      39.066  29.128  27.669  1.00  0.00     0.029 A 
ATOM     44  C   UNL A   1      39.996  28.940  28.781  1.00  0.00     0.049 A 
ATOM     45  H   UNL A   1      39.828  29.713  30.707  1.00  0.00     0.167 HD
ATOM     46  C   UNL A   1      39.442  31.432  34.674  1.00  0.00     0.037 A 
ATOM     47  C   UNL A   1      41.132  28.216  28.741  1.00  0.00     0.037 A 
ATOM     48  C   UNL A   1      40.636  30.630  34.742  1.00  0.00     0.049 A 
ATOM     49  C   UNL A   1      42.017  28.140  29.958  1.00  0.00     0.074 A 
ATOM     50  C   UNL A   1      41.450  30.388  35.836  1.00  0.00     0.029 A 
ATOM     51  N   UNL A   1      41.195  29.950  33.673  1.00  0.00    -0.354 N 
ATOM     52  N   UNL A   1      41.824  28.639  31.155  1.00  0.00    -0.248 NA
ATOM     53  C   UNL A   1      43.285  27.408  29.813  1.00  0.00     0.031 C 
ATOM     54  C   UNL A   1      42.530  29.605  35.416  1.00  0.00     0.029 A 
ATOM     55  C   UNL A   1      42.362  29.320  34.071  1.00  0.00     0.049 A 
ATOM     56  H   UNL A   1      40.818  29.920  32.763  1.00  0.00     0.167 HD
ATOM     57  C   UNL A   1      42.930  28.264  31.908  1.00  0.00     0.074 A 
ATOM     58  C   UNL A   1      43.786  27.486  31.038  1.00  0.00     0.031 C 
ATOM     59  C   UNL A   1      43.210  28.543  33.204  1.00  0.00     0.037 A 
BRANCH  46  60
ATOM     60  C   UNL A   1      39.007  32.149  35.915  1.00  0.00     0.057 A 
ATOM     61  C   UNL A   1      39.369  33.478  36.169  1.00  0.00     0.134 A 
ATOM     62  C   UNL A   1      38.179  31.513  36.850  1.00  0.00     0.134 A 
ATOM     63  F   UNL A   1      40.169  34.138  35.318  1.00  0.00    -0.206 F 
ATOM     64  C   UNL A   1      38.936  34.145  37.317  1.00  0.00     0.040 A 
ATOM     65  C   UNL A   1      37.724  32.175  37.990  1.00  0.00     0.040 A 
ATOM     66  F   UNL A   1      37.793  30.242  36.663  1.00  0.00    -0.206 F 
ATOM     67  C   UNL A   1      38.106  33.494  38.229  1.00  0.00     0.006 A 
ENDBRANCH  46  60
BRANCH  47  68
ATOM     68  C   UNL A   1      41.540  27.541  27.483  1.00  0.00     0.057 A 
ATOM     69  C   UNL A   1      41.271  26.185  27.268  1.00  0.00     0.134 A 
ATOM     70  C   UNL A   1      42.249  28.226  26.489  1.00  0.00     0.134 A 
ATOM     71  F   UNL A   1      40.623  25.469  28.199  1.00  0.00    -0.206 F 
ATOM     72  C   UNL A   1      41.705  25.529  26.115  1.00  0.00     0.040 A 
ATOM     73  C   UNL A   1      42.667  27.589  25.320  1.00  0.00     0.040 A 
ATOM     74  F   UNL A   1      42.544  29.525  26.640  1.00  0.00    -0.206 F 
ATOM     75  C   UNL A   1      42.402  26.234  25.135  1.00  0.00     0.006 A 
ENDBRANCH  47  68
BRANCH  59  76
ATOM     76  C   UNL A   1      44.480  27.983  33.777  1.00  0.00     0.057 A 
ATOM     77  C   UNL A   1      44.536  26.696  34.328  1.00  0.00     0.134 A 
ATOM     78  C   UNL A   1      45.672  28.717  33.730  1.00  0.00     0.134 A 
ATOM     79  F   UNL A   1      43.426  25.946  34.416  1.00  0.00    -0.206 F 
ATOM     80  C   UNL A   1      45.729  26.166  34.823  1.00  0.00     0.040 A 
ATOM     81  C   UNL A   1      46.875  28.188  34.200  1.00  0.00     0.040 A 
ATOM     82  F   UNL A   1      45.691  29.953  33.209  1.00  0.00    -0.206 F 
ATOM     83  C   UNL A   1      46.905  26.909  34.752  1.00  0.00     0.006 A 
ENDBRANCH  59  76
ENDBRANCH  33  34
ENDBRANCH  26  28
ENDBRANCH  25  26
ENDBRANCH  24  25
ENDBRANCH  23  24
ENDBRANCH   1  23
TORSDOF 16
ENDMDL
