MODEL 1
REMARK VINA RESULT:     -10.9      0.000      0.000
REMARK SMILES CO[C@@H]1C[C@H](C(=O)OCCOC(=O)c2ccc(-c3c4nc(c(-c5c(F)cccc5F)c5ccc([nH]5)c(-c5c(F)cccc5F)c5nc(c(-c6c(F)cccc6F)c6ccc3[nH]6)C=C5)C=C4)cc2)N(C(=O)c2ccc([N+](=O)[O-])s2)C1
REMARK SMILES IDX 9 1 8 2 6 3 7 4 5 5 3 6 4 7 79 8 68 9 2 10 1 11 69 12 70 13
REMARK SMILES IDX 71 14 72 15 78 16 73 17 74 18 75 19 76 20 77 21 10 22 11 23
REMARK SMILES IDX 12 24 13 25 14 26 15 27 67 28 16 29 66 30 17 31 18 32 19 33
REMARK SMILES IDX 60 34 20 35 65 36 59 37 61 38 21 39 64 40 58 41 57 42 22 44
REMARK SMILES IDX 48 45 31 46 47 47 32 48 35 49 46 50 62 51 33 52 34 53 45 55
REMARK SMILES IDX 63 56 36 57 23 58 24 59 29 60 25 61 26 62 28 63 30 64 27 65
REMARK SMILES IDX 49 66 50 67 55 68 51 69 52 70 54 71 56 72 53 73 37 74 38 75
REMARK SMILES IDX 43 76 39 77 40 78 42 79 44 80 41 81
REMARK H PARENT 61 43 35 54
REMARK Flexibility Score: inf
ROOT
ATOM      1  C   UNL A   1      37.154  20.009  25.055  1.00  0.00     0.274 C 
ENDROOT
BRANCH   1   2
ATOM      2  O   UNL A   1      36.893  21.290  24.453  1.00  0.00    -0.461 OA
BRANCH   2   3
ATOM      3  C   UNL A   1      35.608  21.712  24.424  1.00  0.00     0.329 C 
ATOM      4  O   UNL A   1      35.183  22.574  23.660  1.00  0.00    -0.250 OA
BRANCH   3   5
ATOM      5  C   UNL A   1      34.697  20.988  25.437  1.00  0.00     0.198 C 
ATOM      6  C   UNL A   1      33.454  22.594  26.723  1.00  0.00     0.140 C 
ATOM      7  C   UNL A   1      34.596  21.585  26.837  1.00  0.00     0.071 C 
ATOM      8  C   UNL A   1      32.526  21.980  25.664  1.00  0.00     0.152 C 
ATOM      9  N   UNL A   1      33.314  20.973  24.967  1.00  0.00    -0.321 N 
BRANCH   6  10
ATOM     10  O   UNL A   1      34.019  23.839  26.315  1.00  0.00    -0.380 OA
ATOM     11  C   UNL A   1      33.077  24.720  25.722  1.00  0.00     0.195 C 
ENDBRANCH   6  10
BRANCH   9  12
ATOM     12  C   UNL A   1      32.741  20.193  23.971  1.00  0.00     0.265 C 
ATOM     13  O   UNL A   1      32.033  20.720  23.113  1.00  0.00    -0.268 OA
BRANCH  12  14
ATOM     14  C   UNL A   1      32.982  18.758  23.989  1.00  0.00     0.099 A 
ATOM     15  C   UNL A   1      33.569  17.940  23.038  1.00  0.00     0.033 A 
ATOM     16  S   UNL A   1      32.589  17.875  25.410  1.00  0.00    -0.058 S 
ATOM     17  C   UNL A   1      33.632  16.574  23.457  1.00  0.00     0.099 A 
ATOM     18  C   UNL A   1      33.106  16.413  24.720  1.00  0.00     0.324 A 
BRANCH  18  19
ATOM     19  N   UNL A   1      33.008  15.181  25.459  1.00  0.00     0.074 N 
ATOM     20  O   UNL A   1      34.017  14.463  25.465  1.00  0.00    -0.258 OA
ATOM     21  O   UNL A   1      31.938  14.911  26.021  1.00  0.00    -0.258 OA
ENDBRANCH  18  19
ENDBRANCH  12  14
ENDBRANCH   9  12
ENDBRANCH   3   5
ENDBRANCH   2   3
ENDBRANCH   1   2
BRANCH   1  22
ATOM     22  C   UNL A   1      38.645  19.681  24.972  1.00  0.00     0.275 C 
BRANCH  22  23
ATOM     23  O   UNL A   1      39.239  19.647  26.284  1.00  0.00    -0.458 OA
BRANCH  23  24
ATOM     24  C   UNL A   1      40.575  19.860  26.304  1.00  0.00     0.338 C 
ATOM     25  O   UNL A   1      41.457  19.135  25.880  1.00  0.00    -0.246 OA
BRANCH  24  26
ATOM     26  C   UNL A   1      40.847  21.225  26.768  1.00  0.00     0.060 A 
ATOM     27  C   UNL A   1      40.548  22.268  25.890  1.00  0.00     0.016 A 
ATOM     28  C   UNL A   1      41.484  21.477  27.983  1.00  0.00     0.016 A 
ATOM     29  C   UNL A   1      40.906  23.571  26.203  1.00  0.00     0.010 A 
ATOM     30  C   UNL A   1      41.837  22.792  28.304  1.00  0.00     0.010 A 
ATOM     31  C   UNL A   1      41.565  23.841  27.407  1.00  0.00    -0.014 A 
BRANCH  31  32
ATOM     32  C   UNL A   1      42.021  25.223  27.673  1.00  0.00     0.031 A 
ATOM     33  C   UNL A   1      43.359  25.677  27.172  1.00  0.00     0.074 A 
ATOM     34  C   UNL A   1      41.198  26.085  28.296  1.00  0.00     0.049 A 
ATOM     35  N   UNL A   1      43.952  26.833  27.329  1.00  0.00    -0.248 NA
ATOM     36  C   UNL A   1      44.134  24.704  26.386  1.00  0.00     0.031 C 
ATOM     37  C   UNL A   1      39.851  25.769  28.774  1.00  0.00     0.029 A 
ATOM     38  N   UNL A   1      41.369  27.405  28.619  1.00  0.00    -0.354 N 
ATOM     39  C   UNL A   1      45.179  26.718  26.691  1.00  0.00     0.074 A 
ATOM     40  C   UNL A   1      45.249  25.380  26.144  1.00  0.00     0.031 C 
ATOM     41  C   UNL A   1      39.311  26.873  29.313  1.00  0.00     0.029 A 
ATOM     42  C   UNL A   1      40.289  27.955  29.262  1.00  0.00     0.049 A 
ATOM     43  H   UNL A   1      42.188  27.910  28.411  1.00  0.00     0.167 HD
ATOM     44  C   UNL A   1      46.157  27.647  26.574  1.00  0.00     0.037 A 
ATOM     45  C   UNL A   1      40.118  29.188  29.774  1.00  0.00     0.037 A 
ATOM     46  C   UNL A   1      46.073  28.983  27.104  1.00  0.00     0.049 A 
ATOM     47  C   UNL A   1      41.235  30.186  29.667  1.00  0.00     0.074 A 
ATOM     48  C   UNL A   1      47.013  29.996  27.042  1.00  0.00     0.029 A 
ATOM     49  N   UNL A   1      44.982  29.491  27.791  1.00  0.00    -0.354 N 
ATOM     50  N   UNL A   1      42.404  30.057  29.089  1.00  0.00    -0.248 NA
ATOM     51  C   UNL A   1      41.014  31.495  30.295  1.00  0.00     0.031 C 
ATOM     52  C   UNL A   1      46.501  31.110  27.719  1.00  0.00     0.029 A 
ATOM     53  C   UNL A   1      45.228  30.799  28.171  1.00  0.00     0.049 A 
ATOM     54  H   UNL A   1      44.152  28.994  27.979  1.00  0.00     0.167 HD
ATOM     55  C   UNL A   1      43.058  31.267  29.280  1.00  0.00     0.074 A 
ATOM     56  C   UNL A   1      42.143  32.126  30.005  1.00  0.00     0.031 C 
ATOM     57  C   UNL A   1      44.306  31.632  28.900  1.00  0.00     0.037 A 
BRANCH  44  58
ATOM     58  C   UNL A   1      47.417  27.230  25.878  1.00  0.00     0.057 A 
ATOM     59  C   UNL A   1      47.606  27.425  24.505  1.00  0.00     0.134 A 
ATOM     60  C   UNL A   1      48.461  26.638  26.599  1.00  0.00     0.134 A 
ATOM     61  F   UNL A   1      46.635  27.969  23.756  1.00  0.00    -0.206 F 
ATOM     62  C   UNL A   1      48.783  27.027  23.869  1.00  0.00     0.040 A 
ATOM     63  C   UNL A   1      49.651  26.254  25.978  1.00  0.00     0.040 A 
ATOM     64  F   UNL A   1      48.342  26.422  27.918  1.00  0.00    -0.206 F 
ATOM     65  C   UNL A   1      49.812  26.444  24.607  1.00  0.00     0.006 A 
ENDBRANCH  44  58
BRANCH  45  66
ATOM     66  C   UNL A   1      38.847  29.537  30.455  1.00  0.00     0.057 A 
ATOM     67  C   UNL A   1      38.654  29.260  31.812  1.00  0.00     0.134 A 
ATOM     68  C   UNL A   1      37.797  30.152  29.763  1.00  0.00     0.134 A 
ATOM     69  F   UNL A   1      39.616  28.649  32.520  1.00  0.00    -0.206 F 
ATOM     70  C   UNL A   1      37.457  29.576  32.458  1.00  0.00     0.040 A 
ATOM     71  C   UNL A   1      36.604  30.494  30.401  1.00  0.00     0.040 A 
ATOM     72  F   UNL A   1      37.920  30.438  28.459  1.00  0.00    -0.206 F 
ATOM     73  C   UNL A   1      36.430  30.201  31.752  1.00  0.00     0.006 A 
ENDBRANCH  45  66
BRANCH  57  74
ATOM     74  C   UNL A   1      44.743  33.020  29.257  1.00  0.00     0.057 A 
ATOM     75  C   UNL A   1      44.488  34.108  28.411  1.00  0.00     0.134 A 
ATOM     76  C   UNL A   1      45.407  33.276  30.462  1.00  0.00     0.134 A 
ATOM     77  F   UNL A   1      43.868  33.924  27.236  1.00  0.00    -0.206 F 
ATOM     78  C   UNL A   1      44.898  35.400  28.744  1.00  0.00     0.040 A 
ATOM     79  C   UNL A   1      45.804  34.566  30.815  1.00  0.00     0.040 A 
ATOM     80  F   UNL A   1      45.676  32.277  31.317  1.00  0.00    -0.206 F 
ATOM     81  C   UNL A   1      45.555  35.631  29.952  1.00  0.00     0.006 A 
ENDBRANCH  57  74
ENDBRANCH  31  32
ENDBRANCH  24  26
ENDBRANCH  23  24
ENDBRANCH  22  23
ENDBRANCH   1  22
TORSDOF 15
ENDMDL
MODEL 2
REMARK VINA RESULT:     -10.8      1.771      6.177
REMARK SMILES CO[C@@H]1C[C@H](C(=O)OCCOC(=O)c2ccc(-c3c4nc(c(-c5c(F)cccc5F)c5ccc([nH]5)c(-c5c(F)cccc5F)c5nc(c(-c6c(F)cccc6F)c6ccc3[nH]6)C=C5)C=C4)cc2)N(C(=O)c2ccc([N+](=O)[O-])s2)C1
REMARK SMILES IDX 9 1 8 2 6 3 7 4 5 5 3 6 4 7 79 8 68 9 2 10 1 11 69 12 70 13
REMARK SMILES IDX 71 14 72 15 78 16 73 17 74 18 75 19 76 20 77 21 10 22 11 23
REMARK SMILES IDX 12 24 13 25 14 26 15 27 67 28 16 29 66 30 17 31 18 32 19 33
REMARK SMILES IDX 60 34 20 35 65 36 59 37 61 38 21 39 64 40 58 41 57 42 22 44
REMARK SMILES IDX 48 45 31 46 47 47 32 48 35 49 46 50 62 51 33 52 34 53 45 55
REMARK SMILES IDX 63 56 36 57 23 58 24 59 29 60 25 61 26 62 28 63 30 64 27 65
REMARK SMILES IDX 49 66 50 67 55 68 51 69 52 70 54 71 56 72 53 73 37 74 38 75
REMARK SMILES IDX 43 76 39 77 40 78 42 79 44 80 41 81
REMARK H PARENT 61 43 35 54
REMARK Flexibility Score: inf
ROOT
ATOM      1  C   UNL A   1      37.130  20.229  25.107  1.00  0.00     0.274 C 
ENDROOT
BRANCH   1   2
ATOM      2  O   UNL A   1      36.746  21.519  24.599  1.00  0.00    -0.461 OA
BRANCH   2   3
ATOM      3  C   UNL A   1      35.426  21.808  24.570  1.00  0.00     0.329 C 
ATOM      4  O   UNL A   1      34.917  22.636  23.820  1.00  0.00    -0.250 OA
BRANCH   3   5
ATOM      5  C   UNL A   1      34.589  20.974  25.563  1.00  0.00     0.198 C 
ATOM      6  C   UNL A   1      33.058  22.398  26.749  1.00  0.00     0.140 C 
ATOM      7  C   UNL A   1      34.334  21.579  26.941  1.00  0.00     0.071 C 
ATOM      8  C   UNL A   1      32.284  21.625  25.670  1.00  0.00     0.152 C 
ATOM      9  N   UNL A   1      33.248  20.736  25.036  1.00  0.00    -0.321 N 
BRANCH   6  10
ATOM     10  O   UNL A   1      33.445  23.706  26.330  1.00  0.00    -0.380 OA
ATOM     11  C   UNL A   1      32.345  24.569  26.084  1.00  0.00     0.195 C 
ENDBRANCH   6  10
BRANCH   9  12
ATOM     12  C   UNL A   1      32.848  19.856  24.039  1.00  0.00     0.265 C 
ATOM     13  O   UNL A   1      32.256  20.283  23.048  1.00  0.00    -0.268 OA
BRANCH  12  14
ATOM     14  C   UNL A   1      33.126  18.438  24.213  1.00  0.00     0.099 A 
ATOM     15  C   UNL A   1      34.036  17.621  23.564  1.00  0.00     0.033 A 
ATOM     16  S   UNL A   1      32.304  17.586  25.458  1.00  0.00    -0.058 S 
ATOM     17  C   UNL A   1      34.006  16.276  24.050  1.00  0.00     0.099 A 
ATOM     18  C   UNL A   1      33.084  16.131  25.064  1.00  0.00     0.324 A 
BRANCH  18  19
ATOM     19  N   UNL A   1      32.788  14.922  25.788  1.00  0.00     0.074 N 
ATOM     20  O   UNL A   1      31.941  15.014  26.687  1.00  0.00    -0.258 OA
ATOM     21  O   UNL A   1      33.395  13.887  25.484  1.00  0.00    -0.258 OA
ENDBRANCH  18  19
ENDBRANCH  12  14
ENDBRANCH   9  12
ENDBRANCH   3   5
ENDBRANCH   2   3
ENDBRANCH   1   2
BRANCH   1  22
ATOM     22  C   UNL A   1      38.638  20.027  24.952  1.00  0.00     0.275 C 
BRANCH  22  23
ATOM     23  O   UNL A   1      39.287  19.984  26.238  1.00  0.00    -0.458 OA
BRANCH  23  24
ATOM     24  C   UNL A   1      40.630  19.832  26.187  1.00  0.00     0.338 C 
ATOM     25  O   UNL A   1      41.263  18.908  25.707  1.00  0.00    -0.246 OA
BRANCH  24  26
ATOM     26  C   UNL A   1      41.281  21.063  26.649  1.00  0.00     0.060 A 
ATOM     27  C   UNL A   1      41.206  21.351  28.012  1.00  0.00     0.016 A 
ATOM     28  C   UNL A   1      41.851  21.973  25.759  1.00  0.00     0.016 A 
ATOM     29  C   UNL A   1      41.676  22.561  28.499  1.00  0.00     0.010 A 
ATOM     30  C   UNL A   1      42.334  23.190  26.250  1.00  0.00     0.010 A 
ATOM     31  C   UNL A   1      42.232  23.496  27.619  1.00  0.00    -0.014 A 
BRANCH  31  32
ATOM     32  C   UNL A   1      42.637  24.817  28.149  1.00  0.00     0.031 A 
ATOM     33  C   UNL A   1      41.600  25.873  28.393  1.00  0.00     0.074 A 
ATOM     34  C   UNL A   1      43.922  25.033  28.479  1.00  0.00     0.049 A 
ATOM     35  N   UNL A   1      41.756  27.100  28.819  1.00  0.00    -0.248 NA
ATOM     36  C   UNL A   1      40.203  25.500  28.125  1.00  0.00     0.031 C 
ATOM     37  C   UNL A   1      45.005  24.059  28.341  1.00  0.00     0.029 A 
ATOM     38  N   UNL A   1      44.530  26.139  29.015  1.00  0.00    -0.354 N 
ATOM     39  C   UNL A   1      40.484  27.656  28.842  1.00  0.00     0.074 A 
ATOM     40  C   UNL A   1      39.567  26.634  28.385  1.00  0.00     0.031 C 
ATOM     41  C   UNL A   1      46.142  24.604  28.799  1.00  0.00     0.029 A 
ATOM     42  C   UNL A   1      45.878  25.977  29.215  1.00  0.00     0.049 A 
ATOM     43  H   UNL A   1      44.047  26.968  29.234  1.00  0.00     0.167 HD
ATOM     44  C   UNL A   1      40.118  28.906  29.210  1.00  0.00     0.037 A 
ATOM     45  C   UNL A   1      46.800  26.850  29.662  1.00  0.00     0.037 A 
ATOM     46  C   UNL A   1      41.033  29.912  29.682  1.00  0.00     0.049 A 
ATOM     47  C   UNL A   1      46.374  28.244  30.025  1.00  0.00     0.074 A 
ATOM     48  C   UNL A   1      40.761  31.211  30.075  1.00  0.00     0.029 A 
ATOM     49  N   UNL A   1      42.399  29.728  29.828  1.00  0.00    -0.354 N 
ATOM     50  N   UNL A   1      45.173  28.769  30.013  1.00  0.00    -0.248 NA
ATOM     51  C   UNL A   1      47.433  29.168  30.449  1.00  0.00     0.031 C 
ATOM     52  C   UNL A   1      41.969  31.823  30.430  1.00  0.00     0.029 A 
ATOM     53  C   UNL A   1      42.988  30.893  30.291  1.00  0.00     0.049 A 
ATOM     54  H   UNL A   1      42.880  28.891  29.632  1.00  0.00     0.167 HD
ATOM     55  C   UNL A   1      45.329  30.084  30.430  1.00  0.00     0.074 A 
ATOM     56  C   UNL A   1      46.739  30.267  30.712  1.00  0.00     0.031 C 
ATOM     57  C   UNL A   1      44.394  31.055  30.558  1.00  0.00     0.037 A 
BRANCH  44  58
ATOM     58  C   UNL A   1      38.669  29.262  29.078  1.00  0.00     0.057 A 
ATOM     59  C   UNL A   1      38.107  29.646  27.854  1.00  0.00     0.134 A 
ATOM     60  C   UNL A   1      37.821  29.204  30.190  1.00  0.00     0.134 A 
ATOM     61  F   UNL A   1      38.871  29.741  26.755  1.00  0.00    -0.206 F 
ATOM     62  C   UNL A   1      36.756  29.979  27.746  1.00  0.00     0.040 A 
ATOM     63  C   UNL A   1      36.464  29.516  30.091  1.00  0.00     0.040 A 
ATOM     64  F   UNL A   1      38.297  28.844  31.392  1.00  0.00    -0.206 F 
ATOM     65  C   UNL A   1      35.928  29.910  28.866  1.00  0.00     0.006 A 
ENDBRANCH  44  58
BRANCH  45  66
ATOM     66  C   UNL A   1      48.220  26.436  29.766  1.00  0.00     0.057 A 
ATOM     67  C   UNL A   1      48.708  25.807  30.917  1.00  0.00     0.134 A 
ATOM     68  C   UNL A   1      49.123  26.661  28.719  1.00  0.00     0.134 A 
ATOM     69  F   UNL A   1      47.896  25.589  31.962  1.00  0.00    -0.206 F 
ATOM     70  C   UNL A   1      50.046  25.423  31.027  1.00  0.00     0.040 A 
ATOM     71  C   UNL A   1      50.457  26.262  28.806  1.00  0.00     0.040 A 
ATOM     72  F   UNL A   1      48.716  27.263  27.592  1.00  0.00    -0.206 F 
ATOM     73  C   UNL A   1      50.922  25.645  29.966  1.00  0.00     0.006 A 
ENDBRANCH  45  66
BRANCH  57  74
ATOM     74  C   UNL A   1      44.870  32.395  31.031  1.00  0.00     0.057 A 
ATOM     75  C   UNL A   1      44.938  32.708  32.395  1.00  0.00     0.134 A 
ATOM     76  C   UNL A   1      45.282  33.373  30.118  1.00  0.00     0.134 A 
ATOM     77  F   UNL A   1      44.544  31.816  33.317  1.00  0.00    -0.206 F 
ATOM     78  C   UNL A   1      45.380  33.957  32.833  1.00  0.00     0.040 A 
ATOM     79  C   UNL A   1      45.744  34.619  30.545  1.00  0.00     0.040 A 
ATOM     80  F   UNL A   1      45.246  33.132  28.799  1.00  0.00    -0.206 F 
ATOM     81  C   UNL A   1      45.788  34.915  31.907  1.00  0.00     0.006 A 
ENDBRANCH  57  74
ENDBRANCH  31  32
ENDBRANCH  24  26
ENDBRANCH  23  24
ENDBRANCH  22  23
ENDBRANCH   1  22
TORSDOF 15
ENDMDL
MODEL 3
REMARK VINA RESULT:     -10.8      1.031      6.407
REMARK SMILES CO[C@@H]1C[C@H](C(=O)OCCOC(=O)c2ccc(-c3c4nc(c(-c5c(F)cccc5F)c5ccc([nH]5)c(-c5c(F)cccc5F)c5nc(c(-c6c(F)cccc6F)c6ccc3[nH]6)C=C5)C=C4)cc2)N(C(=O)c2ccc([N+](=O)[O-])s2)C1
REMARK SMILES IDX 9 1 8 2 6 3 7 4 5 5 3 6 4 7 79 8 68 9 2 10 1 11 69 12 70 13
REMARK SMILES IDX 71 14 72 15 78 16 73 17 74 18 75 19 76 20 77 21 10 22 11 23
REMARK SMILES IDX 12 24 13 25 14 26 15 27 67 28 16 29 66 30 17 31 18 32 19 33
REMARK SMILES IDX 60 34 20 35 65 36 59 37 61 38 21 39 64 40 58 41 57 42 22 44
REMARK SMILES IDX 48 45 31 46 47 47 32 48 35 49 46 50 62 51 33 52 34 53 45 55
REMARK SMILES IDX 63 56 36 57 23 58 24 59 29 60 25 61 26 62 28 63 30 64 27 65
REMARK SMILES IDX 49 66 50 67 55 68 51 69 52 70 54 71 56 72 53 73 37 74 38 75
REMARK SMILES IDX 43 76 39 77 40 78 42 79 44 80 41 81
REMARK H PARENT 61 43 35 54
REMARK Flexibility Score: inf
ROOT
ATOM      1  C   UNL A   1      36.747  22.178  23.956  1.00  0.00     0.274 C 
ENDROOT
BRANCH   1   2
ATOM      2  O   UNL A   1      35.330  22.165  24.208  1.00  0.00    -0.461 OA
BRANCH   2   3
ATOM      3  C   UNL A   1      34.906  22.649  25.397  1.00  0.00     0.329 C 
ATOM      4  O   UNL A   1      35.218  23.749  25.845  1.00  0.00    -0.250 OA
BRANCH   3   5
ATOM      5  C   UNL A   1      33.957  21.694  26.150  1.00  0.00     0.198 C 
ATOM      6  C   UNL A   1      32.013  22.889  26.905  1.00  0.00     0.140 C 
ATOM      7  C   UNL A   1      33.291  22.226  27.416  1.00  0.00     0.071 C 
ATOM      8  C   UNL A   1      31.637  22.058  25.668  1.00  0.00     0.152 C 
ATOM      9  N   UNL A   1      32.832  21.310  25.302  1.00  0.00    -0.321 N 
BRANCH   6  10
ATOM     10  O   UNL A   1      32.327  24.245  26.591  1.00  0.00    -0.380 OA
ATOM     11  C   UNL A   1      31.614  24.746  25.470  1.00  0.00     0.195 C 
ENDBRANCH   6  10
BRANCH   9  12
ATOM     12  C   UNL A   1      32.807  20.415  24.241  1.00  0.00     0.265 C 
ATOM     13  O   UNL A   1      32.326  20.760  23.161  1.00  0.00    -0.268 OA
BRANCH  12  14
ATOM     14  C   UNL A   1      33.336  19.076  24.449  1.00  0.00     0.099 A 
ATOM     15  C   UNL A   1      34.631  18.600  24.331  1.00  0.00     0.033 A 
ATOM     16  S   UNL A   1      32.274  17.852  25.021  1.00  0.00    -0.058 S 
ATOM     17  C   UNL A   1      34.732  17.208  24.647  1.00  0.00     0.099 A 
ATOM     18  C   UNL A   1      33.509  16.688  25.011  1.00  0.00     0.324 A 
BRANCH  18  19
ATOM     19  N   UNL A   1      33.235  15.327  25.396  1.00  0.00     0.074 N 
ATOM     20  O   UNL A   1      34.206  14.559  25.423  1.00  0.00    -0.258 OA
ATOM     21  O   UNL A   1      32.068  15.010  25.659  1.00  0.00    -0.258 OA
ENDBRANCH  18  19
ENDBRANCH  12  14
ENDBRANCH   9  12
ENDBRANCH   3   5
ENDBRANCH   2   3
ENDBRANCH   1   2
BRANCH   1  22
ATOM     22  C   UNL A   1      37.426  21.031  24.704  1.00  0.00     0.275 C 
BRANCH  22  23
ATOM     23  O   UNL A   1      37.851  21.451  26.016  1.00  0.00    -0.458 OA
BRANCH  23  24
ATOM     24  C   UNL A   1      39.161  21.241  26.279  1.00  0.00     0.338 C 
ATOM     25  O   UNL A   1      39.827  20.252  26.030  1.00  0.00    -0.246 OA
BRANCH  24  26
ATOM     26  C   UNL A   1      39.767  22.482  26.774  1.00  0.00     0.060 A 
ATOM     27  C   UNL A   1      39.319  23.679  26.212  1.00  0.00     0.016 A 
ATOM     28  C   UNL A   1      40.827  22.473  27.680  1.00  0.00     0.016 A 
ATOM     29  C   UNL A   1      39.942  24.877  26.529  1.00  0.00     0.010 A 
ATOM     30  C   UNL A   1      41.450  23.682  28.008  1.00  0.00     0.010 A 
ATOM     31  C   UNL A   1      41.021  24.886  27.419  1.00  0.00    -0.014 A 
BRANCH  31  32
ATOM     32  C   UNL A   1      41.727  26.162  27.665  1.00  0.00     0.031 A 
ATOM     33  C   UNL A   1      41.083  27.221  28.510  1.00  0.00     0.074 A 
ATOM     34  C   UNL A   1      42.974  26.333  27.192  1.00  0.00     0.049 A 
ATOM     35  N   UNL A   1      41.522  28.415  28.814  1.00  0.00    -0.248 NA
ATOM     36  C   UNL A   1      39.773  26.893  29.094  1.00  0.00     0.031 C 
ATOM     37  C   UNL A   1      43.721  25.348  26.409  1.00  0.00     0.029 A 
ATOM     38  N   UNL A   1      43.837  27.390  27.315  1.00  0.00    -0.354 N 
ATOM     39  C   UNL A   1      40.532  28.993  29.597  1.00  0.00     0.074 A 
ATOM     40  C   UNL A   1      39.468  28.020  29.721  1.00  0.00     0.031 C 
ATOM     41  C   UNL A   1      44.940  25.840  26.138  1.00  0.00     0.029 A 
ATOM     42  C   UNL A   1      45.040  27.190  26.684  1.00  0.00     0.049 A 
ATOM     43  H   UNL A   1      43.616  28.213  27.808  1.00  0.00     0.167 HD
ATOM     44  C   UNL A   1      40.515  30.224  30.159  1.00  0.00     0.037 A 
ATOM     45  C   UNL A   1      46.094  28.015  26.543  1.00  0.00     0.037 A 
ATOM     46  C   UNL A   1      41.585  31.181  30.048  1.00  0.00     0.049 A 
ATOM     47  C   UNL A   1      46.032  29.391  27.142  1.00  0.00     0.074 A 
ATOM     48  C   UNL A   1      41.661  32.457  30.578  1.00  0.00     0.029 A 
ATOM     49  N   UNL A   1      42.769  30.962  29.362  1.00  0.00    -0.354 N 
ATOM     50  N   UNL A   1      45.078  29.939  27.854  1.00  0.00    -0.248 NA
ATOM     51  C   UNL A   1      47.187  30.266  26.905  1.00  0.00     0.031 C 
ATOM     52  C   UNL A   1      42.880  33.022  30.185  1.00  0.00     0.029 A 
ATOM     53  C   UNL A   1      43.577  32.083  29.440  1.00  0.00     0.049 A 
ATOM     54  H   UNL A   1      43.002  30.130  28.888  1.00  0.00     0.167 HD
ATOM     55  C   UNL A   1      45.516  31.222  28.154  1.00  0.00     0.074 A 
ATOM     56  C   UNL A   1      46.835  31.359  27.568  1.00  0.00     0.031 C 
ATOM     57  C   UNL A   1      44.882  32.201  28.842  1.00  0.00     0.037 A 
BRANCH  44  58
ATOM     58  C   UNL A   1      39.280  30.616  30.912  1.00  0.00     0.057 A 
ATOM     59  C   UNL A   1      38.202  31.257  30.289  1.00  0.00     0.134 A 
ATOM     60  C   UNL A   1      39.164  30.333  32.279  1.00  0.00     0.134 A 
ATOM     61  F   UNL A   1      38.260  31.573  28.986  1.00  0.00    -0.206 F 
ATOM     62  C   UNL A   1      37.059  31.619  31.004  1.00  0.00     0.040 A 
ATOM     63  C   UNL A   1      38.018  30.673  32.999  1.00  0.00     0.040 A 
ATOM     64  F   UNL A   1      40.162  29.722  32.935  1.00  0.00    -0.206 F 
ATOM     65  C   UNL A   1      36.963  31.323  32.363  1.00  0.00     0.006 A 
ENDBRANCH  44  58
BRANCH  45  66
ATOM     66  C   UNL A   1      47.286  27.567  25.783  1.00  0.00     0.057 A 
ATOM     67  C   UNL A   1      47.338  27.677  24.389  1.00  0.00     0.134 A 
ATOM     68  C   UNL A   1      48.399  27.019  26.432  1.00  0.00     0.134 A 
ATOM     69  F   UNL A   1      46.290  28.170  23.711  1.00  0.00    -0.206 F 
ATOM     70  C   UNL A   1      48.452  27.249  23.665  1.00  0.00     0.040 A 
ATOM     71  C   UNL A   1      49.529  26.608  25.723  1.00  0.00     0.040 A 
ATOM     72  F   UNL A   1      48.407  26.885  27.766  1.00  0.00    -0.206 F 
ATOM     73  C   UNL A   1      49.554  26.719  24.334  1.00  0.00     0.006 A 
ENDBRANCH  45  66
BRANCH  57  74
ATOM     74  C   UNL A   1      45.615  33.498  29.002  1.00  0.00     0.057 A 
ATOM     75  C   UNL A   1      46.491  33.718  30.073  1.00  0.00     0.134 A 
ATOM     76  C   UNL A   1      45.458  34.530  28.068  1.00  0.00     0.134 A 
ATOM     77  F   UNL A   1      46.671  32.773  31.007  1.00  0.00    -0.206 F 
ATOM     78  C   UNL A   1      47.170  34.928  30.221  1.00  0.00     0.040 A 
ATOM     79  C   UNL A   1      46.147  35.737  28.194  1.00  0.00     0.040 A 
ATOM     80  F   UNL A   1      44.638  34.378  27.017  1.00  0.00    -0.206 F 
ATOM     81  C   UNL A   1      47.001  35.940  29.277  1.00  0.00     0.006 A 
ENDBRANCH  57  74
ENDBRANCH  31  32
ENDBRANCH  24  26
ENDBRANCH  23  24
ENDBRANCH  22  23
ENDBRANCH   1  22
TORSDOF 15
ENDMDL
