MODEL 1
REMARK VINA RESULT:     -12.5      0.000      0.000
REMARK SMILES CCc1cc(C[NH+]2CCC(C(=O)OCCOC(=O)c3ccc(-c4c5nc(c(-c6c(F)cccc6F)c6ccc([nH]6)c(-c6c(F)cccc6F)c6nc(c(-c7c(F)cccc7F)c7ccc4[nH]7)C=C6)C=C5)cc3)(n3ccc(-c4ccco4)n3)CC2)on1
REMARK SMILES IDX 14 1 13 2 11 3 12 4 10 5 7 6 8 7 84 8 9 10 83 11 6 12 5 13
REMARK SMILES IDX 3 14 4 15 86 16 85 17 2 18 1 19 73 20 74 21 82 22 75 23
REMARK SMILES IDX 76 24 77 25 78 26 81 27 79 28 80 29 15 30 16 31 17 32 18 33
REMARK SMILES IDX 19 34 20 35 72 36 21 37 71 38 22 39 23 40 24 41 65 42 25 43
REMARK SMILES IDX 70 44 64 45 66 46 26 47 69 48 63 49 62 50 27 52 53 53 36 54
REMARK SMILES IDX 52 55 37 56 40 57 51 58 67 59 38 60 39 61 50 63 68 64 41 65
REMARK SMILES IDX 28 66 29 67 34 68 30 69 31 70 33 71 35 72 32 73 54 74 55 75
REMARK SMILES IDX 60 76 56 77 57 78 59 79 61 80 58 81 42 82 43 83 48 84 44 85
REMARK SMILES IDX 45 86 47 87 49 88 46 89
REMARK H PARENT 7 9 66 51 40 62
REMARK Flexibility Score: inf
ROOT
ATOM      1  C   UNL A   1      36.556  22.527  25.525  1.00  0.00     0.274 C 
ENDROOT
BRANCH   1   2
ATOM      2  O   UNL A   1      36.013  23.757  24.991  1.00  0.00    -0.460 OA
BRANCH   2   3
ATOM      3  C   UNL A   1      35.334  23.628  23.809  1.00  0.00     0.334 C 
ATOM      4  O   UNL A   1      35.890  23.177  22.812  1.00  0.00    -0.249 OA
BRANCH   3   5
ATOM      5  C   UNL A   1      33.857  24.119  23.900  1.00  0.00     0.170 C 
ATOM      6  N   UNL A   1      31.668  26.048  23.407  1.00  0.00    -0.328 N 
ATOM      7  C   UNL A   1      32.424  26.136  24.653  1.00  0.00     0.265 C 
ATOM      8  C   UNL A   1      31.867  24.870  22.561  1.00  0.00     0.265 C 
ATOM      9  H   UNL A   1      32.102  26.786  22.854  1.00  0.00     0.348 HD
ATOM     10  C   UNL A   1      33.792  25.445  24.686  1.00  0.00     0.104 C 
ATOM     11  C   UNL A   1      33.327  24.422  22.488  1.00  0.00     0.104 C 
BRANCH   6  12
ATOM     12  C   UNL A   1      30.227  26.358  23.593  1.00  0.00     0.341 C 
BRANCH  12  13
ATOM     13  C   UNL A   1      29.751  27.654  23.015  1.00  0.00     0.191 A 
ATOM     14  C   UNL A   1      28.815  29.546  22.346  1.00  0.00     0.084 A 
ATOM     15  C   UNL A   1      28.671  28.474  23.259  1.00  0.00     0.078 A 
ATOM     16  N   UNL A   1      29.925  29.396  21.611  1.00  0.00    -0.085 NA
ATOM     17  O   UNL A   1      30.512  28.219  22.039  1.00  0.00    -0.355 OA
BRANCH  14  18
ATOM     18  C   UNL A   1      27.930  30.726  22.105  1.00  0.00     0.056 C 
ATOM     19  C   UNL A   1      27.596  31.530  23.352  1.00  0.00     0.011 C 
ENDBRANCH  14  18
ENDBRANCH  12  13
ENDBRANCH   6  12
BRANCH   5  20
ATOM     20  N   UNL A   1      33.044  23.032  24.487  1.00  0.00    -0.254 N 
ATOM     21  C   UNL A   1      32.288  22.988  25.630  1.00  0.00     0.111 A 
ATOM     22  N   UNL A   1      32.975  21.864  23.816  1.00  0.00    -0.168 NA
ATOM     23  C   UNL A   1      31.810  21.703  25.746  1.00  0.00     0.054 A 
ATOM     24  C   UNL A   1      32.451  21.020  24.705  1.00  0.00     0.128 A 
BRANCH  24  25
ATOM     25  C   UNL A   1      32.749  19.572  24.698  1.00  0.00     0.154 A 
ATOM     26  C   UNL A   1      33.923  19.019  24.225  1.00  0.00     0.052 A 
ATOM     27  O   UNL A   1      32.019  18.627  25.355  1.00  0.00    -0.463 OA
ATOM     28  C   UNL A   1      33.937  17.680  24.669  1.00  0.00     0.043 A 
ATOM     29  C   UNL A   1      32.748  17.485  25.335  1.00  0.00     0.196 A 
ENDBRANCH  24  25
ENDBRANCH   5  20
ENDBRANCH   3   5
ENDBRANCH   2   3
ENDBRANCH   1   2
BRANCH   1  30
ATOM     30  C   UNL A   1      38.036  22.634  25.929  1.00  0.00     0.275 C 
BRANCH  30  31
ATOM     31  O   UNL A   1      38.415  23.944  26.401  1.00  0.00    -0.458 OA
BRANCH  31  32
ATOM     32  C   UNL A   1      39.743  24.146  26.551  1.00  0.00     0.338 C 
ATOM     33  O   UNL A   1      40.638  23.582  25.926  1.00  0.00    -0.246 OA
BRANCH  32  34
ATOM     34  C   UNL A   1      40.017  25.248  27.496  1.00  0.00     0.060 A 
ATOM     35  C   UNL A   1      39.257  25.284  28.665  1.00  0.00     0.016 A 
ATOM     36  C   UNL A   1      40.928  26.274  27.227  1.00  0.00     0.016 A 
ATOM     37  C   UNL A   1      39.404  26.331  29.571  1.00  0.00     0.010 A 
ATOM     38  C   UNL A   1      41.055  27.348  28.127  1.00  0.00     0.010 A 
ATOM     39  C   UNL A   1      40.287  27.385  29.302  1.00  0.00    -0.014 A 
BRANCH  39  40
ATOM     40  C   UNL A   1      40.308  28.525  30.255  1.00  0.00     0.031 A 
ATOM     41  C   UNL A   1      39.172  29.503  30.256  1.00  0.00     0.074 A 
ATOM     42  C   UNL A   1      41.256  28.600  31.206  1.00  0.00     0.049 A 
ATOM     43  N   UNL A   1      38.915  30.470  31.099  1.00  0.00    -0.248 NA
ATOM     44  C   UNL A   1      38.216  29.400  29.144  1.00  0.00     0.031 C 
ATOM     45  C   UNL A   1      42.413  27.717  31.299  1.00  0.00     0.029 A 
ATOM     46  N   UNL A   1      41.343  29.386  32.332  1.00  0.00    -0.354 N 
ATOM     47  C   UNL A   1      37.825  31.148  30.571  1.00  0.00     0.074 A 
ATOM     48  C   UNL A   1      37.417  30.430  29.380  1.00  0.00     0.031 C 
ATOM     49  C   UNL A   1      42.995  27.894  32.497  1.00  0.00     0.029 A 
ATOM     50  C   UNL A   1      42.269  28.916  33.241  1.00  0.00     0.049 A 
ATOM     51  H   UNL A   1      40.802  30.196  32.475  1.00  0.00     0.167 HD
ATOM     52  C   UNL A   1      37.270  32.305  31.005  1.00  0.00     0.037 A 
ATOM     53  C   UNL A   1      42.445  29.231  34.540  1.00  0.00     0.037 A 
ATOM     54  C   UNL A   1      37.695  33.011  32.186  1.00  0.00     0.049 A 
ATOM     55  C   UNL A   1      41.692  30.412  35.096  1.00  0.00     0.074 A 
ATOM     56  C   UNL A   1      37.290  34.248  32.655  1.00  0.00     0.029 A 
ATOM     57  N   UNL A   1      38.623  32.524  33.095  1.00  0.00    -0.354 N 
ATOM     58  N   UNL A   1      40.722  31.105  34.554  1.00  0.00    -0.248 NA
ATOM     59  C   UNL A   1      42.120  30.904  36.415  1.00  0.00     0.031 C 
ATOM     60  C   UNL A   1      37.998  34.524  33.833  1.00  0.00     0.029 A 
ATOM     61  C   UNL A   1      38.809  33.439  34.119  1.00  0.00     0.049 A 
ATOM     62  H   UNL A   1      39.082  31.656  33.024  1.00  0.00     0.167 HD
ATOM     63  C   UNL A   1      40.478  32.157  35.425  1.00  0.00     0.074 A 
ATOM     64  C   UNL A   1      41.324  31.950  36.583  1.00  0.00     0.031 C 
ATOM     65  C   UNL A   1      39.678  33.236  35.249  1.00  0.00     0.037 A 
BRANCH  52  66
ATOM     66  C   UNL A   1      36.253  32.942  30.110  1.00  0.00     0.057 A 
ATOM     67  C   UNL A   1      34.877  32.872  30.353  1.00  0.00     0.134 A 
ATOM     68  C   UNL A   1      36.673  33.619  28.955  1.00  0.00     0.134 A 
ATOM     69  F   UNL A   1      34.409  32.215  31.425  1.00  0.00    -0.206 F 
ATOM     70  C   UNL A   1      33.953  33.430  29.466  1.00  0.00     0.040 A 
ATOM     71  C   UNL A   1      35.762  34.201  28.075  1.00  0.00     0.040 A 
ATOM     72  F   UNL A   1      37.978  33.718  28.662  1.00  0.00    -0.206 F 
ATOM     73  C   UNL A   1      34.396  34.099  28.325  1.00  0.00     0.006 A 
ENDBRANCH  52  66
BRANCH  53  74
ATOM     74  C   UNL A   1      43.322  28.423  35.434  1.00  0.00     0.057 A 
ATOM     75  C   UNL A   1      44.693  28.715  35.526  1.00  0.00     0.134 A 
ATOM     76  C   UNL A   1      42.856  27.336  36.182  1.00  0.00     0.134 A 
ATOM     77  F   UNL A   1      45.216  29.726  34.816  1.00  0.00    -0.206 F 
ATOM     78  C   UNL A   1      45.562  27.953  36.311  1.00  0.00     0.040 A 
ATOM     79  C   UNL A   1      43.708  26.589  37.000  1.00  0.00     0.040 A 
ATOM     80  F   UNL A   1      41.564  26.983  36.133  1.00  0.00    -0.206 F 
ATOM     81  C   UNL A   1      45.067  26.889  37.059  1.00  0.00     0.006 A 
ENDBRANCH  53  74
BRANCH  65  82
ATOM     82  C   UNL A   1      39.749  34.312  36.290  1.00  0.00     0.057 A 
ATOM     83  C   UNL A   1      40.600  35.415  36.127  1.00  0.00     0.134 A 
ATOM     84  C   UNL A   1      38.945  34.276  37.433  1.00  0.00     0.134 A 
ATOM     85  F   UNL A   1      41.402  35.503  35.055  1.00  0.00    -0.206 F 
ATOM     86  C   UNL A   1      40.661  36.436  37.076  1.00  0.00     0.040 A 
ATOM     87  C   UNL A   1      38.983  35.302  38.380  1.00  0.00     0.040 A 
ATOM     88  F   UNL A   1      38.105  33.252  37.644  1.00  0.00    -0.206 F 
ATOM     89  C   UNL A   1      39.846  36.383  38.204  1.00  0.00     0.006 A 
ENDBRANCH  65  82
ENDBRANCH  39  40
ENDBRANCH  32  34
ENDBRANCH  31  32
ENDBRANCH  30  31
ENDBRANCH   1  30
TORSDOF 16
ENDMDL
MODEL 2
REMARK VINA RESULT:     -12.5      5.246     10.463
REMARK SMILES CCc1cc(C[NH+]2CCC(C(=O)OCCOC(=O)c3ccc(-c4c5nc(c(-c6c(F)cccc6F)c6ccc([nH]6)c(-c6c(F)cccc6F)c6nc(c(-c7c(F)cccc7F)c7ccc4[nH]7)C=C6)C=C5)cc3)(n3ccc(-c4ccco4)n3)CC2)on1
REMARK SMILES IDX 14 1 13 2 11 3 12 4 10 5 7 6 8 7 84 8 9 10 83 11 6 12 5 13
REMARK SMILES IDX 3 14 4 15 86 16 85 17 2 18 1 19 73 20 74 21 82 22 75 23
REMARK SMILES IDX 76 24 77 25 78 26 81 27 79 28 80 29 15 30 16 31 17 32 18 33
REMARK SMILES IDX 19 34 20 35 72 36 21 37 71 38 22 39 23 40 24 41 65 42 25 43
REMARK SMILES IDX 70 44 64 45 66 46 26 47 69 48 63 49 62 50 27 52 53 53 36 54
REMARK SMILES IDX 52 55 37 56 40 57 51 58 67 59 38 60 39 61 50 63 68 64 41 65
REMARK SMILES IDX 28 66 29 67 34 68 30 69 31 70 33 71 35 72 32 73 54 74 55 75
REMARK SMILES IDX 60 76 56 77 57 78 59 79 61 80 58 81 42 82 43 83 48 84 44 85
REMARK SMILES IDX 45 86 47 87 49 88 46 89
REMARK H PARENT 7 9 66 51 40 62
REMARK Flexibility Score: inf
ROOT
ATOM      1  C   UNL A   1      32.951  29.287  26.475  1.00  0.00     0.274 C 
ENDROOT
BRANCH   1   2
ATOM      2  O   UNL A   1      33.109  27.899  26.849  1.00  0.00    -0.460 OA
BRANCH   2   3
ATOM      3  C   UNL A   1      31.958  27.157  26.831  1.00  0.00     0.334 C 
ATOM      4  O   UNL A   1      31.030  27.420  27.587  1.00  0.00    -0.249 OA
BRANCH   3   5
ATOM      5  C   UNL A   1      32.002  25.994  25.792  1.00  0.00     0.170 C 
ATOM      6  N   UNL A   1      32.140  23.145  25.003  1.00  0.00    -0.328 N 
ATOM      7  C   UNL A   1      33.378  23.910  25.124  1.00  0.00     0.265 C 
ATOM      8  C   UNL A   1      30.871  23.875  25.048  1.00  0.00     0.265 C 
ATOM      9  H   UNL A   1      32.128  22.638  25.888  1.00  0.00     0.348 HD
ATOM     10  C   UNL A   1      33.319  25.205  25.941  1.00  0.00     0.104 C 
ATOM     11  C   UNL A   1      30.863  25.002  26.083  1.00  0.00     0.104 C 
BRANCH   6  12
ATOM     12  C   UNL A   1      32.178  22.173  23.881  1.00  0.00     0.341 C 
BRANCH  12  13
ATOM     13  C   UNL A   1      32.461  20.750  24.250  1.00  0.00     0.191 A 
ATOM     14  C   UNL A   1      33.028  18.630  24.538  1.00  0.00     0.084 A 
ATOM     15  C   UNL A   1      33.180  19.732  23.663  1.00  0.00     0.078 A 
ATOM     16  N   UNL A   1      32.283  18.967  25.599  1.00  0.00    -0.085 NA
ATOM     17  O   UNL A   1      31.939  20.294  25.421  1.00  0.00    -0.355 OA
BRANCH  14  18
ATOM     18  C   UNL A   1      33.542  17.232  24.418  1.00  0.00     0.056 C 
ATOM     19  C   UNL A   1      34.130  16.890  23.056  1.00  0.00     0.011 C 
ENDBRANCH  14  18
ENDBRANCH  12  13
ENDBRANCH   6  12
BRANCH   5  20
ATOM     20  N   UNL A   1      31.794  26.570  24.446  1.00  0.00    -0.254 N 
ATOM     21  C   UNL A   1      32.691  26.959  23.484  1.00  0.00     0.111 A 
ATOM     22  N   UNL A   1      30.525  26.745  24.023  1.00  0.00    -0.168 NA
ATOM     23  C   UNL A   1      31.961  27.508  22.454  1.00  0.00     0.054 A 
ATOM     24  C   UNL A   1      30.653  27.531  22.955  1.00  0.00     0.128 A 
BRANCH  24  25
ATOM     25  C   UNL A   1      29.603  28.484  22.538  1.00  0.00     0.154 A 
ATOM     26  C   UNL A   1      28.391  28.640  23.181  1.00  0.00     0.052 A 
ATOM     27  O   UNL A   1      29.778  29.479  21.623  1.00  0.00    -0.463 OA
ATOM     28  C   UNL A   1      27.823  29.826  22.672  1.00  0.00     0.043 A 
ATOM     29  C   UNL A   1      28.696  30.288  21.714  1.00  0.00     0.196 A 
ENDBRANCH  24  25
ENDBRANCH   5  20
ENDBRANCH   3   5
ENDBRANCH   2   3
ENDBRANCH   1   2
BRANCH   1  30
ATOM     30  C   UNL A   1      33.956  30.226  27.161  1.00  0.00     0.275 C 
BRANCH  30  31
ATOM     31  O   UNL A   1      35.057  29.537  27.789  1.00  0.00    -0.458 OA
BRANCH  31  32
ATOM     32  C   UNL A   1      35.688  30.221  28.770  1.00  0.00     0.338 C 
ATOM     33  O   UNL A   1      35.158  30.965  29.591  1.00  0.00    -0.246 OA
BRANCH  32  34
ATOM     34  C   UNL A   1      37.121  29.871  28.836  1.00  0.00     0.060 A 
ATOM     35  C   UNL A   1      37.852  29.966  27.651  1.00  0.00     0.016 A 
ATOM     36  C   UNL A   1      37.735  29.381  29.993  1.00  0.00     0.016 A 
ATOM     37  C   UNL A   1      39.190  29.584  27.613  1.00  0.00     0.010 A 
ATOM     38  C   UNL A   1      39.079  28.966  29.948  1.00  0.00     0.010 A 
ATOM     39  C   UNL A   1      39.812  29.059  28.755  1.00  0.00    -0.014 A 
BRANCH  39  40
ATOM     40  C   UNL A   1      41.205  28.564  28.612  1.00  0.00     0.031 A 
ATOM     41  C   UNL A   1      41.445  27.185  28.073  1.00  0.00     0.074 A 
ATOM     42  C   UNL A   1      42.246  29.391  28.822  1.00  0.00     0.049 A 
ATOM     43  N   UNL A   1      42.571  26.619  27.725  1.00  0.00    -0.248 NA
ATOM     44  C   UNL A   1      40.265  26.319  27.938  1.00  0.00     0.031 C 
ATOM     45  C   UNL A   1      42.139  30.744  29.355  1.00  0.00     0.029 A 
ATOM     46  N   UNL A   1      43.581  29.255  28.515  1.00  0.00    -0.354 N 
ATOM     47  C   UNL A   1      42.251  25.304  27.418  1.00  0.00     0.074 A 
ATOM     48  C   UNL A   1      40.813  25.180  27.541  1.00  0.00     0.031 C 
ATOM     49  C   UNL A   1      43.315  31.369  29.183  1.00  0.00     0.029 A 
ATOM     50  C   UNL A   1      44.261  30.455  28.552  1.00  0.00     0.049 A 
ATOM     51  H   UNL A   1      44.005  28.395  28.293  1.00  0.00     0.167 HD
ATOM     52  C   UNL A   1      43.094  24.282  27.137  1.00  0.00     0.037 A 
ATOM     53  C   UNL A   1      45.474  30.778  28.060  1.00  0.00     0.037 A 
ATOM     54  C   UNL A   1      44.524  24.421  27.029  1.00  0.00     0.049 A 
ATOM     55  C   UNL A   1      46.364  29.667  27.567  1.00  0.00     0.074 A 
ATOM     56  C   UNL A   1      45.485  23.439  26.867  1.00  0.00     0.029 A 
ATOM     57  N   UNL A   1      45.195  25.634  27.062  1.00  0.00    -0.354 N 
ATOM     58  N   UNL A   1      46.077  28.405  27.365  1.00  0.00    -0.248 NA
ATOM     59  C   UNL A   1      47.771  30.013  27.314  1.00  0.00     0.031 C 
ATOM     60  C   UNL A   1      46.742  24.057  26.835  1.00  0.00     0.029 A 
ATOM     61  C   UNL A   1      46.558  25.426  26.930  1.00  0.00     0.049 A 
ATOM     62  H   UNL A   1      44.766  26.515  27.163  1.00  0.00     0.167 HD
ATOM     63  C   UNL A   1      47.279  27.793  27.039  1.00  0.00     0.074 A 
ATOM     64  C   UNL A   1      48.277  28.840  26.962  1.00  0.00     0.031 C 
ATOM     65  C   UNL A   1      47.545  26.474  26.887  1.00  0.00     0.037 A 
BRANCH  52  66
ATOM     66  C   UNL A   1      42.495  22.910  27.078  1.00  0.00     0.057 A 
ATOM     67  C   UNL A   1      42.301  22.217  25.879  1.00  0.00     0.134 A 
ATOM     68  C   UNL A   1      42.076  22.287  28.263  1.00  0.00     0.134 A 
ATOM     69  F   UNL A   1      42.654  22.770  24.709  1.00  0.00    -0.206 F 
ATOM     70  C   UNL A   1      41.688  20.962  25.857  1.00  0.00     0.040 A 
ATOM     71  C   UNL A   1      41.484  21.024  28.256  1.00  0.00     0.040 A 
ATOM     72  F   UNL A   1      42.229  22.900  29.446  1.00  0.00    -0.206 F 
ATOM     73  C   UNL A   1      41.281  20.362  27.048  1.00  0.00     0.006 A 
ENDBRANCH  52  66
BRANCH  53  74
ATOM     74  C   UNL A   1      45.929  32.194  27.956  1.00  0.00     0.057 A 
ATOM     75  C   UNL A   1      46.651  32.780  29.009  1.00  0.00     0.134 A 
ATOM     76  C   UNL A   1      45.642  33.010  26.857  1.00  0.00     0.134 A 
ATOM     77  F   UNL A   1      46.939  32.067  30.108  1.00  0.00    -0.206 F 
ATOM     78  C   UNL A   1      47.052  34.118  28.978  1.00  0.00     0.040 A 
ATOM     79  C   UNL A   1      46.071  34.339  26.796  1.00  0.00     0.040 A 
ATOM     80  F   UNL A   1      44.942  32.529  25.820  1.00  0.00    -0.206 F 
ATOM     81  C   UNL A   1      46.770  34.900  27.862  1.00  0.00     0.006 A 
ENDBRANCH  53  74
BRANCH  65  82
ATOM     82  C   UNL A   1      48.983  26.086  26.713  1.00  0.00     0.057 A 
ATOM     83  C   UNL A   1      49.615  26.209  25.467  1.00  0.00     0.134 A 
ATOM     84  C   UNL A   1      49.751  25.630  27.788  1.00  0.00     0.134 A 
ATOM     85  F   UNL A   1      48.929  26.633  24.395  1.00  0.00    -0.206 F 
ATOM     86  C   UNL A   1      50.957  25.873  25.294  1.00  0.00     0.040 A 
ATOM     87  C   UNL A   1      51.100  25.310  27.631  1.00  0.00     0.040 A 
ATOM     88  F   UNL A   1      49.207  25.496  29.007  1.00  0.00    -0.206 F 
ATOM     89  C   UNL A   1      51.706  25.427  26.380  1.00  0.00     0.006 A 
ENDBRANCH  65  82
ENDBRANCH  39  40
ENDBRANCH  32  34
ENDBRANCH  31  32
ENDBRANCH  30  31
ENDBRANCH   1  30
TORSDOF 16
ENDMDL
MODEL 3
REMARK VINA RESULT:     -12.5      2.506      8.093
REMARK SMILES CCc1cc(C[NH+]2CCC(C(=O)OCCOC(=O)c3ccc(-c4c5nc(c(-c6c(F)cccc6F)c6ccc([nH]6)c(-c6c(F)cccc6F)c6nc(c(-c7c(F)cccc7F)c7ccc4[nH]7)C=C6)C=C5)cc3)(n3ccc(-c4ccco4)n3)CC2)on1
REMARK SMILES IDX 14 1 13 2 11 3 12 4 10 5 7 6 8 7 84 8 9 10 83 11 6 12 5 13
REMARK SMILES IDX 3 14 4 15 86 16 85 17 2 18 1 19 73 20 74 21 82 22 75 23
REMARK SMILES IDX 76 24 77 25 78 26 81 27 79 28 80 29 15 30 16 31 17 32 18 33
REMARK SMILES IDX 19 34 20 35 72 36 21 37 71 38 22 39 23 40 24 41 65 42 25 43
REMARK SMILES IDX 70 44 64 45 66 46 26 47 69 48 63 49 62 50 27 52 53 53 36 54
REMARK SMILES IDX 52 55 37 56 40 57 51 58 67 59 38 60 39 61 50 63 68 64 41 65
REMARK SMILES IDX 28 66 29 67 34 68 30 69 31 70 33 71 35 72 32 73 54 74 55 75
REMARK SMILES IDX 60 76 56 77 57 78 59 79 61 80 58 81 42 82 43 83 48 84 44 85
REMARK SMILES IDX 45 86 47 87 49 88 46 89
REMARK H PARENT 7 9 66 51 40 62
REMARK Flexibility Score: inf
ROOT
ATOM      1  C   UNL A   1      32.474  29.146  25.170  1.00  0.00     0.274 C 
ENDROOT
BRANCH   1   2
ATOM      2  O   UNL A   1      32.851  28.078  26.071  1.00  0.00    -0.460 OA
BRANCH   2   3
ATOM      3  C   UNL A   1      31.869  27.157  26.323  1.00  0.00     0.334 C 
ATOM      4  O   UNL A   1      31.077  27.321  27.245  1.00  0.00    -0.249 OA
BRANCH   3   5
ATOM      5  C   UNL A   1      31.911  25.942  25.346  1.00  0.00     0.170 C 
ATOM      6  N   UNL A   1      32.256  23.077  24.690  1.00  0.00    -0.328 N 
ATOM      7  C   UNL A   1      33.411  23.966  24.617  1.00  0.00     0.265 C 
ATOM      8  C   UNL A   1      30.931  23.679  24.857  1.00  0.00     0.265 C 
ATOM      9  H   UNL A   1      32.403  22.627  25.594  1.00  0.00     0.348 HD
ATOM     10  C   UNL A   1      33.313  25.298  25.369  1.00  0.00     0.104 C 
ATOM     11  C   UNL A   1      30.927  24.861  25.827  1.00  0.00     0.104 C 
BRANCH   6  12
ATOM     12  C   UNL A   1      32.263  22.044  23.622  1.00  0.00     0.341 C 
BRANCH  12  13
ATOM     13  C   UNL A   1      32.426  20.627  24.075  1.00  0.00     0.191 A 
ATOM     14  C   UNL A   1      32.671  18.460  24.456  1.00  0.00     0.084 A 
ATOM     15  C   UNL A   1      32.588  19.424  23.423  1.00  0.00     0.078 A 
ATOM     16  N   UNL A   1      32.588  19.045  25.658  1.00  0.00    -0.085 NA
ATOM     17  O   UNL A   1      32.445  20.399  25.417  1.00  0.00    -0.355 OA
BRANCH  14  18
ATOM     18  C   UNL A   1      32.808  16.974  24.372  1.00  0.00     0.056 C 
ATOM     19  C   UNL A   1      33.995  16.494  23.550  1.00  0.00     0.011 C 
ENDBRANCH  14  18
ENDBRANCH  12  13
ENDBRANCH   6  12
BRANCH   5  20
ATOM     20  N   UNL A   1      31.485  26.408  24.009  1.00  0.00    -0.254 N 
ATOM     21  C   UNL A   1      32.151  26.438  22.811  1.00  0.00     0.111 A 
ATOM     22  N   UNL A   1      30.226  26.874  23.876  1.00  0.00    -0.168 NA
ATOM     23  C   UNL A   1      31.317  27.053  21.905  1.00  0.00     0.054 A 
ATOM     24  C   UNL A   1      30.238  27.480  22.689  1.00  0.00     0.128 A 
BRANCH  24  25
ATOM     25  C   UNL A   1      29.367  28.632  22.375  1.00  0.00     0.154 A 
ATOM     26  C   UNL A   1      28.189  28.922  23.036  1.00  0.00     0.052 A 
ATOM     27  O   UNL A   1      29.716  29.671  21.566  1.00  0.00    -0.463 OA
ATOM     28  C   UNL A   1      27.833  30.232  22.653  1.00  0.00     0.043 A 
ATOM     29  C   UNL A   1      28.783  30.636  21.743  1.00  0.00     0.196 A 
ENDBRANCH  24  25
ENDBRANCH   5  20
ENDBRANCH   3   5
ENDBRANCH   2   3
ENDBRANCH   1   2
BRANCH   1  30
ATOM     30  C   UNL A   1      31.891  30.375  25.885  1.00  0.00     0.275 C 
BRANCH  30  31
ATOM     31  O   UNL A   1      32.431  30.587  27.207  1.00  0.00    -0.458 OA
BRANCH  31  32
ATOM     32  C   UNL A   1      33.103  31.746  27.381  1.00  0.00     0.338 C 
ATOM     33  O   UNL A   1      32.640  32.878  27.260  1.00  0.00    -0.246 OA
BRANCH  32  34
ATOM     34  C   UNL A   1      34.475  31.506  27.874  1.00  0.00     0.060 A 
ATOM     35  C   UNL A   1      34.779  30.211  28.295  1.00  0.00     0.016 A 
ATOM     36  C   UNL A   1      35.427  32.522  28.006  1.00  0.00     0.016 A 
ATOM     37  C   UNL A   1      36.026  29.920  28.841  1.00  0.00     0.010 A 
ATOM     38  C   UNL A   1      36.677  32.235  28.585  1.00  0.00     0.010 A 
ATOM     39  C   UNL A   1      36.980  30.932  29.012  1.00  0.00    -0.014 A 
BRANCH  39  40
ATOM     40  C   UNL A   1      38.245  30.575  29.706  1.00  0.00     0.031 A 
ATOM     41  C   UNL A   1      38.369  30.816  31.181  1.00  0.00     0.074 A 
ATOM     42  C   UNL A   1      39.213  29.907  29.054  1.00  0.00     0.049 A 
ATOM     43  N   UNL A   1      39.313  30.440  32.003  1.00  0.00    -0.248 NA
ATOM     44  C   UNL A   1      37.304  31.615  31.806  1.00  0.00     0.031 C 
ATOM     45  C   UNL A   1      39.212  29.625  27.623  1.00  0.00     0.029 A 
ATOM     46  N   UNL A   1      40.330  29.254  29.523  1.00  0.00    -0.354 N 
ATOM     47  C   UNL A   1      39.008  31.031  33.221  1.00  0.00     0.074 A 
ATOM     48  C   UNL A   1      37.745  31.721  33.051  1.00  0.00     0.031 C 
ATOM     49  C   UNL A   1      40.173  28.725  27.360  1.00  0.00     0.029 A 
ATOM     50  C   UNL A   1      40.871  28.388  28.595  1.00  0.00     0.049 A 
ATOM     51  H   UNL A   1      40.704  29.390  30.424  1.00  0.00     0.167 HD
ATOM     52  C   UNL A   1      39.756  31.054  34.350  1.00  0.00     0.037 A 
ATOM     53  C   UNL A   1      41.766  27.393  28.758  1.00  0.00     0.037 A 
ATOM     54  C   UNL A   1      41.015  30.370  34.498  1.00  0.00     0.049 A 
ATOM     55  C   UNL A   1      42.483  27.286  30.079  1.00  0.00     0.074 A 
ATOM     56  C   UNL A   1      41.915  30.419  35.548  1.00  0.00     0.029 A 
ATOM     57  N   UNL A   1      41.544  29.496  33.560  1.00  0.00    -0.354 N 
ATOM     58  N   UNL A   1      42.244  27.915  31.203  1.00  0.00    -0.248 NA
ATOM     59  C   UNL A   1      43.648  26.389  30.126  1.00  0.00     0.031 C 
ATOM     60  C   UNL A   1      43.005  29.599  35.230  1.00  0.00     0.029 A 
ATOM     61  C   UNL A   1      42.762  29.005  34.003  1.00  0.00     0.049 A 
ATOM     62  H   UNL A   1      41.118  29.259  32.705  1.00  0.00     0.167 HD
ATOM     63  C   UNL A   1      43.271  27.552  32.063  1.00  0.00     0.074 A 
ATOM     64  C   UNL A   1      44.072  26.564  31.369  1.00  0.00     0.031 C 
ATOM     65  C   UNL A   1      43.564  28.046  33.289  1.00  0.00     0.037 A 
BRANCH  52  66
ATOM     66  C   UNL A   1      39.296  31.966  35.445  1.00  0.00     0.057 A 
ATOM     67  C   UNL A   1      38.455  31.545  36.481  1.00  0.00     0.134 A 
ATOM     68  C   UNL A   1      39.690  33.312  35.436  1.00  0.00     0.134 A 
ATOM     69  F   UNL A   1      38.020  30.277  36.531  1.00  0.00    -0.206 F 
ATOM     70  C   UNL A   1      38.000  32.437  37.455  1.00  0.00     0.040 A 
ATOM     71  C   UNL A   1      39.261  34.207  36.416  1.00  0.00     0.040 A 
ATOM     72  F   UNL A   1      40.491  33.781  34.468  1.00  0.00    -0.206 F 
ATOM     73  C   UNL A   1      38.407  33.772  37.425  1.00  0.00     0.006 A 
ENDBRANCH  52  66
BRANCH  53  74
ATOM     74  C   UNL A   1      42.027  26.386  27.689  1.00  0.00     0.057 A 
ATOM     75  C   UNL A   1      43.024  26.624  26.728  1.00  0.00     0.134 A 
ATOM     76  C   UNL A   1      41.295  25.202  27.560  1.00  0.00     0.134 A 
ATOM     77  F   UNL A   1      43.748  27.752  26.772  1.00  0.00    -0.206 F 
ATOM     78  C   UNL A   1      43.269  25.734  25.679  1.00  0.00     0.040 A 
ATOM     79  C   UNL A   1      41.555  24.285  26.538  1.00  0.00     0.040 A 
ATOM     80  F   UNL A   1      40.315  24.913  28.427  1.00  0.00    -0.206 F 
ATOM     81  C   UNL A   1      42.537  24.554  25.587  1.00  0.00     0.006 A 
ENDBRANCH  53  74
BRANCH  65  82
ATOM     82  C   UNL A   1      44.848  27.591  33.916  1.00  0.00     0.057 A 
ATOM     83  C   UNL A   1      46.051  28.265  33.662  1.00  0.00     0.134 A 
ATOM     84  C   UNL A   1      44.884  26.511  34.803  1.00  0.00     0.134 A 
ATOM     85  F   UNL A   1      46.083  29.304  32.814  1.00  0.00    -0.206 F 
ATOM     86  C   UNL A   1      47.250  27.867  34.255  1.00  0.00     0.040 A 
ATOM     87  C   UNL A   1      46.073  26.117  35.418  1.00  0.00     0.040 A 
ATOM     88  F   UNL A   1      43.766  25.829  35.093  1.00  0.00    -0.206 F 
ATOM     89  C   UNL A   1      47.261  26.793  35.141  1.00  0.00     0.006 A 
ENDBRANCH  65  82
ENDBRANCH  39  40
ENDBRANCH  32  34
ENDBRANCH  31  32
ENDBRANCH  30  31
ENDBRANCH   1  30
TORSDOF 16
ENDMDL
