MODEL 1
REMARK VINA RESULT:      -9.8      0.000      0.000
REMARK SMILES O=Cc1ccc2c(c1)C=C(C(=O)OCCOC(=O)c1ccc(-c3c4nc(c(-c5c(F)cccc5F)c5ccc([nH]5)c(-c5c(F)cccc5F)c5nc(c(-c6c(F)cccc6F)c6ccc3[nH]6)C=C5)C=C4)cc1)[C@H](C(F)(F)F)O2
REMARK SMILES IDX 15 1 14 2 13 3 11 4 12 5 10 6 3 7 4 8 8 9 5 10 7 11 6 12
REMARK SMILES IDX 9 13 78 14 73 15 2 16 1 17 74 18 75 19 76 20 77 21 16 22
REMARK SMILES IDX 17 23 18 24 19 25 20 26 72 27 21 28 71 29 22 30 23 31 24 32
REMARK SMILES IDX 65 33 25 34 70 35 64 36 66 37 26 38 69 39 63 40 62 41 27 43
REMARK SMILES IDX 53 44 36 45 52 46 37 47 40 48 51 49 67 50 38 51 39 52 50 54
REMARK SMILES IDX 68 55 41 56 28 57 29 58 34 59 30 60 31 61 33 62 35 63 32 64
REMARK SMILES IDX 54 65 55 66 60 67 56 68 57 69 59 70 61 71 58 72 42 73 43 74
REMARK SMILES IDX 48 75 44 76 45 77 47 78 49 79 46 80
REMARK H PARENT 66 42 40 53
REMARK Flexibility Score: inf
ROOT
ATOM      1  C   UNL A   1      34.001  33.742  28.263  1.00  0.00     0.275 C 
ENDROOT
BRANCH   1   2
ATOM      2  C   UNL A   1      34.761  34.784  29.091  1.00  0.00     0.275 C 
BRANCH   2   3
ATOM      3  O   UNL A   1      34.453  34.686  30.498  1.00  0.00    -0.459 OA
BRANCH   3   4
ATOM      4  C   UNL A   1      34.931  33.585  31.134  1.00  0.00     0.338 C 
ATOM      5  O   UNL A   1      34.371  32.504  31.184  1.00  0.00    -0.246 OA
BRANCH   4   6
ATOM      6  C   UNL A   1      36.259  33.831  31.746  1.00  0.00     0.087 C 
ATOM      7  C   UNL A   1      41.035  34.516  31.529  1.00  0.00     0.015 A 
ATOM      8  C   UNL A   1      41.065  34.739  32.908  1.00  0.00     0.015 A 
ATOM      9  C   UNL A   1      39.822  34.261  30.872  1.00  0.00     0.023 A 
ATOM     10  C   UNL A   1      39.874  34.744  33.630  1.00  0.00     0.048 A 
ATOM     11  C   UNL A   1      38.628  34.244  31.602  1.00  0.00     0.018 A 
ATOM     12  C   UNL A   1      38.667  34.503  32.976  1.00  0.00     0.128 A 
ATOM     13  C   UNL A   1      37.336  34.008  30.959  1.00  0.00     0.027 C 
ATOM     14  O   UNL A   1      37.534  34.617  33.729  1.00  0.00    -0.475 OA
ATOM     15  C   UNL A   1      36.375  33.871  33.262  1.00  0.00     0.316 C 
BRANCH   7  16
ATOM     16  C   UNL A   1      42.288  34.578  30.750  1.00  0.00     0.260 C 
ATOM     17  O   UNL A   1      42.340  34.246  29.572  1.00  0.00    -0.298 OA
ENDBRANCH   7  16
BRANCH  15  18
ATOM     18  C   UNL A   1      35.165  34.360  34.083  1.00  0.00     0.430 C 
ATOM     19  F   UNL A   1      34.121  33.502  34.010  1.00  0.00    -0.167 F 
ATOM     20  F   UNL A   1      35.487  34.422  35.404  1.00  0.00    -0.167 F 
ATOM     21  F   UNL A   1      34.752  35.593  33.723  1.00  0.00    -0.167 F 
ENDBRANCH  15  18
ENDBRANCH   4   6
ENDBRANCH   3   4
ENDBRANCH   2   3
ENDBRANCH   1   2
BRANCH   1  22
ATOM     22  O   UNL A   1      34.900  32.799  27.649  1.00  0.00    -0.458 OA
BRANCH  22  23
ATOM     23  C   UNL A   1      34.651  31.503  27.953  1.00  0.00     0.338 C 
ATOM     24  O   UNL A   1      33.640  30.871  27.689  1.00  0.00    -0.246 OA
BRANCH  23  25
ATOM     25  C   UNL A   1      35.867  30.862  28.495  1.00  0.00     0.060 A 
ATOM     26  C   UNL A   1      37.076  31.526  28.269  1.00  0.00     0.016 A 
ATOM     27  C   UNL A   1      35.851  29.650  29.191  1.00  0.00     0.016 A 
ATOM     28  C   UNL A   1      38.265  31.020  28.788  1.00  0.00     0.010 A 
ATOM     29  C   UNL A   1      37.057  29.114  29.671  1.00  0.00     0.010 A 
ATOM     30  C   UNL A   1      38.267  29.802  29.478  1.00  0.00    -0.014 A 
BRANCH  30  31
ATOM     31  C   UNL A   1      39.568  29.225  29.891  1.00  0.00     0.031 A 
ATOM     32  C   UNL A   1      40.251  29.767  31.114  1.00  0.00     0.074 A 
ATOM     33  C   UNL A   1      40.088  28.167  29.243  1.00  0.00     0.049 A 
ATOM     34  N   UNL A   1      41.346  29.358  31.703  1.00  0.00    -0.248 NA
ATOM     35  C   UNL A   1      39.600  30.910  31.772  1.00  0.00     0.031 C 
ATOM     36  C   UNL A   1      39.489  27.502  28.088  1.00  0.00     0.029 A 
ATOM     37  N   UNL A   1      41.240  27.457  29.481  1.00  0.00    -0.354 N 
ATOM     38  C   UNL A   1      41.498  30.170  32.819  1.00  0.00     0.074 A 
ATOM     39  C   UNL A   1      40.405  31.120  32.804  1.00  0.00     0.031 C 
ATOM     40  C   UNL A   1      40.282  26.482  27.714  1.00  0.00     0.029 A 
ATOM     41  C   UNL A   1      41.452  26.434  28.590  1.00  0.00     0.049 A 
ATOM     42  H   UNL A   1      41.855  27.662  30.223  1.00  0.00     0.167 HD
ATOM     43  C   UNL A   1      42.454  30.123  33.776  1.00  0.00     0.037 A 
ATOM     44  C   UNL A   1      42.478  25.568  28.490  1.00  0.00     0.037 A 
ATOM     45  C   UNL A   1      43.570  29.213  33.771  1.00  0.00     0.049 A 
ATOM     46  C   UNL A   1      43.603  25.631  29.493  1.00  0.00     0.074 A 
ATOM     47  C   UNL A   1      44.613  29.123  34.675  1.00  0.00     0.029 A 
ATOM     48  N   UNL A   1      43.794  28.245  32.805  1.00  0.00    -0.354 N 
ATOM     49  N   UNL A   1      43.730  26.390  30.554  1.00  0.00    -0.248 NA
ATOM     50  C   UNL A   1      44.729  24.707  29.283  1.00  0.00     0.031 C 
ATOM     51  C   UNL A   1      45.493  28.130  34.232  1.00  0.00     0.029 A 
ATOM     52  C   UNL A   1      44.971  27.568  33.079  1.00  0.00     0.049 A 
ATOM     53  H   UNL A   1      43.205  28.066  32.036  1.00  0.00     0.167 HD
ATOM     54  C   UNL A   1      44.923  26.007  31.158  1.00  0.00     0.074 A 
ATOM     55  C   UNL A   1      45.477  24.942  30.351  1.00  0.00     0.031 C 
ATOM     56  C   UNL A   1      45.506  26.495  32.280  1.00  0.00     0.037 A 
BRANCH  43  57
ATOM     57  C   UNL A   1      42.342  31.105  34.902  1.00  0.00     0.057 A 
ATOM     58  C   UNL A   1      41.641  30.798  36.075  1.00  0.00     0.134 A 
ATOM     59  C   UNL A   1      42.963  32.358  34.828  1.00  0.00     0.134 A 
ATOM     60  F   UNL A   1      41.010  29.620  36.202  1.00  0.00    -0.206 F 
ATOM     61  C   UNL A   1      41.548  31.709  37.129  1.00  0.00     0.040 A 
ATOM     62  C   UNL A   1      42.896  33.268  35.882  1.00  0.00     0.040 A 
ATOM     63  F   UNL A   1      43.650  32.712  33.731  1.00  0.00    -0.206 F 
ATOM     64  C   UNL A   1      42.183  32.946  37.036  1.00  0.00     0.006 A 
ENDBRANCH  43  57
BRANCH  44  65
ATOM     65  C   UNL A   1      42.523  24.569  27.391  1.00  0.00     0.057 A 
ATOM     66  C   UNL A   1      42.095  23.250  27.589  1.00  0.00     0.134 A 
ATOM     67  C   UNL A   1      43.072  24.887  26.144  1.00  0.00     0.134 A 
ATOM     68  F   UNL A   1      41.589  22.874  28.773  1.00  0.00    -0.206 F 
ATOM     69  C   UNL A   1      42.243  22.276  26.598  1.00  0.00     0.040 A 
ATOM     70  C   UNL A   1      43.200  23.931  25.135  1.00  0.00     0.040 A 
ATOM     71  F   UNL A   1      43.509  26.129  25.892  1.00  0.00    -0.206 F 
ATOM     72  C   UNL A   1      42.796  22.617  25.365  1.00  0.00     0.006 A 
ENDBRANCH  44  65
BRANCH  56  73
ATOM     73  C   UNL A   1      46.784  25.846  32.733  1.00  0.00     0.057 A 
ATOM     74  C   UNL A   1      48.034  26.246  32.246  1.00  0.00     0.134 A 
ATOM     75  C   UNL A   1      46.762  24.826  33.693  1.00  0.00     0.134 A 
ATOM     76  F   UNL A   1      48.126  27.209  31.318  1.00  0.00    -0.206 F 
ATOM     77  C   UNL A   1      49.214  25.635  32.675  1.00  0.00     0.040 A 
ATOM     78  C   UNL A   1      47.936  24.226  34.150  1.00  0.00     0.040 A 
ATOM     79  F   UNL A   1      45.599  24.400  34.210  1.00  0.00    -0.206 F 
ATOM     80  C   UNL A   1      49.167  24.625  33.634  1.00  0.00     0.006 A 
ENDBRANCH  56  73
ENDBRANCH  30  31
ENDBRANCH  23  25
ENDBRANCH  22  23
ENDBRANCH   1  22
TORSDOF 13
ENDMDL
MODEL 2
REMARK VINA RESULT:      -9.8      1.740      2.551
REMARK SMILES O=Cc1ccc2c(c1)C=C(C(=O)OCCOC(=O)c1ccc(-c3c4nc(c(-c5c(F)cccc5F)c5ccc([nH]5)c(-c5c(F)cccc5F)c5nc(c(-c6c(F)cccc6F)c6ccc3[nH]6)C=C5)C=C4)cc1)[C@H](C(F)(F)F)O2
REMARK SMILES IDX 15 1 14 2 13 3 11 4 12 5 10 6 3 7 4 8 8 9 5 10 7 11 6 12
REMARK SMILES IDX 9 13 78 14 73 15 2 16 1 17 74 18 75 19 76 20 77 21 16 22
REMARK SMILES IDX 17 23 18 24 19 25 20 26 72 27 21 28 71 29 22 30 23 31 24 32
REMARK SMILES IDX 65 33 25 34 70 35 64 36 66 37 26 38 69 39 63 40 62 41 27 43
REMARK SMILES IDX 53 44 36 45 52 46 37 47 40 48 51 49 67 50 38 51 39 52 50 54
REMARK SMILES IDX 68 55 41 56 28 57 29 58 34 59 30 60 31 61 33 62 35 63 32 64
REMARK SMILES IDX 54 65 55 66 60 67 56 68 57 69 59 70 61 71 58 72 42 73 43 74
REMARK SMILES IDX 48 75 44 76 45 77 47 78 49 79 46 80
REMARK H PARENT 66 42 40 53
REMARK Flexibility Score: inf
ROOT
ATOM      1  C   UNL A   1      34.913  33.109  27.953  1.00  0.00     0.275 C 
ENDROOT
BRANCH   1   2
ATOM      2  C   UNL A   1      34.193  34.441  28.188  1.00  0.00     0.275 C 
BRANCH   2   3
ATOM      3  O   UNL A   1      34.583  35.054  29.435  1.00  0.00    -0.459 OA
BRANCH   3   4
ATOM      4  C   UNL A   1      33.727  34.878  30.475  1.00  0.00     0.338 C 
ATOM      5  O   UNL A   1      32.513  34.961  30.407  1.00  0.00    -0.246 OA
BRANCH   4   6
ATOM      6  C   UNL A   1      34.440  34.528  31.727  1.00  0.00     0.087 C 
ATOM      7  C   UNL A   1      37.503  31.847  34.327  1.00  0.00     0.015 A 
ATOM      8  C   UNL A   1      37.322  32.701  35.419  1.00  0.00     0.015 A 
ATOM      9  C   UNL A   1      36.855  32.098  33.109  1.00  0.00     0.023 A 
ATOM     10  C   UNL A   1      36.518  33.831  35.283  1.00  0.00     0.048 A 
ATOM     11  C   UNL A   1      36.029  33.220  32.980  1.00  0.00     0.018 A 
ATOM     12  C   UNL A   1      35.883  34.086  34.069  1.00  0.00     0.128 A 
ATOM     13  C   UNL A   1      35.351  33.538  31.724  1.00  0.00     0.027 C 
ATOM     14  O   UNL A   1      35.189  35.259  33.981  1.00  0.00    -0.475 OA
ATOM     15  C   UNL A   1      34.116  35.296  32.998  1.00  0.00     0.316 C 
BRANCH   7  16
ATOM     16  C   UNL A   1      38.409  30.688  34.448  1.00  0.00     0.260 C 
ATOM     17  O   UNL A   1      38.554  30.082  35.503  1.00  0.00    -0.298 OA
ENDBRANCH   7  16
BRANCH  15  18
ATOM     18  C   UNL A   1      33.670  36.768  32.878  1.00  0.00     0.430 C 
ATOM     19  F   UNL A   1      32.324  36.885  32.801  1.00  0.00    -0.167 F 
ATOM     20  F   UNL A   1      34.027  37.461  33.993  1.00  0.00    -0.167 F 
ATOM     21  F   UNL A   1      34.231  37.402  31.828  1.00  0.00    -0.167 F 
ENDBRANCH  15  18
ENDBRANCH   4   6
ENDBRANCH   3   4
ENDBRANCH   2   3
ENDBRANCH   1   2
BRANCH   1  22
ATOM     22  O   UNL A   1      34.245  32.023  28.622  1.00  0.00    -0.458 OA
BRANCH  22  23
ATOM     23  C   UNL A   1      34.393  30.816  28.026  1.00  0.00     0.338 C 
ATOM     24  O   UNL A   1      33.609  30.278  27.260  1.00  0.00    -0.246 OA
BRANCH  23  25
ATOM     25  C   UNL A   1      35.749  30.286  28.272  1.00  0.00     0.060 A 
ATOM     26  C   UNL A   1      36.011  29.816  29.562  1.00  0.00     0.016 A 
ATOM     27  C   UNL A   1      36.750  30.253  27.296  1.00  0.00     0.016 A 
ATOM     28  C   UNL A   1      37.247  29.253  29.869  1.00  0.00     0.010 A 
ATOM     29  C   UNL A   1      38.012  29.732  27.620  1.00  0.00     0.010 A 
ATOM     30  C   UNL A   1      38.262  29.222  28.906  1.00  0.00    -0.014 A 
BRANCH  30  31
ATOM     31  C   UNL A   1      39.607  28.747  29.309  1.00  0.00     0.031 A 
ATOM     32  C   UNL A   1      40.363  29.505  30.363  1.00  0.00     0.074 A 
ATOM     33  C   UNL A   1      40.109  27.601  28.815  1.00  0.00     0.049 A 
ATOM     34  N   UNL A   1      41.509  29.224  30.926  1.00  0.00    -0.248 NA
ATOM     35  C   UNL A   1      39.728  30.735  30.863  1.00  0.00     0.031 C 
ATOM     36  C   UNL A   1      39.446  26.734  27.842  1.00  0.00     0.029 A 
ATOM     37  N   UNL A   1      41.296  26.963  29.082  1.00  0.00    -0.354 N 
ATOM     38  C   UNL A   1      41.719  30.220  31.870  1.00  0.00     0.074 A 
ATOM     39  C   UNL A   1      40.601  31.135  31.776  1.00  0.00     0.031 C 
ATOM     40  C   UNL A   1      40.239  25.678  27.590  1.00  0.00     0.029 A 
ATOM     41  C   UNL A   1      41.471  25.803  28.367  1.00  0.00     0.049 A 
ATOM     42  H   UNL A   1      41.958  27.304  29.726  1.00  0.00     0.167 HD
ATOM     43  C   UNL A   1      42.745  30.357  32.743  1.00  0.00     0.037 A 
ATOM     44  C   UNL A   1      42.513  24.950  28.338  1.00  0.00     0.037 A 
ATOM     45  C   UNL A   1      43.884  29.479  32.808  1.00  0.00     0.049 A 
ATOM     46  C   UNL A   1      43.707  25.205  29.224  1.00  0.00     0.074 A 
ATOM     47  C   UNL A   1      44.993  29.565  33.630  1.00  0.00     0.029 A 
ATOM     48  N   UNL A   1      44.064  28.361  32.009  1.00  0.00    -0.354 N 
ATOM     49  N   UNL A   1      43.889  26.140  30.125  1.00  0.00    -0.248 NA
ATOM     50  C   UNL A   1      44.841  24.278  29.089  1.00  0.00     0.031 C 
ATOM     51  C   UNL A   1      45.868  28.524  33.298  1.00  0.00     0.029 A 
ATOM     52  C   UNL A   1      45.278  27.761  32.304  1.00  0.00     0.049 A 
ATOM     53  H   UNL A   1      43.425  28.040  31.332  1.00  0.00     0.167 HD
ATOM     54  C   UNL A   1      45.134  25.888  30.691  1.00  0.00     0.074 A 
ATOM     55  C   UNL A   1      45.659  24.708  30.039  1.00  0.00     0.031 C 
ATOM     56  C   UNL A   1      45.785  26.574  31.663  1.00  0.00     0.037 A 
BRANCH  43  57
ATOM     57  C   UNL A   1      42.687  31.518  33.688  1.00  0.00     0.057 A 
ATOM     58  C   UNL A   1      43.172  32.781  33.327  1.00  0.00     0.134 A 
ATOM     59  C   UNL A   1      42.117  31.383  34.960  1.00  0.00     0.134 A 
ATOM     60  F   UNL A   1      43.746  32.973  32.128  1.00  0.00    -0.206 F 
ATOM     61  C   UNL A   1      43.107  33.866  34.203  1.00  0.00     0.040 A 
ATOM     62  C   UNL A   1      42.027  32.463  35.836  1.00  0.00     0.040 A 
ATOM     63  F   UNL A   1      41.634  30.199  35.366  1.00  0.00    -0.206 F 
ATOM     64  C   UNL A   1      42.526  33.709  35.460  1.00  0.00     0.006 A 
ENDBRANCH  43  57
BRANCH  44  65
ATOM     65  C   UNL A   1      42.506  23.775  27.428  1.00  0.00     0.057 A 
ATOM     66  C   UNL A   1      42.122  22.507  27.881  1.00  0.00     0.134 A 
ATOM     67  C   UNL A   1      42.963  23.876  26.109  1.00  0.00     0.134 A 
ATOM     68  F   UNL A   1      41.704  22.338  29.144  1.00  0.00    -0.206 F 
ATOM     69  C   UNL A   1      42.224  21.377  27.066  1.00  0.00     0.040 A 
ATOM     70  C   UNL A   1      43.044  22.761  25.275  1.00  0.00     0.040 A 
ATOM     71  F   UNL A   1      43.354  25.061  25.616  1.00  0.00    -0.206 F 
ATOM     72  C   UNL A   1      42.685  21.503  25.757  1.00  0.00     0.006 A 
ENDBRANCH  44  65
BRANCH  56  73
ATOM     73  C   UNL A   1      47.111  26.035  32.120  1.00  0.00     0.057 A 
ATOM     74  C   UNL A   1      47.230  25.211  33.246  1.00  0.00     0.134 A 
ATOM     75  C   UNL A   1      48.280  26.322  31.404  1.00  0.00     0.134 A 
ATOM     76  F   UNL A   1      46.152  24.906  33.983  1.00  0.00    -0.206 F 
ATOM     77  C   UNL A   1      48.469  24.716  33.660  1.00  0.00     0.040 A 
ATOM     78  C   UNL A   1      49.520  25.811  31.792  1.00  0.00     0.040 A 
ATOM     79  F   UNL A   1      48.237  27.096  30.309  1.00  0.00    -0.206 F 
ATOM     80  C   UNL A   1      49.617  25.012  32.929  1.00  0.00     0.006 A 
ENDBRANCH  56  73
ENDBRANCH  30  31
ENDBRANCH  23  25
ENDBRANCH  22  23
ENDBRANCH   1  22
TORSDOF 13
ENDMDL
MODEL 3
REMARK VINA RESULT:      -9.7      4.413     10.451
REMARK SMILES O=Cc1ccc2c(c1)C=C(C(=O)OCCOC(=O)c1ccc(-c3c4nc(c(-c5c(F)cccc5F)c5ccc([nH]5)c(-c5c(F)cccc5F)c5nc(c(-c6c(F)cccc6F)c6ccc3[nH]6)C=C5)C=C4)cc1)[C@H](C(F)(F)F)O2
REMARK SMILES IDX 15 1 14 2 13 3 11 4 12 5 10 6 3 7 4 8 8 9 5 10 7 11 6 12
REMARK SMILES IDX 9 13 78 14 73 15 2 16 1 17 74 18 75 19 76 20 77 21 16 22
REMARK SMILES IDX 17 23 18 24 19 25 20 26 72 27 21 28 71 29 22 30 23 31 24 32
REMARK SMILES IDX 65 33 25 34 70 35 64 36 66 37 26 38 69 39 63 40 62 41 27 43
REMARK SMILES IDX 53 44 36 45 52 46 37 47 40 48 51 49 67 50 38 51 39 52 50 54
REMARK SMILES IDX 68 55 41 56 28 57 29 58 34 59 30 60 31 61 33 62 35 63 32 64
REMARK SMILES IDX 54 65 55 66 60 67 56 68 57 69 59 70 61 71 58 72 42 73 43 74
REMARK SMILES IDX 48 75 44 76 45 77 47 78 49 79 46 80
REMARK H PARENT 66 42 40 53
REMARK Flexibility Score: inf
ROOT
ATOM      1  C   UNL A   1      43.531  22.092  25.014  1.00  0.00     0.275 C 
ENDROOT
BRANCH   1   2
ATOM      2  C   UNL A   1      42.422  21.385  25.799  1.00  0.00     0.275 C 
BRANCH   2   3
ATOM      3  O   UNL A   1      41.134  22.005  25.595  1.00  0.00    -0.459 OA
BRANCH   3   4
ATOM      4  C   UNL A   1      40.199  21.756  26.548  1.00  0.00     0.338 C 
ATOM      5  O   UNL A   1      40.423  21.263  27.640  1.00  0.00    -0.246 OA
BRANCH   4   6
ATOM      6  C   UNL A   1      38.846  22.192  26.126  1.00  0.00     0.087 C 
ATOM      7  C   UNL A   1      34.329  21.358  24.633  1.00  0.00     0.015 A 
ATOM      8  C   UNL A   1      34.055  22.727  24.701  1.00  0.00     0.015 A 
ATOM      9  C   UNL A   1      35.589  20.862  25.001  1.00  0.00     0.023 A 
ATOM     10  C   UNL A   1      35.031  23.601  25.173  1.00  0.00     0.048 A 
ATOM     11  C   UNL A   1      36.576  21.745  25.453  1.00  0.00     0.018 A 
ATOM     12  C   UNL A   1      36.279  23.107  25.551  1.00  0.00     0.128 A 
ATOM     13  C   UNL A   1      37.896  21.274  25.872  1.00  0.00     0.027 C 
ATOM     14  O   UNL A   1      37.151  24.008  26.091  1.00  0.00    -0.475 OA
ATOM     15  C   UNL A   1      38.564  23.679  25.980  1.00  0.00     0.316 C 
BRANCH   7  16
ATOM     16  C   UNL A   1      33.274  20.421  24.199  1.00  0.00     0.260 C 
ATOM     17  O   UNL A   1      32.294  20.793  23.563  1.00  0.00    -0.298 OA
ENDBRANCH   7  16
BRANCH  15  18
ATOM     18  C   UNL A   1      39.327  24.668  26.884  1.00  0.00     0.430 C 
ATOM     19  F   UNL A   1      40.375  25.237  26.244  1.00  0.00    -0.167 F 
ATOM     20  F   UNL A   1      38.518  25.703  27.239  1.00  0.00    -0.167 F 
ATOM     21  F   UNL A   1      39.762  24.103  28.030  1.00  0.00    -0.167 F 
ENDBRANCH  15  18
ENDBRANCH   4   6
ENDBRANCH   3   4
ENDBRANCH   2   3
ENDBRANCH   1   2
BRANCH   1  22
ATOM     22  O   UNL A   1      43.223  23.482  24.800  1.00  0.00    -0.458 OA
BRANCH  22  23
ATOM     23  C   UNL A   1      44.200  24.342  25.175  1.00  0.00     0.338 C 
ATOM     24  O   UNL A   1      45.281  24.502  24.631  1.00  0.00    -0.246 OA
BRANCH  23  25
ATOM     25  C   UNL A   1      43.714  25.232  26.249  1.00  0.00     0.060 A 
ATOM     26  C   UNL A   1      43.124  24.612  27.354  1.00  0.00     0.016 A 
ATOM     27  C   UNL A   1      43.810  26.625  26.194  1.00  0.00     0.016 A 
ATOM     28  C   UNL A   1      42.683  25.371  28.435  1.00  0.00     0.010 A 
ATOM     29  C   UNL A   1      43.320  27.393  27.262  1.00  0.00     0.010 A 
ATOM     30  C   UNL A   1      42.763  26.768  28.390  1.00  0.00    -0.014 A 
BRANCH  30  31
ATOM     31  C   UNL A   1      42.155  27.547  29.495  1.00  0.00     0.031 A 
ATOM     32  C   UNL A   1      42.809  27.527  30.847  1.00  0.00     0.074 A 
ATOM     33  C   UNL A   1      41.091  28.340  29.274  1.00  0.00     0.049 A 
ATOM     34  N   UNL A   1      42.501  28.197  31.928  1.00  0.00    -0.248 NA
ATOM     35  C   UNL A   1      43.981  26.649  30.992  1.00  0.00     0.031 C 
ATOM     36  C   UNL A   1      40.408  28.505  27.992  1.00  0.00     0.029 A 
ATOM     37  N   UNL A   1      40.408  29.170  30.129  1.00  0.00    -0.354 N 
ATOM     38  C   UNL A   1      43.458  27.849  32.871  1.00  0.00     0.074 A 
ATOM     39  C   UNL A   1      44.335  26.879  32.249  1.00  0.00     0.031 C 
ATOM     40  C   UNL A   1      39.399  29.379  28.147  1.00  0.00     0.029 A 
ATOM     41  C   UNL A   1      39.352  29.821  29.541  1.00  0.00     0.049 A 
ATOM     42  H   UNL A   1      40.654  29.287  31.076  1.00  0.00     0.167 HD
ATOM     43  C   UNL A   1      43.602  28.303  34.139  1.00  0.00     0.037 A 
ATOM     44  C   UNL A   1      38.449  30.666  30.072  1.00  0.00     0.037 A 
ATOM     45  C   UNL A   1      42.706  29.229  34.780  1.00  0.00     0.049 A 
ATOM     46  C   UNL A   1      38.553  31.047  31.527  1.00  0.00     0.074 A 
ATOM     47  C   UNL A   1      42.747  29.711  36.077  1.00  0.00     0.029 A 
ATOM     48  N   UNL A   1      41.599  29.803  34.175  1.00  0.00    -0.354 N 
ATOM     49  N   UNL A   1      39.470  30.727  32.407  1.00  0.00    -0.248 NA
ATOM     50  C   UNL A   1      37.491  31.914  32.062  1.00  0.00     0.031 C 
ATOM     51  C   UNL A   1      41.638  30.542  36.271  1.00  0.00     0.029 A 
ATOM     52  C   UNL A   1      40.936  30.618  35.079  1.00  0.00     0.049 A 
ATOM     53  H   UNL A   1      41.324  29.654  33.242  1.00  0.00     0.167 HD
ATOM     54  C   UNL A   1      39.121  31.385  33.582  1.00  0.00     0.074 A 
ATOM     55  C   UNL A   1      37.913  32.130  33.300  1.00  0.00     0.031 C 
ATOM     56  C   UNL A   1      39.745  31.372  34.785  1.00  0.00     0.037 A 
BRANCH  43  57
ATOM     57  C   UNL A   1      44.767  27.781  34.923  1.00  0.00     0.057 A 
ATOM     58  C   UNL A   1      45.990  28.462  34.961  1.00  0.00     0.134 A 
ATOM     59  C   UNL A   1      44.659  26.602  35.672  1.00  0.00     0.134 A 
ATOM     60  F   UNL A   1      46.163  29.588  34.251  1.00  0.00    -0.206 F 
ATOM     61  C   UNL A   1      47.070  27.980  35.702  1.00  0.00     0.040 A 
ATOM     62  C   UNL A   1      45.723  26.123  36.434  1.00  0.00     0.040 A 
ATOM     63  F   UNL A   1      43.513  25.904  35.679  1.00  0.00    -0.206 F 
ATOM     64  C   UNL A   1      46.936  26.811  36.447  1.00  0.00     0.006 A 
ENDBRANCH  43  57
BRANCH  44  65
ATOM     65  C   UNL A   1      37.340  31.210  29.243  1.00  0.00     0.057 A 
ATOM     66  C   UNL A   1      37.371  32.523  28.758  1.00  0.00     0.134 A 
ATOM     67  C   UNL A   1      36.188  30.457  28.990  1.00  0.00     0.134 A 
ATOM     68  F   UNL A   1      38.434  33.307  28.995  1.00  0.00    -0.206 F 
ATOM     69  C   UNL A   1      36.284  33.078  28.079  1.00  0.00     0.040 A 
ATOM     70  C   UNL A   1      35.105  30.989  28.288  1.00  0.00     0.040 A 
ATOM     71  F   UNL A   1      36.091  29.195  29.434  1.00  0.00    -0.206 F 
ATOM     72  C   UNL A   1      35.146  32.309  27.842  1.00  0.00     0.006 A 
ENDBRANCH  44  65
BRANCH  56  73
ATOM     73  C   UNL A   1      39.164  32.231  35.873  1.00  0.00     0.057 A 
ATOM     74  C   UNL A   1      39.542  33.568  36.046  1.00  0.00     0.134 A 
ATOM     75  C   UNL A   1      38.192  31.718  36.741  1.00  0.00     0.134 A 
ATOM     76  F   UNL A   1      40.476  34.119  35.256  1.00  0.00    -0.206 F 
ATOM     77  C   UNL A   1      38.995  34.356  37.061  1.00  0.00     0.040 A 
ATOM     78  C   UNL A   1      37.617  32.503  37.742  1.00  0.00     0.040 A 
ATOM     79  F   UNL A   1      37.775  30.448  36.626  1.00  0.00    -0.206 F 
ATOM     80  C   UNL A   1      38.026  33.824  37.909  1.00  0.00     0.006 A 
ENDBRANCH  56  73
ENDBRANCH  30  31
ENDBRANCH  23  25
ENDBRANCH  22  23
ENDBRANCH   1  22
TORSDOF 13
ENDMDL
