MODEL 1
REMARK VINA RESULT:     -11.3      0.000      0.000
REMARK SMILES CC(C)(C)c1ccc(C(=O)C[C@H](C(=O)OCCOC(=O)c2ccc(-c3c4nc(c(-c5c(F)cccc5F)c5ccc([nH]5)c(-c5c(F)cccc5F)c5nc(c(-c6c(F)cccc6F)c6ccc3[nH]6)C=C5)C=C4)cc2)[NH+]2CCCC2)cc1
REMARK SMILES IDX 16 1 15 2 13 3 14 4 12 5 11 6 9 7 10 8 8 9 5 10 6 11 81 12
REMARK SMILES IDX 7 13 80 14 2 15 1 16 3 17 4 18 75 19 76 20 79 21 77 23 78 24
REMARK SMILES IDX 17 25 18 26 19 27 20 28 21 29 22 30 74 31 23 32 73 33 24 34
REMARK SMILES IDX 25 35 26 36 67 37 27 38 72 39 66 40 68 41 28 42 71 43 65 44
REMARK SMILES IDX 64 45 29 47 55 48 38 49 54 50 39 51 42 52 53 53 69 54 40 55
REMARK SMILES IDX 41 56 52 58 70 59 43 60 30 61 31 62 36 63 32 64 33 65 35 66
REMARK SMILES IDX 37 67 34 68 56 69 57 70 62 71 58 72 59 73 61 74 63 75 60 76
REMARK SMILES IDX 44 77 45 78 50 79 46 80 47 81 49 82 51 83 48 84
REMARK H PARENT 75 22 68 46 42 57
REMARK Flexibility Score: inf
ROOT
ATOM      1  C   UNL A   1      35.402  20.392  24.970  1.00  0.00     0.274 C 
ENDROOT
BRANCH   1   2
ATOM      2  O   UNL A   1      34.384  19.424  24.634  1.00  0.00    -0.458 OA
BRANCH   2   3
ATOM      3  C   UNL A   1      33.142  19.886  24.344  1.00  0.00     0.365 C 
ATOM      4  O   UNL A   1      32.235  19.166  23.931  1.00  0.00    -0.245 OA
BRANCH   3   5
ATOM      5  C   UNL A   1      32.930  21.402  24.594  1.00  0.00     0.302 C 
BRANCH   5   6
ATOM      6  C   UNL A   1      32.481  22.051  23.264  1.00  0.00     0.158 C 
BRANCH   6   7
ATOM      7  C   UNL A   1      33.206  23.269  22.727  1.00  0.00     0.169 C 
ATOM      8  O   UNL A   1      33.775  23.240  21.636  1.00  0.00    -0.294 OA
BRANCH   7   9
ATOM      9  C   UNL A   1      33.144  24.558  23.483  1.00  0.00     0.018 A 
ATOM     10  C   UNL A   1      32.913  26.873  25.121  1.00  0.00    -0.043 A 
ATOM     11  C   UNL A   1      34.046  26.042  25.184  1.00  0.00     0.005 A 
ATOM     12  C   UNL A   1      31.927  26.533  24.185  1.00  0.00     0.005 A 
ATOM     13  C   UNL A   1      34.157  24.894  24.381  1.00  0.00     0.012 A 
ATOM     14  C   UNL A   1      32.060  25.417  23.359  1.00  0.00     0.012 A 
BRANCH  10  15
ATOM     15  C   UNL A   1      32.683  28.055  26.078  1.00  0.00    -0.013 C 
ATOM     16  C   UNL A   1      31.521  27.673  27.017  1.00  0.00     0.016 C 
ATOM     17  C   UNL A   1      32.304  29.348  25.314  1.00  0.00     0.016 C 
ATOM     18  C   UNL A   1      33.912  28.398  26.942  1.00  0.00     0.016 C 
ENDBRANCH  10  15
ENDBRANCH   7   9
ENDBRANCH   6   7
ENDBRANCH   5   6
BRANCH   5  19
ATOM     19  N   UNL A   1      32.235  21.783  25.846  1.00  0.00    -0.323 N 
ATOM     20  C   UNL A   1      30.839  22.196  25.657  1.00  0.00     0.263 C 
ATOM     21  C   UNL A   1      32.866  22.708  26.785  1.00  0.00     0.263 C 
ATOM     22  H   UNL A   1      32.303  20.874  26.304  1.00  0.00     0.348 HD
ATOM     23  C   UNL A   1      30.750  23.631  26.138  1.00  0.00     0.067 C 
ATOM     24  C   UNL A   1      31.797  23.701  27.224  1.00  0.00     0.067 C 
ENDBRANCH   5  19
ENDBRANCH   3   5
ENDBRANCH   2   3
ENDBRANCH   1   2
BRANCH   1  25
ATOM     25  C   UNL A   1      36.785  19.745  24.929  1.00  0.00     0.275 C 
BRANCH  25  26
ATOM     26  O   UNL A   1      37.778  20.782  24.994  1.00  0.00    -0.458 OA
BRANCH  26  27
ATOM     27  C   UNL A   1      38.942  20.467  25.600  1.00  0.00     0.338 C 
ATOM     28  O   UNL A   1      39.465  19.358  25.643  1.00  0.00    -0.246 OA
BRANCH  27  29
ATOM     29  C   UNL A   1      39.579  21.689  26.148  1.00  0.00     0.060 A 
ATOM     30  C   UNL A   1      38.915  22.921  26.116  1.00  0.00     0.016 A 
ATOM     31  C   UNL A   1      40.906  21.638  26.581  1.00  0.00     0.016 A 
ATOM     32  C   UNL A   1      39.599  24.097  26.429  1.00  0.00     0.010 A 
ATOM     33  C   UNL A   1      41.556  22.807  26.994  1.00  0.00     0.010 A 
ATOM     34  C   UNL A   1      40.915  24.054  26.909  1.00  0.00    -0.014 A 
BRANCH  34  35
ATOM     35  C   UNL A   1      41.597  25.292  27.384  1.00  0.00     0.031 A 
ATOM     36  C   UNL A   1      40.878  26.310  28.229  1.00  0.00     0.074 A 
ATOM     37  C   UNL A   1      42.871  25.532  27.017  1.00  0.00     0.049 A 
ATOM     38  N   UNL A   1      41.241  27.527  28.550  1.00  0.00    -0.248 NA
ATOM     39  C   UNL A   1      39.579  25.907  28.781  1.00  0.00     0.031 C 
ATOM     40  C   UNL A   1      43.712  24.632  26.227  1.00  0.00     0.029 A 
ATOM     41  N   UNL A   1      43.678  26.619  27.248  1.00  0.00    -0.354 N 
ATOM     42  C   UNL A   1      40.203  28.046  29.315  1.00  0.00     0.074 A 
ATOM     43  C   UNL A   1      39.195  27.012  29.406  1.00  0.00     0.031 C 
ATOM     44  C   UNL A   1      44.917  25.191  26.054  1.00  0.00     0.029 A 
ATOM     45  C   UNL A   1      44.903  26.527  26.636  1.00  0.00     0.049 A 
ATOM     46  H   UNL A   1      43.405  27.388  27.799  1.00  0.00     0.167 HD
ATOM     47  C   UNL A   1      40.098  29.270  29.887  1.00  0.00     0.037 A 
ATOM     48  C   UNL A   1      45.889  27.430  26.495  1.00  0.00     0.037 A 
ATOM     49  C   UNL A   1      41.108  30.295  29.817  1.00  0.00     0.049 A 
ATOM     50  C   UNL A   1      45.724  28.805  27.062  1.00  0.00     0.074 A 
ATOM     51  C   UNL A   1      41.094  31.562  30.376  1.00  0.00     0.029 A 
ATOM     52  N   UNL A   1      42.314  30.169  29.146  1.00  0.00    -0.354 N 
ATOM     53  N   UNL A   1      44.717  29.300  27.739  1.00  0.00    -0.248 NA
ATOM     54  C   UNL A   1      46.819  29.754  26.825  1.00  0.00     0.031 C 
ATOM     55  C   UNL A   1      42.278  32.216  30.011  1.00  0.00     0.029 A 
ATOM     56  C   UNL A   1      43.042  31.343  29.256  1.00  0.00     0.049 A 
ATOM     57  H   UNL A   1      42.609  29.364  28.663  1.00  0.00     0.167 HD
ATOM     58  C   UNL A   1      45.056  30.618  28.011  1.00  0.00     0.074 A 
ATOM     59  C   UNL A   1      46.370  30.839  27.441  1.00  0.00     0.031 C 
ATOM     60  C   UNL A   1      44.340  31.558  28.670  1.00  0.00     0.037 A 
BRANCH  47  61
ATOM     61  C   UNL A   1      38.826  29.587  30.619  1.00  0.00     0.057 A 
ATOM     62  C   UNL A   1      38.664  29.308  31.982  1.00  0.00     0.134 A 
ATOM     63  C   UNL A   1      37.768  30.227  29.961  1.00  0.00     0.134 A 
ATOM     64  F   UNL A   1      39.634  28.685  32.668  1.00  0.00    -0.206 F 
ATOM     65  C   UNL A   1      37.489  29.640  32.659  1.00  0.00     0.040 A 
ATOM     66  C   UNL A   1      36.597  30.583  30.632  1.00  0.00     0.040 A 
ATOM     67  F   UNL A   1      37.860  30.529  28.656  1.00  0.00    -0.206 F 
ATOM     68  C   UNL A   1      36.454  30.286  31.985  1.00  0.00     0.006 A 
ENDBRANCH  47  61
BRANCH  48  69
ATOM     69  C   UNL A   1      47.097  27.060  25.719  1.00  0.00     0.057 A 
ATOM     70  C   UNL A   1      47.223  27.405  24.372  1.00  0.00     0.134 A 
ATOM     71  C   UNL A   1      48.178  26.407  26.328  1.00  0.00     0.134 A 
ATOM     72  F   UNL A   1      46.214  28.014  23.733  1.00  0.00    -0.206 F 
ATOM     73  C   UNL A   1      48.387  27.122  23.654  1.00  0.00     0.040 A 
ATOM     74  C   UNL A   1      49.355  26.140  25.630  1.00  0.00     0.040 A 
ATOM     75  F   UNL A   1      48.115  26.057  27.621  1.00  0.00    -0.206 F 
ATOM     76  C   UNL A   1      49.461  26.498  24.289  1.00  0.00     0.006 A 
ENDBRANCH  48  69
BRANCH  60  77
ATOM     77  C   UNL A   1      44.968  32.910  28.816  1.00  0.00     0.057 A 
ATOM     78  C   UNL A   1      44.726  33.934  27.891  1.00  0.00     0.134 A 
ATOM     79  C   UNL A   1      45.815  33.195  29.893  1.00  0.00     0.134 A 
ATOM     80  F   UNL A   1      43.937  33.716  26.829  1.00  0.00    -0.206 F 
ATOM     81  C   UNL A   1      45.321  35.189  28.023  1.00  0.00     0.040 A 
ATOM     82  C   UNL A   1      46.401  34.452  30.047  1.00  0.00     0.040 A 
ATOM     83  F   UNL A   1      46.083  32.258  30.815  1.00  0.00    -0.206 F 
ATOM     84  C   UNL A   1      46.158  35.452  29.106  1.00  0.00     0.006 A 
ENDBRANCH  60  77
ENDBRANCH  34  35
ENDBRANCH  27  29
ENDBRANCH  26  27
ENDBRANCH  25  26
ENDBRANCH   1  25
TORSDOF 16
ENDMDL
MODEL 2
REMARK VINA RESULT:     -11.2      4.002      9.007
REMARK SMILES CC(C)(C)c1ccc(C(=O)C[C@H](C(=O)OCCOC(=O)c2ccc(-c3c4nc(c(-c5c(F)cccc5F)c5ccc([nH]5)c(-c5c(F)cccc5F)c5nc(c(-c6c(F)cccc6F)c6ccc3[nH]6)C=C5)C=C4)cc2)[NH+]2CCCC2)cc1
REMARK SMILES IDX 16 1 15 2 13 3 14 4 12 5 11 6 9 7 10 8 8 9 5 10 6 11 81 12
REMARK SMILES IDX 7 13 80 14 2 15 1 16 3 17 4 18 75 19 76 20 79 21 77 23 78 24
REMARK SMILES IDX 17 25 18 26 19 27 20 28 21 29 22 30 74 31 23 32 73 33 24 34
REMARK SMILES IDX 25 35 26 36 67 37 27 38 72 39 66 40 68 41 28 42 71 43 65 44
REMARK SMILES IDX 64 45 29 47 55 48 38 49 54 50 39 51 42 52 53 53 69 54 40 55
REMARK SMILES IDX 41 56 52 58 70 59 43 60 30 61 31 62 36 63 32 64 33 65 35 66
REMARK SMILES IDX 37 67 34 68 56 69 57 70 62 71 58 72 59 73 61 74 63 75 60 76
REMARK SMILES IDX 44 77 45 78 50 79 46 80 47 81 49 82 51 83 48 84
REMARK H PARENT 75 22 68 46 42 57
REMARK Flexibility Score: inf
ROOT
ATOM      1  C   UNL A   1      30.805  30.210  24.594  1.00  0.00     0.274 C 
ENDROOT
BRANCH   1   2
ATOM      2  O   UNL A   1      30.651  29.016  23.796  1.00  0.00    -0.458 OA
BRANCH   2   3
ATOM      3  C   UNL A   1      31.761  28.498  23.211  1.00  0.00     0.365 C 
ATOM      4  O   UNL A   1      32.533  29.162  22.523  1.00  0.00    -0.245 OA
BRANCH   3   5
ATOM      5  C   UNL A   1      32.008  26.992  23.492  1.00  0.00     0.302 C 
BRANCH   5   6
ATOM      6  C   UNL A   1      33.277  26.561  22.722  1.00  0.00     0.158 C 
BRANCH   6   7
ATOM      7  C   UNL A   1      33.278  25.284  21.904  1.00  0.00     0.169 C 
ATOM      8  O   UNL A   1      33.178  25.315  20.678  1.00  0.00    -0.294 OA
BRANCH   7   9
ATOM      9  C   UNL A   1      33.504  23.973  22.586  1.00  0.00     0.018 A 
ATOM     10  C   UNL A   1      33.844  21.591  24.105  1.00  0.00    -0.043 A 
ATOM     11  C   UNL A   1      32.631  21.876  23.453  1.00  0.00     0.005 A 
ATOM     12  C   UNL A   1      34.888  22.510  23.936  1.00  0.00     0.005 A 
ATOM     13  C   UNL A   1      32.460  23.056  22.708  1.00  0.00     0.012 A 
ATOM     14  C   UNL A   1      34.729  23.659  23.161  1.00  0.00     0.012 A 
BRANCH  10  15
ATOM     15  C   UNL A   1      34.030  20.388  25.045  1.00  0.00    -0.013 C 
ATOM     16  C   UNL A   1      35.519  19.990  25.000  1.00  0.00     0.016 C 
ATOM     17  C   UNL A   1      33.175  19.175  24.603  1.00  0.00     0.016 C 
ATOM     18  C   UNL A   1      33.652  20.684  26.509  1.00  0.00     0.016 C 
ENDBRANCH  10  15
ENDBRANCH   7   9
ENDBRANCH   6   7
ENDBRANCH   5   6
BRANCH   5  19
ATOM     19  N   UNL A   1      31.830  26.535  24.890  1.00  0.00    -0.323 N 
ATOM     20  C   UNL A   1      33.058  26.567  25.694  1.00  0.00     0.263 C 
ATOM     21  C   UNL A   1      31.130  25.283  25.170  1.00  0.00     0.263 C 
ATOM     22  H   UNL A   1      31.172  27.260  25.173  1.00  0.00     0.348 HD
ATOM     23  C   UNL A   1      33.324  25.139  26.126  1.00  0.00     0.067 C 
ATOM     24  C   UNL A   1      31.940  24.541  26.225  1.00  0.00     0.067 C 
ENDBRANCH   5  19
ENDBRANCH   3   5
ENDBRANCH   2   3
ENDBRANCH   1   2
BRANCH   1  25
ATOM     25  C   UNL A   1      31.436  29.870  25.943  1.00  0.00     0.275 C 
BRANCH  25  26
ATOM     26  O   UNL A   1      32.752  30.444  25.992  1.00  0.00    -0.458 OA
BRANCH  26  27
ATOM     27  C   UNL A   1      32.940  31.454  26.867  1.00  0.00     0.338 C 
ATOM     28  O   UNL A   1      32.191  32.409  27.050  1.00  0.00    -0.246 OA
BRANCH  27  29
ATOM     29  C   UNL A   1      34.160  31.210  27.674  1.00  0.00     0.060 A 
ATOM     30  C   UNL A   1      35.026  32.259  28.001  1.00  0.00     0.016 A 
ATOM     31  C   UNL A   1      34.518  29.900  28.000  1.00  0.00     0.016 A 
ATOM     32  C   UNL A   1      36.274  31.991  28.566  1.00  0.00     0.010 A 
ATOM     33  C   UNL A   1      35.725  29.645  28.662  1.00  0.00     0.010 A 
ATOM     34  C   UNL A   1      36.625  30.686  28.941  1.00  0.00    -0.014 A 
BRANCH  34  35
ATOM     35  C   UNL A   1      37.893  30.418  29.678  1.00  0.00     0.031 A 
ATOM     36  C   UNL A   1      38.973  29.547  29.094  1.00  0.00     0.074 A 
ATOM     37  C   UNL A   1      38.064  30.930  30.914  1.00  0.00     0.049 A 
ATOM     38  N   UNL A   1      40.034  29.040  29.672  1.00  0.00    -0.248 NA
ATOM     39  C   UNL A   1      38.840  29.197  27.675  1.00  0.00     0.031 C 
ATOM     40  C   UNL A   1      37.126  31.815  31.605  1.00  0.00     0.029 A 
ATOM     41  N   UNL A   1      39.086  30.763  31.816  1.00  0.00    -0.354 N 
ATOM     42  C   UNL A   1      40.677  28.288  28.697  1.00  0.00     0.074 A 
ATOM     43  C   UNL A   1      39.885  28.402  27.492  1.00  0.00     0.031 C 
ATOM     44  C   UNL A   1      37.619  32.128  32.810  1.00  0.00     0.029 A 
ATOM     45  C   UNL A   1      38.860  31.389  33.016  1.00  0.00     0.049 A 
ATOM     46  H   UNL A   1      39.900  30.245  31.621  1.00  0.00     0.167 HD
ATOM     47  C   UNL A   1      41.820  27.567  28.796  1.00  0.00     0.037 A 
ATOM     48  C   UNL A   1      39.530  31.336  34.180  1.00  0.00     0.037 A 
ATOM     49  C   UNL A   1      42.624  27.467  29.988  1.00  0.00     0.049 A 
ATOM     50  C   UNL A   1      40.745  30.470  34.297  1.00  0.00     0.074 A 
ATOM     51  C   UNL A   1      43.805  26.770  30.179  1.00  0.00     0.029 A 
ATOM     52  N   UNL A   1      42.328  28.086  31.192  1.00  0.00    -0.354 N 
ATOM     53  N   UNL A   1      41.315  29.723  33.384  1.00  0.00    -0.248 NA
ATOM     54  C   UNL A   1      41.397  30.420  35.612  1.00  0.00     0.031 C 
ATOM     55  C   UNL A   1      44.203  26.937  31.511  1.00  0.00     0.029 A 
ATOM     56  C   UNL A   1      43.290  27.767  32.138  1.00  0.00     0.049 A 
ATOM     57  H   UNL A   1      41.549  28.666  31.352  1.00  0.00     0.167 HD
ATOM     58  C   UNL A   1      42.393  29.114  34.011  1.00  0.00     0.074 A 
ATOM     59  C   UNL A   1      42.407  29.594  35.379  1.00  0.00     0.031 C 
ATOM     60  C   UNL A   1      43.285  28.235  33.499  1.00  0.00     0.037 A 
BRANCH  47  61
ATOM     61  C   UNL A   1      42.262  26.795  27.586  1.00  0.00     0.057 A 
ATOM     62  C   UNL A   1      43.070  27.366  26.595  1.00  0.00     0.134 A 
ATOM     63  C   UNL A   1      41.913  25.446  27.438  1.00  0.00     0.134 A 
ATOM     64  F   UNL A   1      43.428  28.657  26.671  1.00  0.00    -0.206 F 
ATOM     65  C   UNL A   1      43.502  26.627  25.492  1.00  0.00     0.040 A 
ATOM     66  C   UNL A   1      42.356  24.692  26.351  1.00  0.00     0.040 A 
ATOM     67  F   UNL A   1      41.146  24.836  28.355  1.00  0.00    -0.206 F 
ATOM     68  C   UNL A   1      43.151  25.283  25.372  1.00  0.00     0.006 A 
ENDBRANCH  47  61
BRANCH  48  69
ATOM     69  C   UNL A   1      39.009  32.089  35.345  1.00  0.00     0.057 A 
ATOM     70  C   UNL A   1      38.209  31.467  36.307  1.00  0.00     0.134 A 
ATOM     71  C   UNL A   1      39.351  33.432  35.553  1.00  0.00     0.134 A 
ATOM     72  F   UNL A   1      37.834  30.189  36.150  1.00  0.00    -0.206 F 
ATOM     73  C   UNL A   1      37.773  32.151  37.443  1.00  0.00     0.040 A 
ATOM     74  C   UNL A   1      38.943  34.121  36.694  1.00  0.00     0.040 A 
ATOM     75  F   UNL A   1      40.122  34.078  34.666  1.00  0.00    -0.206 F 
ATOM     76  C   UNL A   1      38.151  33.479  37.643  1.00  0.00     0.006 A 
ENDBRANCH  48  69
BRANCH  60  77
ATOM     77  C   UNL A   1      44.357  27.742  34.423  1.00  0.00     0.057 A 
ATOM     78  C   UNL A   1      45.559  28.443  34.589  1.00  0.00     0.134 A 
ATOM     79  C   UNL A   1      44.184  26.563  35.157  1.00  0.00     0.134 A 
ATOM     80  F   UNL A   1      45.789  29.570  33.900  1.00  0.00    -0.206 F 
ATOM     81  C   UNL A   1      46.560  27.977  35.442  1.00  0.00     0.040 A 
ATOM     82  C   UNL A   1      45.170  26.097  36.027  1.00  0.00     0.040 A 
ATOM     83  F   UNL A   1      43.055  25.850  35.044  1.00  0.00    -0.206 F 
ATOM     84  C   UNL A   1      46.365  26.802  36.167  1.00  0.00     0.006 A 
ENDBRANCH  60  77
ENDBRANCH  34  35
ENDBRANCH  27  29
ENDBRANCH  26  27
ENDBRANCH  25  26
ENDBRANCH   1  25
TORSDOF 16
ENDMDL
MODEL 3
REMARK VINA RESULT:     -11.2      4.181      8.655
REMARK SMILES CC(C)(C)c1ccc(C(=O)C[C@H](C(=O)OCCOC(=O)c2ccc(-c3c4nc(c(-c5c(F)cccc5F)c5ccc([nH]5)c(-c5c(F)cccc5F)c5nc(c(-c6c(F)cccc6F)c6ccc3[nH]6)C=C5)C=C4)cc2)[NH+]2CCCC2)cc1
REMARK SMILES IDX 16 1 15 2 13 3 14 4 12 5 11 6 9 7 10 8 8 9 5 10 6 11 81 12
REMARK SMILES IDX 7 13 80 14 2 15 1 16 3 17 4 18 75 19 76 20 79 21 77 23 78 24
REMARK SMILES IDX 17 25 18 26 19 27 20 28 21 29 22 30 74 31 23 32 73 33 24 34
REMARK SMILES IDX 25 35 26 36 67 37 27 38 72 39 66 40 68 41 28 42 71 43 65 44
REMARK SMILES IDX 64 45 29 47 55 48 38 49 54 50 39 51 42 52 53 53 69 54 40 55
REMARK SMILES IDX 41 56 52 58 70 59 43 60 30 61 31 62 36 63 32 64 33 65 35 66
REMARK SMILES IDX 37 67 34 68 56 69 57 70 62 71 58 72 59 73 61 74 63 75 60 76
REMARK SMILES IDX 44 77 45 78 50 79 46 80 47 81 49 82 51 83 48 84
REMARK H PARENT 75 22 68 46 42 57
REMARK Flexibility Score: inf
ROOT
ATOM      1  C   UNL A   1      31.411  28.388  26.257  1.00  0.00     0.274 C 
ENDROOT
BRANCH   1   2
ATOM      2  O   UNL A   1      32.529  27.485  26.117  1.00  0.00    -0.458 OA
BRANCH   2   3
ATOM      3  C   UNL A   1      32.272  26.153  26.129  1.00  0.00     0.365 C 
ATOM      4  O   UNL A   1      31.433  25.635  26.863  1.00  0.00    -0.245 OA
BRANCH   3   5
ATOM      5  C   UNL A   1      33.103  25.315  25.121  1.00  0.00     0.302 C 
BRANCH   5   6
ATOM      6  C   UNL A   1      33.771  26.288  24.122  1.00  0.00     0.158 C 
BRANCH   6   7
ATOM      7  C   UNL A   1      33.179  26.488  22.741  1.00  0.00     0.169 C 
ATOM      8  O   UNL A   1      33.646  25.909  21.760  1.00  0.00    -0.294 OA
BRANCH   7   9
ATOM      9  C   UNL A   1      31.947  27.320  22.579  1.00  0.00     0.018 A 
ATOM     10  C   UNL A   1      29.651  28.999  22.515  1.00  0.00    -0.043 A 
ATOM     11  C   UNL A   1      30.906  29.459  22.078  1.00  0.00     0.005 A 
ATOM     12  C   UNL A   1      29.575  27.665  22.940  1.00  0.00     0.005 A 
ATOM     13  C   UNL A   1      32.042  28.633  22.117  1.00  0.00     0.012 A 
ATOM     14  C   UNL A   1      30.696  26.835  22.937  1.00  0.00     0.012 A 
BRANCH  10  15
ATOM     15  C   UNL A   1      28.414  29.907  22.626  1.00  0.00    -0.013 C 
ATOM     16  C   UNL A   1      27.244  29.039  23.132  1.00  0.00     0.016 C 
ATOM     17  C   UNL A   1      28.027  30.521  21.258  1.00  0.00     0.016 C 
ATOM     18  C   UNL A   1      28.600  31.086  23.601  1.00  0.00     0.016 C 
ENDBRANCH  10  15
ENDBRANCH   7   9
ENDBRANCH   6   7
ENDBRANCH   5   6
BRANCH   5  19
ATOM     19  N   UNL A   1      33.905  24.201  25.679  1.00  0.00    -0.323 N 
ATOM     20  C   UNL A   1      35.255  24.089  25.113  1.00  0.00     0.263 C 
ATOM     21  C   UNL A   1      33.333  22.859  25.774  1.00  0.00     0.263 C 
ATOM     22  H   UNL A   1      33.923  24.535  26.643  1.00  0.00     0.348 HD
ATOM     23  C   UNL A   1      35.330  22.727  24.453  1.00  0.00     0.067 C 
ATOM     24  C   UNL A   1      34.396  21.882  25.289  1.00  0.00     0.067 C 
ENDBRANCH   5  19
ENDBRANCH   3   5
ENDBRANCH   2   3
ENDBRANCH   1   2
BRANCH   1  25
ATOM     25  C   UNL A   1      31.715  29.721  25.574  1.00  0.00     0.275 C 
BRANCH  25  26
ATOM     26  O   UNL A   1      33.059  30.108  25.903  1.00  0.00    -0.458 OA
BRANCH  26  27
ATOM     27  C   UNL A   1      33.198  31.097  26.811  1.00  0.00     0.338 C 
ATOM     28  O   UNL A   1      32.412  32.018  27.013  1.00  0.00    -0.246 OA
BRANCH  27  29
ATOM     29  C   UNL A   1      34.417  30.874  27.625  1.00  0.00     0.060 A 
ATOM     30  C   UNL A   1      35.301  31.923  27.899  1.00  0.00     0.016 A 
ATOM     31  C   UNL A   1      34.756  29.575  28.014  1.00  0.00     0.016 A 
ATOM     32  C   UNL A   1      36.546  31.663  28.473  1.00  0.00     0.010 A 
ATOM     33  C   UNL A   1      35.961  29.334  28.684  1.00  0.00     0.010 A 
ATOM     34  C   UNL A   1      36.878  30.373  28.909  1.00  0.00    -0.014 A 
BRANCH  34  35
ATOM     35  C   UNL A   1      38.144  30.121  29.656  1.00  0.00     0.031 A 
ATOM     36  C   UNL A   1      39.222  29.231  29.097  1.00  0.00     0.074 A 
ATOM     37  C   UNL A   1      38.316  30.666  30.877  1.00  0.00     0.049 A 
ATOM     38  N   UNL A   1      40.281  28.737  29.690  1.00  0.00    -0.248 NA
ATOM     39  C   UNL A   1      39.090  28.842  27.688  1.00  0.00     0.031 C 
ATOM     40  C   UNL A   1      37.380  31.574  31.542  1.00  0.00     0.029 A 
ATOM     41  N   UNL A   1      39.337  30.521  31.784  1.00  0.00    -0.354 N 
ATOM     42  C   UNL A   1      40.923  27.956  28.736  1.00  0.00     0.074 A 
ATOM     43  C   UNL A   1      40.132  28.039  27.528  1.00  0.00     0.031 C 
ATOM     44  C   UNL A   1      37.873  31.918  32.738  1.00  0.00     0.029 A 
ATOM     45  C   UNL A   1      39.111  31.181  32.966  1.00  0.00     0.049 A 
ATOM     46  H   UNL A   1      40.149  29.995  31.605  1.00  0.00     0.167 HD
ATOM     47  C   UNL A   1      42.064  27.234  28.857  1.00  0.00     0.037 A 
ATOM     48  C   UNL A   1      39.780  31.158  34.132  1.00  0.00     0.037 A 
ATOM     49  C   UNL A   1      42.865  27.165  30.053  1.00  0.00     0.049 A 
ATOM     50  C   UNL A   1      40.992  30.292  34.275  1.00  0.00     0.074 A 
ATOM     51  C   UNL A   1      44.045  26.470  30.263  1.00  0.00     0.029 A 
ATOM     52  N   UNL A   1      42.570  27.817  31.239  1.00  0.00    -0.354 N 
ATOM     53  N   UNL A   1      41.560  29.518  33.383  1.00  0.00    -0.248 NA
ATOM     54  C   UNL A   1      41.642  30.276  35.592  1.00  0.00     0.031 C 
ATOM     55  C   UNL A   1      44.442  26.672  31.591  1.00  0.00     0.029 A 
ATOM     56  C   UNL A   1      43.530  27.522  32.194  1.00  0.00     0.049 A 
ATOM     57  H   UNL A   1      41.793  28.404  31.382  1.00  0.00     0.167 HD
ATOM     58  C   UNL A   1      42.635  28.923  34.028  1.00  0.00     0.074 A 
ATOM     59  C   UNL A   1      42.650  29.440  35.382  1.00  0.00     0.031 C 
ATOM     60  C   UNL A   1      43.525  28.027  33.542  1.00  0.00     0.037 A 
BRANCH  47  61
ATOM     61  C   UNL A   1      42.504  26.428  27.670  1.00  0.00     0.057 A 
ATOM     62  C   UNL A   1      42.102  25.099  27.484  1.00  0.00     0.134 A 
ATOM     63  C   UNL A   1      43.301  27.007  26.674  1.00  0.00     0.134 A 
ATOM     64  F   UNL A   1      41.349  24.482  28.407  1.00  0.00    -0.206 F 
ATOM     65  C   UNL A   1      42.490  24.371  26.358  1.00  0.00     0.040 A 
ATOM     66  C   UNL A   1      43.678  26.296  25.533  1.00  0.00     0.040 A 
ATOM     67  F   UNL A   1      43.716  28.278  26.787  1.00  0.00    -0.206 F 
ATOM     68  C   UNL A   1      43.275  24.972  25.375  1.00  0.00     0.006 A 
ENDBRANCH  47  61
BRANCH  48  69
ATOM     69  C   UNL A   1      39.260  31.945  35.276  1.00  0.00     0.057 A 
ATOM     70  C   UNL A   1      39.576  33.297  35.424  1.00  0.00     0.134 A 
ATOM     71  C   UNL A   1      38.385  31.375  36.210  1.00  0.00     0.134 A 
ATOM     72  F   UNL A   1      40.423  33.890  34.570  1.00  0.00    -0.206 F 
ATOM     73  C   UNL A   1      39.034  34.061  36.458  1.00  0.00     0.040 A 
ATOM     74  C   UNL A   1      37.817  32.131  37.234  1.00  0.00     0.040 A 
ATOM     75  F   UNL A   1      38.041  30.082  36.113  1.00  0.00    -0.206 F 
ATOM     76  C   UNL A   1      38.142  33.480  37.360  1.00  0.00     0.006 A 
ENDBRANCH  48  69
BRANCH  60  77
ATOM     77  C   UNL A   1      44.595  27.556  34.480  1.00  0.00     0.057 A 
ATOM     78  C   UNL A   1      45.806  28.248  34.614  1.00  0.00     0.134 A 
ATOM     79  C   UNL A   1      44.410  26.410  35.260  1.00  0.00     0.134 A 
ATOM     80  F   UNL A   1      46.048  29.343  33.880  1.00  0.00    -0.206 F 
ATOM     81  C   UNL A   1      46.805  27.801  35.481  1.00  0.00     0.040 A 
ATOM     82  C   UNL A   1      45.393  25.965  36.144  1.00  0.00     0.040 A 
ATOM     83  F   UNL A   1      43.270  25.708  35.179  1.00  0.00    -0.206 F 
ATOM     84  C   UNL A   1      46.598  26.659  36.252  1.00  0.00     0.006 A 
ENDBRANCH  60  77
ENDBRANCH  34  35
ENDBRANCH  27  29
ENDBRANCH  26  27
ENDBRANCH  25  26
ENDBRANCH   1  25
TORSDOF 16
ENDMDL
