MODEL 1
REMARK VINA RESULT:     -10.2      0.000      0.000
REMARK SMILES CC(C)Cc1ccc([C@H](C)C(=O)OCCOC(=O)c2ccc(-c3c4nc(c(-c5c(F)cccc5F)c5ccc([nH]5)c(-c5c(F)cccc5F)c5nc(c(-c6c(F)cccc6F)c6ccc3[nH]6)C=C5)C=C4)cc2)cc1
REMARK SMILES IDX 14 1 13 2 11 3 12 4 9 5 10 6 8 7 5 8 6 9 74 10 7 11 73 12
REMARK SMILES IDX 4 13 2 14 1 15 3 16 15 17 16 18 17 19 18 20 19 21 20 22
REMARK SMILES IDX 72 23 21 24 71 25 22 26 23 27 24 28 65 29 25 30 70 31 64 32
REMARK SMILES IDX 66 33 26 34 69 35 63 36 62 37 27 39 53 40 36 41 52 42 37 43
REMARK SMILES IDX 40 44 51 45 67 46 38 47 39 48 50 50 68 51 41 52 28 53 29 54
REMARK SMILES IDX 34 55 30 56 31 57 33 58 35 59 32 60 54 61 55 62 60 63 56 64
REMARK SMILES IDX 57 65 59 66 61 67 58 68 42 69 43 70 48 71 44 72 45 73 47 74
REMARK SMILES IDX 49 75 46 76
REMARK H PARENT 66 38 40 49
REMARK Flexibility Score: inf
ROOT
ATOM      1  C   UNL A   1      42.322  19.268  26.810  1.00  0.00     0.274 C 
ENDROOT
BRANCH   1   2
ATOM      2  O   UNL A   1      41.255  19.893  26.072  1.00  0.00    -0.462 OA
BRANCH   2   3
ATOM      3  C   UNL A   1      41.235  21.253  26.079  1.00  0.00     0.313 C 
ATOM      4  O   UNL A   1      41.986  21.951  25.405  1.00  0.00    -0.252 OA
BRANCH   3   5
ATOM      5  C   UNL A   1      40.128  21.827  26.966  1.00  0.00     0.126 C 
ATOM      6  C   UNL A   1      40.597  22.884  27.965  1.00  0.00     0.025 C 
BRANCH   5   7
ATOM      7  C   UNL A   1      38.901  22.296  26.194  1.00  0.00    -0.034 A 
ATOM      8  C   UNL A   1      36.567  23.220  24.894  1.00  0.00    -0.048 A 
ATOM      9  C   UNL A   1      37.307  24.073  25.719  1.00  0.00     0.004 A 
ATOM     10  C   UNL A   1      37.024  21.915  24.690  1.00  0.00     0.004 A 
ATOM     11  C   UNL A   1      38.452  23.614  26.371  1.00  0.00     0.005 A 
ATOM     12  C   UNL A   1      38.189  21.463  25.320  1.00  0.00     0.005 A 
BRANCH   8  13
ATOM     13  C   UNL A   1      35.277  23.694  24.267  1.00  0.00     0.038 C 
BRANCH  13  14
ATOM     14  C   UNL A   1      34.570  24.811  25.065  1.00  0.00    -0.013 C 
ATOM     15  C   UNL A   1      33.731  25.737  24.180  1.00  0.00     0.008 C 
ATOM     16  C   UNL A   1      33.669  24.186  26.135  1.00  0.00     0.008 C 
ENDBRANCH  13  14
ENDBRANCH   8  13
ENDBRANCH   5   7
ENDBRANCH   3   5
ENDBRANCH   2   3
ENDBRANCH   1   2
BRANCH   1  17
ATOM     17  C   UNL A   1      43.273  18.514  25.876  1.00  0.00     0.275 C 
BRANCH  17  18
ATOM     18  O   UNL A   1      43.452  19.188  24.616  1.00  0.00    -0.458 OA
BRANCH  18  19
ATOM     19  C   UNL A   1      44.736  19.435  24.268  1.00  0.00     0.338 C 
ATOM     20  O   UNL A   1      45.525  18.674  23.737  1.00  0.00    -0.246 OA
BRANCH  19  21
ATOM     21  C   UNL A   1      45.065  20.836  24.561  1.00  0.00     0.060 A 
ATOM     22  C   UNL A   1      45.485  21.178  25.851  1.00  0.00     0.016 A 
ATOM     23  C   UNL A   1      44.844  21.818  23.597  1.00  0.00     0.016 A 
ATOM     24  C   UNL A   1      45.660  22.517  26.193  1.00  0.00     0.010 A 
ATOM     25  C   UNL A   1      45.035  23.157  23.935  1.00  0.00     0.010 A 
ATOM     26  C   UNL A   1      45.425  23.515  25.238  1.00  0.00    -0.014 A 
BRANCH  26  27
ATOM     27  C   UNL A   1      45.530  24.948  25.592  1.00  0.00     0.031 A 
ATOM     28  C   UNL A   1      46.857  25.638  25.484  1.00  0.00     0.074 A 
ATOM     29  C   UNL A   1      44.455  25.608  26.056  1.00  0.00     0.049 A 
ATOM     30  N   UNL A   1      47.225  26.803  25.948  1.00  0.00    -0.248 NA
ATOM     31  C   UNL A   1      47.912  24.911  24.761  1.00  0.00     0.031 C 
ATOM     32  C   UNL A   1      43.101  25.065  26.142  1.00  0.00     0.029 A 
ATOM     33  N   UNL A   1      44.345  26.877  26.563  1.00  0.00    -0.354 N 
ATOM     34  C   UNL A   1      48.566  26.934  25.610  1.00  0.00     0.074 A 
ATOM     35  C   UNL A   1      48.944  25.730  24.901  1.00  0.00     0.031 C 
ATOM     36  C   UNL A   1      42.294  25.994  26.681  1.00  0.00     0.029 A 
ATOM     37  C   UNL A   1      43.089  27.167  27.032  1.00  0.00     0.049 A 
ATOM     38  H   UNL A   1      45.093  27.517  26.586  1.00  0.00     0.167 HD
ATOM     39  C   UNL A   1      49.403  27.965  25.877  1.00  0.00     0.037 A 
ATOM     40  C   UNL A   1      42.643  28.239  27.712  1.00  0.00     0.037 A 
ATOM     41  C   UNL A   1      49.008  29.165  26.566  1.00  0.00     0.049 A 
ATOM     42  C   UNL A   1      43.606  29.335  28.070  1.00  0.00     0.074 A 
ATOM     43  C   UNL A   1      49.773  30.276  26.873  1.00  0.00     0.029 A 
ATOM     44  N   UNL A   1      47.732  29.409  27.053  1.00  0.00    -0.354 N 
ATOM     45  N   UNL A   1      44.881  29.442  27.780  1.00  0.00    -0.248 NA
ATOM     46  C   UNL A   1      43.075  30.451  28.866  1.00  0.00     0.031 C 
ATOM     47  C   UNL A   1      48.968  31.179  27.579  1.00  0.00     0.029 A 
ATOM     48  C   UNL A   1      47.692  30.645  27.676  1.00  0.00     0.049 A 
ATOM     49  H   UNL A   1      46.969  28.794  26.969  1.00  0.00     0.167 HD
ATOM     50  C   UNL A   1      45.298  30.646  28.332  1.00  0.00     0.074 A 
ATOM     51  C   UNL A   1      44.141  31.233  28.979  1.00  0.00     0.031 C 
ATOM     52  C   UNL A   1      46.526  31.215  28.301  1.00  0.00     0.037 A 
BRANCH  39  53
ATOM     53  C   UNL A   1      50.834  27.811  25.459  1.00  0.00     0.057 A 
ATOM     54  C   UNL A   1      51.263  28.082  24.154  1.00  0.00     0.134 A 
ATOM     55  C   UNL A   1      51.798  27.384  26.382  1.00  0.00     0.134 A 
ATOM     56  F   UNL A   1      50.386  28.479  23.220  1.00  0.00    -0.206 F 
ATOM     57  C   UNL A   1      52.595  27.909  23.774  1.00  0.00     0.040 A 
ATOM     58  C   UNL A   1      53.136  27.228  26.020  1.00  0.00     0.040 A 
ATOM     59  F   UNL A   1      51.454  27.109  27.649  1.00  0.00    -0.206 F 
ATOM     60  C   UNL A   1      53.537  27.485  24.710  1.00  0.00     0.006 A 
ENDBRANCH  39  53
BRANCH  40  61
ATOM     61  C   UNL A   1      41.219  28.311  28.116  1.00  0.00     0.057 A 
ATOM     62  C   UNL A   1      40.255  28.834  27.249  1.00  0.00     0.134 A 
ATOM     63  C   UNL A   1      40.784  27.835  29.360  1.00  0.00     0.134 A 
ATOM     64  F   UNL A   1      40.618  29.324  26.055  1.00  0.00    -0.206 F 
ATOM     65  C   UNL A   1      38.906  28.883  27.602  1.00  0.00     0.040 A 
ATOM     66  C   UNL A   1      39.436  27.858  29.717  1.00  0.00     0.040 A 
ATOM     67  F   UNL A   1      41.662  27.320  30.233  1.00  0.00    -0.206 F 
ATOM     68  C   UNL A   1      38.493  28.385  28.836  1.00  0.00     0.006 A 
ENDBRANCH  40  61
BRANCH  52  69
ATOM     69  C   UNL A   1      46.672  32.562  28.939  1.00  0.00     0.057 A 
ATOM     70  C   UNL A   1      46.419  33.745  28.235  1.00  0.00     0.134 A 
ATOM     71  C   UNL A   1      47.018  32.671  30.291  1.00  0.00     0.134 A 
ATOM     72  F   UNL A   1      46.097  33.704  26.933  1.00  0.00    -0.206 F 
ATOM     73  C   UNL A   1      46.513  34.992  28.852  1.00  0.00     0.040 A 
ATOM     74  C   UNL A   1      47.099  33.912  30.924  1.00  0.00     0.040 A 
ATOM     75  F   UNL A   1      47.269  31.574  31.021  1.00  0.00    -0.206 F 
ATOM     76  C   UNL A   1      46.847  35.078  30.203  1.00  0.00     0.006 A 
ENDBRANCH  52  69
ENDBRANCH  26  27
ENDBRANCH  19  21
ENDBRANCH  18  19
ENDBRANCH  17  18
ENDBRANCH   1  17
TORSDOF 14
ENDMDL
MODEL 2
REMARK VINA RESULT:     -10.1      6.013     10.137
REMARK SMILES CC(C)Cc1ccc([C@H](C)C(=O)OCCOC(=O)c2ccc(-c3c4nc(c(-c5c(F)cccc5F)c5ccc([nH]5)c(-c5c(F)cccc5F)c5nc(c(-c6c(F)cccc6F)c6ccc3[nH]6)C=C5)C=C4)cc2)cc1
REMARK SMILES IDX 14 1 13 2 11 3 12 4 9 5 10 6 8 7 5 8 6 9 74 10 7 11 73 12
REMARK SMILES IDX 4 13 2 14 1 15 3 16 15 17 16 18 17 19 18 20 19 21 20 22
REMARK SMILES IDX 72 23 21 24 71 25 22 26 23 27 24 28 65 29 25 30 70 31 64 32
REMARK SMILES IDX 66 33 26 34 69 35 63 36 62 37 27 39 53 40 36 41 52 42 37 43
REMARK SMILES IDX 40 44 51 45 67 46 38 47 39 48 50 50 68 51 41 52 28 53 29 54
REMARK SMILES IDX 34 55 30 56 31 57 33 58 35 59 32 60 54 61 55 62 60 63 56 64
REMARK SMILES IDX 57 65 59 66 61 67 58 68 42 69 43 70 48 71 44 72 45 73 47 74
REMARK SMILES IDX 49 75 46 76
REMARK H PARENT 66 38 40 49
REMARK Flexibility Score: inf
ROOT
ATOM      1  C   UNL A   1      31.811  28.229  27.324  1.00  0.00     0.274 C 
ENDROOT
BRANCH   1   2
ATOM      2  O   UNL A   1      32.464  27.256  26.488  1.00  0.00    -0.462 OA
BRANCH   2   3
ATOM      3  C   UNL A   1      31.700  26.209  26.073  1.00  0.00     0.313 C 
ATOM      4  O   UNL A   1      31.065  25.483  26.833  1.00  0.00    -0.252 OA
BRANCH   3   5
ATOM      5  C   UNL A   1      31.657  26.070  24.550  1.00  0.00     0.126 C 
ATOM      6  C   UNL A   1      31.254  24.683  24.049  1.00  0.00     0.025 C 
BRANCH   5   7
ATOM      7  C   UNL A   1      30.862  27.166  23.853  1.00  0.00    -0.034 A 
ATOM      8  C   UNL A   1      29.313  29.092  22.480  1.00  0.00    -0.048 A 
ATOM      9  C   UNL A   1      28.700  28.015  23.127  1.00  0.00     0.004 A 
ATOM     10  C   UNL A   1      30.703  29.224  22.560  1.00  0.00     0.004 A 
ATOM     11  C   UNL A   1      29.464  27.057  23.793  1.00  0.00     0.005 A 
ATOM     12  C   UNL A   1      31.468  28.280  23.253  1.00  0.00     0.005 A 
BRANCH   8  13
ATOM     13  C   UNL A   1      28.489  30.072  21.679  1.00  0.00     0.038 C 
BRANCH  13  14
ATOM     14  C   UNL A   1      28.517  31.512  22.237  1.00  0.00    -0.013 C 
ATOM     15  C   UNL A   1      28.027  32.553  21.228  1.00  0.00     0.008 C 
ATOM     16  C   UNL A   1      27.653  31.589  23.500  1.00  0.00     0.008 C 
ENDBRANCH  13  14
ENDBRANCH   8  13
ENDBRANCH   5   7
ENDBRANCH   3   5
ENDBRANCH   2   3
ENDBRANCH   1   2
BRANCH   1  17
ATOM     17  C   UNL A   1      31.757  29.598  26.642  1.00  0.00     0.275 C 
BRANCH  17  18
ATOM     18  O   UNL A   1      33.069  30.109  26.335  1.00  0.00    -0.458 OA
BRANCH  18  19
ATOM     19  C   UNL A   1      33.463  31.174  27.070  1.00  0.00     0.338 C 
ATOM     20  O   UNL A   1      32.843  32.199  27.291  1.00  0.00    -0.246 OA
BRANCH  19  21
ATOM     21  C   UNL A   1      34.779  30.903  27.663  1.00  0.00     0.060 A 
ATOM     22  C   UNL A   1      35.114  29.588  28.000  1.00  0.00     0.016 A 
ATOM     23  C   UNL A   1      35.624  31.962  27.991  1.00  0.00     0.016 A 
ATOM     24  C   UNL A   1      36.291  29.326  28.697  1.00  0.00     0.010 A 
ATOM     25  C   UNL A   1      36.811  31.698  28.674  1.00  0.00     0.010 A 
ATOM     26  C   UNL A   1      37.141  30.383  29.047  1.00  0.00    -0.014 A 
BRANCH  26  27
ATOM     27  C   UNL A   1      38.360  30.145  29.851  1.00  0.00     0.031 A 
ATOM     28  C   UNL A   1      39.443  29.265  29.304  1.00  0.00     0.074 A 
ATOM     29  C   UNL A   1      38.469  30.673  31.083  1.00  0.00     0.049 A 
ATOM     30  N   UNL A   1      40.475  28.744  29.914  1.00  0.00    -0.248 NA
ATOM     31  C   UNL A   1      39.345  28.921  27.877  1.00  0.00     0.031 C 
ATOM     32  C   UNL A   1      37.515  31.596  31.695  1.00  0.00     0.029 A 
ATOM     33  N   UNL A   1      39.426  30.485  32.046  1.00  0.00    -0.354 N 
ATOM     34  C   UNL A   1      41.128  27.977  28.958  1.00  0.00     0.074 A 
ATOM     35  C   UNL A   1      40.375  28.103  27.727  1.00  0.00     0.031 C 
ATOM     36  C   UNL A   1      37.930  31.888  32.938  1.00  0.00     0.029 A 
ATOM     37  C   UNL A   1      39.141  31.124  33.226  1.00  0.00     0.049 A 
ATOM     38  H   UNL A   1      40.237  29.946  31.905  1.00  0.00     0.167 HD
ATOM     39  C   UNL A   1      42.249  27.231  29.101  1.00  0.00     0.037 A 
ATOM     40  C   UNL A   1      39.761  31.061  34.419  1.00  0.00     0.037 A 
ATOM     41  C   UNL A   1      42.998  27.130  30.326  1.00  0.00     0.049 A 
ATOM     42  C   UNL A   1      40.955  30.164  34.580  1.00  0.00     0.074 A 
ATOM     43  C   UNL A   1      44.157  26.415  30.574  1.00  0.00     0.029 A 
ATOM     44  N   UNL A   1      42.660  27.769  31.510  1.00  0.00    -0.354 N 
ATOM     45  N   UNL A   1      41.550  29.412  33.685  1.00  0.00    -0.248 NA
ATOM     46  C   UNL A   1      41.552  30.090  35.920  1.00  0.00     0.031 C 
ATOM     47  C   UNL A   1      44.500  26.594  31.920  1.00  0.00     0.029 A 
ATOM     48  C   UNL A   1      43.576  27.451  32.498  1.00  0.00     0.049 A 
ATOM     49  H   UNL A   1      41.884  28.362  31.629  1.00  0.00     0.167 HD
ATOM     50  C   UNL A   1      42.607  28.799  34.343  1.00  0.00     0.074 A 
ATOM     51  C   UNL A   1      42.569  29.262  35.717  1.00  0.00     0.031 C 
ATOM     52  C   UNL A   1      43.528  27.935  33.854  1.00  0.00     0.037 A 
BRANCH  39  53
ATOM     53  C   UNL A   1      42.698  26.434  27.914  1.00  0.00     0.057 A 
ATOM     54  C   UNL A   1      42.269  25.119  27.694  1.00  0.00     0.134 A 
ATOM     55  C   UNL A   1      43.574  26.994  26.976  1.00  0.00     0.134 A 
ATOM     56  F   UNL A   1      41.443  24.520  28.563  1.00  0.00    -0.206 F 
ATOM     57  C   UNL A   1      42.717  24.380  26.597  1.00  0.00     0.040 A 
ATOM     58  C   UNL A   1      44.013  26.274  25.864  1.00  0.00     0.040 A 
ATOM     59  F   UNL A   1      44.022  28.250  27.127  1.00  0.00    -0.206 F 
ATOM     60  C   UNL A   1      43.589  24.960  25.676  1.00  0.00     0.006 A 
ENDBRANCH  39  53
BRANCH  40  61
ATOM     61  C   UNL A   1      39.244  31.857  35.557  1.00  0.00     0.057 A 
ATOM     62  C   UNL A   1      39.668  33.174  35.759  1.00  0.00     0.134 A 
ATOM     63  C   UNL A   1      38.298  31.335  36.449  1.00  0.00     0.134 A 
ATOM     64  F   UNL A   1      40.588  33.718  34.950  1.00  0.00    -0.206 F 
ATOM     65  C   UNL A   1      39.170  33.947  36.808  1.00  0.00     0.040 A 
ATOM     66  C   UNL A   1      37.777  32.104  37.489  1.00  0.00     0.040 A 
ATOM     67  F   UNL A   1      37.853  30.078  36.304  1.00  0.00    -0.206 F 
ATOM     68  C   UNL A   1      38.215  33.414  37.672  1.00  0.00     0.006 A 
ENDBRANCH  40  61
BRANCH  52  69
ATOM     69  C   UNL A   1      44.600  27.473  34.792  1.00  0.00     0.057 A 
ATOM     70  C   UNL A   1      44.467  26.302  35.547  1.00  0.00     0.134 A 
ATOM     71  C   UNL A   1      45.802  28.183  34.898  1.00  0.00     0.134 A 
ATOM     72  F   UNL A   1      43.333  25.587  35.498  1.00  0.00    -0.206 F 
ATOM     73  C   UNL A   1      45.492  25.857  36.383  1.00  0.00     0.040 A 
ATOM     74  C   UNL A   1      46.840  27.738  35.717  1.00  0.00     0.040 A 
ATOM     75  F   UNL A   1      45.992  29.311  34.196  1.00  0.00    -0.206 F 
ATOM     76  C   UNL A   1      46.685  26.572  36.464  1.00  0.00     0.006 A 
ENDBRANCH  52  69
ENDBRANCH  26  27
ENDBRANCH  19  21
ENDBRANCH  18  19
ENDBRANCH  17  18
ENDBRANCH   1  17
TORSDOF 14
ENDMDL
MODEL 3
REMARK VINA RESULT:     -10.0      8.029     13.157
REMARK SMILES CC(C)Cc1ccc([C@H](C)C(=O)OCCOC(=O)c2ccc(-c3c4nc(c(-c5c(F)cccc5F)c5ccc([nH]5)c(-c5c(F)cccc5F)c5nc(c(-c6c(F)cccc6F)c6ccc3[nH]6)C=C5)C=C4)cc2)cc1
REMARK SMILES IDX 14 1 13 2 11 3 12 4 9 5 10 6 8 7 5 8 6 9 74 10 7 11 73 12
REMARK SMILES IDX 4 13 2 14 1 15 3 16 15 17 16 18 17 19 18 20 19 21 20 22
REMARK SMILES IDX 72 23 21 24 71 25 22 26 23 27 24 28 65 29 25 30 70 31 64 32
REMARK SMILES IDX 66 33 26 34 69 35 63 36 62 37 27 39 53 40 36 41 52 42 37 43
REMARK SMILES IDX 40 44 51 45 67 46 38 47 39 48 50 50 68 51 41 52 28 53 29 54
REMARK SMILES IDX 34 55 30 56 31 57 33 58 35 59 32 60 54 61 55 62 60 63 56 64
REMARK SMILES IDX 57 65 59 66 61 67 58 68 42 69 43 70 48 71 44 72 45 73 47 74
REMARK SMILES IDX 49 75 46 76
REMARK H PARENT 66 38 40 49
REMARK Flexibility Score: inf
ROOT
ATOM      1  C   UNL A   1      33.701  35.895  28.960  1.00  0.00     0.274 C 
ENDROOT
BRANCH   1   2
ATOM      2  O   UNL A   1      33.374  34.556  28.544  1.00  0.00    -0.462 OA
BRANCH   2   3
ATOM      3  C   UNL A   1      34.145  33.561  29.060  1.00  0.00     0.313 C 
ATOM      4  O   UNL A   1      34.093  33.192  30.229  1.00  0.00    -0.252 OA
BRANCH   3   5
ATOM      5  C   UNL A   1      35.040  32.898  28.011  1.00  0.00     0.126 C 
ATOM      6  C   UNL A   1      36.539  33.009  28.293  1.00  0.00     0.025 C 
BRANCH   5   7
ATOM      7  C   UNL A   1      34.641  31.468  27.674  1.00  0.00    -0.034 A 
ATOM      8  C   UNL A   1      34.017  28.807  26.951  1.00  0.00    -0.048 A 
ATOM      9  C   UNL A   1      35.313  29.151  27.349  1.00  0.00     0.004 A 
ATOM     10  C   UNL A   1      33.025  29.792  26.959  1.00  0.00     0.004 A 
ATOM     11  C   UNL A   1      35.625  30.466  27.693  1.00  0.00     0.005 A 
ATOM     12  C   UNL A   1      33.330  31.105  27.332  1.00  0.00     0.005 A 
BRANCH   8  13
ATOM     13  C   UNL A   1      33.708  27.403  26.488  1.00  0.00     0.038 C 
BRANCH  13  14
ATOM     14  C   UNL A   1      32.467  27.307  25.576  1.00  0.00    -0.013 C 
ATOM     15  C   UNL A   1      32.774  26.683  24.212  1.00  0.00     0.008 C 
ATOM     16  C   UNL A   1      31.380  26.481  26.273  1.00  0.00     0.008 C 
ENDBRANCH  13  14
ENDBRANCH   8  13
ENDBRANCH   5   7
ENDBRANCH   3   5
ENDBRANCH   2   3
ENDBRANCH   1   2
BRANCH   1  17
ATOM     17  C   UNL A   1      32.582  36.499  29.813  1.00  0.00     0.275 C 
BRANCH  17  18
ATOM     18  O   UNL A   1      33.032  36.855  31.134  1.00  0.00    -0.458 OA
BRANCH  18  19
ATOM     19  C   UNL A   1      32.593  36.054  32.132  1.00  0.00     0.338 C 
ATOM     20  O   UNL A   1      31.447  35.902  32.517  1.00  0.00    -0.246 OA
BRANCH  19  21
ATOM     21  C   UNL A   1      33.719  35.292  32.685  1.00  0.00     0.060 A 
ATOM     22  C   UNL A   1      35.020  35.774  32.503  1.00  0.00     0.016 A 
ATOM     23  C   UNL A   1      33.494  34.049  33.275  1.00  0.00     0.016 A 
ATOM     24  C   UNL A   1      36.110  34.997  32.886  1.00  0.00     0.010 A 
ATOM     25  C   UNL A   1      34.586  33.278  33.674  1.00  0.00     0.010 A 
ATOM     26  C   UNL A   1      35.899  33.739  33.465  1.00  0.00    -0.014 A 
BRANCH  26  27
ATOM     27  C   UNL A   1      37.036  32.861  33.814  1.00  0.00     0.031 A 
ATOM     28  C   UNL A   1      37.771  33.084  35.102  1.00  0.00     0.074 A 
ATOM     29  C   UNL A   1      37.437  31.905  32.959  1.00  0.00     0.049 A 
ATOM     30  N   UNL A   1      38.916  32.594  35.499  1.00  0.00    -0.248 NA
ATOM     31  C   UNL A   1      37.132  33.990  36.068  1.00  0.00     0.031 C 
ATOM     32  C   UNL A   1      36.763  31.549  31.711  1.00  0.00     0.029 A 
ATOM     33  N   UNL A   1      38.527  31.074  33.005  1.00  0.00    -0.354 N 
ATOM     34  C   UNL A   1      39.156  33.161  36.743  1.00  0.00     0.074 A 
ATOM     35  C   UNL A   1      38.036  34.031  37.035  1.00  0.00     0.031 C 
ATOM     36  C   UNL A   1      37.461  30.575  31.103  1.00  0.00     0.029 A 
ATOM     37  C   UNL A   1      38.659  30.289  31.888  1.00  0.00     0.049 A 
ATOM     38  H   UNL A   1      39.152  31.043  33.765  1.00  0.00     0.167 HD
ATOM     39  C   UNL A   1      40.219  32.976  37.560  1.00  0.00     0.037 A 
ATOM     40  C   UNL A   1      39.658  29.467  31.518  1.00  0.00     0.037 A 
ATOM     41  C   UNL A   1      41.317  32.092  37.266  1.00  0.00     0.049 A 
ATOM     42  C   UNL A   1      40.867  29.337  32.400  1.00  0.00     0.074 A 
ATOM     43  C   UNL A   1      42.436  31.818  38.033  1.00  0.00     0.029 A 
ATOM     44  N   UNL A   1      41.429  31.336  36.109  1.00  0.00    -0.354 N 
ATOM     45  N   UNL A   1      41.108  29.901  33.559  1.00  0.00    -0.248 NA
ATOM     46  C   UNL A   1      41.952  28.473  31.913  1.00  0.00     0.031 C 
ATOM     47  C   UNL A   1      43.244  30.922  37.322  1.00  0.00     0.029 A 
ATOM     48  C   UNL A   1      42.608  30.609  36.130  1.00  0.00     0.049 A 
ATOM     49  H   UNL A   1      40.768  31.318  35.379  1.00  0.00     0.167 HD
ATOM     50  C   UNL A   1      42.356  29.439  33.955  1.00  0.00     0.074 A 
ATOM     51  C   UNL A   1      42.826  28.552  32.909  1.00  0.00     0.031 C 
ATOM     52  C   UNL A   1      43.048  29.721  35.085  1.00  0.00     0.037 A 
BRANCH  39  53
ATOM     53  C   UNL A   1      40.261  33.779  38.824  1.00  0.00     0.057 A 
ATOM     54  C   UNL A   1      39.610  33.365  39.993  1.00  0.00     0.134 A 
ATOM     55  C   UNL A   1      40.966  34.989  38.871  1.00  0.00     0.134 A 
ATOM     56  F   UNL A   1      38.905  32.224  40.009  1.00  0.00    -0.206 F 
ATOM     57  C   UNL A   1      39.636  34.138  41.155  1.00  0.00     0.040 A 
ATOM     58  C   UNL A   1      41.018  35.760  40.033  1.00  0.00     0.040 A 
ATOM     59  F   UNL A   1      41.613  35.442  37.787  1.00  0.00    -0.206 F 
ATOM     60  C   UNL A   1      40.345  35.338  41.178  1.00  0.00     0.006 A 
ENDBRANCH  39  53
BRANCH  40  61
ATOM     61  C   UNL A   1      39.561  28.724  30.239  1.00  0.00     0.057 A 
ATOM     62  C   UNL A   1      39.983  29.306  29.040  1.00  0.00     0.134 A 
ATOM     63  C   UNL A   1      39.075  27.411  30.188  1.00  0.00     0.134 A 
ATOM     64  F   UNL A   1      40.436  30.567  29.025  1.00  0.00    -0.206 F 
ATOM     65  C   UNL A   1      39.925  28.610  27.832  1.00  0.00     0.040 A 
ATOM     66  C   UNL A   1      39.032  26.697  28.991  1.00  0.00     0.040 A 
ATOM     67  F   UNL A   1      38.658  26.799  31.307  1.00  0.00    -0.206 F 
ATOM     68  C   UNL A   1      39.457  27.297  27.808  1.00  0.00     0.006 A 
ENDBRANCH  40  61
BRANCH  52  69
ATOM     69  C   UNL A   1      44.361  29.026  35.275  1.00  0.00     0.057 A 
ATOM     70  C   UNL A   1      44.451  27.773  35.891  1.00  0.00     0.134 A 
ATOM     71  C   UNL A   1      45.542  29.597  34.785  1.00  0.00     0.134 A 
ATOM     72  F   UNL A   1      43.356  27.182  36.391  1.00  0.00    -0.206 F 
ATOM     73  C   UNL A   1      45.674  27.113  36.021  1.00  0.00     0.040 A 
ATOM     74  C   UNL A   1      46.768  28.940  34.894  1.00  0.00     0.040 A 
ATOM     75  F   UNL A   1      45.521  30.795  34.181  1.00  0.00    -0.206 F 
ATOM     76  C   UNL A   1      46.836  27.694  35.515  1.00  0.00     0.006 A 
ENDBRANCH  52  69
ENDBRANCH  26  27
ENDBRANCH  19  21
ENDBRANCH  18  19
ENDBRANCH  17  18
ENDBRANCH   1  17
TORSDOF 14
ENDMDL
