MODEL 1
REMARK VINA RESULT:      -9.2      0.000      0.000
REMARK SMILES C[C@@H]([N@@H+](C)[C@@H]1COC[C@@H]1C(=O)OCCOC(=O)c1ccc(-c2c3nc(c(-c4c(F)cccc4F)c4ccc([nH]4)c(-c4c(F)cccc4F)c4nc(c(-c5c(F)cccc5F)c5ccc2[nH]5)C=C4)C=C3)cc1)C1(C)CC1
REMARK SMILES IDX 13 1 12 2 10 3 11 4 9 5 5 6 6 7 7 8 8 9 3 10 4 11 2 13 1 14
REMARK SMILES IDX 72 15 73 16 74 17 75 18 14 19 15 20 16 21 17 22 18 23 19 24
REMARK SMILES IDX 71 25 20 26 70 27 21 28 22 29 23 30 64 31 24 32 69 33 63 34
REMARK SMILES IDX 65 35 25 36 68 37 62 38 61 39 26 41 52 42 35 43 51 44 36 45
REMARK SMILES IDX 39 46 50 47 66 48 37 49 38 50 49 52 67 53 40 54 27 55 28 56
REMARK SMILES IDX 33 57 29 58 30 59 32 60 34 61 31 62 53 63 54 64 59 65 55 66
REMARK SMILES IDX 56 67 58 68 60 69 57 70 41 71 42 72 47 73 43 74 44 75 46 76
REMARK SMILES IDX 48 77 45 78
REMARK H PARENT 3 12 65 40 39 51
REMARK Flexibility Score: inf
ROOT
ATOM      1  C   UNL A   1      33.843  33.992  29.016  1.00  0.00     0.274 C 
ENDROOT
BRANCH   1   2
ATOM      2  O   UNL A   1      34.029  33.612  30.395  1.00  0.00    -0.462 OA
BRANCH   2   3
ATOM      3  C   UNL A   1      33.836  34.577  31.329  1.00  0.00     0.317 C 
ATOM      4  O   UNL A   1      32.774  35.173  31.477  1.00  0.00    -0.252 OA
BRANCH   3   5
ATOM      5  C   UNL A   1      35.120  34.966  32.047  1.00  0.00     0.185 C 
ATOM      6  C   UNL A   1      36.037  33.858  32.599  1.00  0.00     0.227 C 
ATOM      7  C   UNL A   1      35.354  33.579  33.950  1.00  0.00     0.226 C 
ATOM      8  O   UNL A   1      34.778  34.803  34.410  1.00  0.00    -0.374 OA
ATOM      9  C   UNL A   1      34.778  35.735  33.321  1.00  0.00     0.182 C 
BRANCH   6  10
ATOM     10  N   UNL A   1      36.356  32.679  31.757  1.00  0.00    -0.330 N 
ATOM     11  C   UNL A   1      35.779  31.444  32.319  1.00  0.00     0.333 C 
ATOM     12  H   UNL A   1      35.926  32.890  30.856  1.00  0.00     0.348 HD
BRANCH  10  13
ATOM     13  C   UNL A   1      37.811  32.476  31.491  1.00  0.00     0.186 C 
ATOM     14  C   UNL A   1      38.705  32.381  32.738  1.00  0.00     0.076 C 
BRANCH  13  15
ATOM     15  C   UNL A   1      38.360  33.597  30.577  1.00  0.00     0.019 C 
ATOM     16  C   UNL A   1      39.356  34.545  31.207  1.00  0.00     0.018 C 
ATOM     17  C   UNL A   1      38.581  33.275  29.106  1.00  0.00     0.013 C 
ATOM     18  C   UNL A   1      37.444  34.163  29.501  1.00  0.00     0.013 C 
ENDBRANCH  13  15
ENDBRANCH  10  13
ENDBRANCH   6  10
ENDBRANCH   3   5
ENDBRANCH   2   3
ENDBRANCH   1   2
BRANCH   1  19
ATOM     19  C   UNL A   1      34.440  32.937  28.091  1.00  0.00     0.275 C 
BRANCH  19  20
ATOM     20  O   UNL A   1      34.965  31.870  28.894  1.00  0.00    -0.458 OA
BRANCH  20  21
ATOM     21  C   UNL A   1      34.964  30.644  28.328  1.00  0.00     0.338 C 
ATOM     22  O   UNL A   1      34.023  30.076  27.794  1.00  0.00    -0.246 OA
BRANCH  21  23
ATOM     23  C   UNL A   1      36.311  30.051  28.450  1.00  0.00     0.060 A 
ATOM     24  C   UNL A   1      36.712  29.427  29.634  1.00  0.00     0.016 A 
ATOM     25  C   UNL A   1      37.218  30.197  27.401  1.00  0.00     0.016 A 
ATOM     26  C   UNL A   1      38.032  29.022  29.804  1.00  0.00     0.010 A 
ATOM     27  C   UNL A   1      38.517  29.701  27.538  1.00  0.00     0.010 A 
ATOM     28  C   UNL A   1      38.946  29.133  28.751  1.00  0.00    -0.014 A 
BRANCH  28  29
ATOM     29  C   UNL A   1      40.353  28.681  28.912  1.00  0.00     0.031 A 
ATOM     30  C   UNL A   1      41.391  29.634  29.436  1.00  0.00     0.074 A 
ATOM     31  C   UNL A   1      40.708  27.428  28.570  1.00  0.00     0.049 A 
ATOM     32  N   UNL A   1      42.694  29.523  29.429  1.00  0.00    -0.248 NA
ATOM     33  C   UNL A   1      40.896  30.886  30.032  1.00  0.00     0.031 C 
ATOM     34  C   UNL A   1      39.798  26.385  28.093  1.00  0.00     0.029 A 
ATOM     35  N   UNL A   1      41.940  26.822  28.563  1.00  0.00    -0.354 N 
ATOM     36  C   UNL A   1      43.177  30.714  29.959  1.00  0.00     0.074 A 
ATOM     37  C   UNL A   1      42.026  31.529  30.286  1.00  0.00     0.031 C 
ATOM     38  C   UNL A   1      40.497  25.264  27.859  1.00  0.00     0.029 A 
ATOM     39  C   UNL A   1      41.912  25.533  28.089  1.00  0.00     0.049 A 
ATOM     40  H   UNL A   1      42.763  27.267  28.869  1.00  0.00     0.167 HD
ATOM     41  C   UNL A   1      44.464  31.091  30.147  1.00  0.00     0.037 A 
ATOM     42  C   UNL A   1      42.915  24.677  27.822  1.00  0.00     0.037 A 
ATOM     43  C   UNL A   1      45.601  30.252  29.876  1.00  0.00     0.049 A 
ATOM     44  C   UNL A   1      44.334  25.120  28.029  1.00  0.00     0.074 A 
ATOM     45  C   UNL A   1      46.945  30.537  30.050  1.00  0.00     0.029 A 
ATOM     46  N   UNL A   1      45.526  28.954  29.394  1.00  0.00    -0.354 N 
ATOM     47  N   UNL A   1      44.783  26.271  28.467  1.00  0.00    -0.248 NA
ATOM     48  C   UNL A   1      45.386  24.154  27.684  1.00  0.00     0.031 C 
ATOM     49  C   UNL A   1      47.685  29.418  29.650  1.00  0.00     0.029 A 
ATOM     50  C   UNL A   1      46.800  28.427  29.258  1.00  0.00     0.049 A 
ATOM     51  H   UNL A   1      44.691  28.479  29.180  1.00  0.00     0.167 HD
ATOM     52  C   UNL A   1      46.166  26.168  28.454  1.00  0.00     0.074 A 
ATOM     53  C   UNL A   1      46.484  24.834  27.986  1.00  0.00     0.031 C 
ATOM     54  C   UNL A   1      47.092  27.098  28.791  1.00  0.00     0.037 A 
BRANCH  41  55
ATOM     55  C   UNL A   1      44.713  32.485  30.638  1.00  0.00     0.057 A 
ATOM     56  C   UNL A   1      44.847  32.781  32.000  1.00  0.00     0.134 A 
ATOM     57  C   UNL A   1      44.864  33.537  29.727  1.00  0.00     0.134 A 
ATOM     58  F   UNL A   1      44.697  31.820  32.924  1.00  0.00    -0.206 F 
ATOM     59  C   UNL A   1      45.107  34.081  32.439  1.00  0.00     0.040 A 
ATOM     60  C   UNL A   1      45.144  34.836  30.152  1.00  0.00     0.040 A 
ATOM     61  F   UNL A   1      44.751  33.318  28.409  1.00  0.00    -0.206 F 
ATOM     62  C   UNL A   1      45.264  35.112  31.512  1.00  0.00     0.006 A 
ENDBRANCH  41  55
BRANCH  42  63
ATOM     63  C   UNL A   1      42.609  23.331  27.279  1.00  0.00     0.057 A 
ATOM     64  C   UNL A   1      42.279  22.268  28.127  1.00  0.00     0.134 A 
ATOM     65  C   UNL A   1      42.628  23.079  25.902  1.00  0.00     0.134 A 
ATOM     66  F   UNL A   1      42.270  22.444  29.457  1.00  0.00    -0.206 F 
ATOM     67  C   UNL A   1      41.982  21.001  27.626  1.00  0.00     0.040 A 
ATOM     68  C   UNL A   1      42.310  21.823  25.385  1.00  0.00     0.040 A 
ATOM     69  F   UNL A   1      42.936  24.057  25.038  1.00  0.00    -0.206 F 
ATOM     70  C   UNL A   1      41.988  20.778  26.249  1.00  0.00     0.006 A 
ENDBRANCH  42  63
BRANCH  54  71
ATOM     71  C   UNL A   1      48.529  26.692  28.682  1.00  0.00     0.057 A 
ATOM     72  C   UNL A   1      49.281  26.961  27.532  1.00  0.00     0.134 A 
ATOM     73  C   UNL A   1      49.173  26.049  29.746  1.00  0.00     0.134 A 
ATOM     74  F   UNL A   1      48.715  27.562  26.475  1.00  0.00    -0.206 F 
ATOM     75  C   UNL A   1      50.622  26.589  27.438  1.00  0.00     0.040 A 
ATOM     76  C   UNL A   1      50.518  25.688  29.670  1.00  0.00     0.040 A 
ATOM     77  F   UNL A   1      48.506  25.768  30.876  1.00  0.00    -0.206 F 
ATOM     78  C   UNL A   1      51.245  25.954  28.511  1.00  0.00     0.006 A 
ENDBRANCH  54  71
ENDBRANCH  28  29
ENDBRANCH  21  23
ENDBRANCH  20  21
ENDBRANCH  19  20
ENDBRANCH   1  19
TORSDOF 14
ENDMDL
MODEL 2
REMARK VINA RESULT:      -9.1      4.520      8.612
REMARK SMILES C[C@@H]([N@@H+](C)[C@@H]1COC[C@@H]1C(=O)OCCOC(=O)c1ccc(-c2c3nc(c(-c4c(F)cccc4F)c4ccc([nH]4)c(-c4c(F)cccc4F)c4nc(c(-c5c(F)cccc5F)c5ccc2[nH]5)C=C4)C=C3)cc1)C1(C)CC1
REMARK SMILES IDX 13 1 12 2 10 3 11 4 9 5 5 6 6 7 7 8 8 9 3 10 4 11 2 13 1 14
REMARK SMILES IDX 72 15 73 16 74 17 75 18 14 19 15 20 16 21 17 22 18 23 19 24
REMARK SMILES IDX 71 25 20 26 70 27 21 28 22 29 23 30 64 31 24 32 69 33 63 34
REMARK SMILES IDX 65 35 25 36 68 37 62 38 61 39 26 41 52 42 35 43 51 44 36 45
REMARK SMILES IDX 39 46 50 47 66 48 37 49 38 50 49 52 67 53 40 54 27 55 28 56
REMARK SMILES IDX 33 57 29 58 30 59 32 60 34 61 31 62 53 63 54 64 59 65 55 66
REMARK SMILES IDX 56 67 58 68 60 69 57 70 41 71 42 72 47 73 43 74 44 75 46 76
REMARK SMILES IDX 48 77 45 78
REMARK H PARENT 3 12 65 40 39 51
REMARK Flexibility Score: inf
ROOT
ATOM      1  C   UNL A   1      34.729  21.334  24.718  1.00  0.00     0.274 C 
ENDROOT
BRANCH   1   2
ATOM      2  O   UNL A   1      34.967  22.645  24.167  1.00  0.00    -0.462 OA
BRANCH   2   3
ATOM      3  C   UNL A   1      34.355  23.690  24.782  1.00  0.00     0.317 C 
ATOM      4  O   UNL A   1      34.441  23.911  25.985  1.00  0.00    -0.252 OA
BRANCH   3   5
ATOM      5  C   UNL A   1      33.412  24.445  23.857  1.00  0.00     0.185 C 
ATOM      6  C   UNL A   1      31.923  24.559  24.233  1.00  0.00     0.227 C 
ATOM      7  C   UNL A   1      31.395  23.218  23.693  1.00  0.00     0.226 C 
ATOM      8  O   UNL A   1      32.174  22.872  22.545  1.00  0.00    -0.374 OA
ATOM      9  C   UNL A   1      33.328  23.721  22.515  1.00  0.00     0.182 C 
BRANCH   6  10
ATOM     10  N   UNL A   1      31.540  24.917  25.621  1.00  0.00    -0.330 N 
ATOM     11  C   UNL A   1      30.898  23.782  26.312  1.00  0.00     0.333 C 
ATOM     12  H   UNL A   1      32.424  25.150  26.074  1.00  0.00     0.348 HD
BRANCH  10  13
ATOM     13  C   UNL A   1      30.675  26.128  25.740  1.00  0.00     0.186 C 
ATOM     14  C   UNL A   1      29.637  26.313  24.621  1.00  0.00     0.076 C 
BRANCH  13  15
ATOM     15  C   UNL A   1      31.540  27.408  25.824  1.00  0.00     0.019 C 
ATOM     16  C   UNL A   1      31.402  28.384  24.677  1.00  0.00     0.018 C 
ATOM     17  C   UNL A   1      31.779  28.018  27.198  1.00  0.00     0.013 C 
ATOM     18  C   UNL A   1      32.900  27.316  26.501  1.00  0.00     0.013 C 
ENDBRANCH  13  15
ENDBRANCH  10  13
ENDBRANCH   6  10
ENDBRANCH   3   5
ENDBRANCH   2   3
ENDBRANCH   1   2
BRANCH   1  19
ATOM     19  C   UNL A   1      36.052  20.630  25.001  1.00  0.00     0.275 C 
BRANCH  19  20
ATOM     20  O   UNL A   1      36.865  21.495  25.807  1.00  0.00    -0.458 OA
BRANCH  20  21
ATOM     21  C   UNL A   1      38.195  21.266  25.768  1.00  0.00     0.338 C 
ATOM     22  O   UNL A   1      38.762  20.268  25.349  1.00  0.00    -0.246 OA
BRANCH  21  23
ATOM     23  C   UNL A   1      38.906  22.431  26.332  1.00  0.00     0.060 A 
ATOM     24  C   UNL A   1      38.437  23.728  26.113  1.00  0.00     0.016 A 
ATOM     25  C   UNL A   1      40.106  22.233  27.015  1.00  0.00     0.016 A 
ATOM     26  C   UNL A   1      39.198  24.828  26.499  1.00  0.00     0.010 A 
ATOM     27  C   UNL A   1      40.820  23.337  27.489  1.00  0.00     0.010 A 
ATOM     28  C   UNL A   1      40.388  24.646  27.212  1.00  0.00    -0.014 A 
BRANCH  28  29
ATOM     29  C   UNL A   1      41.198  25.812  27.652  1.00  0.00     0.031 A 
ATOM     30  C   UNL A   1      40.576  26.872  28.518  1.00  0.00     0.074 A 
ATOM     31  C   UNL A   1      42.481  25.935  27.262  1.00  0.00     0.049 A 
ATOM     32  N   UNL A   1      41.021  28.067  28.811  1.00  0.00    -0.248 NA
ATOM     33  C   UNL A   1      39.272  26.551  29.120  1.00  0.00     0.031 C 
ATOM     34  C   UNL A   1      43.225  24.961  26.461  1.00  0.00     0.029 A 
ATOM     35  N   UNL A   1      43.385  26.945  27.480  1.00  0.00    -0.354 N 
ATOM     36  C   UNL A   1      40.027  28.663  29.576  1.00  0.00     0.074 A 
ATOM     37  C   UNL A   1      38.959  27.695  29.711  1.00  0.00     0.031 C 
ATOM     38  C   UNL A   1      44.476  25.410  26.272  1.00  0.00     0.029 A 
ATOM     39  C   UNL A   1      44.596  26.737  26.865  1.00  0.00     0.049 A 
ATOM     40  H   UNL A   1      43.185  27.741  28.024  1.00  0.00     0.167 HD
ATOM     41  C   UNL A   1      40.007  29.907  30.110  1.00  0.00     0.037 A 
ATOM     42  C   UNL A   1      45.668  27.541  26.748  1.00  0.00     0.037 A 
ATOM     43  C   UNL A   1      41.098  30.843  30.024  1.00  0.00     0.049 A 
ATOM     44  C   UNL A   1      45.620  28.920  27.340  1.00  0.00     0.074 A 
ATOM     45  C   UNL A   1      41.181  32.122  30.547  1.00  0.00     0.029 A 
ATOM     46  N   UNL A   1      42.304  30.590  29.389  1.00  0.00    -0.354 N 
ATOM     47  N   UNL A   1      44.650  29.499  28.004  1.00  0.00    -0.248 NA
ATOM     48  C   UNL A   1      46.807  29.764  27.147  1.00  0.00     0.031 C 
ATOM     49  C   UNL A   1      42.431  32.652  30.208  1.00  0.00     0.029 A 
ATOM     50  C   UNL A   1      43.137  31.691  29.502  1.00  0.00     0.049 A 
ATOM     51  H   UNL A   1      42.535  29.752  28.927  1.00  0.00     0.167 HD
ATOM     52  C   UNL A   1      45.108  30.772  28.311  1.00  0.00     0.074 A 
ATOM     53  C   UNL A   1      46.453  30.874  27.780  1.00  0.00     0.031 C 
ATOM     54  C   UNL A   1      44.470  31.771  28.966  1.00  0.00     0.037 A 
BRANCH  41  55
ATOM     55  C   UNL A   1      38.754  30.344  30.806  1.00  0.00     0.057 A 
ATOM     56  C   UNL A   1      38.552  30.134  32.175  1.00  0.00     0.134 A 
ATOM     57  C   UNL A   1      37.754  31.023  30.099  1.00  0.00     0.134 A 
ATOM     58  F   UNL A   1      39.464  29.476  32.905  1.00  0.00    -0.206 F 
ATOM     59  C   UNL A   1      37.389  30.573  32.814  1.00  0.00     0.040 A 
ATOM     60  C   UNL A   1      36.598  31.483  30.730  1.00  0.00     0.040 A 
ATOM     61  F   UNL A   1      37.889  31.258  28.785  1.00  0.00    -0.206 F 
ATOM     62  C   UNL A   1      36.412  31.256  32.091  1.00  0.00     0.006 A 
ENDBRANCH  41  55
BRANCH  42  63
ATOM     63  C   UNL A   1      46.858  27.077  25.994  1.00  0.00     0.057 A 
ATOM     64  C   UNL A   1      46.995  27.341  24.627  1.00  0.00     0.134 A 
ATOM     65  C   UNL A   1      47.890  26.372  26.625  1.00  0.00     0.134 A 
ATOM     66  F   UNL A   1      46.027  27.991  23.965  1.00  0.00    -0.206 F 
ATOM     67  C   UNL A   1      48.115  26.915  23.911  1.00  0.00     0.040 A 
ATOM     68  C   UNL A   1      49.026  25.961  25.927  1.00  0.00     0.040 A 
ATOM     69  F   UNL A   1      47.817  26.090  27.933  1.00  0.00    -0.206 F 
ATOM     70  C   UNL A   1      49.139  26.230  24.564  1.00  0.00     0.006 A 
ENDBRANCH  42  63
BRANCH  54  71
ATOM     71  C   UNL A   1      45.229  33.047  29.159  1.00  0.00     0.057 A 
ATOM     72  C   UNL A   1      45.137  34.099  28.240  1.00  0.00     0.134 A 
ATOM     73  C   UNL A   1      46.038  33.234  30.286  1.00  0.00     0.134 A 
ATOM     74  F   UNL A   1      44.389  33.972  27.134  1.00  0.00    -0.206 F 
ATOM     75  C   UNL A   1      45.840  35.290  28.427  1.00  0.00     0.040 A 
ATOM     76  C   UNL A   1      46.731  34.427  30.493  1.00  0.00     0.040 A 
ATOM     77  F   UNL A   1      46.162  32.264  31.204  1.00  0.00    -0.206 F 
ATOM     78  C   UNL A   1      46.636  35.458  29.558  1.00  0.00     0.006 A 
ENDBRANCH  54  71
ENDBRANCH  28  29
ENDBRANCH  21  23
ENDBRANCH  20  21
ENDBRANCH  19  20
ENDBRANCH   1  19
TORSDOF 14
ENDMDL
MODEL 3
REMARK VINA RESULT:      -9.0      4.392      9.222
REMARK SMILES C[C@@H]([N@@H+](C)[C@@H]1COC[C@@H]1C(=O)OCCOC(=O)c1ccc(-c2c3nc(c(-c4c(F)cccc4F)c4ccc([nH]4)c(-c4c(F)cccc4F)c4nc(c(-c5c(F)cccc5F)c5ccc2[nH]5)C=C4)C=C3)cc1)C1(C)CC1
REMARK SMILES IDX 13 1 12 2 10 3 11 4 9 5 5 6 6 7 7 8 8 9 3 10 4 11 2 13 1 14
REMARK SMILES IDX 72 15 73 16 74 17 75 18 14 19 15 20 16 21 17 22 18 23 19 24
REMARK SMILES IDX 71 25 20 26 70 27 21 28 22 29 23 30 64 31 24 32 69 33 63 34
REMARK SMILES IDX 65 35 25 36 68 37 62 38 61 39 26 41 52 42 35 43 51 44 36 45
REMARK SMILES IDX 39 46 50 47 66 48 37 49 38 50 49 52 67 53 40 54 27 55 28 56
REMARK SMILES IDX 33 57 29 58 30 59 32 60 34 61 31 62 53 63 54 64 59 65 55 66
REMARK SMILES IDX 56 67 58 68 60 69 57 70 41 71 42 72 47 73 43 74 44 75 46 76
REMARK SMILES IDX 48 77 45 78
REMARK H PARENT 3 12 65 40 39 51
REMARK Flexibility Score: inf
ROOT
ATOM      1  C   UNL A   1      32.032  28.481  23.981  1.00  0.00     0.274 C 
ENDROOT
BRANCH   1   2
ATOM      2  O   UNL A   1      31.677  27.131  24.346  1.00  0.00    -0.462 OA
BRANCH   2   3
ATOM      3  C   UNL A   1      32.677  26.212  24.346  1.00  0.00     0.317 C 
ATOM      4  O   UNL A   1      33.243  25.829  23.328  1.00  0.00    -0.252 OA
BRANCH   3   5
ATOM      5  C   UNL A   1      32.894  25.581  25.713  1.00  0.00     0.185 C 
ATOM      6  C   UNL A   1      32.737  24.057  25.870  1.00  0.00     0.227 C 
ATOM      7  C   UNL A   1      31.212  23.951  26.051  1.00  0.00     0.226 C 
ATOM      8  O   UNL A   1      30.767  25.135  26.718  1.00  0.00    -0.374 OA
ATOM      9  C   UNL A   1      31.833  26.094  26.685  1.00  0.00     0.182 C 
BRANCH   6  10
ATOM     10  N   UNL A   1      33.355  23.147  24.875  1.00  0.00    -0.330 N 
ATOM     11  C   UNL A   1      32.355  22.239  24.282  1.00  0.00     0.333 C 
ATOM     12  H   UNL A   1      33.729  23.772  24.161  1.00  0.00     0.348 HD
BRANCH  10  13
ATOM     13  C   UNL A   1      34.511  22.353  25.385  1.00  0.00     0.186 C 
ATOM     14  C   UNL A   1      34.600  22.221  26.915  1.00  0.00     0.076 C 
BRANCH  13  15
ATOM     15  C   UNL A   1      35.846  22.937  24.864  1.00  0.00     0.019 C 
ATOM     16  C   UNL A   1      36.556  23.906  25.784  1.00  0.00     0.018 C 
ATOM     17  C   UNL A   1      36.739  22.037  24.022  1.00  0.00     0.013 C 
ATOM     18  C   UNL A   1      36.000  23.159  23.367  1.00  0.00     0.013 C 
ENDBRANCH  13  15
ENDBRANCH  10  13
ENDBRANCH   6  10
ENDBRANCH   3   5
ENDBRANCH   2   3
ENDBRANCH   1   2
BRANCH   1  19
ATOM     19  C   UNL A   1      31.738  29.435  25.133  1.00  0.00     0.275 C 
BRANCH  19  20
ATOM     20  O   UNL A   1      32.974  30.020  25.568  1.00  0.00    -0.458 OA
BRANCH  20  21
ATOM     21  C   UNL A   1      32.887  30.914  26.576  1.00  0.00     0.338 C 
ATOM     22  O   UNL A   1      31.979  31.703  26.789  1.00  0.00    -0.246 OA
BRANCH  21  23
ATOM     23  C   UNL A   1      34.092  30.810  27.423  1.00  0.00     0.060 A 
ATOM     24  C   UNL A   1      34.810  31.951  27.787  1.00  0.00     0.016 A 
ATOM     25  C   UNL A   1      34.563  29.549  27.787  1.00  0.00     0.016 A 
ATOM     26  C   UNL A   1      36.034  31.836  28.440  1.00  0.00     0.010 A 
ATOM     27  C   UNL A   1      35.743  29.440  28.528  1.00  0.00     0.010 A 
ATOM     28  C   UNL A   1      36.504  30.580  28.839  1.00  0.00    -0.014 A 
BRANCH  28  29
ATOM     29  C   UNL A   1      37.798  30.445  29.558  1.00  0.00     0.031 A 
ATOM     30  C   UNL A   1      38.933  29.690  28.924  1.00  0.00     0.074 A 
ATOM     31  C   UNL A   1      37.952  30.978  30.785  1.00  0.00     0.049 A 
ATOM     32  N   UNL A   1      40.042  29.256  29.466  1.00  0.00    -0.248 NA
ATOM     33  C   UNL A   1      38.793  29.366  27.495  1.00  0.00     0.031 C 
ATOM     34  C   UNL A   1      36.953  31.774  31.500  1.00  0.00     0.029 A 
ATOM     35  N   UNL A   1      39.012  30.918  31.656  1.00  0.00    -0.354 N 
ATOM     36  C   UNL A   1      40.702  28.554  28.464  1.00  0.00     0.074 A 
ATOM     37  C   UNL A   1      39.874  28.629  27.279  1.00  0.00     0.031 C 
ATOM     38  C   UNL A   1      37.453  32.145  32.689  1.00  0.00     0.029 A 
ATOM     39  C   UNL A   1      38.772  31.545  32.854  1.00  0.00     0.049 A 
ATOM     40  H   UNL A   1      39.863  30.470  31.441  1.00  0.00     0.167 HD
ATOM     41  C   UNL A   1      41.887  27.903  28.533  1.00  0.00     0.037 A 
ATOM     42  C   UNL A   1      39.507  31.592  33.980  1.00  0.00     0.037 A 
ATOM     43  C   UNL A   1      42.734  27.885  29.696  1.00  0.00     0.049 A 
ATOM     44  C   UNL A   1      40.813  30.855  34.036  1.00  0.00     0.074 A 
ATOM     45  C   UNL A   1      43.962  27.267  29.859  1.00  0.00     0.029 A 
ATOM     46  N   UNL A   1      42.449  28.531  30.889  1.00  0.00    -0.354 N 
ATOM     47  N   UNL A   1      41.397  30.139  33.106  1.00  0.00    -0.248 NA
ATOM     48  C   UNL A   1      41.552  30.914  35.305  1.00  0.00     0.031 C 
ATOM     49  C   UNL A   1      44.411  27.521  31.161  1.00  0.00     0.029 A 
ATOM     50  C   UNL A   1      43.476  28.323  31.795  1.00  0.00     0.049 A 
ATOM     51  H   UNL A   1      41.638  29.060  31.065  1.00  0.00     0.167 HD
ATOM     52  C   UNL A   1      42.570  29.665  33.674  1.00  0.00     0.074 A 
ATOM     53  C   UNL A   1      42.628  30.193  35.022  1.00  0.00     0.031 C 
ATOM     54  C   UNL A   1      43.512  28.857  33.131  1.00  0.00     0.037 A 
BRANCH  41  55
ATOM     55  C   UNL A   1      42.323  27.127  27.327  1.00  0.00     0.057 A 
ATOM     56  C   UNL A   1      43.072  27.709  26.299  1.00  0.00     0.134 A 
ATOM     57  C   UNL A   1      42.021  25.764  27.219  1.00  0.00     0.134 A 
ATOM     58  F   UNL A   1      43.380  29.014  26.335  1.00  0.00    -0.206 F 
ATOM     59  C   UNL A   1      43.494  26.964  25.195  1.00  0.00     0.040 A 
ATOM     60  C   UNL A   1      42.454  25.004  26.132  1.00  0.00     0.040 A 
ATOM     61  F   UNL A   1      41.308  25.146  28.173  1.00  0.00    -0.206 F 
ATOM     62  C   UNL A   1      43.191  25.605  25.114  1.00  0.00     0.006 A 
ENDBRANCH  41  55
BRANCH  42  63
ATOM     63  C   UNL A   1      38.995  32.326  35.163  1.00  0.00     0.057 A 
ATOM     64  C   UNL A   1      38.317  31.659  36.189  1.00  0.00     0.134 A 
ATOM     65  C   UNL A   1      39.184  33.706  35.302  1.00  0.00     0.134 A 
ATOM     66  F   UNL A   1      38.085  30.341  36.099  1.00  0.00    -0.206 F 
ATOM     67  C   UNL A   1      37.839  32.339  37.309  1.00  0.00     0.040 A 
ATOM     68  C   UNL A   1      38.733  34.396  36.427  1.00  0.00     0.040 A 
ATOM     69  F   UNL A   1      39.827  34.401  34.353  1.00  0.00    -0.206 F 
ATOM     70  C   UNL A   1      38.055  33.712  37.435  1.00  0.00     0.006 A 
ENDBRANCH  42  63
BRANCH  54  71
ATOM     71  C   UNL A   1      44.689  28.516  33.992  1.00  0.00     0.057 A 
ATOM     72  C   UNL A   1      44.704  27.367  34.790  1.00  0.00     0.134 A 
ATOM     73  C   UNL A   1      45.827  29.332  34.002  1.00  0.00     0.134 A 
ATOM     74  F   UNL A   1      43.637  26.555  34.832  1.00  0.00    -0.206 F 
ATOM     75  C   UNL A   1      45.806  27.049  35.584  1.00  0.00     0.040 A 
ATOM     76  C   UNL A   1      46.942  29.014  34.778  1.00  0.00     0.040 A 
ATOM     77  F   UNL A   1      45.875  30.445  33.254  1.00  0.00    -0.206 F 
ATOM     78  C   UNL A   1      46.931  27.872  35.577  1.00  0.00     0.006 A 
ENDBRANCH  54  71
ENDBRANCH  28  29
ENDBRANCH  21  23
ENDBRANCH  20  21
ENDBRANCH  19  20
ENDBRANCH   1  19
TORSDOF 14
ENDMDL
