MODEL 1
REMARK VINA RESULT:     -11.6      0.000      0.000
REMARK SMILES C[NH+]1CCC(NC(=O)N[C@@H]2C=C[C@H](C(=O)OCCOC(=O)c3ccc(-c4c5nc(c(-c6c(F)cccc6F)c6ccc([nH]6)c(-c6c(F)cccc6F)c6nc(c(-c7c(F)cccc7F)c7ccc4[nH]7)C=C6)C=C5)cc3)C2)CC1
REMARK SMILES IDX 17 1 16 2 14 3 15 4 13 5 10 6 11 7 76 8 12 9 9 10 6 11 7 12
REMARK SMILES IDX 8 14 5 16 1 17 2 18 3 19 78 20 4 22 77 23 18 24 19 25 20 26
REMARK SMILES IDX 21 27 22 28 23 29 75 30 24 31 74 32 25 33 26 34 27 35 68 36
REMARK SMILES IDX 28 37 73 38 67 39 69 40 29 41 72 42 66 43 65 44 30 46 56 47
REMARK SMILES IDX 39 48 55 49 40 50 43 51 54 52 70 53 41 54 42 55 53 57 71 58
REMARK SMILES IDX 44 59 31 60 32 61 37 62 33 63 34 64 36 65 38 66 35 67 57 68
REMARK SMILES IDX 58 69 63 70 59 71 60 72 62 73 64 74 61 75 45 76 46 77 51 78
REMARK SMILES IDX 47 79 48 80 50 81 52 82 49 83
REMARK H PARENT 6 13 9 15 2 21 69 45 43 56
REMARK Flexibility Score: inf
ROOT
ATOM      1  C   UNL A   1      35.521  20.096  24.984  1.00  0.00     0.274 C 
ENDROOT
BRANCH   1   2
ATOM      2  O   UNL A   1      34.482  20.880  25.604  1.00  0.00    -0.462 OA
BRANCH   2   3
ATOM      3  C   UNL A   1      33.855  21.817  24.836  1.00  0.00     0.312 C 
ATOM      4  O   UNL A   1      33.460  21.651  23.691  1.00  0.00    -0.252 OA
BRANCH   3   5
ATOM      5  C   UNL A   1      33.662  23.090  25.651  1.00  0.00     0.124 C 
ATOM      6  C   UNL A   1      33.026  25.086  24.350  1.00  0.00     0.107 C 
ATOM      7  C   UNL A   1      34.429  25.171  24.859  1.00  0.00    -0.006 C 
ATOM      8  C   UNL A   1      32.463  23.891  25.136  1.00  0.00     0.048 C 
ATOM      9  C   UNL A   1      34.792  24.067  25.524  1.00  0.00    -0.014 C 
BRANCH   6  10
ATOM     10  N   UNL A   1      33.144  24.902  22.918  1.00  0.00    -0.332 N 
ATOM     11  N   UNL A   1      32.395  26.909  21.890  1.00  0.00    -0.335 N 
ATOM     12  C   UNL A   1      32.925  25.677  21.841  1.00  0.00     0.315 C 
ATOM     13  H   UNL A   1      32.072  27.249  21.024  1.00  0.00     0.165 HD
ATOM     14  O   UNL A   1      33.212  25.218  20.733  1.00  0.00    -0.249 OA
ATOM     15  H   UNL A   1      33.456  23.999  22.678  1.00  0.00     0.165 HD
BRANCH  11  16
ATOM     16  C   UNL A   1      32.217  27.822  22.993  1.00  0.00     0.095 C 
ATOM     17  C   UNL A   1      31.678  30.497  26.106  1.00  0.00     0.332 C 
ATOM     18  N   UNL A   1      31.944  30.117  24.713  1.00  0.00    -0.337 N 
ATOM     19  C   UNL A   1      30.758  29.439  24.162  1.00  0.00     0.264 C 
ATOM     20  C   UNL A   1      33.194  29.340  24.646  1.00  0.00     0.264 C 
ATOM     21  H   UNL A   1      32.099  30.934  24.121  1.00  0.00     0.347 HD
ATOM     22  C   UNL A   1      31.011  28.736  22.828  1.00  0.00     0.086 C 
ATOM     23  C   UNL A   1      33.432  28.691  23.279  1.00  0.00     0.086 C 
ENDBRANCH  11  16
ENDBRANCH   6  10
ENDBRANCH   3   5
ENDBRANCH   2   3
ENDBRANCH   1   2
BRANCH   1  24
ATOM     24  C   UNL A   1      36.704  20.986  24.613  1.00  0.00     0.275 C 
BRANCH  24  25
ATOM     25  O   UNL A   1      37.310  21.485  25.819  1.00  0.00    -0.458 OA
BRANCH  25  26
ATOM     26  C   UNL A   1      38.623  21.220  25.984  1.00  0.00     0.338 C 
ATOM     27  O   UNL A   1      39.231  20.206  25.677  1.00  0.00    -0.246 OA
BRANCH  26  28
ATOM     28  C   UNL A   1      39.279  22.413  26.535  1.00  0.00     0.060 A 
ATOM     29  C   UNL A   1      38.801  23.655  26.139  1.00  0.00     0.016 A 
ATOM     30  C   UNL A   1      40.421  22.321  27.331  1.00  0.00     0.016 A 
ATOM     31  C   UNL A   1      39.514  24.801  26.459  1.00  0.00     0.010 A 
ATOM     32  C   UNL A   1      41.082  23.493  27.733  1.00  0.00     0.010 A 
ATOM     33  C   UNL A   1      40.646  24.748  27.277  1.00  0.00    -0.014 A 
BRANCH  33  34
ATOM     34  C   UNL A   1      41.360  26.019  27.583  1.00  0.00     0.031 A 
ATOM     35  C   UNL A   1      40.731  27.039  28.489  1.00  0.00     0.074 A 
ATOM     36  C   UNL A   1      42.625  26.211  27.154  1.00  0.00     0.049 A 
ATOM     37  N   UNL A   1      41.152  28.238  28.801  1.00  0.00    -0.248 NA
ATOM     38  C   UNL A   1      39.469  26.656  29.142  1.00  0.00     0.031 C 
ATOM     39  C   UNL A   1      43.413  25.249  26.383  1.00  0.00     0.029 A 
ATOM     40  N   UNL A   1      43.488  27.265  27.347  1.00  0.00    -0.354 N 
ATOM     41  C   UNL A   1      40.182  28.775  29.636  1.00  0.00     0.074 A 
ATOM     42  C   UNL A   1      39.162  27.761  29.807  1.00  0.00     0.031 C 
ATOM     43  C   UNL A   1      44.657  25.727  26.222  1.00  0.00     0.029 A 
ATOM     44  C   UNL A   1      44.729  27.066  26.792  1.00  0.00     0.049 A 
ATOM     45  H   UNL A   1      43.238  28.082  27.836  1.00  0.00     0.167 HD
ATOM     46  C   UNL A   1      40.138  30.009  30.191  1.00  0.00     0.037 A 
ATOM     47  C   UNL A   1      45.798  27.882  26.719  1.00  0.00     0.037 A 
ATOM     48  C   UNL A   1      41.173  31.001  30.058  1.00  0.00     0.049 A 
ATOM     49  C   UNL A   1      45.699  29.269  27.288  1.00  0.00     0.074 A 
ATOM     50  C   UNL A   1      41.194  32.296  30.546  1.00  0.00     0.029 A 
ATOM     51  N   UNL A   1      42.378  30.800  29.404  1.00  0.00    -0.354 N 
ATOM     52  N   UNL A   1      44.729  29.810  27.982  1.00  0.00    -0.248 NA
ATOM     53  C   UNL A   1      46.831  30.172  27.031  1.00  0.00     0.031 C 
ATOM     54  C   UNL A   1      42.398  32.891  30.157  1.00  0.00     0.029 A 
ATOM     55  C   UNL A   1      43.141  31.954  29.457  1.00  0.00     0.049 A 
ATOM     56  H   UNL A   1      42.650  29.961  28.966  1.00  0.00     0.167 HD
ATOM     57  C   UNL A   1      45.125  31.116  28.235  1.00  0.00     0.074 A 
ATOM     58  C   UNL A   1      46.442  31.275  27.654  1.00  0.00     0.031 C 
ATOM     59  C   UNL A   1      44.448  32.100  28.872  1.00  0.00     0.037 A 
BRANCH  46  60
ATOM     60  C   UNL A   1      38.891  30.386  30.928  1.00  0.00     0.057 A 
ATOM     61  C   UNL A   1      37.786  30.958  30.290  1.00  0.00     0.134 A 
ATOM     62  C   UNL A   1      38.792  30.136  32.303  1.00  0.00     0.134 A 
ATOM     63  F   UNL A   1      37.826  31.240  28.979  1.00  0.00    -0.206 F 
ATOM     64  C   UNL A   1      36.626  31.280  30.999  1.00  0.00     0.040 A 
ATOM     65  C   UNL A   1      37.633  30.436  33.018  1.00  0.00     0.040 A 
ATOM     66  F   UNL A   1      39.819  29.589  32.970  1.00  0.00    -0.206 F 
ATOM     67  C   UNL A   1      36.546  31.012  32.365  1.00  0.00     0.006 A 
ENDBRANCH  46  60
BRANCH  47  68
ATOM     68  C   UNL A   1      47.032  27.442  26.018  1.00  0.00     0.057 A 
ATOM     69  C   UNL A   1      47.178  27.604  24.635  1.00  0.00     0.134 A 
ATOM     70  C   UNL A   1      48.080  26.820  26.707  1.00  0.00     0.134 A 
ATOM     71  F   UNL A   1      46.195  28.161  23.911  1.00  0.00    -0.206 F 
ATOM     72  C   UNL A   1      48.317  27.155  23.963  1.00  0.00     0.040 A 
ATOM     73  C   UNL A   1      49.236  26.392  26.053  1.00  0.00     0.040 A 
ATOM     74  F   UNL A   1      47.998  26.622  28.031  1.00  0.00    -0.206 F 
ATOM     75  C   UNL A   1      49.354  26.553  24.675  1.00  0.00     0.006 A 
ENDBRANCH  47  68
BRANCH  59  76
ATOM     76  C   UNL A   1      45.118  33.436  28.969  1.00  0.00     0.057 A 
ATOM     77  C   UNL A   1      46.024  33.723  29.998  1.00  0.00     0.134 A 
ATOM     78  C   UNL A   1      44.889  34.429  28.009  1.00  0.00     0.134 A 
ATOM     79  F   UNL A   1      46.274  32.818  30.956  1.00  0.00    -0.206 F 
ATOM     80  C   UNL A   1      46.667  34.959  30.078  1.00  0.00     0.040 A 
ATOM     81  C   UNL A   1      45.541  35.661  28.067  1.00  0.00     0.040 A 
ATOM     82  F   UNL A   1      44.037  34.213  26.996  1.00  0.00    -0.206 F 
ATOM     83  C   UNL A   1      46.431  35.929  29.106  1.00  0.00     0.006 A 
ENDBRANCH  59  76
ENDBRANCH  33  34
ENDBRANCH  26  28
ENDBRANCH  25  26
ENDBRANCH  24  25
ENDBRANCH   1  24
TORSDOF 13
ENDMDL
MODEL 2
REMARK VINA RESULT:     -11.5      4.127      9.136
REMARK SMILES C[NH+]1CCC(NC(=O)N[C@@H]2C=C[C@H](C(=O)OCCOC(=O)c3ccc(-c4c5nc(c(-c6c(F)cccc6F)c6ccc([nH]6)c(-c6c(F)cccc6F)c6nc(c(-c7c(F)cccc7F)c7ccc4[nH]7)C=C6)C=C5)cc3)C2)CC1
REMARK SMILES IDX 17 1 16 2 14 3 15 4 13 5 10 6 11 7 76 8 12 9 9 10 6 11 7 12
REMARK SMILES IDX 8 14 5 16 1 17 2 18 3 19 78 20 4 22 77 23 18 24 19 25 20 26
REMARK SMILES IDX 21 27 22 28 23 29 75 30 24 31 74 32 25 33 26 34 27 35 68 36
REMARK SMILES IDX 28 37 73 38 67 39 69 40 29 41 72 42 66 43 65 44 30 46 56 47
REMARK SMILES IDX 39 48 55 49 40 50 43 51 54 52 70 53 41 54 42 55 53 57 71 58
REMARK SMILES IDX 44 59 31 60 32 61 37 62 33 63 34 64 36 65 38 66 35 67 57 68
REMARK SMILES IDX 58 69 63 70 59 71 60 72 62 73 64 74 61 75 45 76 46 77 51 78
REMARK SMILES IDX 47 79 48 80 50 81 52 82 49 83
REMARK H PARENT 6 13 9 15 2 21 69 45 43 56
REMARK Flexibility Score: inf
ROOT
ATOM      1  C   UNL A   1      31.018  30.062  24.730  1.00  0.00     0.274 C 
ENDROOT
BRANCH   1   2
ATOM      2  O   UNL A   1      31.537  29.080  23.811  1.00  0.00    -0.462 OA
BRANCH   2   3
ATOM      3  C   UNL A   1      31.318  27.765  24.103  1.00  0.00     0.312 C 
ATOM      4  O   UNL A   1      30.249  27.279  24.441  1.00  0.00    -0.252 OA
BRANCH   3   5
ATOM      5  C   UNL A   1      32.604  26.979  23.879  1.00  0.00     0.124 C 
ATOM      6  C   UNL A   1      32.631  24.709  24.845  1.00  0.00     0.107 C 
ATOM      7  C   UNL A   1      33.529  25.646  25.586  1.00  0.00    -0.006 C 
ATOM      8  C   UNL A   1      32.298  25.509  23.575  1.00  0.00     0.048 C 
ATOM      9  C   UNL A   1      33.478  26.890  25.094  1.00  0.00    -0.014 C 
BRANCH   6  10
ATOM     10  N   UNL A   1      31.519  24.451  25.737  1.00  0.00    -0.332 N 
ATOM     11  N   UNL A   1      31.811  22.256  26.601  1.00  0.00    -0.335 N 
ATOM     12  C   UNL A   1      31.164  23.429  26.537  1.00  0.00     0.315 C 
ATOM     13  H   UNL A   1      31.304  21.533  27.035  1.00  0.00     0.165 HD
ATOM     14  O   UNL A   1      30.164  23.574  27.245  1.00  0.00    -0.249 OA
ATOM     15  H   UNL A   1      30.875  25.194  25.764  1.00  0.00     0.165 HD
BRANCH  11  16
ATOM     16  C   UNL A   1      33.124  21.871  26.142  1.00  0.00     0.095 C 
ATOM     17  C   UNL A   1      36.879  20.694  24.856  1.00  0.00     0.332 C 
ATOM     18  N   UNL A   1      35.715  20.672  25.750  1.00  0.00    -0.337 N 
ATOM     19  C   UNL A   1      34.539  20.196  25.000  1.00  0.00     0.264 C 
ATOM     20  C   UNL A   1      35.557  21.992  26.384  1.00  0.00     0.264 C 
ATOM     21  H   UNL A   1      35.840  20.013  26.519  1.00  0.00     0.347 HD
ATOM     22  C   UNL A   1      33.212  20.408  25.729  1.00  0.00     0.086 C 
ATOM     23  C   UNL A   1      34.236  22.147  27.143  1.00  0.00     0.086 C 
ENDBRANCH  11  16
ENDBRANCH   6  10
ENDBRANCH   3   5
ENDBRANCH   2   3
ENDBRANCH   1   2
BRANCH   1  24
ATOM     24  C   UNL A   1      31.659  29.891  26.104  1.00  0.00     0.275 C 
BRANCH  24  25
ATOM     25  O   UNL A   1      32.987  30.444  26.074  1.00  0.00    -0.458 OA
BRANCH  25  26
ATOM     26  C   UNL A   1      33.257  31.405  26.982  1.00  0.00     0.338 C 
ATOM     27  O   UNL A   1      32.551  32.342  27.319  1.00  0.00    -0.246 OA
BRANCH  26  28
ATOM     28  C   UNL A   1      34.553  31.109  27.608  1.00  0.00     0.060 A 
ATOM     29  C   UNL A   1      34.829  29.788  27.932  1.00  0.00     0.016 A 
ATOM     30  C   UNL A   1      35.433  32.123  27.985  1.00  0.00     0.016 A 
ATOM     31  C   UNL A   1      35.935  29.487  28.711  1.00  0.00     0.010 A 
ATOM     32  C   UNL A   1      36.603  31.797  28.690  1.00  0.00     0.010 A 
ATOM     33  C   UNL A   1      36.853  30.473  29.083  1.00  0.00    -0.014 A 
BRANCH  33  34
ATOM     34  C   UNL A   1      38.021  30.076  29.917  1.00  0.00     0.031 A 
ATOM     35  C   UNL A   1      39.137  29.269  29.318  1.00  0.00     0.074 A 
ATOM     36  C   UNL A   1      38.148  30.541  31.178  1.00  0.00     0.049 A 
ATOM     37  N   UNL A   1      40.189  28.752  29.902  1.00  0.00    -0.248 NA
ATOM     38  C   UNL A   1      39.072  29.021  27.870  1.00  0.00     0.031 C 
ATOM     39  C   UNL A   1      37.212  31.447  31.845  1.00  0.00     0.029 A 
ATOM     40  N   UNL A   1      39.144  30.353  32.108  1.00  0.00    -0.354 N 
ATOM     41  C   UNL A   1      40.877  28.070  28.908  1.00  0.00     0.074 A 
ATOM     42  C   UNL A   1      40.141  28.261  27.676  1.00  0.00     0.031 C 
ATOM     43  C   UNL A   1      37.705  31.783  33.047  1.00  0.00     0.029 A 
ATOM     44  C   UNL A   1      38.941  31.045  33.277  1.00  0.00     0.049 A 
ATOM     45  H   UNL A   1      39.926  29.776  31.949  1.00  0.00     0.167 HD
ATOM     46  C   UNL A   1      42.008  27.335  29.021  1.00  0.00     0.037 A 
ATOM     47  C   UNL A   1      39.651  31.062  34.422  1.00  0.00     0.037 A 
ATOM     48  C   UNL A   1      42.765  27.183  30.235  1.00  0.00     0.049 A 
ATOM     49  C   UNL A   1      40.867  30.188  34.540  1.00  0.00     0.074 A 
ATOM     50  C   UNL A   1      43.899  26.419  30.455  1.00  0.00     0.029 A 
ATOM     51  N   UNL A   1      42.475  27.822  31.430  1.00  0.00    -0.354 N 
ATOM     52  N   UNL A   1      41.449  29.454  33.624  1.00  0.00    -0.248 NA
ATOM     53  C   UNL A   1      41.503  30.115  35.864  1.00  0.00     0.031 C 
ATOM     54  C   UNL A   1      44.274  26.568  31.794  1.00  0.00     0.029 A 
ATOM     55  C   UNL A   1      43.395  27.453  32.397  1.00  0.00     0.049 A 
ATOM     56  H   UNL A   1      41.726  28.445  31.571  1.00  0.00     0.167 HD
ATOM     57  C   UNL A   1      42.511  28.825  34.260  1.00  0.00     0.074 A 
ATOM     58  C   UNL A   1      42.517  29.293  35.631  1.00  0.00     0.031 C 
ATOM     59  C   UNL A   1      43.387  27.924  33.757  1.00  0.00     0.037 A 
BRANCH  46  60
ATOM     60  C   UNL A   1      42.453  26.572  27.813  1.00  0.00     0.057 A 
ATOM     61  C   UNL A   1      41.997  25.280  27.531  1.00  0.00     0.134 A 
ATOM     62  C   UNL A   1      43.334  27.165  26.899  1.00  0.00     0.134 A 
ATOM     63  F   UNL A   1      41.167  24.651  28.377  1.00  0.00    -0.206 F 
ATOM     64  C   UNL A   1      42.411  24.599  26.384  1.00  0.00     0.040 A 
ATOM     65  C   UNL A   1      43.741  26.502  25.741  1.00  0.00     0.040 A 
ATOM     66  F   UNL A   1      43.806  28.402  27.115  1.00  0.00    -0.206 F 
ATOM     67  C   UNL A   1      43.280  25.213  25.483  1.00  0.00     0.006 A 
ENDBRANCH  46  60
BRANCH  47  68
ATOM     68  C   UNL A   1      39.193  31.875  35.577  1.00  0.00     0.057 A 
ATOM     69  C   UNL A   1      38.282  31.365  36.510  1.00  0.00     0.134 A 
ATOM     70  C   UNL A   1      39.630  33.193  35.760  1.00  0.00     0.134 A 
ATOM     71  F   UNL A   1      37.798  30.122  36.371  1.00  0.00    -0.206 F 
ATOM     72  C   UNL A   1      37.816  32.139  37.574  1.00  0.00     0.040 A 
ATOM     73  C   UNL A   1      39.195  33.969  36.836  1.00  0.00     0.040 A 
ATOM     74  F   UNL A   1      40.493  33.747  34.895  1.00  0.00    -0.206 F 
ATOM     75  C   UNL A   1      38.278  33.444  37.743  1.00  0.00     0.006 A 
ENDBRANCH  47  68
BRANCH  59  76
ATOM     76  C   UNL A   1      44.421  27.383  34.696  1.00  0.00     0.057 A 
ATOM     77  C   UNL A   1      44.207  26.197  35.411  1.00  0.00     0.134 A 
ATOM     78  C   UNL A   1      45.653  28.027  34.859  1.00  0.00     0.134 A 
ATOM     79  F   UNL A   1      43.042  25.542  35.308  1.00  0.00    -0.206 F 
ATOM     80  C   UNL A   1      45.178  25.679  36.269  1.00  0.00     0.040 A 
ATOM     81  C   UNL A   1      46.640  27.508  35.699  1.00  0.00     0.040 A 
ATOM     82  F   UNL A   1      45.921  29.163  34.198  1.00  0.00    -0.206 F 
ATOM     83  C   UNL A   1      46.402  26.332  36.408  1.00  0.00     0.006 A 
ENDBRANCH  59  76
ENDBRANCH  33  34
ENDBRANCH  26  28
ENDBRANCH  25  26
ENDBRANCH  24  25
ENDBRANCH   1  24
TORSDOF 13
ENDMDL
MODEL 3
REMARK VINA RESULT:     -11.3      4.469      7.077
REMARK SMILES C[NH+]1CCC(NC(=O)N[C@@H]2C=C[C@H](C(=O)OCCOC(=O)c3ccc(-c4c5nc(c(-c6c(F)cccc6F)c6ccc([nH]6)c(-c6c(F)cccc6F)c6nc(c(-c7c(F)cccc7F)c7ccc4[nH]7)C=C6)C=C5)cc3)C2)CC1
REMARK SMILES IDX 17 1 16 2 14 3 15 4 13 5 10 6 11 7 76 8 12 9 9 10 6 11 7 12
REMARK SMILES IDX 8 14 5 16 1 17 2 18 3 19 78 20 4 22 77 23 18 24 19 25 20 26
REMARK SMILES IDX 21 27 22 28 23 29 75 30 24 31 74 32 25 33 26 34 27 35 68 36
REMARK SMILES IDX 28 37 73 38 67 39 69 40 29 41 72 42 66 43 65 44 30 46 56 47
REMARK SMILES IDX 39 48 55 49 40 50 43 51 54 52 70 53 41 54 42 55 53 57 71 58
REMARK SMILES IDX 44 59 31 60 32 61 37 62 33 63 34 64 36 65 38 66 35 67 57 68
REMARK SMILES IDX 58 69 63 70 59 71 60 72 62 73 64 74 61 75 45 76 46 77 51 78
REMARK SMILES IDX 47 79 48 80 50 81 52 82 49 83
REMARK H PARENT 6 13 9 15 2 21 69 45 43 56
REMARK Flexibility Score: inf
ROOT
ATOM      1  C   UNL A   1      40.315  21.513  26.319  1.00  0.00     0.274 C 
ENDROOT
BRANCH   1   2
ATOM      2  O   UNL A   1      39.028  22.156  26.417  1.00  0.00    -0.462 OA
BRANCH   2   3
ATOM      3  C   UNL A   1      38.065  21.777  25.529  1.00  0.00     0.312 C 
ATOM      4  O   UNL A   1      37.862  20.635  25.142  1.00  0.00    -0.252 OA
BRANCH   3   5
ATOM      5  C   UNL A   1      37.232  22.992  25.140  1.00  0.00     0.124 C 
ATOM      6  C   UNL A   1      34.820  22.567  24.849  1.00  0.00     0.107 C 
ATOM      7  C   UNL A   1      35.506  22.826  23.547  1.00  0.00    -0.006 C 
ATOM      8  C   UNL A   1      35.887  22.990  25.872  1.00  0.00     0.048 C 
ATOM      9  C   UNL A   1      36.823  23.009  23.697  1.00  0.00    -0.014 C 
BRANCH   6  10
ATOM     10  N   UNL A   1      34.482  21.158  24.835  1.00  0.00    -0.332 N 
ATOM     11  N   UNL A   1      32.178  20.987  25.391  1.00  0.00    -0.335 N 
ATOM     12  C   UNL A   1      33.351  20.453  25.018  1.00  0.00     0.315 C 
ATOM     13  H   UNL A   1      31.518  20.334  25.719  1.00  0.00     0.165 HD
ATOM     14  O   UNL A   1      33.401  19.232  24.853  1.00  0.00    -0.249 OA
ATOM     15  H   UNL A   1      35.260  20.584  24.649  1.00  0.00     0.165 HD
BRANCH  11  16
ATOM     16  C   UNL A   1      31.716  22.353  25.394  1.00  0.00     0.095 C 
ATOM     17  C   UNL A   1      30.315  26.249  25.416  1.00  0.00     0.332 C 
ATOM     18  N   UNL A   1      30.209  24.801  25.195  1.00  0.00    -0.337 N 
ATOM     19  C   UNL A   1      30.354  24.104  26.486  1.00  0.00     0.264 C 
ATOM     20  C   UNL A   1      31.167  24.392  24.154  1.00  0.00     0.264 C 
ATOM     21  H   UNL A   1      29.289  24.539  24.839  1.00  0.00     0.347 HD
ATOM     22  C   UNL A   1      30.559  22.596  26.354  1.00  0.00     0.086 C 
ATOM     23  C   UNL A   1      31.308  22.872  24.023  1.00  0.00     0.086 C 
ENDBRANCH  11  16
ENDBRANCH   6  10
ENDBRANCH   3   5
ENDBRANCH   2   3
ENDBRANCH   1   2
BRANCH   1  24
ATOM     24  C   UNL A   1      41.428  22.557  26.313  1.00  0.00     0.275 C 
BRANCH  24  25
ATOM     25  O   UNL A   1      40.845  23.861  26.140  1.00  0.00    -0.458 OA
BRANCH  25  26
ATOM     26  C   UNL A   1      41.701  24.905  26.132  1.00  0.00     0.338 C 
ATOM     27  O   UNL A   1      42.646  25.097  25.383  1.00  0.00    -0.246 OA
BRANCH  26  28
ATOM     28  C   UNL A   1      41.268  25.876  27.145  1.00  0.00     0.060 A 
ATOM     29  C   UNL A   1      42.002  27.048  27.274  1.00  0.00     0.016 A 
ATOM     30  C   UNL A   1      40.235  25.593  28.038  1.00  0.00     0.016 A 
ATOM     31  C   UNL A   1      41.767  27.893  28.348  1.00  0.00     0.010 A 
ATOM     32  C   UNL A   1      39.939  26.503  29.066  1.00  0.00     0.010 A 
ATOM     33  C   UNL A   1      40.723  27.654  29.246  1.00  0.00    -0.014 A 
BRANCH  33  34
ATOM     34  C   UNL A   1      40.526  28.606  30.374  1.00  0.00     0.031 A 
ATOM     35  C   UNL A   1      39.426  29.628  30.317  1.00  0.00     0.074 A 
ATOM     36  C   UNL A   1      41.249  28.480  31.507  1.00  0.00     0.049 A 
ATOM     37  N   UNL A   1      39.155  30.597  31.154  1.00  0.00    -0.248 NA
ATOM     38  C   UNL A   1      38.501  29.541  29.177  1.00  0.00     0.031 C 
ATOM     39  C   UNL A   1      42.255  27.448  31.758  1.00  0.00     0.029 A 
ATOM     40  N   UNL A   1      41.214  29.199  32.678  1.00  0.00    -0.354 N 
ATOM     41  C   UNL A   1      38.068  31.270  30.613  1.00  0.00     0.074 A 
ATOM     42  C   UNL A   1      37.710  30.584  29.390  1.00  0.00     0.031 C 
ATOM     43  C   UNL A   1      42.695  27.561  33.021  1.00  0.00     0.029 A 
ATOM     44  C   UNL A   1      42.077  28.728  33.638  1.00  0.00     0.049 A 
ATOM     45  H   UNL A   1      40.626  29.977  32.815  1.00  0.00     0.167 HD
ATOM     46  C   UNL A   1      37.442  32.373  31.087  1.00  0.00     0.037 A 
ATOM     47  C   UNL A   1      42.366  29.199  34.866  1.00  0.00     0.037 A 
ATOM     48  C   UNL A   1      37.768  33.029  32.326  1.00  0.00     0.049 A 
ATOM     49  C   UNL A   1      41.702  30.460  35.340  1.00  0.00     0.074 A 
ATOM     50  C   UNL A   1      37.218  34.180  32.863  1.00  0.00     0.029 A 
ATOM     51  N   UNL A   1      38.718  32.580  33.229  1.00  0.00    -0.354 N 
ATOM     52  N   UNL A   1      40.751  31.158  34.769  1.00  0.00    -0.248 NA
ATOM     53  C   UNL A   1      42.179  31.022  36.613  1.00  0.00     0.031 C 
ATOM     54  C   UNL A   1      37.861  34.448  34.076  1.00  0.00     0.029 A 
ATOM     55  C   UNL A   1      38.786  33.443  34.310  1.00  0.00     0.049 A 
ATOM     56  H   UNL A   1      39.264  31.768  33.118  1.00  0.00     0.167 HD
ATOM     57  C   UNL A   1      40.523  32.243  35.604  1.00  0.00     0.074 A 
ATOM     58  C   UNL A   1      41.408  32.092  36.741  1.00  0.00     0.031 C 
ATOM     59  C   UNL A   1      39.673  33.282  35.432  1.00  0.00     0.037 A 
BRANCH  46  60
ATOM     60  C   UNL A   1      36.390  32.989  30.219  1.00  0.00     0.057 A 
ATOM     61  C   UNL A   1      36.701  33.804  29.126  1.00  0.00     0.134 A 
ATOM     62  C   UNL A   1      35.036  32.729  30.473  1.00  0.00     0.134 A 
ATOM     63  F   UNL A   1      37.976  34.107  28.842  1.00  0.00    -0.206 F 
ATOM     64  C   UNL A   1      35.698  34.349  28.319  1.00  0.00     0.040 A 
ATOM     65  C   UNL A   1      34.028  33.252  29.664  1.00  0.00     0.040 A 
ATOM     66  F   UNL A   1      34.675  31.955  31.507  1.00  0.00    -0.206 F 
ATOM     67  C   UNL A   1      34.359  34.067  28.583  1.00  0.00     0.006 A 
ENDBRANCH  46  60
BRANCH  47  68
ATOM     68  C   UNL A   1      43.385  28.522  35.710  1.00  0.00     0.057 A 
ATOM     69  C   UNL A   1      44.744  28.836  35.600  1.00  0.00     0.134 A 
ATOM     70  C   UNL A   1      43.028  27.521  36.622  1.00  0.00     0.134 A 
ATOM     71  F   UNL A   1      45.155  29.760  34.719  1.00  0.00    -0.206 F 
ATOM     72  C   UNL A   1      45.711  28.174  36.360  1.00  0.00     0.040 A 
ATOM     73  C   UNL A   1      43.980  26.871  37.408  1.00  0.00     0.040 A 
ATOM     74  F   UNL A   1      41.743  27.162  36.766  1.00  0.00    -0.206 F 
ATOM     75  C   UNL A   1      45.328  27.192  37.272  1.00  0.00     0.006 A 
ENDBRANCH  47  68
BRANCH  59  76
ATOM     76  C   UNL A   1      39.663  34.338  36.494  1.00  0.00     0.057 A 
ATOM     77  C   UNL A   1      38.899  34.191  37.659  1.00  0.00     0.134 A 
ATOM     78  C   UNL A   1      40.449  35.489  36.373  1.00  0.00     0.134 A 
ATOM     79  F   UNL A   1      38.113  33.117  37.827  1.00  0.00    -0.206 F 
ATOM     80  C   UNL A   1      38.905  35.163  38.661  1.00  0.00     0.040 A 
ATOM     81  C   UNL A   1      40.480  36.458  37.378  1.00  0.00     0.040 A 
ATOM     82  F   UNL A   1      41.207  35.685  35.284  1.00  0.00    -0.206 F 
ATOM     83  C   UNL A   1      39.703  36.297  38.524  1.00  0.00     0.006 A 
ENDBRANCH  59  76
ENDBRANCH  33  34
ENDBRANCH  26  28
ENDBRANCH  25  26
ENDBRANCH  24  25
ENDBRANCH   1  24
TORSDOF 13
ENDMDL
