MODEL 1
REMARK VINA RESULT:     -13.3      0.000      0.000
REMARK SMILES Cc1coc2cc3c(cc12)[C@@H](C)[C@H](CCC(=O)N[C@@H](Cc1c[nH]c2ccccc12)C(=O)OCCOC(=O)c1ccc(-c2c4nc(c(-c5c(F)cccc5F)c5ccc([nH]5)c(-c5c(F)cccc5F)c5nc(c(-c6c(F)cccc6F)c6ccc2[nH]6)C=C5)C=C4)cc1)C(=O)O3
REMARK SMILES IDX 33 1 32 2 30 3 31 4 19 5 18 6 16 7 17 8 15 10 14 11 13 12
REMARK SMILES IDX 1 13 2 14 3 15 10 16 4 17 5 18 9 19 6 20 8 21 7 22 11 23
REMARK SMILES IDX 94 24 12 25 92 26 93 27 20 28 21 29 22 30 29 31 23 32 24 33
REMARK SMILES IDX 28 34 25 36 27 37 26 38 34 39 35 40 36 41 37 42 38 43 39 44
REMARK SMILES IDX 91 45 40 46 90 47 41 48 42 49 43 50 84 51 44 52 89 53 83 54
REMARK SMILES IDX 85 55 45 56 88 57 82 58 81 59 46 61 72 62 55 63 71 64 56 65
REMARK SMILES IDX 59 66 70 67 86 68 57 69 58 70 69 72 87 73 60 74 47 75 48 76
REMARK SMILES IDX 53 77 49 78 50 79 52 80 54 81 51 82 73 83 74 84 79 85 75 86
REMARK SMILES IDX 76 87 78 88 80 89 77 90 61 91 62 92 67 93 63 94 64 95 66 96
REMARK SMILES IDX 68 97 65 98
REMARK H PARENT 18 9 23 35 85 60 59 71
REMARK Flexibility Score: inf
ROOT
ATOM      1  C   UNL A   1      37.695  22.091  25.192  1.00  0.00     0.274 C 
ENDROOT
BRANCH   1   2
ATOM      2  O   UNL A   1      36.547  22.062  26.055  1.00  0.00    -0.461 OA
BRANCH   2   3
ATOM      3  C   UNL A   1      35.604  22.976  25.730  1.00  0.00     0.329 C 
ATOM      4  O   UNL A   1      35.821  24.168  25.532  1.00  0.00    -0.250 OA
BRANCH   3   5
ATOM      5  C   UNL A   1      34.204  22.390  25.762  1.00  0.00     0.196 C 
BRANCH   5   6
ATOM      6  N   UNL A   1      33.118  23.088  26.611  1.00  0.00    -0.342 N 
ATOM      7  C   UNL A   1      31.862  23.682  26.505  1.00  0.00     0.220 C 
ATOM      8  O   UNL A   1      31.399  23.981  27.625  1.00  0.00    -0.275 OA
ATOM      9  H   UNL A   1      33.416  23.126  27.549  1.00  0.00     0.164 HD
BRANCH   7  10
ATOM     10  C   UNL A   1      30.833  24.045  25.233  1.00  0.00     0.101 C 
BRANCH  10  11
ATOM     11  C   UNL A   1      30.969  24.539  23.649  1.00  0.00     0.026 C 
BRANCH  11  12
ATOM     12  C   UNL A   1      30.305  25.853  23.093  1.00  0.00     0.107 C 
ATOM     13  C   UNL A   1      32.615  31.275  27.254  1.00  0.00     0.048 C 
ATOM     14  C   UNL A   1      33.245  29.994  26.890  1.00  0.00    -0.005 A 
ATOM     15  C   UNL A   1      34.541  29.598  27.153  1.00  0.00     0.199 A 
ATOM     16  C   UNL A   1      32.644  28.938  26.150  1.00  0.00     0.024 A 
ATOM     17  O   UNL A   1      34.793  28.383  26.623  1.00  0.00    -0.464 OA
ATOM     18  C   UNL A   1      33.667  28.011  25.975  1.00  0.00     0.137 A 
ATOM     19  C   UNL A   1      31.375  28.702  25.555  1.00  0.00     0.020 A 
ATOM     20  C   UNL A   1      33.592  26.921  25.153  1.00  0.00     0.095 A 
ATOM     21  C   UNL A   1      31.246  27.600  24.718  1.00  0.00    -0.001 A 
ATOM     22  C   UNL A   1      32.406  26.904  24.446  1.00  0.00     0.138 A 
ATOM     23  C   UNL A   1      30.078  27.241  23.835  1.00  0.00     0.034 C 
ATOM     24  O   UNL A   1      32.504  26.481  23.107  1.00  0.00    -0.426 OA
ATOM     25  C   UNL A   1      29.992  28.385  22.786  1.00  0.00     0.014 C 
ATOM     26  C   UNL A   1      31.416  26.260  22.282  1.00  0.00     0.314 C 
ATOM     27  O   UNL A   1      31.404  26.336  21.089  1.00  0.00    -0.251 OA
ENDBRANCH  11  12
ENDBRANCH  10  11
ENDBRANCH   7  10
ENDBRANCH   5   6
BRANCH   5  28
ATOM     28  C   UNL A   1      34.002  21.965  24.275  1.00  0.00     0.074 C 
BRANCH  28  29
ATOM     29  C   UNL A   1      33.238  20.777  23.798  1.00  0.00    -0.020 A 
ATOM     30  C   UNL A   1      32.190  20.891  22.896  1.00  0.00     0.087 A 
ATOM     31  C   UNL A   1      33.534  19.394  23.917  1.00  0.00     0.003 A 
ATOM     32  N   UNL A   1      31.857  19.643  22.460  1.00  0.00    -0.361 N 
ATOM     33  C   UNL A   1      32.675  18.712  23.050  1.00  0.00     0.046 A 
ATOM     34  C   UNL A   1      34.494  18.652  24.626  1.00  0.00     0.010 A 
ATOM     35  H   UNL A   1      31.138  19.440  21.819  1.00  0.00     0.166 HD
ATOM     36  C   UNL A   1      32.739  17.330  22.854  1.00  0.00     0.026 A 
ATOM     37  C   UNL A   1      34.561  17.269  24.456  1.00  0.00     0.001 A 
ATOM     38  C   UNL A   1      33.700  16.620  23.577  1.00  0.00     0.002 A 
ENDBRANCH  28  29
ENDBRANCH   5  28
ENDBRANCH   3   5
ENDBRANCH   2   3
ENDBRANCH   1   2
BRANCH   1  39
ATOM     39  C   UNL A   1      38.727  21.165  25.831  1.00  0.00     0.275 C 
BRANCH  39  40
ATOM     40  O   UNL A   1      39.991  21.869  25.913  1.00  0.00    -0.458 OA
BRANCH  40  41
ATOM     41  C   UNL A   1      40.459  22.150  27.156  1.00  0.00     0.338 C 
ATOM     42  O   UNL A   1      40.773  21.328  28.002  1.00  0.00    -0.246 OA
BRANCH  41  43
ATOM     43  C   UNL A   1      40.867  23.588  27.212  1.00  0.00     0.060 A 
ATOM     44  C   UNL A   1      41.988  24.066  27.903  1.00  0.00     0.016 A 
ATOM     45  C   UNL A   1      39.919  24.502  26.795  1.00  0.00     0.016 A 
ATOM     46  C   UNL A   1      42.022  25.392  28.403  1.00  0.00     0.010 A 
ATOM     47  C   UNL A   1      39.955  25.792  27.326  1.00  0.00     0.010 A 
ATOM     48  C   UNL A   1      40.926  26.237  28.243  1.00  0.00    -0.014 A 
BRANCH  48  49
ATOM     49  C   UNL A   1      40.826  27.640  28.786  1.00  0.00     0.031 A 
ATOM     50  C   UNL A   1      41.902  28.484  28.188  1.00  0.00     0.074 A 
ATOM     51  C   UNL A   1      39.889  28.273  29.569  1.00  0.00     0.049 A 
ATOM     52  N   UNL A   1      43.031  28.738  28.766  1.00  0.00    -0.248 NA
ATOM     53  C   UNL A   1      41.868  28.892  26.771  1.00  0.00     0.031 C 
ATOM     54  C   UNL A   1      38.613  27.783  30.111  1.00  0.00     0.029 A 
ATOM     55  N   UNL A   1      39.842  29.599  29.984  1.00  0.00    -0.354 N 
ATOM     56  C   UNL A   1      43.750  29.504  27.864  1.00  0.00     0.074 A 
ATOM     57  C   UNL A   1      43.114  29.334  26.591  1.00  0.00     0.031 C 
ATOM     58  C   UNL A   1      37.835  28.817  30.547  1.00  0.00     0.029 A 
ATOM     59  C   UNL A   1      38.606  30.054  30.518  1.00  0.00     0.049 A 
ATOM     60  H   UNL A   1      40.624  30.193  29.911  1.00  0.00     0.167 HD
ATOM     61  C   UNL A   1      44.638  30.437  28.295  1.00  0.00     0.037 A 
ATOM     62  C   UNL A   1      38.295  31.326  30.957  1.00  0.00     0.037 A 
ATOM     63  C   UNL A   1      44.910  30.274  29.704  1.00  0.00     0.049 A 
ATOM     64  C   UNL A   1      39.583  31.941  31.333  1.00  0.00     0.074 A 
ATOM     65  C   UNL A   1      45.395  29.239  30.480  1.00  0.00     0.029 A 
ATOM     66  N   UNL A   1      44.259  31.116  30.571  1.00  0.00    -0.354 N 
ATOM     67  N   UNL A   1      40.305  31.542  32.337  1.00  0.00    -0.248 NA
ATOM     68  C   UNL A   1      40.267  32.703  30.307  1.00  0.00     0.031 C 
ATOM     69  C   UNL A   1      44.596  29.258  31.662  1.00  0.00     0.029 A 
ATOM     70  C   UNL A   1      43.743  30.357  31.591  1.00  0.00     0.049 A 
ATOM     71  H   UNL A   1      44.177  32.093  30.478  1.00  0.00     0.167 HD
ATOM     72  C   UNL A   1      41.596  31.567  31.845  1.00  0.00     0.074 A 
ATOM     73  C   UNL A   1      41.520  32.358  30.613  1.00  0.00     0.031 C 
ATOM     74  C   UNL A   1      42.536  30.693  32.307  1.00  0.00     0.037 A 
BRANCH  61  75
ATOM     75  C   UNL A   1      44.954  31.705  27.550  1.00  0.00     0.057 A 
ATOM     76  C   UNL A   1      46.219  31.846  26.961  1.00  0.00     0.134 A 
ATOM     77  C   UNL A   1      44.178  32.882  27.601  1.00  0.00     0.134 A 
ATOM     78  F   UNL A   1      47.060  30.805  26.880  1.00  0.00    -0.206 F 
ATOM     79  C   UNL A   1      46.698  33.079  26.505  1.00  0.00     0.040 A 
ATOM     80  C   UNL A   1      44.623  34.106  27.096  1.00  0.00     0.040 A 
ATOM     81  F   UNL A   1      42.997  32.945  28.229  1.00  0.00    -0.206 F 
ATOM     82  C   UNL A   1      45.900  34.215  26.571  1.00  0.00     0.006 A 
ENDBRANCH  61  75
BRANCH  62  83
ATOM     83  C   UNL A   1      37.087  32.233  30.951  1.00  0.00     0.057 A 
ATOM     84  C   UNL A   1      36.605  32.894  29.804  1.00  0.00     0.134 A 
ATOM     85  C   UNL A   1      36.115  32.112  31.951  1.00  0.00     0.134 A 
ATOM     86  F   UNL A   1      37.350  32.949  28.690  1.00  0.00    -0.206 F 
ATOM     87  C   UNL A   1      35.290  33.415  29.707  1.00  0.00     0.040 A 
ATOM     88  C   UNL A   1      34.836  32.693  31.921  1.00  0.00     0.040 A 
ATOM     89  F   UNL A   1      36.264  31.183  32.883  1.00  0.00    -0.206 F 
ATOM     90  C   UNL A   1      34.405  33.333  30.777  1.00  0.00     0.006 A 
ENDBRANCH  62  83
BRANCH  74  91
ATOM     91  C   UNL A   1      42.208  29.874  33.532  1.00  0.00     0.057 A 
ATOM     92  C   UNL A   1      41.694  28.566  33.517  1.00  0.00     0.134 A 
ATOM     93  C   UNL A   1      42.569  30.386  34.783  1.00  0.00     0.134 A 
ATOM     94  F   UNL A   1      41.393  27.950  32.370  1.00  0.00    -0.206 F 
ATOM     95  C   UNL A   1      41.522  27.820  34.689  1.00  0.00     0.040 A 
ATOM     96  C   UNL A   1      42.432  29.641  35.957  1.00  0.00     0.040 A 
ATOM     97  F   UNL A   1      43.106  31.612  34.878  1.00  0.00    -0.206 F 
ATOM     98  C   UNL A   1      41.900  28.356  35.915  1.00  0.00     0.006 A 
ENDBRANCH  74  91
ENDBRANCH  48  49
ENDBRANCH  41  43
ENDBRANCH  40  41
ENDBRANCH  39  40
ENDBRANCH   1  39
TORSDOF 17
ENDMDL
MODEL 2
REMARK VINA RESULT:     -13.2      4.022     10.003
REMARK SMILES Cc1coc2cc3c(cc12)[C@@H](C)[C@H](CCC(=O)N[C@@H](Cc1c[nH]c2ccccc12)C(=O)OCCOC(=O)c1ccc(-c2c4nc(c(-c5c(F)cccc5F)c5ccc([nH]5)c(-c5c(F)cccc5F)c5nc(c(-c6c(F)cccc6F)c6ccc2[nH]6)C=C5)C=C4)cc1)C(=O)O3
REMARK SMILES IDX 33 1 32 2 30 3 31 4 19 5 18 6 16 7 17 8 15 10 14 11 13 12
REMARK SMILES IDX 1 13 2 14 3 15 10 16 4 17 5 18 9 19 6 20 8 21 7 22 11 23
REMARK SMILES IDX 94 24 12 25 92 26 93 27 20 28 21 29 22 30 29 31 23 32 24 33
REMARK SMILES IDX 28 34 25 36 27 37 26 38 34 39 35 40 36 41 37 42 38 43 39 44
REMARK SMILES IDX 91 45 40 46 90 47 41 48 42 49 43 50 84 51 44 52 89 53 83 54
REMARK SMILES IDX 85 55 45 56 88 57 82 58 81 59 46 61 72 62 55 63 71 64 56 65
REMARK SMILES IDX 59 66 70 67 86 68 57 69 58 70 69 72 87 73 60 74 47 75 48 76
REMARK SMILES IDX 53 77 49 78 50 79 52 80 54 81 51 82 73 83 74 84 79 85 75 86
REMARK SMILES IDX 76 87 78 88 80 89 77 90 61 91 62 92 67 93 63 94 64 95 66 96
REMARK SMILES IDX 68 97 65 98
REMARK H PARENT 18 9 23 35 85 60 59 71
REMARK Flexibility Score: inf
ROOT
ATOM      1  C   UNL A   1      33.235  35.576  28.661  1.00  0.00     0.274 C 
ENDROOT
BRANCH   1   2
ATOM      2  O   UNL A   1      34.088  34.466  28.341  1.00  0.00    -0.461 OA
BRANCH   2   3
ATOM      3  C   UNL A   1      33.411  33.351  27.981  1.00  0.00     0.329 C 
ATOM      4  O   UNL A   1      32.302  33.342  27.453  1.00  0.00    -0.250 OA
BRANCH   3   5
ATOM      5  C   UNL A   1      34.119  32.083  28.423  1.00  0.00     0.196 C 
BRANCH   5   6
ATOM      6  N   UNL A   1      33.429  30.720  28.197  1.00  0.00    -0.342 N 
ATOM      7  C   UNL A   1      32.709  30.005  27.242  1.00  0.00     0.220 C 
ATOM      8  O   UNL A   1      32.504  28.829  27.606  1.00  0.00    -0.275 OA
ATOM      9  H   UNL A   1      33.532  30.167  29.004  1.00  0.00     0.164 HD
BRANCH   7  10
ATOM     10  C   UNL A   1      32.098  30.354  25.720  1.00  0.00     0.101 C 
BRANCH  10  11
ATOM     11  C   UNL A   1      31.339  29.534  24.486  1.00  0.00     0.026 C 
BRANCH  11  12
ATOM     12  C   UNL A   1      32.115  28.807  23.326  1.00  0.00     0.107 C 
ATOM     13  C   UNL A   1      34.674  22.647  26.075  1.00  0.00     0.048 C 
ATOM     14  C   UNL A   1      33.482  23.441  26.415  1.00  0.00    -0.005 A 
ATOM     15  C   UNL A   1      32.460  23.084  27.273  1.00  0.00     0.199 A 
ATOM     16  C   UNL A   1      33.133  24.714  25.883  1.00  0.00     0.024 A 
ATOM     17  O   UNL A   1      31.500  24.032  27.304  1.00  0.00    -0.464 OA
ATOM     18  C   UNL A   1      31.882  24.986  26.427  1.00  0.00     0.137 A 
ATOM     19  C   UNL A   1      33.706  25.622  24.953  1.00  0.00     0.020 A 
ATOM     20  C   UNL A   1      31.078  26.022  26.038  1.00  0.00     0.095 A 
ATOM     21  C   UNL A   1      32.931  26.696  24.534  1.00  0.00    -0.001 A 
ATOM     22  C   UNL A   1      31.623  26.710  24.972  1.00  0.00     0.138 A 
ATOM     23  C   UNL A   1      33.233  27.682  23.433  1.00  0.00     0.034 C 
ATOM     24  O   UNL A   1      30.706  27.131  23.990  1.00  0.00    -0.426 OA
ATOM     25  C   UNL A   1      33.252  26.841  22.126  1.00  0.00     0.014 C 
ATOM     26  C   UNL A   1      31.034  27.952  22.925  1.00  0.00     0.314 C 
ATOM     27  O   UNL A   1      30.482  27.994  21.866  1.00  0.00    -0.251 OA
ENDBRANCH  11  12
ENDBRANCH  10  11
ENDBRANCH   7  10
ENDBRANCH   5   6
BRANCH   5  28
ATOM     28  C   UNL A   1      35.595  32.385  28.018  1.00  0.00     0.074 C 
BRANCH  28  29
ATOM     29  C   UNL A   1      36.810  32.049  28.815  1.00  0.00    -0.020 A 
ATOM     30  C   UNL A   1      37.199  30.738  29.044  1.00  0.00     0.087 A 
ATOM     31  C   UNL A   1      37.880  32.879  29.243  1.00  0.00     0.003 A 
ATOM     32  N   UNL A   1      38.455  30.745  29.574  1.00  0.00    -0.361 N 
ATOM     33  C   UNL A   1      38.904  32.038  29.686  1.00  0.00     0.046 A 
ATOM     34  C   UNL A   1      38.110  34.265  29.236  1.00  0.00     0.010 A 
ATOM     35  H   UNL A   1      38.963  29.944  29.837  1.00  0.00     0.166 HD
ATOM     36  C   UNL A   1      40.146  32.516  30.112  1.00  0.00     0.026 A 
ATOM     37  C   UNL A   1      39.338  34.763  29.674  1.00  0.00     0.001 A 
ATOM     38  C   UNL A   1      40.342  33.899  30.098  1.00  0.00     0.002 A 
ENDBRANCH  28  29
ENDBRANCH   5  28
ENDBRANCH   3   5
ENDBRANCH   2   3
ENDBRANCH   1   2
BRANCH   1  39
ATOM     39  C   UNL A   1      32.943  35.468  30.155  1.00  0.00     0.275 C 
BRANCH  39  40
ATOM     40  O   UNL A   1      34.197  35.295  30.861  1.00  0.00    -0.458 OA
BRANCH  40  41
ATOM     41  C   UNL A   1      34.181  34.489  31.953  1.00  0.00     0.338 C 
ATOM     42  O   UNL A   1      33.195  34.200  32.611  1.00  0.00    -0.246 OA
BRANCH  41  43
ATOM     43  C   UNL A   1      35.467  33.728  32.018  1.00  0.00     0.060 A 
ATOM     44  C   UNL A   1      35.559  32.336  32.143  1.00  0.00     0.016 A 
ATOM     45  C   UNL A   1      36.603  34.479  32.255  1.00  0.00     0.016 A 
ATOM     46  C   UNL A   1      36.685  31.733  32.755  1.00  0.00     0.010 A 
ATOM     47  C   UNL A   1      37.687  33.871  32.888  1.00  0.00     0.010 A 
ATOM     48  C   UNL A   1      37.713  32.518  33.274  1.00  0.00    -0.014 A 
BRANCH  48  49
ATOM     49  C   UNL A   1      38.924  31.991  34.001  1.00  0.00     0.031 A 
ATOM     50  C   UNL A   1      39.110  32.748  35.274  1.00  0.00     0.074 A 
ATOM     51  C   UNL A   1      39.745  30.909  33.784  1.00  0.00     0.049 A 
ATOM     52  N   UNL A   1      39.920  33.746  35.413  1.00  0.00    -0.248 NA
ATOM     53  C   UNL A   1      38.191  32.579  36.416  1.00  0.00     0.031 C 
ATOM     54  C   UNL A   1      39.678  29.852  32.765  1.00  0.00     0.029 A 
ATOM     55  N   UNL A   1      40.820  30.456  34.542  1.00  0.00    -0.354 N 
ATOM     56  C   UNL A   1      39.754  34.186  36.715  1.00  0.00     0.074 A 
ATOM     57  C   UNL A   1      38.518  33.624  37.177  1.00  0.00     0.031 C 
ATOM     58  C   UNL A   1      40.474  28.794  33.100  1.00  0.00     0.029 A 
ATOM     59  C   UNL A   1      41.286  29.143  34.260  1.00  0.00     0.049 A 
ATOM     60  H   UNL A   1      41.236  31.014  35.238  1.00  0.00     0.167 HD
ATOM     61  C   UNL A   1      40.787  34.743  37.400  1.00  0.00     0.037 A 
ATOM     62  C   UNL A   1      42.302  28.455  34.894  1.00  0.00     0.037 A 
ATOM     63  C   UNL A   1      41.879  35.062  36.511  1.00  0.00     0.049 A 
ATOM     64  C   UNL A   1      43.182  29.492  35.469  1.00  0.00     0.074 A 
ATOM     65  C   UNL A   1      42.007  35.849  35.383  1.00  0.00     0.029 A 
ATOM     66  N   UNL A   1      42.937  34.188  36.477  1.00  0.00    -0.354 N 
ATOM     67  N   UNL A   1      43.896  30.309  34.754  1.00  0.00    -0.248 NA
ATOM     68  C   UNL A   1      42.907  29.898  36.833  1.00  0.00     0.031 C 
ATOM     69  C   UNL A   1      42.828  35.092  34.495  1.00  0.00     0.029 A 
ATOM     70  C   UNL A   1      43.238  33.940  35.161  1.00  0.00     0.049 A 
ATOM     71  H   UNL A   1      43.398  33.806  37.259  1.00  0.00     0.167 HD
ATOM     72  C   UNL A   1      43.743  31.525  35.392  1.00  0.00     0.074 A 
ATOM     73  C   UNL A   1      43.183  31.198  36.707  1.00  0.00     0.031 C 
ATOM     74  C   UNL A   1      43.790  32.693  34.689  1.00  0.00     0.037 A 
BRANCH  61  75
ATOM     75  C   UNL A   1      40.958  34.645  38.891  1.00  0.00     0.057 A 
ATOM     76  C   UNL A   1      41.080  35.826  39.637  1.00  0.00     0.134 A 
ATOM     77  C   UNL A   1      41.261  33.457  39.589  1.00  0.00     0.134 A 
ATOM     78  F   UNL A   1      40.845  37.021  39.076  1.00  0.00    -0.206 F 
ATOM     79  C   UNL A   1      41.523  35.830  40.965  1.00  0.00     0.040 A 
ATOM     80  C   UNL A   1      41.649  33.444  40.931  1.00  0.00     0.040 A 
ATOM     81  F   UNL A   1      41.303  32.258  38.995  1.00  0.00    -0.206 F 
ATOM     82  C   UNL A   1      41.809  34.636  41.616  1.00  0.00     0.006 A 
ENDBRANCH  61  75
BRANCH  62  83
ATOM     83  C   UNL A   1      42.594  27.026  35.285  1.00  0.00     0.057 A 
ATOM     84  C   UNL A   1      41.858  26.308  36.249  1.00  0.00     0.134 A 
ATOM     85  C   UNL A   1      43.293  26.189  34.408  1.00  0.00     0.134 A 
ATOM     86  F   UNL A   1      41.002  26.945  37.060  1.00  0.00    -0.206 F 
ATOM     87  C   UNL A   1      41.873  24.893  36.336  1.00  0.00     0.040 A 
ATOM     88  C   UNL A   1      43.399  24.792  34.523  1.00  0.00     0.040 A 
ATOM     89  F   UNL A   1      43.675  26.664  33.232  1.00  0.00    -0.206 F 
ATOM     90  C   UNL A   1      42.662  24.130  35.482  1.00  0.00     0.006 A 
ENDBRANCH  62  83
BRANCH  74  91
ATOM     91  C   UNL A   1      44.257  32.644  33.254  1.00  0.00     0.057 A 
ATOM     92  C   UNL A   1      45.600  32.629  32.840  1.00  0.00     0.134 A 
ATOM     93  C   UNL A   1      43.296  32.458  32.254  1.00  0.00     0.134 A 
ATOM     94  F   UNL A   1      46.601  32.717  33.720  1.00  0.00    -0.206 F 
ATOM     95  C   UNL A   1      45.963  32.465  31.497  1.00  0.00     0.040 A 
ATOM     96  C   UNL A   1      43.645  32.262  30.916  1.00  0.00     0.040 A 
ATOM     97  F   UNL A   1      41.994  32.418  32.574  1.00  0.00    -0.206 F 
ATOM     98  C   UNL A   1      44.983  32.272  30.531  1.00  0.00     0.006 A 
ENDBRANCH  74  91
ENDBRANCH  48  49
ENDBRANCH  41  43
ENDBRANCH  40  41
ENDBRANCH  39  40
ENDBRANCH   1  39
TORSDOF 17
ENDMDL
MODEL 3
REMARK VINA RESULT:     -12.7      2.821      6.044
REMARK SMILES Cc1coc2cc3c(cc12)[C@@H](C)[C@H](CCC(=O)N[C@@H](Cc1c[nH]c2ccccc12)C(=O)OCCOC(=O)c1ccc(-c2c4nc(c(-c5c(F)cccc5F)c5ccc([nH]5)c(-c5c(F)cccc5F)c5nc(c(-c6c(F)cccc6F)c6ccc2[nH]6)C=C5)C=C4)cc1)C(=O)O3
REMARK SMILES IDX 33 1 32 2 30 3 31 4 19 5 18 6 16 7 17 8 15 10 14 11 13 12
REMARK SMILES IDX 1 13 2 14 3 15 10 16 4 17 5 18 9 19 6 20 8 21 7 22 11 23
REMARK SMILES IDX 94 24 12 25 92 26 93 27 20 28 21 29 22 30 29 31 23 32 24 33
REMARK SMILES IDX 28 34 25 36 27 37 26 38 34 39 35 40 36 41 37 42 38 43 39 44
REMARK SMILES IDX 91 45 40 46 90 47 41 48 42 49 43 50 84 51 44 52 89 53 83 54
REMARK SMILES IDX 85 55 45 56 88 57 82 58 81 59 46 61 72 62 55 63 71 64 56 65
REMARK SMILES IDX 59 66 70 67 86 68 57 69 58 70 69 72 87 73 60 74 47 75 48 76
REMARK SMILES IDX 53 77 49 78 50 79 52 80 54 81 51 82 73 83 74 84 79 85 75 86
REMARK SMILES IDX 76 87 78 88 80 89 77 90 61 91 62 92 67 93 63 94 64 95 66 96
REMARK SMILES IDX 68 97 65 98
REMARK H PARENT 18 9 23 35 85 60 59 71
REMARK Flexibility Score: inf
ROOT
ATOM      1  C   UNL A   1      44.652  23.449  26.956  1.00  0.00     0.274 C 
ENDROOT
BRANCH   1   2
ATOM      2  O   UNL A   1      43.337  22.906  27.148  1.00  0.00    -0.461 OA
BRANCH   2   3
ATOM      3  C   UNL A   1      42.691  22.633  25.992  1.00  0.00     0.329 C 
ATOM      4  O   UNL A   1      43.236  22.491  24.900  1.00  0.00    -0.250 OA
BRANCH   3   5
ATOM      5  C   UNL A   1      41.182  22.647  26.160  1.00  0.00     0.196 C 
BRANCH   5   6
ATOM      6  N   UNL A   1      40.398  21.326  26.005  1.00  0.00    -0.342 N 
ATOM      7  C   UNL A   1      39.123  20.839  25.721  1.00  0.00     0.220 C 
ATOM      8  O   UNL A   1      39.120  19.596  25.610  1.00  0.00    -0.275 OA
ATOM      9  H   UNL A   1      41.007  20.568  26.158  1.00  0.00     0.164 HD
BRANCH   7  10
ATOM     10  C   UNL A   1      37.623  21.541  25.463  1.00  0.00     0.101 C 
BRANCH  10  11
ATOM     11  C   UNL A   1      36.038  21.043  25.368  1.00  0.00     0.026 C 
BRANCH  11  12
ATOM     12  C   UNL A   1      34.927  21.493  26.387  1.00  0.00     0.107 C 
ATOM     13  C   UNL A   1      32.782  28.075  24.352  1.00  0.00     0.048 C 
ATOM     14  C   UNL A   1      33.319  26.945  23.575  1.00  0.00    -0.005 A 
ATOM     15  C   UNL A   1      33.389  26.838  22.200  1.00  0.00     0.199 A 
ATOM     16  C   UNL A   1      33.824  25.722  24.100  1.00  0.00     0.024 A 
ATOM     17  O   UNL A   1      33.888  25.639  21.832  1.00  0.00    -0.464 OA
ATOM     18  C   UNL A   1      34.100  24.950  22.975  1.00  0.00     0.137 A 
ATOM     19  C   UNL A   1      34.010  25.168  25.394  1.00  0.00     0.020 A 
ATOM     20  C   UNL A   1      34.425  23.622  23.010  1.00  0.00     0.095 A 
ATOM     21  C   UNL A   1      34.351  23.823  25.481  1.00  0.00    -0.001 A 
ATOM     22  C   UNL A   1      34.356  23.120  24.294  1.00  0.00     0.138 A 
ATOM     23  C   UNL A   1      34.422  22.964  26.718  1.00  0.00     0.034 C 
ATOM     24  O   UNL A   1      33.825  21.821  24.409  1.00  0.00    -0.426 OA
ATOM     25  C   UNL A   1      32.966  22.907  27.260  1.00  0.00     0.014 C 
ATOM     26  C   UNL A   1      33.805  21.093  25.585  1.00  0.00     0.314 C 
ATOM     27  O   UNL A   1      33.028  20.232  25.874  1.00  0.00    -0.251 OA
ENDBRANCH  11  12
ENDBRANCH  10  11
ENDBRANCH   7  10
ENDBRANCH   5   6
BRANCH   5  28
ATOM     28  C   UNL A   1      41.006  23.625  27.363  1.00  0.00     0.074 C 
BRANCH  28  29
ATOM     29  C   UNL A   1      40.447  25.006  27.296  1.00  0.00    -0.020 A 
ATOM     30  C   UNL A   1      39.410  25.420  28.119  1.00  0.00     0.087 A 
ATOM     31  C   UNL A   1      40.956  26.166  26.654  1.00  0.00     0.003 A 
ATOM     32  N   UNL A   1      39.286  26.774  28.010  1.00  0.00    -0.361 N 
ATOM     33  C   UNL A   1      40.231  27.258  27.140  1.00  0.00     0.046 A 
ATOM     34  C   UNL A   1      42.008  26.410  25.756  1.00  0.00     0.010 A 
ATOM     35  H   UNL A   1      38.619  27.321  28.484  1.00  0.00     0.166 HD
ATOM     36  C   UNL A   1      40.515  28.577  26.777  1.00  0.00     0.026 A 
ATOM     37  C   UNL A   1      42.297  27.719  25.369  1.00  0.00     0.001 A 
ATOM     38  C   UNL A   1      41.564  28.786  25.879  1.00  0.00     0.002 A 
ENDBRANCH  28  29
ENDBRANCH   5  28
ENDBRANCH   3   5
ENDBRANCH   2   3
ENDBRANCH   1   2
BRANCH   1  39
ATOM     39  C   UNL A   1      45.210  23.709  28.353  1.00  0.00     0.275 C 
BRANCH  39  40
ATOM     40  O   UNL A   1      44.156  24.267  29.176  1.00  0.00    -0.458 OA
BRANCH  40  41
ATOM     41  C   UNL A   1      44.515  24.739  30.397  1.00  0.00     0.338 C 
ATOM     42  O   UNL A   1      45.264  24.184  31.185  1.00  0.00    -0.246 OA
BRANCH  41  43
ATOM     43  C   UNL A   1      44.151  26.188  30.488  1.00  0.00     0.060 A 
ATOM     44  C   UNL A   1      43.893  26.866  31.686  1.00  0.00     0.016 A 
ATOM     45  C   UNL A   1      43.776  26.792  29.303  1.00  0.00     0.016 A 
ATOM     46  C   UNL A   1      43.037  27.994  31.713  1.00  0.00     0.010 A 
ATOM     47  C   UNL A   1      42.906  27.882  29.355  1.00  0.00     0.010 A 
ATOM     48  C   UNL A   1      42.408  28.433  30.550  1.00  0.00    -0.014 A 
BRANCH  48  49
ATOM     49  C   UNL A   1      41.430  29.577  30.472  1.00  0.00     0.031 A 
ATOM     50  C   UNL A   1      42.145  30.814  30.039  1.00  0.00     0.074 A 
ATOM     51  C   UNL A   1      40.060  29.644  30.578  1.00  0.00     0.049 A 
ATOM     52  N   UNL A   1      42.576  31.724  30.849  1.00  0.00    -0.248 NA
ATOM     53  C   UNL A   1      42.644  30.977  28.660  1.00  0.00     0.031 C 
ATOM     54  C   UNL A   1      39.066  28.576  30.762  1.00  0.00     0.029 A 
ATOM     55  N   UNL A   1      39.220  30.743  30.436  1.00  0.00    -0.354 N 
ATOM     56  C   UNL A   1      43.213  32.663  30.056  1.00  0.00     0.074 A 
ATOM     57  C   UNL A   1      43.456  32.027  28.794  1.00  0.00     0.031 C 
ATOM     58  C   UNL A   1      37.807  29.023  30.482  1.00  0.00     0.029 A 
ATOM     59  C   UNL A   1      37.834  30.468  30.285  1.00  0.00     0.049 A 
ATOM     60  H   UNL A   1      39.567  31.665  30.439  1.00  0.00     0.167 HD
ATOM     61  C   UNL A   1      43.234  33.975  30.407  1.00  0.00     0.037 A 
ATOM     62  C   UNL A   1      36.811  31.375  30.089  1.00  0.00     0.037 A 
ATOM     63  C   UNL A   1      42.804  34.146  31.775  1.00  0.00     0.049 A 
ATOM     64  C   UNL A   1      37.299  32.649  30.653  1.00  0.00     0.074 A 
ATOM     65  C   UNL A   1      43.241  33.660  32.992  1.00  0.00     0.029 A 
ATOM     66  N   UNL A   1      41.510  34.555  31.980  1.00  0.00    -0.354 N 
ATOM     67  N   UNL A   1      37.511  32.842  31.920  1.00  0.00    -0.248 NA
ATOM     68  C   UNL A   1      37.974  33.551  29.740  1.00  0.00     0.031 C 
ATOM     69  C   UNL A   1      42.051  33.347  33.714  1.00  0.00     0.029 A 
ATOM     70  C   UNL A   1      40.961  33.750  32.947  1.00  0.00     0.049 A 
ATOM     71  H   UNL A   1      41.056  35.296  31.516  1.00  0.00     0.167 HD
ATOM     72  C   UNL A   1      38.701  33.544  31.953  1.00  0.00     0.074 A 
ATOM     73  C   UNL A   1      38.903  34.015  30.579  1.00  0.00     0.031 C 
ATOM     74  C   UNL A   1      39.558  33.415  33.005  1.00  0.00     0.037 A 
BRANCH  61  75
ATOM     75  C   UNL A   1      43.269  35.109  29.420  1.00  0.00     0.057 A 
ATOM     76  C   UNL A   1      42.128  35.366  28.645  1.00  0.00     0.134 A 
ATOM     77  C   UNL A   1      44.437  35.790  29.017  1.00  0.00     0.134 A 
ATOM     78  F   UNL A   1      40.963  34.757  28.912  1.00  0.00    -0.206 F 
ATOM     79  C   UNL A   1      42.161  36.198  27.519  1.00  0.00     0.040 A 
ATOM     80  C   UNL A   1      44.467  36.666  27.930  1.00  0.00     0.040 A 
ATOM     81  F   UNL A   1      45.633  35.571  29.578  1.00  0.00    -0.206 F 
ATOM     82  C   UNL A   1      43.332  36.851  27.159  1.00  0.00     0.006 A 
ENDBRANCH  61  75
BRANCH  62  83
ATOM     83  C   UNL A   1      35.512  31.427  29.320  1.00  0.00     0.057 A 
ATOM     84  C   UNL A   1      34.575  32.474  29.429  1.00  0.00     0.134 A 
ATOM     85  C   UNL A   1      35.372  30.701  28.132  1.00  0.00     0.134 A 
ATOM     86  F   UNL A   1      34.674  33.370  30.421  1.00  0.00    -0.206 F 
ATOM     87  C   UNL A   1      33.576  32.721  28.455  1.00  0.00     0.040 A 
ATOM     88  C   UNL A   1      34.339  30.863  27.193  1.00  0.00     0.040 A 
ATOM     89  F   UNL A   1      36.396  29.987  27.689  1.00  0.00    -0.206 F 
ATOM     90  C   UNL A   1      33.441  31.901  27.340  1.00  0.00     0.006 A 
ENDBRANCH  62  83
BRANCH  74  91
ATOM     91  C   UNL A   1      39.073  32.690  34.237  1.00  0.00     0.057 A 
ATOM     92  C   UNL A   1      39.267  31.324  34.502  1.00  0.00     0.134 A 
ATOM     93  C   UNL A   1      38.507  33.448  35.268  1.00  0.00     0.134 A 
ATOM     94  F   UNL A   1      39.872  30.523  33.620  1.00  0.00    -0.206 F 
ATOM     95  C   UNL A   1      38.892  30.740  35.718  1.00  0.00     0.040 A 
ATOM     96  C   UNL A   1      38.157  32.886  36.498  1.00  0.00     0.040 A 
ATOM     97  F   UNL A   1      38.327  34.769  35.109  1.00  0.00    -0.206 F 
ATOM     98  C   UNL A   1      38.343  31.526  36.725  1.00  0.00     0.006 A 
ENDBRANCH  74  91
ENDBRANCH  48  49
ENDBRANCH  41  43
ENDBRANCH  40  41
ENDBRANCH  39  40
ENDBRANCH   1  39
TORSDOF 17
ENDMDL
