MODEL 1
REMARK VINA RESULT:     -13.0      0.000      0.000
REMARK SMILES O=C(OCCOC(=O)[C@@H](Cc1ccc(O)cc1)Nc1c2ccccc2nc2ccccc12)c1ccc(-c2c3nc(c(-c4c(F)cccc4F)c4ccc([nH]4)c(-c4c(F)cccc4F)c4nc(c(-c5c(F)cccc5F)c5ccc2[nH]5)C=C4)C=C3)cc1
REMARK SMILES IDX 5 1 4 2 3 3 2 4 1 5 33 6 34 7 86 8 35 9 85 10 36 11 37 12
REMARK SMILES IDX 38 13 79 14 39 15 84 16 78 17 80 18 40 19 83 20 77 21 76 22
REMARK SMILES IDX 41 24 67 25 50 26 66 27 51 28 54 29 65 30 81 31 52 32 53 33
REMARK SMILES IDX 64 35 82 36 55 37 42 38 43 39 48 40 44 41 45 42 47 43 49 44
REMARK SMILES IDX 46 45 68 46 69 47 74 48 70 49 71 50 73 51 75 52 72 53 56 54
REMARK SMILES IDX 57 55 62 56 58 57 59 58 61 59 63 60 60 61 6 62 7 63 8 64
REMARK SMILES IDX 9 65 10 66 11 67 12 68 17 69 13 70 16 71 14 72 15 73 18 75
REMARK SMILES IDX 19 77 20 78 32 79 21 80 25 81 27 82 31 83 22 84 24 85 26 86
REMARK SMILES IDX 28 87 30 88 23 89 29 90
REMARK H PARENT 80 23 54 34 15 74 18 76
REMARK Flexibility Score: inf
ROOT
ATOM      1  C   UNL A   1      31.780  29.681  25.901  1.00  0.00     0.274 C 
ENDROOT
BRANCH   1   2
ATOM      2  C   UNL A   1      33.253  30.007  26.240  1.00  0.00     0.275 C 
BRANCH   2   3
ATOM      3  O   UNL A   1      33.498  30.212  27.639  1.00  0.00    -0.458 OA
BRANCH   3   4
ATOM      4  C   UNL A   1      34.230  31.183  28.226  1.00  0.00     0.338 C 
ATOM      5  O   UNL A   1      33.804  32.336  28.226  1.00  0.00    -0.246 OA
BRANCH   4   6
ATOM      6  C   UNL A   1      35.609  30.990  28.758  1.00  0.00     0.060 A 
ATOM      7  C   UNL A   1      35.957  30.690  30.444  1.00  0.00     0.016 A 
ATOM      8  C   UNL A   1      36.814  30.726  27.462  1.00  0.00     0.016 A 
ATOM      9  C   UNL A   1      37.534  30.002  30.887  1.00  0.00     0.010 A 
ATOM     10  C   UNL A   1      38.394  29.993  27.738  1.00  0.00     0.010 A 
ATOM     11  C   UNL A   1      38.898  29.600  29.437  1.00  0.00    -0.014 A 
BRANCH  11  12
ATOM     12  C   UNL A   1      40.399  29.144  29.279  1.00  0.00     0.031 A 
ATOM     13  C   UNL A   1      40.628  27.713  28.854  1.00  0.00     0.074 A 
ATOM     14  C   UNL A   1      41.485  29.909  29.547  1.00  0.00     0.049 A 
ATOM     15  N   UNL A   1      41.641  27.187  28.220  1.00  0.00    -0.248 NA
ATOM     16  C   UNL A   1      39.595  26.724  29.215  1.00  0.00     0.031 C 
ATOM     17  C   UNL A   1      41.505  31.157  30.300  1.00  0.00     0.029 A 
ATOM     18  N   UNL A   1      42.747  29.865  28.991  1.00  0.00    -0.354 N 
ATOM     19  C   UNL A   1      41.332  25.841  28.078  1.00  0.00     0.074 A 
ATOM     20  C   UNL A   1      40.090  25.595  28.752  1.00  0.00     0.031 C 
ATOM     21  C   UNL A   1      42.536  31.910  29.888  1.00  0.00     0.029 A 
ATOM     22  C   UNL A   1      43.360  31.113  28.990  1.00  0.00     0.049 A 
ATOM     23  H   UNL A   1      43.164  29.047  28.637  1.00  0.00     0.167 HD
ATOM     24  C   UNL A   1      42.023  24.890  27.417  1.00  0.00     0.037 A 
ATOM     25  C   UNL A   1      44.442  31.550  28.309  1.00  0.00     0.037 A 
ATOM     26  C   UNL A   1      43.307  25.153  26.849  1.00  0.00     0.049 A 
ATOM     27  C   UNL A   1      45.190  30.504  27.525  1.00  0.00     0.074 A 
ATOM     28  C   UNL A   1      44.170  24.290  26.209  1.00  0.00     0.029 A 
ATOM     29  N   UNL A   1      43.928  26.396  26.904  1.00  0.00    -0.354 N 
ATOM     30  N   UNL A   1      44.853  29.257  27.285  1.00  0.00    -0.248 NA
ATOM     31  C   UNL A   1      46.495  30.891  26.980  1.00  0.00     0.031 C 
ATOM     32  C   UNL A   1      45.349  24.994  25.947  1.00  0.00     0.029 A 
ATOM     33  C   UNL A   1      45.180  26.319  26.332  1.00  0.00     0.049 A 
ATOM     34  H   UNL A   1      43.533  27.209  27.292  1.00  0.00     0.167 HD
ATOM     35  C   UNL A   1      45.910  28.701  26.582  1.00  0.00     0.074 A 
ATOM     36  C   UNL A   1      46.873  29.768  26.383  1.00  0.00     0.031 C 
ATOM     37  C   UNL A   1      46.090  27.424  26.163  1.00  0.00     0.037 A 
BRANCH  24  38
ATOM     38  C   UNL A   1      41.415  23.519  27.384  1.00  0.00     0.057 A 
ATOM     39  C   UNL A   1      41.970  22.442  28.097  1.00  0.00     0.134 A 
ATOM     40  C   UNL A   1      40.335  23.243  26.540  1.00  0.00     0.134 A 
ATOM     41  F   UNL A   1      43.042  22.624  28.883  1.00  0.00    -0.206 F 
ATOM     42  C   UNL A   1      41.494  21.137  27.939  1.00  0.00     0.040 A 
ATOM     43  C   UNL A   1      39.832  21.948  26.398  1.00  0.00     0.040 A 
ATOM     44  F   UNL A   1      39.777  24.217  25.807  1.00  0.00    -0.206 F 
ATOM     45  C   UNL A   1      40.420  20.889  27.088  1.00  0.00     0.006 A 
ENDBRANCH  24  38
BRANCH  25  46
ATOM     46  C   UNL A   1      44.910  32.975  28.358  1.00  0.00     0.057 A 
ATOM     47  C   UNL A   1      45.715  33.463  29.401  1.00  0.00     0.134 A 
ATOM     48  C   UNL A   1      44.535  33.910  27.382  1.00  0.00     0.134 A 
ATOM     49  F   UNL A   1      46.098  32.653  30.400  1.00  0.00    -0.206 F 
ATOM     50  C   UNL A   1      46.113  34.806  29.473  1.00  0.00     0.040 A 
ATOM     51  C   UNL A   1      44.966  35.240  27.413  1.00  0.00     0.040 A 
ATOM     52  F   UNL A   1      43.737  33.546  26.368  1.00  0.00    -0.206 F 
ATOM     53  C   UNL A   1      45.749  35.697  28.467  1.00  0.00     0.006 A 
ENDBRANCH  25  46
BRANCH  37  54
ATOM     54  C   UNL A   1      47.346  27.145  25.403  1.00  0.00     0.057 A 
ATOM     55  C   UNL A   1      47.507  27.517  24.063  1.00  0.00     0.134 A 
ATOM     56  C   UNL A   1      48.422  26.527  26.049  1.00  0.00     0.134 A 
ATOM     57  F   UNL A   1      46.508  28.112  23.394  1.00  0.00    -0.206 F 
ATOM     58  C   UNL A   1      48.687  27.240  23.377  1.00  0.00     0.040 A 
ATOM     59  C   UNL A   1      49.620  26.285  25.386  1.00  0.00     0.040 A 
ATOM     60  F   UNL A   1      48.330  26.169  27.339  1.00  0.00    -0.206 F 
ATOM     61  C   UNL A   1      49.749  26.627  24.042  1.00  0.00     0.006 A 
ENDBRANCH  37  54
ENDBRANCH  11  12
ENDBRANCH   4   6
ENDBRANCH   3   4
ENDBRANCH   2   3
ENDBRANCH   1   2
BRANCH   1  62
ATOM     62  O   UNL A   1      31.486  28.270  25.762  1.00  0.00    -0.461 OA
BRANCH  62  63
ATOM     63  C   UNL A   1      31.552  27.521  26.898  1.00  0.00     0.329 C 
ATOM     64  O   UNL A   1      31.036  27.863  27.956  1.00  0.00    -0.250 OA
BRANCH  63  65
ATOM     65  C   UNL A   1      32.344  26.209  26.729  1.00  0.00     0.194 C 
BRANCH  65  66
ATOM     66  C   UNL A   1      31.544  24.986  26.279  1.00  0.00     0.072 C 
BRANCH  66  67
ATOM     67  C   UNL A   1      32.012  23.463  26.415  1.00  0.00    -0.045 A 
ATOM     68  C   UNL A   1      33.217  22.398  27.656  1.00  0.00     0.007 A 
ATOM     69  C   UNL A   1      31.650  22.692  24.807  1.00  0.00     0.007 A 
ATOM     70  C   UNL A   1      33.843  20.795  27.119  1.00  0.00     0.046 A 
ATOM     71  C   UNL A   1      32.359  21.121  24.412  1.00  0.00     0.046 A 
ATOM     72  C   UNL A   1      33.400  20.231  25.526  1.00  0.00     0.115 A 
BRANCH  72  73
ATOM     73  O   UNL A   1      33.703  18.946  25.164  1.00  0.00    -0.508 OA
ATOM     74  H   UNL A   1      33.462  18.233  25.722  1.00  0.00     0.293 HD
ENDBRANCH  72  73
ENDBRANCH  66  67
ENDBRANCH  65  66
BRANCH  65  75
ATOM     75  N   UNL A   1      33.500  26.346  25.870  1.00  0.00    -0.371 N 
ATOM     76  H   UNL A   1      34.187  26.987  26.163  1.00  0.00     0.161 HD
BRANCH  75  77
ATOM     77  C   UNL A   1      33.757  25.671  24.674  1.00  0.00     0.054 A 
ATOM     78  C   UNL A   1      33.035  25.846  23.427  1.00  0.00     0.024 A 
ATOM     79  C   UNL A   1      34.765  24.664  24.759  1.00  0.00     0.024 A 
ATOM     80  C   UNL A   1      32.045  26.827  23.090  1.00  0.00     0.012 A 
ATOM     81  C   UNL A   1      33.366  24.957  22.382  1.00  0.00     0.073 A 
ATOM     82  C   UNL A   1      34.954  23.840  23.643  1.00  0.00     0.073 A 
ATOM     83  C   UNL A   1      35.553  24.420  25.919  1.00  0.00     0.012 A 
ATOM     84  C   UNL A   1      31.433  26.923  21.836  1.00  0.00     0.001 A 
ATOM     85  C   UNL A   1      32.725  25.046  21.147  1.00  0.00     0.029 A 
ATOM     86  N   UNL A   1      34.281  23.990  22.497  1.00  0.00    -0.248 NA
ATOM     87  C   UNL A   1      35.863  22.795  23.732  1.00  0.00     0.029 A 
ATOM     88  C   UNL A   1      36.461  23.372  25.986  1.00  0.00     0.001 A 
ATOM     89  C   UNL A   1      31.766  26.013  20.858  1.00  0.00     0.002 A 
ATOM     90  C   UNL A   1      36.605  22.545  24.889  1.00  0.00     0.002 A 
ENDBRANCH  75  77
ENDBRANCH  65  75
ENDBRANCH  63  65
ENDBRANCH  62  63
ENDBRANCH   1  62
TORSDOF 16
ENDMDL
MODEL 2
REMARK VINA RESULT:     -12.8      0.164      2.339
REMARK SMILES O=C(OCCOC(=O)[C@@H](Cc1ccc(O)cc1)Nc1c2ccccc2nc2ccccc12)c1ccc(-c2c3nc(c(-c4c(F)cccc4F)c4ccc([nH]4)c(-c4c(F)cccc4F)c4nc(c(-c5c(F)cccc5F)c5ccc2[nH]5)C=C4)C=C3)cc1
REMARK SMILES IDX 5 1 4 2 3 3 2 4 1 5 33 6 34 7 86 8 35 9 85 10 36 11 37 12
REMARK SMILES IDX 38 13 79 14 39 15 84 16 78 17 80 18 40 19 83 20 77 21 76 22
REMARK SMILES IDX 41 24 67 25 50 26 66 27 51 28 54 29 65 30 81 31 52 32 53 33
REMARK SMILES IDX 64 35 82 36 55 37 42 38 43 39 48 40 44 41 45 42 47 43 49 44
REMARK SMILES IDX 46 45 68 46 69 47 74 48 70 49 71 50 73 51 75 52 72 53 56 54
REMARK SMILES IDX 57 55 62 56 58 57 59 58 61 59 63 60 60 61 6 62 7 63 8 64
REMARK SMILES IDX 9 65 10 66 11 67 12 68 17 69 13 70 16 71 14 72 15 73 18 75
REMARK SMILES IDX 19 77 20 78 32 79 21 80 25 81 27 82 31 83 22 84 24 85 26 86
REMARK SMILES IDX 28 87 30 88 23 89 29 90
REMARK H PARENT 80 23 54 34 15 74 18 76
REMARK Flexibility Score: inf
ROOT
ATOM      1  C   UNL A   1      31.745  29.844  26.028  1.00  0.00     0.274 C 
ENDROOT
BRANCH   1   2
ATOM      2  C   UNL A   1      33.233  30.166  26.294  1.00  0.00     0.275 C 
BRANCH   2   3
ATOM      3  O   UNL A   1      33.563  30.288  27.685  1.00  0.00    -0.458 OA
BRANCH   3   4
ATOM      4  C   UNL A   1      34.288  31.253  28.292  1.00  0.00     0.338 C 
ATOM      5  O   UNL A   1      33.858  32.405  28.306  1.00  0.00    -0.246 OA
BRANCH   4   6
ATOM      6  C   UNL A   1      35.665  31.057  28.830  1.00  0.00     0.060 A 
ATOM      7  C   UNL A   1      36.003  30.742  30.515  1.00  0.00     0.016 A 
ATOM      8  C   UNL A   1      36.877  30.804  27.538  1.00  0.00     0.016 A 
ATOM      9  C   UNL A   1      37.578  30.052  30.961  1.00  0.00     0.010 A 
ATOM     10  C   UNL A   1      38.456  30.070  27.817  1.00  0.00     0.010 A 
ATOM     11  C   UNL A   1      38.950  29.663  29.516  1.00  0.00    -0.014 A 
BRANCH  11  12
ATOM     12  C   UNL A   1      40.452  29.209  29.363  1.00  0.00     0.031 A 
ATOM     13  C   UNL A   1      40.685  27.779  28.936  1.00  0.00     0.074 A 
ATOM     14  C   UNL A   1      41.537  29.975  29.637  1.00  0.00     0.049 A 
ATOM     15  N   UNL A   1      41.701  27.257  28.304  1.00  0.00    -0.248 NA
ATOM     16  C   UNL A   1      39.652  26.788  29.290  1.00  0.00     0.031 C 
ATOM     17  C   UNL A   1      41.552  31.222  30.393  1.00  0.00     0.029 A 
ATOM     18  N   UNL A   1      42.801  29.935  29.086  1.00  0.00    -0.354 N 
ATOM     19  C   UNL A   1      41.394  25.911  28.158  1.00  0.00     0.074 A 
ATOM     20  C   UNL A   1      40.151  25.661  28.827  1.00  0.00     0.031 C 
ATOM     21  C   UNL A   1      42.584  31.977  29.987  1.00  0.00     0.029 A 
ATOM     22  C   UNL A   1      43.412  31.183  29.090  1.00  0.00     0.049 A 
ATOM     23  H   UNL A   1      43.220  29.117  28.732  1.00  0.00     0.167 HD
ATOM     24  C   UNL A   1      42.089  24.962  27.498  1.00  0.00     0.037 A 
ATOM     25  C   UNL A   1      44.496  31.623  28.414  1.00  0.00     0.037 A 
ATOM     26  C   UNL A   1      43.375  25.228  26.936  1.00  0.00     0.049 A 
ATOM     27  C   UNL A   1      45.249  30.580  27.631  1.00  0.00     0.074 A 
ATOM     28  C   UNL A   1      44.242  24.368  26.297  1.00  0.00     0.029 A 
ATOM     29  N   UNL A   1      43.994  26.472  26.996  1.00  0.00    -0.354 N 
ATOM     30  N   UNL A   1      44.914  29.333  27.387  1.00  0.00    -0.248 NA
ATOM     31  C   UNL A   1      46.555  30.969  27.092  1.00  0.00     0.031 C 
ATOM     32  C   UNL A   1      45.421  25.074  26.041  1.00  0.00     0.029 A 
ATOM     33  C   UNL A   1      45.249  26.397  26.429  1.00  0.00     0.049 A 
ATOM     34  H   UNL A   1      43.597  27.284  27.384  1.00  0.00     0.167 HD
ATOM     35  C   UNL A   1      45.974  28.780  26.687  1.00  0.00     0.074 A 
ATOM     36  C   UNL A   1      46.937  29.849  26.494  1.00  0.00     0.031 C 
ATOM     37  C   UNL A   1      46.158  27.504  26.265  1.00  0.00     0.037 A 
BRANCH  24  38
ATOM     38  C   UNL A   1      41.483  23.590  27.460  1.00  0.00     0.057 A 
ATOM     39  C   UNL A   1      42.037  22.512  28.172  1.00  0.00     0.134 A 
ATOM     40  C   UNL A   1      40.407  23.315  26.611  1.00  0.00     0.134 A 
ATOM     41  F   UNL A   1      43.107  22.694  28.961  1.00  0.00    -0.206 F 
ATOM     42  C   UNL A   1      41.564  21.207  28.008  1.00  0.00     0.040 A 
ATOM     43  C   UNL A   1      39.906  22.020  26.464  1.00  0.00     0.040 A 
ATOM     44  F   UNL A   1      39.850  24.290  25.878  1.00  0.00    -0.206 F 
ATOM     45  C   UNL A   1      40.493  20.960  27.153  1.00  0.00     0.006 A 
ENDBRANCH  24  38
BRANCH  25  46
ATOM     46  C   UNL A   1      44.962  33.049  28.468  1.00  0.00     0.057 A 
ATOM     47  C   UNL A   1      44.570  34.000  27.511  1.00  0.00     0.134 A 
ATOM     48  C   UNL A   1      45.846  33.500  29.458  1.00  0.00     0.134 A 
ATOM     49  F   UNL A   1      43.752  33.656  26.505  1.00  0.00    -0.206 F 
ATOM     50  C   UNL A   1      45.042  35.321  27.534  1.00  0.00     0.040 A 
ATOM     51  C   UNL A   1      46.286  34.826  29.523  1.00  0.00     0.040 A 
ATOM     52  F   UNL A   1      46.304  32.655  30.392  1.00  0.00    -0.206 F 
ATOM     53  C   UNL A   1      45.894  35.741  28.552  1.00  0.00     0.006 A 
ENDBRANCH  25  46
BRANCH  37  54
ATOM     54  C   UNL A   1      47.417  27.228  25.510  1.00  0.00     0.057 A 
ATOM     55  C   UNL A   1      48.541  26.653  26.114  1.00  0.00     0.134 A 
ATOM     56  C   UNL A   1      47.479  27.513  24.141  1.00  0.00     0.134 A 
ATOM     57  F   UNL A   1      48.537  26.360  27.424  1.00  0.00    -0.206 F 
ATOM     58  C   UNL A   1      49.704  26.412  25.388  1.00  0.00     0.040 A 
ATOM     59  C   UNL A   1      48.620  27.237  23.396  1.00  0.00     0.040 A 
ATOM     60  F   UNL A   1      46.424  28.045  23.506  1.00  0.00    -0.206 F 
ATOM     61  C   UNL A   1      49.742  26.699  24.023  1.00  0.00     0.006 A 
ENDBRANCH  37  54
ENDBRANCH  11  12
ENDBRANCH   4   6
ENDBRANCH   3   4
ENDBRANCH   2   3
ENDBRANCH   1   2
BRANCH   1  62
ATOM     62  O   UNL A   1      31.456  28.442  25.807  1.00  0.00    -0.461 OA
BRANCH  62  63
ATOM     63  C   UNL A   1      31.583  27.620  26.885  1.00  0.00     0.329 C 
ATOM     64  O   UNL A   1      31.134  27.893  27.993  1.00  0.00    -0.250 OA
BRANCH  63  65
ATOM     65  C   UNL A   1      32.352  26.318  26.583  1.00  0.00     0.194 C 
BRANCH  65  66
ATOM     66  C   UNL A   1      31.504  25.080  26.294  1.00  0.00     0.072 C 
BRANCH  66  67
ATOM     67  C   UNL A   1      31.970  23.563  26.488  1.00  0.00    -0.045 A 
ATOM     68  C   UNL A   1      33.187  22.547  27.760  1.00  0.00     0.007 A 
ATOM     69  C   UNL A   1      31.588  22.725  24.918  1.00  0.00     0.007 A 
ATOM     70  C   UNL A   1      33.803  20.921  27.283  1.00  0.00     0.046 A 
ATOM     71  C   UNL A   1      32.290  21.137  24.582  1.00  0.00     0.046 A 
ATOM     72  C   UNL A   1      33.340  20.293  25.720  1.00  0.00     0.115 A 
BRANCH  72  73
ATOM     73  O   UNL A   1      33.637  18.993  25.409  1.00  0.00    -0.508 OA
ATOM     74  H   UNL A   1      33.922  18.771  24.544  1.00  0.00     0.293 HD
ENDBRANCH  72  73
ENDBRANCH  66  67
ENDBRANCH  65  66
BRANCH  65  75
ATOM     75  N   UNL A   1      33.330  26.464  25.527  1.00  0.00    -0.371 N 
ATOM     76  H   UNL A   1      33.797  27.330  25.482  1.00  0.00     0.161 HD
BRANCH  75  77
ATOM     77  C   UNL A   1      33.692  25.518  24.565  1.00  0.00     0.054 A 
ATOM     78  C   UNL A   1      34.745  24.527  24.700  1.00  0.00     0.024 A 
ATOM     79  C   UNL A   1      33.002  25.634  23.322  1.00  0.00     0.024 A 
ATOM     80  C   UNL A   1      35.516  24.185  25.859  1.00  0.00     0.012 A 
ATOM     81  C   UNL A   1      35.038  23.765  23.549  1.00  0.00     0.073 A 
ATOM     82  C   UNL A   1      33.432  24.826  22.262  1.00  0.00     0.073 A 
ATOM     83  C   UNL A   1      31.938  26.548  23.083  1.00  0.00     0.012 A 
ATOM     84  C   UNL A   1      36.492  23.182  25.883  1.00  0.00     0.001 A 
ATOM     85  C   UNL A   1      36.035  22.790  23.580  1.00  0.00     0.029 A 
ATOM     86  N   UNL A   1      34.411  23.922  22.380  1.00  0.00    -0.248 NA
ATOM     87  C   UNL A   1      32.840  24.985  21.018  1.00  0.00     0.029 A 
ATOM     88  C   UNL A   1      31.354  26.689  21.831  1.00  0.00     0.001 A 
ATOM     89  C   UNL A   1      36.764  22.487  24.728  1.00  0.00     0.002 A 
ATOM     90  C   UNL A   1      31.820  25.912  20.788  1.00  0.00     0.002 A 
ENDBRANCH  75  77
ENDBRANCH  65  75
ENDBRANCH  63  65
ENDBRANCH  62  63
ENDBRANCH   1  62
TORSDOF 16
ENDMDL
MODEL 3
REMARK VINA RESULT:     -12.3      4.202      9.253
REMARK SMILES O=C(OCCOC(=O)[C@@H](Cc1ccc(O)cc1)Nc1c2ccccc2nc2ccccc12)c1ccc(-c2c3nc(c(-c4c(F)cccc4F)c4ccc([nH]4)c(-c4c(F)cccc4F)c4nc(c(-c5c(F)cccc5F)c5ccc2[nH]5)C=C4)C=C3)cc1
REMARK SMILES IDX 5 1 4 2 3 3 2 4 1 5 33 6 34 7 86 8 35 9 85 10 36 11 37 12
REMARK SMILES IDX 38 13 79 14 39 15 84 16 78 17 80 18 40 19 83 20 77 21 76 22
REMARK SMILES IDX 41 24 67 25 50 26 66 27 51 28 54 29 65 30 81 31 52 32 53 33
REMARK SMILES IDX 64 35 82 36 55 37 42 38 43 39 48 40 44 41 45 42 47 43 49 44
REMARK SMILES IDX 46 45 68 46 69 47 74 48 70 49 71 50 73 51 75 52 72 53 56 54
REMARK SMILES IDX 57 55 62 56 58 57 59 58 61 59 63 60 60 61 6 62 7 63 8 64
REMARK SMILES IDX 9 65 10 66 11 67 12 68 17 69 13 70 16 71 14 72 15 73 18 75
REMARK SMILES IDX 19 77 20 78 32 79 21 80 25 81 27 82 31 83 22 84 24 85 26 86
REMARK SMILES IDX 28 87 30 88 23 89 29 90
REMARK H PARENT 80 23 54 34 15 74 18 76
REMARK Flexibility Score: inf
ROOT
ATOM      1  C   UNL A   1      40.029  20.242  26.215  1.00  0.00     0.274 C 
ENDROOT
BRANCH   1   2
ATOM      2  C   UNL A   1      41.432  20.844  26.455  1.00  0.00     0.275 C 
BRANCH   2   3
ATOM      3  O   UNL A   1      41.614  22.145  25.878  1.00  0.00    -0.458 OA
BRANCH   3   4
ATOM      4  C   UNL A   1      42.739  22.891  25.833  1.00  0.00     0.338 C 
ATOM      5  O   UNL A   1      43.804  22.350  25.542  1.00  0.00    -0.246 OA
BRANCH   4   6
ATOM      6  C   UNL A   1      42.820  24.318  26.259  1.00  0.00     0.060 A 
ATOM      7  C   UNL A   1      42.744  25.661  25.144  1.00  0.00     0.016 A 
ATOM      8  C   UNL A   1      42.626  24.518  28.027  1.00  0.00     0.016 A 
ATOM      9  C   UNL A   1      42.360  27.278  25.771  1.00  0.00     0.010 A 
ATOM     10  C   UNL A   1      42.183  26.045  28.789  1.00  0.00     0.010 A 
ATOM     11  C   UNL A   1      42.041  27.534  27.760  1.00  0.00    -0.014 A 
BRANCH  11  12
ATOM     12  C   UNL A   1      41.815  28.687  28.811  1.00  0.00     0.031 A 
ATOM     13  C   UNL A   1      40.468  29.370  28.786  1.00  0.00     0.074 A 
ATOM     14  C   UNL A   1      42.743  29.145  29.687  1.00  0.00     0.049 A 
ATOM     15  N   UNL A   1      39.830  29.983  29.745  1.00  0.00    -0.248 NA
ATOM     16  C   UNL A   1      39.746  29.399  27.499  1.00  0.00     0.031 C 
ATOM     17  C   UNL A   1      44.179  28.898  29.640  1.00  0.00     0.029 A 
ATOM     18  N   UNL A   1      42.569  29.711  30.933  1.00  0.00    -0.354 N 
ATOM     19  C   UNL A   1      38.637  30.414  29.180  1.00  0.00     0.074 A 
ATOM     20  C   UNL A   1      38.656  30.078  27.786  1.00  0.00     0.031 C 
ATOM     21  C   UNL A   1      44.684  28.966  30.881  1.00  0.00     0.029 A 
ATOM     22  C   UNL A   1      43.645  29.457  31.776  1.00  0.00     0.049 A 
ATOM     23  H   UNL A   1      41.776  30.232  31.195  1.00  0.00     0.167 HD
ATOM     24  C   UNL A   1      37.598  31.025  29.786  1.00  0.00     0.037 A 
ATOM     25  C   UNL A   1      43.748  29.583  33.117  1.00  0.00     0.037 A 
ATOM     26  C   UNL A   1      37.662  31.436  31.152  1.00  0.00     0.049 A 
ATOM     27  C   UNL A   1      42.570  30.216  33.809  1.00  0.00     0.074 A 
ATOM     28  C   UNL A   1      36.731  32.125  31.899  1.00  0.00     0.029 A 
ATOM     29  N   UNL A   1      38.769  31.220  31.966  1.00  0.00    -0.354 N 
ATOM     30  N   UNL A   1      41.392  30.524  33.314  1.00  0.00    -0.248 NA
ATOM     31  C   UNL A   1      42.748  30.588  35.216  1.00  0.00     0.031 C 
ATOM     32  C   UNL A   1      37.309  32.396  33.143  1.00  0.00     0.029 A 
ATOM     33  C   UNL A   1      38.558  31.788  33.204  1.00  0.00     0.049 A 
ATOM     34  H   UNL A   1      39.582  30.734  31.698  1.00  0.00     0.167 HD
ATOM     35  C   UNL A   1      40.696  31.146  34.338  1.00  0.00     0.074 A 
ATOM     36  C   UNL A   1      41.565  31.116  35.499  1.00  0.00     0.031 C 
ATOM     37  C   UNL A   1      39.466  31.718  34.320  1.00  0.00     0.037 A 
BRANCH  24  38
ATOM     38  C   UNL A   1      36.405  31.329  28.928  1.00  0.00     0.057 A 
ATOM     39  C   UNL A   1      36.088  32.640  28.532  1.00  0.00     0.134 A 
ATOM     40  C   UNL A   1      35.497  30.319  28.595  1.00  0.00     0.134 A 
ATOM     41  F   UNL A   1      36.886  33.665  28.867  1.00  0.00    -0.206 F 
ATOM     42  C   UNL A   1      34.894  32.935  27.869  1.00  0.00     0.040 A 
ATOM     43  C   UNL A   1      34.316  30.599  27.904  1.00  0.00     0.040 A 
ATOM     44  F   UNL A   1      35.721  29.050  28.968  1.00  0.00    -0.206 F 
ATOM     45  C   UNL A   1      34.006  31.911  27.551  1.00  0.00     0.006 A 
ENDBRANCH  24  38
BRANCH  25  46
ATOM     46  C   UNL A   1      44.972  29.166  33.879  1.00  0.00     0.057 A 
ATOM     47  C   UNL A   1      45.100  27.887  34.448  1.00  0.00     0.134 A 
ATOM     48  C   UNL A   1      46.042  30.046  34.097  1.00  0.00     0.134 A 
ATOM     49  F   UNL A   1      44.115  26.985  34.322  1.00  0.00    -0.206 F 
ATOM     50  C   UNL A   1      46.223  27.513  35.200  1.00  0.00     0.040 A 
ATOM     51  C   UNL A   1      47.190  29.670  34.803  1.00  0.00     0.040 A 
ATOM     52  F   UNL A   1      45.994  31.299  33.625  1.00  0.00    -0.206 F 
ATOM     53  C   UNL A   1      47.280  28.403  35.367  1.00  0.00     0.006 A 
ENDBRANCH  25  46
BRANCH  37  54
ATOM     54  C   UNL A   1      38.984  32.296  35.612  1.00  0.00     0.057 A 
ATOM     55  C   UNL A   1      39.171  33.642  35.944  1.00  0.00     0.134 A 
ATOM     56  C   UNL A   1      38.286  31.485  36.514  1.00  0.00     0.134 A 
ATOM     57  F   UNL A   1      39.834  34.465  35.116  1.00  0.00    -0.206 F 
ATOM     58  C   UNL A   1      38.717  34.154  37.157  1.00  0.00     0.040 A 
ATOM     59  C   UNL A   1      37.789  31.996  37.708  1.00  0.00     0.040 A 
ATOM     60  F   UNL A   1      38.059  30.192  36.236  1.00  0.00    -0.206 F 
ATOM     61  C   UNL A   1      38.018  33.329  38.039  1.00  0.00     0.006 A 
ENDBRANCH  37  54
ENDBRANCH  11  12
ENDBRANCH   4   6
ENDBRANCH   3   4
ENDBRANCH   2   3
ENDBRANCH   1   2
BRANCH   1  62
ATOM     62  O   UNL A   1      38.973  21.216  26.028  1.00  0.00    -0.461 OA
BRANCH  62  63
ATOM     63  C   UNL A   1      37.899  20.813  25.294  1.00  0.00     0.329 C 
ATOM     64  O   UNL A   1      37.901  19.799  24.606  1.00  0.00    -0.250 OA
BRANCH  63  65
ATOM     65  C   UNL A   1      36.686  21.758  25.403  1.00  0.00     0.194 C 
BRANCH  65  66
ATOM     66  C   UNL A   1      36.099  22.265  24.085  1.00  0.00     0.072 C 
BRANCH  66  67
ATOM     67  C   UNL A   1      35.176  23.559  23.910  1.00  0.00    -0.045 A 
ATOM     68  C   UNL A   1      34.867  25.294  24.919  1.00  0.00     0.007 A 
ATOM     69  C   UNL A   1      33.863  23.074  22.746  1.00  0.00     0.007 A 
ATOM     70  C   UNL A   1      33.359  26.234  24.619  1.00  0.00     0.046 A 
ATOM     71  C   UNL A   1      32.426  24.090  22.578  1.00  0.00     0.046 A 
ATOM     72  C   UNL A   1      32.204  25.592  23.477  1.00  0.00     0.115 A 
BRANCH  72  73
ATOM     73  O   UNL A   1      31.144  26.369  23.091  1.00  0.00    -0.508 OA
ATOM     74  H   UNL A   1      30.635  26.820  23.735  1.00  0.00     0.293 HD
ENDBRANCH  72  73
ENDBRANCH  66  67
ENDBRANCH  65  66
BRANCH  65  75
ATOM     75  N   UNL A   1      35.612  21.219  26.209  1.00  0.00    -0.371 N 
ATOM     76  H   UNL A   1      35.789  21.139  27.174  1.00  0.00     0.161 HD
BRANCH  75  77
ATOM     77  C   UNL A   1      34.351  20.801  25.777  1.00  0.00     0.054 A 
ATOM     78  C   UNL A   1      34.073  19.622  24.976  1.00  0.00     0.024 A 
ATOM     79  C   UNL A   1      33.283  21.692  26.096  1.00  0.00     0.024 A 
ATOM     80  C   UNL A   1      34.961  18.563  24.597  1.00  0.00     0.012 A 
ATOM     81  C   UNL A   1      32.743  19.468  24.531  1.00  0.00     0.073 A 
ATOM     82  C   UNL A   1      32.023  21.416  25.552  1.00  0.00     0.073 A 
ATOM     83  C   UNL A   1      33.431  22.861  26.894  1.00  0.00     0.012 A 
ATOM     84  C   UNL A   1      34.575  17.449  23.843  1.00  0.00     0.001 A 
ATOM     85  C   UNL A   1      32.380  18.367  23.755  1.00  0.00     0.029 A 
ATOM     86  N   UNL A   1      31.767  20.339  24.802  1.00  0.00    -0.248 NA
ATOM     87  C   UNL A   1      30.989  22.316  25.770  1.00  0.00     0.029 A 
ATOM     88  C   UNL A   1      32.383  23.747  27.105  1.00  0.00     0.001 A 
ATOM     89  C   UNL A   1      33.274  17.358  23.405  1.00  0.00     0.002 A 
ATOM     90  C   UNL A   1      31.158  23.479  26.526  1.00  0.00     0.002 A 
ENDBRANCH  75  77
ENDBRANCH  65  75
ENDBRANCH  63  65
ENDBRANCH  62  63
ENDBRANCH   1  62
TORSDOF 16
ENDMDL
