MODEL 1
REMARK VINA RESULT:      -9.5      0.000      0.000
REMARK SMILES CC1=C[C@@H](CNS(=O)(=O)c2cccs2)[C@H](C(C)C)C[C@H]1CC(=O)OCCOC(=O)c1ccc(-c2c3nc(c(-c4c(F)cccc4F)c4ccc([nH]4)c(-c4c(F)cccc4F)c4nc(c(-c5c(F)cccc5F)c5ccc2[nH]5)C=C4)C=C3)cc1
REMARK SMILES IDX 24 1 22 2 23 3 21 4 20 5 1 6 2 7 3 8 4 9 19 10 15 11 5 12
REMARK SMILES IDX 6 13 7 15 8 16 9 17 10 18 11 19 14 20 12 21 13 22 16 23
REMARK SMILES IDX 17 24 18 25 25 26 26 27 27 28 28 29 29 30 30 31 31 32 83 33
REMARK SMILES IDX 32 34 82 35 33 36 34 37 35 38 76 39 36 40 81 41 75 42 77 43
REMARK SMILES IDX 37 44 80 45 74 46 73 47 38 49 64 50 47 51 63 52 48 53 51 54
REMARK SMILES IDX 62 55 78 56 49 57 50 58 61 60 79 61 52 62 39 63 40 64 45 65
REMARK SMILES IDX 41 66 42 67 44 68 46 69 43 70 65 71 66 72 71 73 67 74 68 75
REMARK SMILES IDX 70 76 72 77 69 78 53 79 54 80 59 81 55 82 56 83 58 84 60 85
REMARK SMILES IDX 57 86
REMARK H PARENT 6 14 77 48 51 59
REMARK Flexibility Score: inf
ROOT
ATOM      1  O   UNL A   1      41.582  35.798  34.499  1.00  0.00    -0.462 OA
ENDROOT
BRANCH   1   2
ATOM      2  C   UNL A   1      40.355  35.626  35.041  1.00  0.00     0.306 C 
ATOM      3  O   UNL A   1      39.743  36.482  35.669  1.00  0.00    -0.252 OA
BRANCH   2   4
ATOM      4  C   UNL A   1      39.842  34.213  34.859  1.00  0.00     0.130 C 
BRANCH   4   5
ATOM      5  C   UNL A   1      39.700  33.718  33.398  1.00  0.00     0.026 C 
ATOM      6  C   UNL A   1      40.715  31.338  33.706  1.00  0.00     0.039 C 
ATOM      7  C   UNL A   1      39.551  32.201  33.298  1.00  0.00    -0.073 C 
ATOM      8  C   UNL A   1      38.460  31.610  32.785  1.00  0.00    -0.023 C 
ATOM      9  C   UNL A   1      37.296  32.351  32.191  1.00  0.00     0.030 C 
ATOM     10  C   UNL A   1      38.522  34.490  32.726  1.00  0.00     0.013 C 
ATOM     11  C   UNL A   1      37.778  33.716  31.608  1.00  0.00     0.000 C 
BRANCH   9  12
ATOM     12  C   UNL A   1      36.127  32.531  33.191  1.00  0.00     0.107 C 
BRANCH  12  13
ATOM     13  N   UNL A   1      34.831  32.704  32.505  1.00  0.00    -0.210 NA
ATOM     14  H   UNL A   1      34.169  32.055  32.930  1.00  0.00     0.141 HD
BRANCH  13  15
ATOM     15  S   UNL A   1      34.137  34.244  32.552  1.00  0.00     0.250 S 
ATOM     16  O   UNL A   1      32.775  34.083  33.007  1.00  0.00    -0.206 OA
ATOM     17  O   UNL A   1      35.083  35.079  33.261  1.00  0.00    -0.206 OA
BRANCH  15  18
ATOM     18  C   UNL A   1      33.991  34.867  30.884  1.00  0.00     0.134 A 
ATOM     19  C   UNL A   1      34.588  34.482  29.695  1.00  0.00     0.033 A 
ATOM     20  S   UNL A   1      32.869  36.136  30.619  1.00  0.00    -0.131 S 
ATOM     21  C   UNL A   1      34.138  35.242  28.576  1.00  0.00     0.013 A 
ATOM     22  C   UNL A   1      33.187  36.167  28.939  1.00  0.00     0.066 A 
ENDBRANCH  15  18
ENDBRANCH  13  15
ENDBRANCH  12  13
ENDBRANCH   9  12
BRANCH  11  23
ATOM     23  C   UNL A   1      38.641  33.595  30.306  1.00  0.00    -0.014 C 
ATOM     24  C   UNL A   1      37.832  33.109  29.096  1.00  0.00     0.007 C 
ATOM     25  C   UNL A   1      39.285  34.941  29.935  1.00  0.00     0.007 C 
ENDBRANCH  11  23
ENDBRANCH   4   5
ENDBRANCH   2   4
ENDBRANCH   1   2
BRANCH   1  26
ATOM     26  C   UNL A   1      42.307  36.998  34.827  1.00  0.00     0.274 C 
BRANCH  26  27
ATOM     27  C   UNL A   1      43.812  36.794  34.646  1.00  0.00     0.275 C 
BRANCH  27  28
ATOM     28  O   UNL A   1      44.127  36.594  33.259  1.00  0.00    -0.458 OA
BRANCH  28  29
ATOM     29  C   UNL A   1      45.304  35.976  33.008  1.00  0.00     0.338 C 
ATOM     30  O   UNL A   1      46.417  36.323  33.358  1.00  0.00    -0.246 OA
BRANCH  29  31
ATOM     31  C   UNL A   1      45.022  34.700  32.337  1.00  0.00     0.060 A 
ATOM     32  C   UNL A   1      44.697  33.590  33.123  1.00  0.00     0.016 A 
ATOM     33  C   UNL A   1      45.091  34.599  30.948  1.00  0.00     0.016 A 
ATOM     34  C   UNL A   1      44.420  32.368  32.516  1.00  0.00     0.010 A 
ATOM     35  C   UNL A   1      44.820  33.372  30.340  1.00  0.00     0.010 A 
ATOM     36  C   UNL A   1      44.486  32.253  31.121  1.00  0.00    -0.014 A 
BRANCH  36  37
ATOM     37  C   UNL A   1      44.247  30.946  30.471  1.00  0.00     0.031 A 
ATOM     38  C   UNL A   1      42.851  30.550  30.100  1.00  0.00     0.074 A 
ATOM     39  C   UNL A   1      45.281  30.119  30.233  1.00  0.00     0.049 A 
ATOM     40  N   UNL A   1      42.415  29.421  29.605  1.00  0.00    -0.248 NA
ATOM     41  C   UNL A   1      41.803  31.559  30.322  1.00  0.00     0.031 C 
ATOM     42  C   UNL A   1      46.683  30.412  30.526  1.00  0.00     0.029 A 
ATOM     43  N   UNL A   1      45.305  28.857  29.699  1.00  0.00    -0.354 N 
ATOM     44  C   UNL A   1      41.043  29.576  29.465  1.00  0.00     0.074 A 
ATOM     45  C   UNL A   1      40.715  30.901  29.949  1.00  0.00     0.031 C 
ATOM     46  C   UNL A   1      47.432  29.354  30.176  1.00  0.00     0.029 A 
ATOM     47  C   UNL A   1      46.559  28.300  29.669  1.00  0.00     0.049 A 
ATOM     48  H   UNL A   1      44.500  28.394  29.369  1.00  0.00     0.167 HD
ATOM     49  C   UNL A   1      40.141  28.694  28.975  1.00  0.00     0.037 A 
ATOM     50  C   UNL A   1      46.952  27.067  29.296  1.00  0.00     0.037 A 
ATOM     51  C   UNL A   1      40.475  27.378  28.497  1.00  0.00     0.049 A 
ATOM     52  C   UNL A   1      45.922  26.083  28.810  1.00  0.00     0.074 A 
ATOM     53  C   UNL A   1      39.637  26.414  27.965  1.00  0.00     0.029 A 
ATOM     54  N   UNL A   1      41.753  26.840  28.501  1.00  0.00    -0.354 N 
ATOM     55  N   UNL A   1      44.629  26.244  28.667  1.00  0.00    -0.248 NA
ATOM     56  C   UNL A   1      46.406  24.747  28.439  1.00  0.00     0.031 C 
ATOM     57  C   UNL A   1      40.403  25.277  27.682  1.00  0.00     0.029 A 
ATOM     58  C   UNL A   1      41.724  25.549  28.001  1.00  0.00     0.049 A 
ATOM     59  H   UNL A   1      42.562  27.306  28.813  1.00  0.00     0.167 HD
ATOM     60  C   UNL A   1      44.147  25.039  28.172  1.00  0.00     0.074 A 
ATOM     61  C   UNL A   1      45.291  24.161  28.027  1.00  0.00     0.031 C 
ATOM     62  C   UNL A   1      42.874  24.691  27.865  1.00  0.00     0.037 A 
BRANCH  49  63
ATOM     63  C   UNL A   1      38.704  29.120  28.958  1.00  0.00     0.057 A 
ATOM     64  C   UNL A   1      38.092  29.607  27.797  1.00  0.00     0.134 A 
ATOM     65  C   UNL A   1      37.920  29.029  30.115  1.00  0.00     0.134 A 
ATOM     66  F   UNL A   1      38.793  29.735  26.660  1.00  0.00    -0.206 F 
ATOM     67  C   UNL A   1      36.754  30.010  27.792  1.00  0.00     0.040 A 
ATOM     68  C   UNL A   1      36.576  29.408  30.117  1.00  0.00     0.040 A 
ATOM     69  F   UNL A   1      38.446  28.570  31.260  1.00  0.00    -0.206 F 
ATOM     70  C   UNL A   1      35.992  29.906  28.954  1.00  0.00     0.006 A 
ENDBRANCH  49  63
BRANCH  50  71
ATOM     71  C   UNL A   1      48.384  26.689  29.379  1.00  0.00     0.057 A 
ATOM     72  C   UNL A   1      48.893  26.030  30.503  1.00  0.00     0.134 A 
ATOM     73  C   UNL A   1      49.275  26.982  28.340  1.00  0.00     0.134 A 
ATOM     74  F   UNL A   1      48.091  25.745  31.539  1.00  0.00    -0.206 F 
ATOM     75  C   UNL A   1      50.241  25.683  30.596  1.00  0.00     0.040 A 
ATOM     76  C   UNL A   1      50.621  26.620  28.411  1.00  0.00     0.040 A 
ATOM     77  F   UNL A   1      48.848  27.613  27.237  1.00  0.00    -0.206 F 
ATOM     78  C   UNL A   1      51.108  25.973  29.545  1.00  0.00     0.006 A 
ENDBRANCH  50  71
BRANCH  62  79
ATOM     79  C   UNL A   1      42.657  23.311  27.320  1.00  0.00     0.057 A 
ATOM     80  C   UNL A   1      42.787  23.029  25.955  1.00  0.00     0.134 A 
ATOM     81  C   UNL A   1      42.351  22.246  28.177  1.00  0.00     0.134 A 
ATOM     82  F   UNL A   1      43.065  24.008  25.082  1.00  0.00    -0.206 F 
ATOM     83  C   UNL A   1      42.601  21.738  25.458  1.00  0.00     0.040 A 
ATOM     84  C   UNL A   1      42.186  20.948  27.695  1.00  0.00     0.040 A 
ATOM     85  F   UNL A   1      42.220  22.450  29.496  1.00  0.00    -0.206 F 
ATOM     86  C   UNL A   1      42.306  20.692  26.330  1.00  0.00     0.006 A 
ENDBRANCH  62  79
ENDBRANCH  36  37
ENDBRANCH  29  31
ENDBRANCH  28  29
ENDBRANCH  27  28
ENDBRANCH  26  27
ENDBRANCH   1  26
TORSDOF 17
ENDMDL
MODEL 2
REMARK VINA RESULT:      -9.4      6.487     12.828
REMARK SMILES CC1=C[C@@H](CNS(=O)(=O)c2cccs2)[C@H](C(C)C)C[C@H]1CC(=O)OCCOC(=O)c1ccc(-c2c3nc(c(-c4c(F)cccc4F)c4ccc([nH]4)c(-c4c(F)cccc4F)c4nc(c(-c5c(F)cccc5F)c5ccc2[nH]5)C=C4)C=C3)cc1
REMARK SMILES IDX 24 1 22 2 23 3 21 4 20 5 1 6 2 7 3 8 4 9 19 10 15 11 5 12
REMARK SMILES IDX 6 13 7 15 8 16 9 17 10 18 11 19 14 20 12 21 13 22 16 23
REMARK SMILES IDX 17 24 18 25 25 26 26 27 27 28 28 29 29 30 30 31 31 32 83 33
REMARK SMILES IDX 32 34 82 35 33 36 34 37 35 38 76 39 36 40 81 41 75 42 77 43
REMARK SMILES IDX 37 44 80 45 74 46 73 47 38 49 64 50 47 51 63 52 48 53 51 54
REMARK SMILES IDX 62 55 78 56 49 57 50 58 61 60 79 61 52 62 39 63 40 64 45 65
REMARK SMILES IDX 41 66 42 67 44 68 46 69 43 70 65 71 66 72 71 73 67 74 68 75
REMARK SMILES IDX 70 76 72 77 69 78 53 79 54 80 59 81 55 82 56 83 58 84 60 85
REMARK SMILES IDX 57 86
REMARK H PARENT 6 14 77 48 51 59
REMARK Flexibility Score: inf
ROOT
ATOM      1  O   UNL A   1      37.090  23.522  25.036  1.00  0.00    -0.462 OA
ENDROOT
BRANCH   1   2
ATOM      2  C   UNL A   1      36.210  23.523  24.010  1.00  0.00     0.306 C 
ATOM      3  O   UNL A   1      36.498  23.288  22.843  1.00  0.00    -0.252 OA
BRANCH   2   4
ATOM      4  C   UNL A   1      34.820  23.932  24.448  1.00  0.00     0.130 C 
BRANCH   4   5
ATOM      5  C   UNL A   1      34.113  25.000  23.578  1.00  0.00     0.026 C 
ATOM      6  C   UNL A   1      33.241  23.432  21.689  1.00  0.00     0.039 C 
ATOM      7  C   UNL A   1      32.945  24.432  22.773  1.00  0.00    -0.073 C 
ATOM      8  C   UNL A   1      31.679  24.849  22.937  1.00  0.00    -0.023 C 
ATOM      9  C   UNL A   1      31.265  25.956  23.865  1.00  0.00     0.030 C 
ATOM     10  C   UNL A   1      33.697  26.191  24.496  1.00  0.00     0.013 C 
ATOM     11  C   UNL A   1      32.437  26.971  24.037  1.00  0.00     0.000 C 
BRANCH   9  12
ATOM     12  C   UNL A   1      30.752  25.432  25.230  1.00  0.00     0.107 C 
BRANCH  12  13
ATOM     13  N   UNL A   1      30.277  24.036  25.144  1.00  0.00    -0.210 NA
ATOM     14  H   UNL A   1      30.603  23.654  24.256  1.00  0.00     0.141 HD
BRANCH  13  15
ATOM     15  S   UNL A   1      30.776  22.980  26.366  1.00  0.00     0.250 S 
ATOM     16  O   UNL A   1      31.483  23.770  27.348  1.00  0.00    -0.206 OA
ATOM     17  O   UNL A   1      29.607  22.202  26.713  1.00  0.00    -0.206 OA
BRANCH  15  18
ATOM     18  C   UNL A   1      32.006  21.865  25.704  1.00  0.00     0.134 A 
ATOM     19  C   UNL A   1      32.145  21.271  24.461  1.00  0.00     0.033 A 
ATOM     20  S   UNL A   1      33.328  21.468  26.721  1.00  0.00    -0.131 S 
ATOM     21  C   UNL A   1      33.323  20.475  24.354  1.00  0.00     0.013 A 
ATOM     22  C   UNL A   1      34.066  20.510  25.511  1.00  0.00     0.066 A 
ENDBRANCH  15  18
ENDBRANCH  13  15
ENDBRANCH  12  13
ENDBRANCH   9  12
BRANCH  11  23
ATOM     23  C   UNL A   1      32.723  27.850  22.771  1.00  0.00    -0.014 C 
ATOM     24  C   UNL A   1      31.610  28.868  22.488  1.00  0.00     0.007 C 
ATOM     25  C   UNL A   1      34.046  28.620  22.911  1.00  0.00     0.007 C 
ENDBRANCH  11  23
ENDBRANCH   4   5
ENDBRANCH   2   4
ENDBRANCH   1   2
BRANCH   1  26
ATOM     26  C   UNL A   1      37.647  22.261  25.452  1.00  0.00     0.274 C 
BRANCH  26  27
ATOM     27  C   UNL A   1      39.045  22.450  26.044  1.00  0.00     0.275 C 
BRANCH  27  28
ATOM     28  O   UNL A   1      39.128  23.704  26.740  1.00  0.00    -0.458 OA
BRANCH  28  29
ATOM     29  C   UNL A   1      40.344  24.297  26.738  1.00  0.00     0.338 C 
ATOM     30  O   UNL A   1      41.270  24.096  25.974  1.00  0.00    -0.246 OA
BRANCH  29  31
ATOM     31  C   UNL A   1      40.342  25.361  27.751  1.00  0.00     0.060 A 
ATOM     32  C   UNL A   1      39.279  25.417  28.658  1.00  0.00     0.016 A 
ATOM     33  C   UNL A   1      41.372  26.300  27.795  1.00  0.00     0.016 A 
ATOM     34  C   UNL A   1      39.252  26.411  29.633  1.00  0.00     0.010 A 
ATOM     35  C   UNL A   1      41.340  27.300  28.767  1.00  0.00     0.010 A 
ATOM     36  C   UNL A   1      40.280  27.361  29.688  1.00  0.00    -0.014 A 
BRANCH  36  37
ATOM     37  C   UNL A   1      40.232  28.452  30.684  1.00  0.00     0.031 A 
ATOM     38  C   UNL A   1      41.139  28.406  31.876  1.00  0.00     0.074 A 
ATOM     39  C   UNL A   1      39.365  29.468  30.522  1.00  0.00     0.049 A 
ATOM     40  N   UNL A   1      41.195  29.211  32.905  1.00  0.00    -0.248 NA
ATOM     41  C   UNL A   1      42.109  27.301  31.917  1.00  0.00     0.031 C 
ATOM     42  C   UNL A   1      38.456  29.630  29.388  1.00  0.00     0.029 A 
ATOM     43  N   UNL A   1      39.102  30.550  31.322  1.00  0.00    -0.354 N 
ATOM     44  C   UNL A   1      42.196  28.706  33.722  1.00  0.00     0.074 A 
ATOM     45  C   UNL A   1      42.707  27.512  33.080  1.00  0.00     0.031 C 
ATOM     46  C   UNL A   1      37.728  30.744  29.569  1.00  0.00     0.029 A 
ATOM     47  C   UNL A   1      38.094  31.350  30.846  1.00  0.00     0.049 A 
ATOM     48  H   UNL A   1      39.590  30.735  32.158  1.00  0.00     0.167 HD
ATOM     49  C   UNL A   1      42.650  29.197  34.900  1.00  0.00     0.037 A 
ATOM     50  C   UNL A   1      37.516  32.435  31.394  1.00  0.00     0.037 A 
ATOM     51  C   UNL A   1      42.137  30.384  35.532  1.00  0.00     0.049 A 
ATOM     52  C   UNL A   1      37.998  32.928  32.731  1.00  0.00     0.074 A 
ATOM     53  C   UNL A   1      42.540  30.974  36.717  1.00  0.00     0.029 A 
ATOM     54  N   UNL A   1      41.100  31.158  35.030  1.00  0.00    -0.354 N 
ATOM     55  N   UNL A   1      38.956  32.454  33.490  1.00  0.00    -0.248 NA
ATOM     56  C   UNL A   1      37.315  34.103  33.289  1.00  0.00     0.031 C 
ATOM     57  C   UNL A   1      41.720  32.085  36.952  1.00  0.00     0.029 A 
ATOM     58  C   UNL A   1      40.835  32.208  35.893  1.00  0.00     0.049 A 
ATOM     59  H   UNL A   1      40.624  30.985  34.187  1.00  0.00     0.167 HD
ATOM     60  C   UNL A   1      39.004  33.280  34.604  1.00  0.00     0.074 A 
ATOM     61  C   UNL A   1      37.987  34.295  34.415  1.00  0.00     0.031 C 
ATOM     62  C   UNL A   1      39.818  33.208  35.686  1.00  0.00     0.037 A 
BRANCH  49  63
ATOM     63  C   UNL A   1      43.739  28.432  35.588  1.00  0.00     0.057 A 
ATOM     64  C   UNL A   1      45.093  28.678  35.328  1.00  0.00     0.134 A 
ATOM     65  C   UNL A   1      43.430  27.445  36.532  1.00  0.00     0.134 A 
ATOM     66  F   UNL A   1      45.455  29.598  34.422  1.00  0.00    -0.206 F 
ATOM     67  C   UNL A   1      46.102  27.954  35.968  1.00  0.00     0.040 A 
ATOM     68  C   UNL A   1      44.430  26.730  37.194  1.00  0.00     0.040 A 
ATOM     69  F   UNL A   1      42.153  27.161  36.827  1.00  0.00    -0.206 F 
ATOM     70  C   UNL A   1      45.770  26.980  36.908  1.00  0.00     0.006 A 
ENDBRANCH  49  63
BRANCH  50  71
ATOM     71  C   UNL A   1      36.410  33.123  30.684  1.00  0.00     0.057 A 
ATOM     72  C   UNL A   1      35.080  32.957  31.084  1.00  0.00     0.134 A 
ATOM     73  C   UNL A   1      36.657  33.959  29.588  1.00  0.00     0.134 A 
ATOM     74  F   UNL A   1      34.782  32.149  32.113  1.00  0.00    -0.206 F 
ATOM     75  C   UNL A   1      34.032  33.589  30.415  1.00  0.00     0.040 A 
ATOM     76  C   UNL A   1      35.620  34.615  28.923  1.00  0.00     0.040 A 
ATOM     77  F   UNL A   1      37.911  34.159  29.156  1.00  0.00    -0.206 F 
ATOM     78  C   UNL A   1      34.302  34.426  29.334  1.00  0.00     0.006 A 
ENDBRANCH  50  71
BRANCH  62  79
ATOM     79  C   UNL A   1      39.654  34.267  36.734  1.00  0.00     0.057 A 
ATOM     80  C   UNL A   1      40.231  35.535  36.597  1.00  0.00     0.134 A 
ATOM     81  C   UNL A   1      38.880  34.027  37.877  1.00  0.00     0.134 A 
ATOM     82  F   UNL A   1      40.995  35.822  35.533  1.00  0.00    -0.206 F 
ATOM     83  C   UNL A   1      40.059  36.522  37.569  1.00  0.00     0.040 A 
ATOM     84  C   UNL A   1      38.682  35.012  38.844  1.00  0.00     0.040 A 
ATOM     85  F   UNL A   1      38.294  32.834  38.064  1.00  0.00    -0.206 F 
ATOM     86  C   UNL A   1      39.278  36.264  38.693  1.00  0.00     0.006 A 
ENDBRANCH  62  79
ENDBRANCH  36  37
ENDBRANCH  29  31
ENDBRANCH  28  29
ENDBRANCH  27  28
ENDBRANCH  26  27
ENDBRANCH   1  26
TORSDOF 17
ENDMDL
MODEL 3
REMARK VINA RESULT:      -9.3      5.667     10.147
REMARK SMILES CC1=C[C@@H](CNS(=O)(=O)c2cccs2)[C@H](C(C)C)C[C@H]1CC(=O)OCCOC(=O)c1ccc(-c2c3nc(c(-c4c(F)cccc4F)c4ccc([nH]4)c(-c4c(F)cccc4F)c4nc(c(-c5c(F)cccc5F)c5ccc2[nH]5)C=C4)C=C3)cc1
REMARK SMILES IDX 24 1 22 2 23 3 21 4 20 5 1 6 2 7 3 8 4 9 19 10 15 11 5 12
REMARK SMILES IDX 6 13 7 15 8 16 9 17 10 18 11 19 14 20 12 21 13 22 16 23
REMARK SMILES IDX 17 24 18 25 25 26 26 27 27 28 28 29 29 30 30 31 31 32 83 33
REMARK SMILES IDX 32 34 82 35 33 36 34 37 35 38 76 39 36 40 81 41 75 42 77 43
REMARK SMILES IDX 37 44 80 45 74 46 73 47 38 49 64 50 47 51 63 52 48 53 51 54
REMARK SMILES IDX 62 55 78 56 49 57 50 58 61 60 79 61 52 62 39 63 40 64 45 65
REMARK SMILES IDX 41 66 42 67 44 68 46 69 43 70 65 71 66 72 71 73 67 74 68 75
REMARK SMILES IDX 70 76 72 77 69 78 53 79 54 80 59 81 55 82 56 83 58 84 60 85
REMARK SMILES IDX 57 86
REMARK H PARENT 6 14 77 48 51 59
REMARK Flexibility Score: inf
ROOT
ATOM      1  O   UNL A   1      37.367  21.235  25.678  1.00  0.00    -0.462 OA
ENDROOT
BRANCH   1   2
ATOM      2  C   UNL A   1      37.943  22.441  25.884  1.00  0.00     0.306 C 
ATOM      3  O   UNL A   1      39.112  22.611  26.207  1.00  0.00    -0.252 OA
BRANCH   2   4
ATOM      4  C   UNL A   1      36.952  23.578  25.752  1.00  0.00     0.130 C 
BRANCH   4   5
ATOM      5  C   UNL A   1      35.547  23.206  25.219  1.00  0.00     0.026 C 
ATOM      6  C   UNL A   1      34.522  22.315  27.442  1.00  0.00     0.039 C 
ATOM      7  C   UNL A   1      34.464  23.285  26.293  1.00  0.00    -0.073 C 
ATOM      8  C   UNL A   1      33.420  24.125  26.213  1.00  0.00    -0.023 C 
ATOM      9  C   UNL A   1      33.150  25.030  25.044  1.00  0.00     0.030 C 
ATOM     10  C   UNL A   1      35.236  24.097  23.976  1.00  0.00     0.013 C 
ATOM     11  C   UNL A   1      33.735  24.403  23.741  1.00  0.00     0.000 C 
BRANCH   9  12
ATOM     12  C   UNL A   1      33.666  26.473  25.272  1.00  0.00     0.107 C 
BRANCH  12  13
ATOM     13  N   UNL A   1      33.154  27.052  26.531  1.00  0.00    -0.210 NA
ATOM     14  H   UNL A   1      33.703  27.888  26.730  1.00  0.00     0.141 HD
BRANCH  13  15
ATOM     15  S   UNL A   1      31.523  27.493  26.566  1.00  0.00     0.250 S 
ATOM     16  O   UNL A   1      30.772  26.314  26.931  1.00  0.00    -0.206 OA
ATOM     17  O   UNL A   1      31.462  28.708  27.350  1.00  0.00    -0.206 OA
BRANCH  15  18
ATOM     18  C   UNL A   1      30.990  27.879  24.905  1.00  0.00     0.134 A 
ATOM     19  C   UNL A   1      30.229  27.173  23.988  1.00  0.00     0.033 A 
ATOM     20  S   UNL A   1      31.405  29.424  24.290  1.00  0.00    -0.131 S 
ATOM     21  C   UNL A   1      30.006  27.893  22.778  1.00  0.00     0.013 A 
ATOM     22  C   UNL A   1      30.581  29.142  22.818  1.00  0.00     0.066 A 
ENDBRANCH  15  18
ENDBRANCH  13  15
ENDBRANCH  12  13
ENDBRANCH   9  12
BRANCH  11  23
ATOM     23  C   UNL A   1      32.956  23.146  23.222  1.00  0.00    -0.014 C 
ATOM     24  C   UNL A   1      31.441  23.251  23.437  1.00  0.00     0.007 C 
ATOM     25  C   UNL A   1      33.207  22.912  21.723  1.00  0.00     0.007 C 
ENDBRANCH  11  23
ENDBRANCH   4   5
ENDBRANCH   2   4
ENDBRANCH   1   2
BRANCH   1  26
ATOM     26  C   UNL A   1      38.080  20.269  24.883  1.00  0.00     0.274 C 
BRANCH  26  27
ATOM     27  C   UNL A   1      39.061  19.472  25.743  1.00  0.00     0.275 C 
BRANCH  27  28
ATOM     28  O   UNL A   1      40.351  19.420  25.112  1.00  0.00    -0.458 OA
BRANCH  28  29
ATOM     29  C   UNL A   1      41.405  19.259  25.944  1.00  0.00     0.338 C 
ATOM     30  O   UNL A   1      41.992  18.226  26.213  1.00  0.00    -0.246 OA
BRANCH  29  31
ATOM     31  C   UNL A   1      41.847  20.586  26.393  1.00  0.00     0.060 A 
ATOM     32  C   UNL A   1      42.251  21.516  25.430  1.00  0.00     0.016 A 
ATOM     33  C   UNL A   1      41.872  20.903  27.751  1.00  0.00     0.016 A 
ATOM     34  C   UNL A   1      42.669  22.784  25.825  1.00  0.00     0.010 A 
ATOM     35  C   UNL A   1      42.298  22.172  28.146  1.00  0.00     0.010 A 
ATOM     36  C   UNL A   1      42.700  23.115  27.186  1.00  0.00    -0.014 A 
BRANCH  36  37
ATOM     37  C   UNL A   1      43.195  24.440  27.618  1.00  0.00     0.031 A 
ATOM     38  C   UNL A   1      42.216  25.492  28.043  1.00  0.00     0.074 A 
ATOM     39  C   UNL A   1      44.515  24.696  27.611  1.00  0.00     0.049 A 
ATOM     40  N   UNL A   1      42.432  26.739  28.373  1.00  0.00    -0.248 NA
ATOM     41  C   UNL A   1      40.803  25.086  28.099  1.00  0.00     0.031 C 
ATOM     42  C   UNL A   1      45.559  23.740  27.243  1.00  0.00     0.029 A 
ATOM     43  N   UNL A   1      45.201  25.844  27.912  1.00  0.00    -0.354 N 
ATOM     44  C   UNL A   1      41.184  27.272  28.665  1.00  0.00     0.074 A 
ATOM     45  C   UNL A   1      40.213  26.219  28.452  1.00  0.00     0.031 C 
ATOM     46  C   UNL A   1      46.755  24.345  27.332  1.00  0.00     0.029 A 
ATOM     47  C   UNL A   1      46.556  25.736  27.727  1.00  0.00     0.049 A 
ATOM     48  H   UNL A   1      44.763  26.667  28.230  1.00  0.00     0.167 HD
ATOM     49  C   UNL A   1      40.879  28.525  29.076  1.00  0.00     0.037 A 
ATOM     50  C   UNL A   1      47.524  26.666  27.841  1.00  0.00     0.037 A 
ATOM     51  C   UNL A   1      41.850  29.566  29.284  1.00  0.00     0.049 A 
ATOM     52  C   UNL A   1      47.152  28.067  28.242  1.00  0.00     0.074 A 
ATOM     53  C   UNL A   1      41.645  30.865  29.716  1.00  0.00     0.029 A 
ATOM     54  N   UNL A   1      43.214  29.427  29.067  1.00  0.00    -0.354 N 
ATOM     55  N   UNL A   1      45.972  28.559  28.532  1.00  0.00    -0.248 NA
ATOM     56  C   UNL A   1      48.247  29.043  28.329  1.00  0.00     0.031 C 
ATOM     57  C   UNL A   1      42.881  31.523  29.724  1.00  0.00     0.029 A 
ATOM     58  C   UNL A   1      43.859  30.622  29.335  1.00  0.00     0.049 A 
ATOM     59  H   UNL A   1      43.656  28.601  28.766  1.00  0.00     0.167 HD
ATOM     60  C   UNL A   1      46.183  29.893  28.852  1.00  0.00     0.074 A 
ATOM     61  C   UNL A   1      47.607  30.131  28.734  1.00  0.00     0.031 C 
ATOM     62  C   UNL A   1      45.279  30.838  29.211  1.00  0.00     0.037 A 
BRANCH  49  63
ATOM     63  C   UNL A   1      39.431  28.839  29.301  1.00  0.00     0.057 A 
ATOM     64  C   UNL A   1      38.613  29.331  28.277  1.00  0.00     0.134 A 
ATOM     65  C   UNL A   1      38.844  28.635  30.557  1.00  0.00     0.134 A 
ATOM     66  F   UNL A   1      39.119  29.566  27.057  1.00  0.00    -0.206 F 
ATOM     67  C   UNL A   1      37.267  29.630  28.498  1.00  0.00     0.040 A 
ATOM     68  C   UNL A   1      37.495  28.908  30.784  1.00  0.00     0.040 A 
ATOM     69  F   UNL A   1      39.572  28.165  31.580  1.00  0.00    -0.206 F 
ATOM     70  C   UNL A   1      36.704  29.414  29.755  1.00  0.00     0.006 A 
ENDBRANCH  49  63
BRANCH  50  71
ATOM     71  C   UNL A   1      48.934  26.304  27.560  1.00  0.00     0.057 A 
ATOM     72  C   UNL A   1      49.452  26.367  26.262  1.00  0.00     0.134 A 
ATOM     73  C   UNL A   1      49.796  25.884  28.580  1.00  0.00     0.134 A 
ATOM     74  F   UNL A   1      48.667  26.740  25.240  1.00  0.00    -0.206 F 
ATOM     75  C   UNL A   1      50.773  26.016  25.985  1.00  0.00     0.040 A 
ATOM     76  C   UNL A   1      51.126  25.552  28.321  1.00  0.00     0.040 A 
ATOM     77  F   UNL A   1      49.359  25.802  29.846  1.00  0.00    -0.206 F 
ATOM     78  C   UNL A   1      51.617  25.612  27.018  1.00  0.00     0.006 A 
ENDBRANCH  50  71
BRANCH  62  79
ATOM     79  C   UNL A   1      45.809  32.204  29.525  1.00  0.00     0.057 A 
ATOM     80  C   UNL A   1      45.893  33.204  28.549  1.00  0.00     0.134 A 
ATOM     81  C   UNL A   1      46.207  32.533  30.828  1.00  0.00     0.134 A 
ATOM     82  F   UNL A   1      45.541  32.947  27.281  1.00  0.00    -0.206 F 
ATOM     83  C   UNL A   1      46.372  34.479  28.853  1.00  0.00     0.040 A 
ATOM     84  C   UNL A   1      46.665  33.811  31.148  1.00  0.00     0.040 A 
ATOM     85  F   UNL A   1      46.144  31.621  31.809  1.00  0.00    -0.206 F 
ATOM     86  C   UNL A   1      46.754  34.787  30.158  1.00  0.00     0.006 A 
ENDBRANCH  62  79
ENDBRANCH  36  37
ENDBRANCH  29  31
ENDBRANCH  28  29
ENDBRANCH  27  28
ENDBRANCH  26  27
ENDBRANCH   1  26
TORSDOF 17
ENDMDL
