MODEL 1
REMARK VINA RESULT:     -11.9      0.000      0.000
REMARK SMILES O=C(CS[C@H](C(=O)Nc1ccc(C(F)(F)F)cc1)c1ccccc1)OCCOC(=O)c1ccc(-c2c3nc(c(-c4c(F)cccc4F)c4ccc([nH]4)c(-c4c(F)cccc4F)c4nc(c(-c5c(F)cccc5F)c5ccc2[nH]5)C=C4)C=C3)cc1
REMARK SMILES IDX 25 1 2 2 1 3 3 4 4 5 5 6 19 7 20 8 24 9 21 10 23 11 22 12
REMARK SMILES IDX 6 13 7 14 8 15 9 17 10 18 18 19 11 20 17 21 12 22 13 23
REMARK SMILES IDX 14 24 15 25 16 26 26 27 27 28 28 29 29 30 30 31 31 32 32 33
REMARK SMILES IDX 84 34 33 35 83 36 34 37 35 38 36 39 77 40 37 41 82 42 76 43
REMARK SMILES IDX 78 44 38 45 81 46 75 47 74 48 39 50 65 51 48 52 64 53 49 54
REMARK SMILES IDX 52 55 63 56 79 57 50 58 51 59 62 61 80 62 53 63 40 64 41 65
REMARK SMILES IDX 46 66 42 67 43 68 45 69 47 70 44 71 66 72 67 73 72 74 68 75
REMARK SMILES IDX 69 76 71 77 73 78 70 79 54 80 55 81 60 82 56 83 57 84 59 85
REMARK SMILES IDX 61 86 58 87
REMARK H PARENT 8 16 78 49 52 60
REMARK Flexibility Score: inf
ROOT
ATOM      1  O   UNL A   1      36.523  21.836  25.361  1.00  0.00    -0.461 OA
ENDROOT
BRANCH   1   2
ATOM      2  C   UNL A   1      36.034  22.986  25.892  1.00  0.00     0.316 C 
ATOM      3  O   UNL A   1      36.867  23.904  26.008  1.00  0.00    -0.251 OA
BRANCH   2   4
ATOM      4  C   UNL A   1      34.631  23.360  26.493  1.00  0.00     0.193 C 
BRANCH   4   5
ATOM      5  S   UNL A   1      32.994  23.227  25.734  1.00  0.00    -0.132 SA
BRANCH   5   6
ATOM      6  C   UNL A   1      32.429  24.872  26.199  1.00  0.00     0.166 C 
BRANCH   6   7
ATOM      7  C   UNL A   1      33.284  25.971  25.444  1.00  0.00    -0.026 A 
ATOM      8  C   UNL A   1      33.694  27.207  25.952  1.00  0.00     0.005 A 
ATOM      9  C   UNL A   1      33.634  25.770  24.079  1.00  0.00     0.005 A 
ATOM     10  C   UNL A   1      33.971  28.286  25.082  1.00  0.00     0.000 A 
ATOM     11  C   UNL A   1      33.877  26.830  23.201  1.00  0.00     0.000 A 
ATOM     12  C   UNL A   1      33.971  28.113  23.700  1.00  0.00     0.000 A 
ENDBRANCH   6   7
BRANCH   6  13
ATOM     13  C   UNL A   1      30.833  24.670  26.177  1.00  0.00     0.242 C 
ATOM     14  O   UNL A   1      30.350  23.931  27.057  1.00  0.00    -0.273 OA
ATOM     15  N   UNL A   1      29.915  25.050  25.142  1.00  0.00    -0.325 N 
ATOM     16  H   UNL A   1      29.403  24.275  24.815  1.00  0.00     0.169 HD
BRANCH  15  17
ATOM     17  C   UNL A   1      29.533  26.284  24.438  1.00  0.00     0.041 A 
ATOM     18  C   UNL A   1      28.229  26.594  23.994  1.00  0.00     0.027 A 
ATOM     19  C   UNL A   1      30.493  27.189  23.985  1.00  0.00     0.027 A 
ATOM     20  C   UNL A   1      27.827  27.783  23.382  1.00  0.00     0.015 A 
ATOM     21  C   UNL A   1      30.113  28.412  23.346  1.00  0.00     0.015 A 
ATOM     22  C   UNL A   1      28.770  28.738  23.085  1.00  0.00     0.056 A 
BRANCH  22  23
ATOM     23  C   UNL A   1      28.277  30.031  22.482  1.00  0.00     0.416 C 
ATOM     24  F   UNL A   1      29.247  30.989  22.467  1.00  0.00    -0.166 F 
ATOM     25  F   UNL A   1      27.893  29.887  21.180  1.00  0.00    -0.166 F 
ATOM     26  F   UNL A   1      27.215  30.572  23.131  1.00  0.00    -0.166 F 
ENDBRANCH  22  23
ENDBRANCH  15  17
ENDBRANCH   6  13
ENDBRANCH   5   6
ENDBRANCH   4   5
ENDBRANCH   2   4
ENDBRANCH   1   2
BRANCH   1  27
ATOM     27  C   UNL A   1      37.015  20.368  25.010  1.00  0.00     0.274 C 
BRANCH  27  28
ATOM     28  C   UNL A   1      38.510  19.755  24.931  1.00  0.00     0.275 C 
BRANCH  28  29
ATOM     29  O   UNL A   1      39.307  19.571  26.153  1.00  0.00    -0.458 OA
BRANCH  29  30
ATOM     30  C   UNL A   1      40.632  19.911  26.134  1.00  0.00     0.338 C 
ATOM     31  O   UNL A   1      41.505  19.322  25.491  1.00  0.00    -0.246 OA
BRANCH  30  32
ATOM     32  C   UNL A   1      40.888  21.257  26.754  1.00  0.00     0.060 A 
ATOM     33  C   UNL A   1      40.262  22.370  26.175  1.00  0.00     0.016 A 
ATOM     34  C   UNL A   1      41.727  21.478  27.851  1.00  0.00     0.016 A 
ATOM     35  C   UNL A   1      40.367  23.654  26.730  1.00  0.00     0.010 A 
ATOM     36  C   UNL A   1      41.923  22.797  28.347  1.00  0.00     0.010 A 
ATOM     37  C   UNL A   1      41.242  23.901  27.794  1.00  0.00    -0.014 A 
BRANCH  37  38
ATOM     38  C   UNL A   1      41.649  25.325  28.044  1.00  0.00     0.031 A 
ATOM     39  C   UNL A   1      43.008  25.750  27.526  1.00  0.00     0.074 A 
ATOM     40  C   UNL A   1      40.854  26.268  28.595  1.00  0.00     0.049 A 
ATOM     41  N   UNL A   1      43.595  26.921  27.559  1.00  0.00    -0.248 NA
ATOM     42  C   UNL A   1      43.795  24.706  26.850  1.00  0.00     0.031 C 
ATOM     43  C   UNL A   1      39.477  26.078  29.041  1.00  0.00     0.029 A 
ATOM     44  N   UNL A   1      41.103  27.602  28.856  1.00  0.00    -0.354 N 
ATOM     45  C   UNL A   1      44.806  26.752  26.896  1.00  0.00     0.074 A 
ATOM     46  C   UNL A   1      44.868  25.373  26.469  1.00  0.00     0.031 C 
ATOM     47  C   UNL A   1      39.007  27.245  29.529  1.00  0.00     0.029 A 
ATOM     48  C   UNL A   1      40.056  28.264  29.460  1.00  0.00     0.049 A 
ATOM     49  H   UNL A   1      41.954  28.042  28.629  1.00  0.00     0.167 HD
ATOM     50  C   UNL A   1      45.797  27.647  26.671  1.00  0.00     0.037 A 
ATOM     51  C   UNL A   1      39.962  29.533  29.919  1.00  0.00     0.037 A 
ATOM     52  C   UNL A   1      45.797  29.005  27.137  1.00  0.00     0.049 A 
ATOM     53  C   UNL A   1      41.138  30.479  29.784  1.00  0.00     0.074 A 
ATOM     54  C   UNL A   1      46.796  29.955  27.021  1.00  0.00     0.029 A 
ATOM     55  N   UNL A   1      44.753  29.599  27.823  1.00  0.00    -0.354 N 
ATOM     56  N   UNL A   1      42.288  30.295  29.181  1.00  0.00    -0.248 NA
ATOM     57  C   UNL A   1      41.001  31.811  30.400  1.00  0.00     0.031 C 
ATOM     58  C   UNL A   1      46.373  31.114  27.681  1.00  0.00     0.029 A 
ATOM     59  C   UNL A   1      45.090  30.900  28.155  1.00  0.00     0.049 A 
ATOM     60  H   UNL A   1      43.898  29.162  28.043  1.00  0.00     0.167 HD
ATOM     61  C   UNL A   1      42.988  31.492  29.313  1.00  0.00     0.074 A 
ATOM     62  C   UNL A   1      42.134  32.400  30.045  1.00  0.00     0.031 C 
ATOM     63  C   UNL A   1      44.227  31.810  28.863  1.00  0.00     0.037 A 
BRANCH  50  64
ATOM     64  C   UNL A   1      47.009  27.135  25.951  1.00  0.00     0.057 A 
ATOM     65  C   UNL A   1      48.047  26.476  26.622  1.00  0.00     0.134 A 
ATOM     66  C   UNL A   1      47.152  27.342  24.574  1.00  0.00     0.134 A 
ATOM     67  F   UNL A   1      47.982  26.276  27.947  1.00  0.00    -0.206 F 
ATOM     68  C   UNL A   1      49.199  26.064  25.950  1.00  0.00     0.040 A 
ATOM     69  C   UNL A   1      48.287  26.912  23.887  1.00  0.00     0.040 A 
ATOM     70  F   UNL A   1      46.195  27.975  23.877  1.00  0.00    -0.206 F 
ATOM     71  C   UNL A   1      49.318  26.279  24.578  1.00  0.00     0.006 A 
ENDBRANCH  50  64
BRANCH  51  72
ATOM     72  C   UNL A   1      38.726  30.013  30.605  1.00  0.00     0.057 A 
ATOM     73  C   UNL A   1      38.496  29.761  31.965  1.00  0.00     0.134 A 
ATOM     74  C   UNL A   1      37.699  30.646  29.893  1.00  0.00     0.134 A 
ATOM     75  F   UNL A   1      39.416  29.116  32.697  1.00  0.00    -0.206 F 
ATOM     76  C   UNL A   1      37.288  30.100  32.583  1.00  0.00     0.040 A 
ATOM     77  C   UNL A   1      36.498  31.015  30.504  1.00  0.00     0.040 A 
ATOM     78  F   UNL A   1      37.841  30.900  28.583  1.00  0.00    -0.206 F 
ATOM     79  C   UNL A   1      36.285  30.734  31.851  1.00  0.00     0.006 A 
ENDBRANCH  51  72
BRANCH  63  80
ATOM     80  C   UNL A   1      44.722  33.210  29.087  1.00  0.00     0.057 A 
ATOM     81  C   UNL A   1      45.480  33.566  30.209  1.00  0.00     0.134 A 
ATOM     82  C   UNL A   1      44.479  34.209  28.132  1.00  0.00     0.134 A 
ATOM     83  F   UNL A   1      45.746  32.663  31.165  1.00  0.00    -0.206 F 
ATOM     84  C   UNL A   1      45.959  34.867  30.385  1.00  0.00     0.040 A 
ATOM     85  C   UNL A   1      44.974  35.504  28.284  1.00  0.00     0.040 A 
ATOM     86  F   UNL A   1      43.772  33.934  27.026  1.00  0.00    -0.206 F 
ATOM     87  C   UNL A   1      45.711  35.839  29.418  1.00  0.00     0.006 A 
ENDBRANCH  63  80
ENDBRANCH  37  38
ENDBRANCH  30  32
ENDBRANCH  29  30
ENDBRANCH  28  29
ENDBRANCH  27  28
ENDBRANCH   1  27
TORSDOF 17
ENDMDL
MODEL 2
REMARK VINA RESULT:     -11.9      5.728     10.519
REMARK SMILES O=C(CS[C@H](C(=O)Nc1ccc(C(F)(F)F)cc1)c1ccccc1)OCCOC(=O)c1ccc(-c2c3nc(c(-c4c(F)cccc4F)c4ccc([nH]4)c(-c4c(F)cccc4F)c4nc(c(-c5c(F)cccc5F)c5ccc2[nH]5)C=C4)C=C3)cc1
REMARK SMILES IDX 25 1 2 2 1 3 3 4 4 5 5 6 19 7 20 8 24 9 21 10 23 11 22 12
REMARK SMILES IDX 6 13 7 14 8 15 9 17 10 18 18 19 11 20 17 21 12 22 13 23
REMARK SMILES IDX 14 24 15 25 16 26 26 27 27 28 28 29 29 30 30 31 31 32 32 33
REMARK SMILES IDX 84 34 33 35 83 36 34 37 35 38 36 39 77 40 37 41 82 42 76 43
REMARK SMILES IDX 78 44 38 45 81 46 75 47 74 48 39 50 65 51 48 52 64 53 49 54
REMARK SMILES IDX 52 55 63 56 79 57 50 58 51 59 62 61 80 62 53 63 40 64 41 65
REMARK SMILES IDX 46 66 42 67 43 68 45 69 47 70 44 71 66 72 67 73 72 74 68 75
REMARK SMILES IDX 69 76 71 77 73 78 70 79 54 80 55 81 60 82 56 83 57 84 59 85
REMARK SMILES IDX 61 86 58 87
REMARK H PARENT 8 16 78 49 52 60
REMARK Flexibility Score: inf
ROOT
ATOM      1  O   UNL A   1      33.114  34.900  29.354  1.00  0.00    -0.461 OA
ENDROOT
BRANCH   1   2
ATOM      2  C   UNL A   1      32.984  35.412  30.605  1.00  0.00     0.316 C 
ATOM      3  O   UNL A   1      32.527  36.568  30.651  1.00  0.00    -0.251 OA
BRANCH   2   4
ATOM      4  C   UNL A   1      33.398  34.865  32.019  1.00  0.00     0.193 C 
BRANCH   4   5
ATOM      5  S   UNL A   1      34.816  35.322  33.047  1.00  0.00    -0.132 SA
BRANCH   5   6
ATOM      6  C   UNL A   1      35.791  33.848  32.701  1.00  0.00     0.166 C 
BRANCH   6   7
ATOM      7  C   UNL A   1      36.707  34.092  31.431  1.00  0.00    -0.026 A 
ATOM      8  C   UNL A   1      36.391  33.794  30.103  1.00  0.00     0.005 A 
ATOM      9  C   UNL A   1      38.029  34.589  31.608  1.00  0.00     0.005 A 
ATOM     10  C   UNL A   1      37.415  33.555  29.157  1.00  0.00     0.000 A 
ATOM     11  C   UNL A   1      39.057  34.331  30.696  1.00  0.00     0.000 A 
ATOM     12  C   UNL A   1      38.755  33.737  29.487  1.00  0.00     0.000 A 
ENDBRANCH   6   7
BRANCH   6  13
ATOM     13  C   UNL A   1      36.245  33.421  34.184  1.00  0.00     0.242 C 
ATOM     14  O   UNL A   1      35.469  33.718  35.114  1.00  0.00    -0.273 OA
ATOM     15  N   UNL A   1      37.530  32.942  34.604  1.00  0.00    -0.325 N 
ATOM     16  H   UNL A   1      37.911  33.511  35.312  1.00  0.00     0.169 HD
BRANCH  15  17
ATOM     17  C   UNL A   1      38.433  31.832  34.261  1.00  0.00     0.041 A 
ATOM     18  C   UNL A   1      39.834  31.844  34.432  1.00  0.00     0.027 A 
ATOM     19  C   UNL A   1      37.979  30.718  33.554  1.00  0.00     0.027 A 
ATOM     20  C   UNL A   1      40.705  30.783  34.176  1.00  0.00     0.015 A 
ATOM     21  C   UNL A   1      38.848  29.619  33.269  1.00  0.00     0.015 A 
ATOM     22  C   UNL A   1      40.211  29.625  33.624  1.00  0.00     0.056 A 
BRANCH  22  23
ATOM     23  C   UNL A   1      41.179  28.486  33.425  1.00  0.00     0.416 C 
ATOM     24  F   UNL A   1      41.062  27.540  34.400  1.00  0.00    -0.166 F 
ATOM     25  F   UNL A   1      40.970  27.821  32.251  1.00  0.00    -0.166 F 
ATOM     26  F   UNL A   1      42.482  28.865  33.415  1.00  0.00    -0.166 F 
ENDBRANCH  22  23
ENDBRANCH  15  17
ENDBRANCH   6  13
ENDBRANCH   5   6
ENDBRANCH   4   5
ENDBRANCH   2   4
ENDBRANCH   1   2
BRANCH   1  27
ATOM     27  C   UNL A   1      33.163  34.041  28.020  1.00  0.00     0.274 C 
BRANCH  27  28
ATOM     28  C   UNL A   1      33.279  32.441  27.808  1.00  0.00     0.275 C 
BRANCH  28  29
ATOM     29  O   UNL A   1      34.223  31.648  28.611  1.00  0.00    -0.458 OA
BRANCH  29  30
ATOM     30  C   UNL A   1      34.647  30.441  28.129  1.00  0.00     0.338 C 
ATOM     31  O   UNL A   1      34.050  29.766  27.286  1.00  0.00    -0.246 OA
BRANCH  30  32
ATOM     32  C   UNL A   1      36.068  30.136  28.515  1.00  0.00     0.060 A 
ATOM     33  C   UNL A   1      37.054  30.267  27.528  1.00  0.00     0.016 A 
ATOM     34  C   UNL A   1      36.469  29.705  29.784  1.00  0.00     0.016 A 
ATOM     35  C   UNL A   1      38.417  30.091  27.811  1.00  0.00     0.010 A 
ATOM     36  C   UNL A   1      37.839  29.417  30.042  1.00  0.00     0.010 A 
ATOM     37  C   UNL A   1      38.830  29.610  29.059  1.00  0.00    -0.014 A 
BRANCH  37  38
ATOM     38  C   UNL A   1      40.208  29.022  29.155  1.00  0.00     0.031 A 
ATOM     39  C   UNL A   1      41.261  29.856  29.856  1.00  0.00     0.074 A 
ATOM     40  C   UNL A   1      40.543  27.774  28.762  1.00  0.00     0.049 A 
ATOM     41  N   UNL A   1      42.514  29.583  30.124  1.00  0.00    -0.248 NA
ATOM     42  C   UNL A   1      40.818  31.171  30.349  1.00  0.00     0.031 C 
ATOM     43  C   UNL A   1      39.641  26.785  28.181  1.00  0.00     0.029 A 
ATOM     44  N   UNL A   1      41.759  27.118  28.816  1.00  0.00    -0.354 N 
ATOM     45  C   UNL A   1      42.996  30.683  30.826  1.00  0.00     0.074 A 
ATOM     46  C   UNL A   1      41.905  31.621  30.948  1.00  0.00     0.031 C 
ATOM     47  C   UNL A   1      40.332  25.655  27.922  1.00  0.00     0.029 A 
ATOM     48  C   UNL A   1      41.737  25.844  28.291  1.00  0.00     0.049 A 
ATOM     49  H   UNL A   1      42.569  27.525  29.198  1.00  0.00     0.167 HD
ATOM     50  C   UNL A   1      44.237  30.916  31.315  1.00  0.00     0.037 A 
ATOM     51  C   UNL A   1      42.733  24.947  28.112  1.00  0.00     0.037 A 
ATOM     52  C   UNL A   1      45.360  30.036  31.156  1.00  0.00     0.049 A 
ATOM     53  C   UNL A   1      44.146  25.285  28.539  1.00  0.00     0.074 A 
ATOM     54  C   UNL A   1      46.671  30.233  31.551  1.00  0.00     0.029 A 
ATOM     55  N   UNL A   1      45.307  28.800  30.536  1.00  0.00    -0.354 N 
ATOM     56  N   UNL A   1      44.592  26.342  29.175  1.00  0.00    -0.248 NA
ATOM     57  C   UNL A   1      45.197  24.303  28.218  1.00  0.00     0.031 C 
ATOM     58  C   UNL A   1      47.424  29.131  31.127  1.00  0.00     0.029 A 
ATOM     59  C   UNL A   1      46.567  28.228  30.520  1.00  0.00     0.049 A 
ATOM     60  H   UNL A   1      44.494  28.389  30.161  1.00  0.00     0.167 HD
ATOM     61  C   UNL A   1      45.957  26.133  29.360  1.00  0.00     0.074 A 
ATOM     62  C   UNL A   1      46.268  24.847  28.778  1.00  0.00     0.031 C 
ATOM     63  C   UNL A   1      46.869  26.936  29.962  1.00  0.00     0.037 A 
BRANCH  50  64
ATOM     64  C   UNL A   1      44.449  32.234  31.998  1.00  0.00     0.057 A 
ATOM     65  C   UNL A   1      44.828  33.383  31.293  1.00  0.00     0.134 A 
ATOM     66  C   UNL A   1      44.310  32.340  33.387  1.00  0.00     0.134 A 
ATOM     67  F   UNL A   1      45.009  33.337  29.964  1.00  0.00    -0.206 F 
ATOM     68  C   UNL A   1      45.086  34.586  31.951  1.00  0.00     0.040 A 
ATOM     69  C   UNL A   1      44.540  33.543  34.052  1.00  0.00     0.040 A 
ATOM     70  F   UNL A   1      43.957  31.272  34.120  1.00  0.00    -0.206 F 
ATOM     71  C   UNL A   1      44.939  34.669  33.334  1.00  0.00     0.006 A 
ENDBRANCH  50  64
BRANCH  51  72
ATOM     72  C   UNL A   1      42.475  23.632  27.452  1.00  0.00     0.057 A 
ATOM     73  C   UNL A   1      42.178  22.482  28.197  1.00  0.00     0.134 A 
ATOM     74  C   UNL A   1      42.620  23.473  26.068  1.00  0.00     0.134 A 
ATOM     75  F   UNL A   1      42.070  22.552  29.532  1.00  0.00    -0.206 F 
ATOM     76  C   UNL A   1      42.055  21.226  27.595  1.00  0.00     0.040 A 
ATOM     77  C   UNL A   1      42.474  22.229  25.450  1.00  0.00     0.040 A 
ATOM     78  F   UNL A   1      42.927  24.526  25.295  1.00  0.00    -0.206 F 
ATOM     79  C   UNL A   1      42.200  21.098  26.215  1.00  0.00     0.006 A 
ENDBRANCH  51  72
BRANCH  63  80
ATOM     80  C   UNL A   1      48.279  26.433  30.085  1.00  0.00     0.057 A 
ATOM     81  C   UNL A   1      49.240  26.646  29.089  1.00  0.00     0.134 A 
ATOM     82  C   UNL A   1      48.696  25.771  31.249  1.00  0.00     0.134 A 
ATOM     83  F   UNL A   1      48.910  27.268  27.947  1.00  0.00    -0.206 F 
ATOM     84  C   UNL A   1      50.556  26.199  29.235  1.00  0.00     0.040 A 
ATOM     85  C   UNL A   1      50.014  25.343  31.418  1.00  0.00     0.040 A 
ATOM     86  F   UNL A   1      47.832  25.546  32.250  1.00  0.00    -0.206 F 
ATOM     87  C   UNL A   1      50.947  25.550  30.405  1.00  0.00     0.006 A 
ENDBRANCH  63  80
ENDBRANCH  37  38
ENDBRANCH  30  32
ENDBRANCH  29  30
ENDBRANCH  28  29
ENDBRANCH  27  28
ENDBRANCH   1  27
TORSDOF 17
ENDMDL
MODEL 3
REMARK VINA RESULT:     -11.8      1.128      6.180
REMARK SMILES O=C(CS[C@H](C(=O)Nc1ccc(C(F)(F)F)cc1)c1ccccc1)OCCOC(=O)c1ccc(-c2c3nc(c(-c4c(F)cccc4F)c4ccc([nH]4)c(-c4c(F)cccc4F)c4nc(c(-c5c(F)cccc5F)c5ccc2[nH]5)C=C4)C=C3)cc1
REMARK SMILES IDX 25 1 2 2 1 3 3 4 4 5 5 6 19 7 20 8 24 9 21 10 23 11 22 12
REMARK SMILES IDX 6 13 7 14 8 15 9 17 10 18 18 19 11 20 17 21 12 22 13 23
REMARK SMILES IDX 14 24 15 25 16 26 26 27 27 28 28 29 29 30 30 31 31 32 32 33
REMARK SMILES IDX 84 34 33 35 83 36 34 37 35 38 36 39 77 40 37 41 82 42 76 43
REMARK SMILES IDX 78 44 38 45 81 46 75 47 74 48 39 50 65 51 48 52 64 53 49 54
REMARK SMILES IDX 52 55 63 56 79 57 50 58 51 59 62 61 80 62 53 63 40 64 41 65
REMARK SMILES IDX 46 66 42 67 43 68 45 69 47 70 44 71 66 72 67 73 72 74 68 75
REMARK SMILES IDX 69 76 71 77 73 78 70 79 54 80 55 81 60 82 56 83 57 84 59 85
REMARK SMILES IDX 61 86 58 87
REMARK H PARENT 8 16 78 49 52 60
REMARK Flexibility Score: inf
ROOT
ATOM      1  O   UNL A   1      34.611  21.433  25.537  1.00  0.00    -0.461 OA
ENDROOT
BRANCH   1   2
ATOM      2  C   UNL A   1      34.137  22.478  26.263  1.00  0.00     0.316 C 
ATOM      3  O   UNL A   1      33.356  22.165  27.181  1.00  0.00    -0.251 OA
BRANCH   2   4
ATOM      4  C   UNL A   1      34.301  24.034  26.108  1.00  0.00     0.193 C 
BRANCH   4   5
ATOM      5  S   UNL A   1      33.653  25.124  24.817  1.00  0.00    -0.132 SA
BRANCH   5   6
ATOM      6  C   UNL A   1      32.219  25.695  25.745  1.00  0.00     0.166 C 
BRANCH   6   7
ATOM      7  C   UNL A   1      32.545  27.079  26.444  1.00  0.00    -0.026 A 
ATOM      8  C   UNL A   1      31.665  27.864  27.194  1.00  0.00     0.005 A 
ATOM      9  C   UNL A   1      33.825  27.672  26.259  1.00  0.00     0.005 A 
ATOM     10  C   UNL A   1      31.871  29.258  27.315  1.00  0.00     0.000 A 
ATOM     11  C   UNL A   1      34.034  29.052  26.343  1.00  0.00     0.000 A 
ATOM     12  C   UNL A   1      33.017  29.862  26.806  1.00  0.00     0.000 A 
ENDBRANCH   6   7
BRANCH   6  13
ATOM     13  C   UNL A   1      31.029  25.360  24.715  1.00  0.00     0.242 C 
ATOM     14  O   UNL A   1      30.627  24.179  24.690  1.00  0.00    -0.273 OA
ATOM     15  N   UNL A   1      30.520  26.190  23.663  1.00  0.00    -0.325 N 
ATOM     16  H   UNL A   1      30.579  25.738  22.790  1.00  0.00     0.169 HD
BRANCH  15  17
ATOM     17  C   UNL A   1      29.936  27.534  23.536  1.00  0.00     0.041 A 
ATOM     18  C   UNL A   1      28.605  27.807  23.150  1.00  0.00     0.027 A 
ATOM     19  C   UNL A   1      30.726  28.681  23.616  1.00  0.00     0.027 A 
ATOM     20  C   UNL A   1      28.007  29.067  23.084  1.00  0.00     0.015 A 
ATOM     21  C   UNL A   1      30.145  29.986  23.543  1.00  0.00     0.015 A 
ATOM     22  C   UNL A   1      28.769  30.186  23.324  1.00  0.00     0.056 A 
BRANCH  22  23
ATOM     23  C   UNL A   1      28.063  31.519  23.303  1.00  0.00     0.416 C 
ATOM     24  F   UNL A   1      28.860  32.526  23.761  1.00  0.00    -0.166 F 
ATOM     25  F   UNL A   1      27.696  31.896  22.043  1.00  0.00    -0.166 F 
ATOM     26  F   UNL A   1      26.932  31.557  24.052  1.00  0.00    -0.166 F 
ENDBRANCH  22  23
ENDBRANCH  15  17
ENDBRANCH   6  13
ENDBRANCH   5   6
ENDBRANCH   4   5
ENDBRANCH   2   4
ENDBRANCH   1   2
BRANCH   1  27
ATOM     27  C   UNL A   1      35.248  20.097  24.963  1.00  0.00     0.274 C 
BRANCH  27  28
ATOM     28  C   UNL A   1      36.788  19.604  24.922  1.00  0.00     0.275 C 
BRANCH  28  29
ATOM     29  O   UNL A   1      37.886  20.581  24.975  1.00  0.00    -0.458 OA
BRANCH  29  30
ATOM     30  C   UNL A   1      39.019  20.263  25.673  1.00  0.00     0.338 C 
ATOM     31  O   UNL A   1      39.572  19.160  25.659  1.00  0.00    -0.246 OA
BRANCH  30  32
ATOM     32  C   UNL A   1      39.699  21.475  26.247  1.00  0.00     0.060 A 
ATOM     33  C   UNL A   1      39.171  22.732  25.922  1.00  0.00     0.016 A 
ATOM     34  C   UNL A   1      40.836  21.435  27.060  1.00  0.00     0.016 A 
ATOM     35  C   UNL A   1      39.679  23.917  26.477  1.00  0.00     0.010 A 
ATOM     36  C   UNL A   1      41.420  22.644  27.532  1.00  0.00     0.010 A 
ATOM     37  C   UNL A   1      40.846  23.900  27.248  1.00  0.00    -0.014 A 
BRANCH  37  38
ATOM     38  C   UNL A   1      41.580  25.197  27.428  1.00  0.00     0.031 A 
ATOM     39  C   UNL A   1      40.887  26.269  28.245  1.00  0.00     0.074 A 
ATOM     40  C   UNL A   1      42.842  25.434  27.008  1.00  0.00     0.049 A 
ATOM     41  N   UNL A   1      41.301  27.461  28.598  1.00  0.00    -0.248 NA
ATOM     42  C   UNL A   1      39.551  25.924  28.758  1.00  0.00     0.031 C 
ATOM     43  C   UNL A   1      43.709  24.485  26.316  1.00  0.00     0.029 A 
ATOM     44  N   UNL A   1      43.625  26.567  27.129  1.00  0.00    -0.354 N 
ATOM     45  C   UNL A   1      40.284  27.994  29.383  1.00  0.00     0.074 A 
ATOM     46  C   UNL A   1      39.239  26.998  29.459  1.00  0.00     0.031 C 
ATOM     47  C   UNL A   1      44.896  25.076  26.063  1.00  0.00     0.029 A 
ATOM     48  C   UNL A   1      44.870  26.458  26.550  1.00  0.00     0.049 A 
ATOM     49  H   UNL A   1      43.320  27.381  27.591  1.00  0.00     0.167 HD
ATOM     50  C   UNL A   1      40.200  29.207  29.978  1.00  0.00     0.037 A 
ATOM     51  C   UNL A   1      45.861  27.368  26.411  1.00  0.00     0.037 A 
ATOM     52  C   UNL A   1      41.189  30.243  29.869  1.00  0.00     0.049 A 
ATOM     53  C   UNL A   1      45.689  28.767  26.962  1.00  0.00     0.074 A 
ATOM     54  C   UNL A   1      41.146  31.530  30.375  1.00  0.00     0.029 A 
ATOM     55  N   UNL A   1      42.389  30.114  29.194  1.00  0.00    -0.354 N 
ATOM     56  N   UNL A   1      44.709  29.266  27.676  1.00  0.00    -0.248 NA
ATOM     57  C   UNL A   1      46.766  29.735  26.682  1.00  0.00     0.031 C 
ATOM     58  C   UNL A   1      42.305  32.198  29.964  1.00  0.00     0.029 A 
ATOM     59  C   UNL A   1      43.091  31.306  29.253  1.00  0.00     0.049 A 
ATOM     60  H   UNL A   1      42.699  29.298  28.739  1.00  0.00     0.167 HD
ATOM     61  C   UNL A   1      45.067  30.582  27.959  1.00  0.00     0.074 A 
ATOM     62  C   UNL A   1      46.358  30.806  27.348  1.00  0.00     0.031 C 
ATOM     63  C   UNL A   1      44.387  31.518  28.665  1.00  0.00     0.037 A 
BRANCH  50  64
ATOM     64  C   UNL A   1      38.937  29.496  30.732  1.00  0.00     0.057 A 
ATOM     65  C   UNL A   1      37.825  30.085  30.118  1.00  0.00     0.134 A 
ATOM     66  C   UNL A   1      38.852  29.216  32.101  1.00  0.00     0.134 A 
ATOM     67  F   UNL A   1      37.857  30.406  28.815  1.00  0.00    -0.206 F 
ATOM     68  C   UNL A   1      36.680  30.409  30.848  1.00  0.00     0.040 A 
ATOM     69  C   UNL A   1      37.704  29.513  32.835  1.00  0.00     0.040 A 
ATOM     70  F   UNL A   1      39.889  28.661  32.749  1.00  0.00    -0.206 F 
ATOM     71  C   UNL A   1      36.617  30.119  32.209  1.00  0.00     0.006 A 
ENDBRANCH  50  64
BRANCH  51  72
ATOM     72  C   UNL A   1      47.117  27.031  25.677  1.00  0.00     0.057 A 
ATOM     73  C   UNL A   1      48.203  26.421  26.320  1.00  0.00     0.134 A 
ATOM     74  C   UNL A   1      47.299  27.405  24.339  1.00  0.00     0.134 A 
ATOM     75  F   UNL A   1      48.116  26.079  27.613  1.00  0.00    -0.206 F 
ATOM     76  C   UNL A   1      49.423  26.214  25.669  1.00  0.00     0.040 A 
ATOM     77  C   UNL A   1      48.503  27.181  23.668  1.00  0.00     0.040 A 
ATOM     78  F   UNL A   1      46.310  28.014  23.667  1.00  0.00    -0.206 F 
ATOM     79  C   UNL A   1      49.574  26.591  24.336  1.00  0.00     0.006 A 
ENDBRANCH  51  72
BRANCH  63  80
ATOM     80  C   UNL A   1      45.041  32.855  28.877  1.00  0.00     0.057 A 
ATOM     81  C   UNL A   1      45.916  33.101  29.943  1.00  0.00     0.134 A 
ATOM     82  C   UNL A   1      44.832  33.898  27.963  1.00  0.00     0.134 A 
ATOM     83  F   UNL A   1      46.158  32.149  30.858  1.00  0.00    -0.206 F 
ATOM     84  C   UNL A   1      46.540  34.340  30.105  1.00  0.00     0.040 A 
ATOM     85  C   UNL A   1      45.470  35.132  28.100  1.00  0.00     0.040 A 
ATOM     86  F   UNL A   1      44.019  33.727  26.911  1.00  0.00    -0.206 F 
ATOM     87  C   UNL A   1      46.322  35.357  29.179  1.00  0.00     0.006 A 
ENDBRANCH  63  80
ENDBRANCH  37  38
ENDBRANCH  30  32
ENDBRANCH  29  30
ENDBRANCH  28  29
ENDBRANCH  27  28
ENDBRANCH   1  27
TORSDOF 17
ENDMDL
