MODEL 1
REMARK VINA RESULT:     -13.3      0.000      0.000
REMARK SMILES CC1=C(C)C[C@@H](C(=O)OCCOC(=O)c2ccc(-c3c4nc(c(-c5c(F)cccc5F)c5ccc([nH]5)c(-c5c(F)cccc5F)c5nc(c(-c6c(F)cccc6F)c6ccc3[nH]6)C=C5)C=C4)cc2)[C@@H](C(=O)N2CCN(c3cccc(C(F)(F)F)c3)CC2)C1
REMARK SMILES IDX 10 1 9 2 7 3 8 4 6 5 1 6 2 7 3 8 88 9 4 10 5 11 69 12 70 13
REMARK SMILES IDX 71 14 72 15 73 16 87 17 74 18 86 19 75 20 76 21 77 22 85 23
REMARK SMILES IDX 78 24 80 25 79 26 81 27 82 28 83 29 84 30 11 31 12 32 13 33
REMARK SMILES IDX 14 34 15 35 16 36 68 37 17 38 67 39 18 40 19 41 20 42 61 43
REMARK SMILES IDX 21 44 66 45 60 46 62 47 22 48 65 49 59 50 58 51 23 53 49 54
REMARK SMILES IDX 32 55 48 56 33 57 36 58 47 59 63 60 34 61 35 62 46 64 64 65
REMARK SMILES IDX 37 66 24 67 25 68 30 69 26 70 27 71 29 72 31 73 28 74 50 75
REMARK SMILES IDX 51 76 56 77 52 78 53 79 55 80 57 81 54 82 38 83 39 84 44 85
REMARK SMILES IDX 40 86 41 87 43 88 45 89 42 90
REMARK H PARENT 62 52 36 63
REMARK Flexibility Score: inf
ROOT
ATOM      1  C   UNL A   1      31.750  30.709  26.518  1.00  0.00     0.274 C 
ENDROOT
BRANCH   1   2
ATOM      2  O   UNL A   1      31.226  30.232  25.262  1.00  0.00    -0.462 OA
BRANCH   2   3
ATOM      3  C   UNL A   1      32.025  29.388  24.585  1.00  0.00     0.310 C 
ATOM      4  O   UNL A   1      33.207  29.197  24.876  1.00  0.00    -0.252 OA
BRANCH   3   5
ATOM      5  C   UNL A   1      31.381  28.603  23.447  1.00  0.00     0.116 C 
ATOM      6  C   UNL A   1      26.967  28.505  23.456  1.00  0.00     0.039 C 
ATOM      7  C   UNL A   1      28.453  28.579  23.217  1.00  0.00    -0.074 C 
ATOM      8  C   UNL A   1      29.130  29.684  22.851  1.00  0.00    -0.073 C 
ATOM      9  C   UNL A   1      29.147  27.248  23.355  1.00  0.00     0.045 C 
ATOM     10  C   UNL A   1      28.524  31.039  22.595  1.00  0.00     0.039 C 
ATOM     11  C   UNL A   1      30.607  29.605  22.572  1.00  0.00     0.046 C 
ATOM     12  C   UNL A   1      30.676  27.244  23.602  1.00  0.00     0.097 C 
BRANCH  12  13
ATOM     13  C   UNL A   1      30.904  26.436  24.884  1.00  0.00     0.227 C 
ATOM     14  O   UNL A   1      30.281  26.713  25.912  1.00  0.00    -0.275 OA
ATOM     15  N   UNL A   1      31.640  25.266  24.785  1.00  0.00    -0.339 N 
ATOM     16  C   UNL A   1      31.448  24.237  25.817  1.00  0.00     0.141 C 
ATOM     17  C   UNL A   1      32.801  25.024  23.907  1.00  0.00     0.141 C 
ATOM     18  C   UNL A   1      31.371  22.829  25.197  1.00  0.00     0.138 C 
ATOM     19  C   UNL A   1      32.840  23.596  23.322  1.00  0.00     0.138 C 
ATOM     20  N   UNL A   1      32.550  22.602  24.357  1.00  0.00    -0.368 N 
BRANCH  20  21
ATOM     21  C   UNL A   1      33.282  21.450  24.503  1.00  0.00     0.037 A 
ATOM     22  C   UNL A   1      34.614  21.485  24.933  1.00  0.00     0.026 A 
ATOM     23  C   UNL A   1      32.734  20.212  24.147  1.00  0.00     0.039 A 
ATOM     24  C   UNL A   1      35.379  20.319  25.009  1.00  0.00     0.003 A 
ATOM     25  C   UNL A   1      33.498  19.033  24.185  1.00  0.00     0.058 A 
ATOM     26  C   UNL A   1      34.827  19.098  24.629  1.00  0.00     0.013 A 
BRANCH  25  27
ATOM     27  C   UNL A   1      32.925  17.720  23.719  1.00  0.00     0.416 C 
ATOM     28  F   UNL A   1      32.148  17.857  22.608  1.00  0.00    -0.166 F 
ATOM     29  F   UNL A   1      33.891  16.817  23.386  1.00  0.00    -0.166 F 
ATOM     30  F   UNL A   1      32.144  17.099  24.646  1.00  0.00    -0.166 F 
ENDBRANCH  25  27
ENDBRANCH  20  21
ENDBRANCH  12  13
ENDBRANCH   3   5
ENDBRANCH   2   3
ENDBRANCH   1   2
BRANCH   1  31
ATOM     31  C   UNL A   1      31.482  32.202  26.711  1.00  0.00     0.275 C 
BRANCH  31  32
ATOM     32  O   UNL A   1      32.703  32.962  26.619  1.00  0.00    -0.458 OA
BRANCH  32  33
ATOM     33  C   UNL A   1      33.064  33.603  27.750  1.00  0.00     0.338 C 
ATOM     34  O   UNL A   1      32.506  34.558  28.275  1.00  0.00    -0.246 OA
BRANCH  33  35
ATOM     35  C   UNL A   1      34.284  33.020  28.326  1.00  0.00     0.060 A 
ATOM     36  C   UNL A   1      34.300  31.704  28.789  1.00  0.00     0.016 A 
ATOM     37  C   UNL A   1      35.386  33.850  28.535  1.00  0.00     0.016 A 
ATOM     38  C   UNL A   1      35.398  31.230  29.507  1.00  0.00     0.010 A 
ATOM     39  C   UNL A   1      36.517  33.350  29.184  1.00  0.00     0.010 A 
ATOM     40  C   UNL A   1      36.530  32.039  29.686  1.00  0.00    -0.014 A 
BRANCH  40  41
ATOM     41  C   UNL A   1      37.757  31.495  30.320  1.00  0.00     0.031 A 
ATOM     42  C   UNL A   1      38.644  30.524  29.593  1.00  0.00     0.074 A 
ATOM     43  C   UNL A   1      38.048  31.853  31.586  1.00  0.00     0.049 A 
ATOM     44  N   UNL A   1      39.655  29.831  30.052  1.00  0.00    -0.248 NA
ATOM     45  C   UNL A   1      38.358  30.301  28.168  1.00  0.00     0.031 C 
ATOM     46  C   UNL A   1      37.278  32.802  32.393  1.00  0.00     0.029 A 
ATOM     47  N   UNL A   1      39.060  31.451  32.420  1.00  0.00    -0.354 N 
ATOM     48  C   UNL A   1      40.110  29.068  28.984  1.00  0.00     0.074 A 
ATOM     49  C   UNL A   1      39.266  29.385  27.851  1.00  0.00     0.031 C 
ATOM     50  C   UNL A   1      37.847  32.915  33.601  1.00  0.00     0.029 A 
ATOM     51  C   UNL A   1      38.977  31.997  33.678  1.00  0.00     0.049 A 
ATOM     52  H   UNL A   1      39.774  30.832  32.146  1.00  0.00     0.167 HD
ATOM     53  C   UNL A   1      41.134  28.182  28.959  1.00  0.00     0.037 A 
ATOM     54  C   UNL A   1      39.698  31.755  34.788  1.00  0.00     0.037 A 
ATOM     55  C   UNL A   1      41.982  27.879  30.083  1.00  0.00     0.049 A 
ATOM     56  C   UNL A   1      40.791  30.731  34.745  1.00  0.00     0.074 A 
ATOM     57  C   UNL A   1      43.060  27.011  30.145  1.00  0.00     0.029 A 
ATOM     58  N   UNL A   1      41.845  28.434  31.347  1.00  0.00    -0.354 N 
ATOM     59  N   UNL A   1      41.196  30.002  33.736  1.00  0.00    -0.248 NA
ATOM     60  C   UNL A   1      41.513  30.484  36.001  1.00  0.00     0.031 C 
ATOM     61  C   UNL A   1      43.555  27.019  31.454  1.00  0.00     0.029 A 
ATOM     62  C   UNL A   1      42.806  27.913  32.199  1.00  0.00     0.049 A 
ATOM     63  H   UNL A   1      41.166  29.100  31.601  1.00  0.00     0.167 HD
ATOM     64  C   UNL A   1      42.218  29.205  34.231  1.00  0.00     0.074 A 
ATOM     65  C   UNL A   1      42.385  29.558  35.627  1.00  0.00     0.031 C 
ATOM     66  C   UNL A   1      42.947  28.262  33.588  1.00  0.00     0.037 A 
BRANCH  53  67
ATOM     67  C   UNL A   1      41.387  27.448  27.676  1.00  0.00     0.057 A 
ATOM     68  C   UNL A   1      42.233  27.961  26.686  1.00  0.00     0.134 A 
ATOM     69  C   UNL A   1      40.826  26.183  27.460  1.00  0.00     0.134 A 
ATOM     70  F   UNL A   1      42.792  29.171  26.831  1.00  0.00    -0.206 F 
ATOM     71  C   UNL A   1      42.508  27.242  25.521  1.00  0.00     0.040 A 
ATOM     72  C   UNL A   1      41.106  25.448  26.306  1.00  0.00     0.040 A 
ATOM     73  F   UNL A   1      40.012  25.634  28.374  1.00  0.00    -0.206 F 
ATOM     74  C   UNL A   1      41.949  25.979  25.332  1.00  0.00     0.006 A 
ENDBRANCH  53  67
BRANCH  54  75
ATOM     75  C   UNL A   1      39.362  32.466  36.044  1.00  0.00     0.057 A 
ATOM     76  C   UNL A   1      39.949  33.696  36.355  1.00  0.00     0.134 A 
ATOM     77  C   UNL A   1      38.423  31.946  36.943  1.00  0.00     0.134 A 
ATOM     78  F   UNL A   1      40.868  34.231  35.540  1.00  0.00    -0.206 F 
ATOM     79  C   UNL A   1      39.613  34.387  37.520  1.00  0.00     0.040 A 
ATOM     80  C   UNL A   1      38.061  32.636  38.100  1.00  0.00     0.040 A 
ATOM     81  F   UNL A   1      37.824  30.772  36.693  1.00  0.00    -0.206 F 
ATOM     82  C   UNL A   1      38.659  33.860  38.391  1.00  0.00     0.006 A 
ENDBRANCH  54  75
BRANCH  66  83
ATOM     83  C   UNL A   1      43.988  27.552  34.397  1.00  0.00     0.057 A 
ATOM     84  C   UNL A   1      45.278  28.075  34.545  1.00  0.00     0.134 A 
ATOM     85  C   UNL A   1      43.696  26.341  35.036  1.00  0.00     0.134 A 
ATOM     86  F   UNL A   1      45.619  29.222  33.940  1.00  0.00    -0.206 F 
ATOM     87  C   UNL A   1      46.251  27.408  35.289  1.00  0.00     0.040 A 
ATOM     88  C   UNL A   1      44.656  25.673  35.796  1.00  0.00     0.040 A 
ATOM     89  F   UNL A   1      42.478  25.792  34.931  1.00  0.00    -0.206 F 
ATOM     90  C   UNL A   1      45.939  26.204  35.920  1.00  0.00     0.006 A 
ENDBRANCH  66  83
ENDBRANCH  40  41
ENDBRANCH  33  35
ENDBRANCH  32  33
ENDBRANCH  31  32
ENDBRANCH   1  31
TORSDOF 14
ENDMDL
MODEL 2
REMARK VINA RESULT:     -13.2      4.561      7.839
REMARK SMILES CC1=C(C)C[C@@H](C(=O)OCCOC(=O)c2ccc(-c3c4nc(c(-c5c(F)cccc5F)c5ccc([nH]5)c(-c5c(F)cccc5F)c5nc(c(-c6c(F)cccc6F)c6ccc3[nH]6)C=C5)C=C4)cc2)[C@@H](C(=O)N2CCN(c3cccc(C(F)(F)F)c3)CC2)C1
REMARK SMILES IDX 10 1 9 2 7 3 8 4 6 5 1 6 2 7 3 8 88 9 4 10 5 11 69 12 70 13
REMARK SMILES IDX 71 14 72 15 73 16 87 17 74 18 86 19 75 20 76 21 77 22 85 23
REMARK SMILES IDX 78 24 80 25 79 26 81 27 82 28 83 29 84 30 11 31 12 32 13 33
REMARK SMILES IDX 14 34 15 35 16 36 68 37 17 38 67 39 18 40 19 41 20 42 61 43
REMARK SMILES IDX 21 44 66 45 60 46 62 47 22 48 65 49 59 50 58 51 23 53 49 54
REMARK SMILES IDX 32 55 48 56 33 57 36 58 47 59 63 60 34 61 35 62 46 64 64 65
REMARK SMILES IDX 37 66 24 67 25 68 30 69 26 70 27 71 29 72 31 73 28 74 50 75
REMARK SMILES IDX 51 76 56 77 52 78 53 79 55 80 57 81 54 82 38 83 39 84 44 85
REMARK SMILES IDX 40 86 41 87 43 88 45 89 42 90
REMARK H PARENT 62 52 36 63
REMARK Flexibility Score: inf
ROOT
ATOM      1  C   UNL A   1      33.123  29.202  26.615  1.00  0.00     0.274 C 
ENDROOT
BRANCH   1   2
ATOM      2  O   UNL A   1      32.941  29.485  25.212  1.00  0.00    -0.462 OA
BRANCH   2   3
ATOM      3  C   UNL A   1      31.672  29.712  24.829  1.00  0.00     0.310 C 
ATOM      4  O   UNL A   1      30.948  30.558  25.355  1.00  0.00    -0.252 OA
BRANCH   3   5
ATOM      5  C   UNL A   1      31.165  28.904  23.639  1.00  0.00     0.116 C 
ATOM      6  C   UNL A   1      26.809  28.192  23.534  1.00  0.00     0.039 C 
ATOM      7  C   UNL A   1      28.274  28.484  23.336  1.00  0.00    -0.074 C 
ATOM      8  C   UNL A   1      28.796  29.690  23.040  1.00  0.00    -0.073 C 
ATOM      9  C   UNL A   1      29.145  27.258  23.427  1.00  0.00     0.045 C 
ATOM     10  C   UNL A   1      28.010  30.958  22.835  1.00  0.00     0.039 C 
ATOM     11  C   UNL A   1      30.273  29.832  22.794  1.00  0.00     0.046 C 
ATOM     12  C   UNL A   1      30.655  27.454  23.711  1.00  0.00     0.097 C 
BRANCH  12  13
ATOM     13  C   UNL A   1      30.971  26.621  24.957  1.00  0.00     0.227 C 
ATOM     14  O   UNL A   1      30.123  26.479  25.841  1.00  0.00    -0.275 OA
ATOM     15  N   UNL A   1      32.129  25.860  24.946  1.00  0.00    -0.339 N 
ATOM     16  C   UNL A   1      32.203  24.699  25.845  1.00  0.00     0.141 C 
ATOM     17  C   UNL A   1      33.418  26.222  24.328  1.00  0.00     0.141 C 
ATOM     18  C   UNL A   1      32.822  23.480  25.135  1.00  0.00     0.138 C 
ATOM     19  C   UNL A   1      34.143  25.024  23.676  1.00  0.00     0.138 C 
ATOM     20  N   UNL A   1      34.114  23.857  24.558  1.00  0.00    -0.368 N 
BRANCH  20  21
ATOM     21  C   UNL A   1      35.220  23.074  24.785  1.00  0.00     0.037 A 
ATOM     22  C   UNL A   1      35.213  21.705  24.495  1.00  0.00     0.026 A 
ATOM     23  C   UNL A   1      36.360  23.616  25.389  1.00  0.00     0.039 A 
ATOM     24  C   UNL A   1      36.312  20.897  24.797  1.00  0.00     0.003 A 
ATOM     25  C   UNL A   1      37.463  22.814  25.730  1.00  0.00     0.058 A 
ATOM     26  C   UNL A   1      37.430  21.447  25.419  1.00  0.00     0.013 A 
BRANCH  25  27
ATOM     27  C   UNL A   1      38.650  23.391  26.456  1.00  0.00     0.416 C 
ATOM     28  F   UNL A   1      39.354  24.268  25.687  1.00  0.00    -0.166 F 
ATOM     29  F   UNL A   1      38.291  24.083  27.574  1.00  0.00    -0.166 F 
ATOM     30  F   UNL A   1      39.549  22.456  26.873  1.00  0.00    -0.166 F 
ENDBRANCH  25  27
ENDBRANCH  20  21
ENDBRANCH  12  13
ENDBRANCH   3   5
ENDBRANCH   2   3
ENDBRANCH   1   2
BRANCH   1  31
ATOM     31  C   UNL A   1      34.082  30.196  27.271  1.00  0.00     0.275 C 
BRANCH  31  32
ATOM     32  O   UNL A   1      34.917  29.541  28.247  1.00  0.00    -0.458 OA
BRANCH  32  33
ATOM     33  C   UNL A   1      35.759  30.355  28.917  1.00  0.00     0.338 C 
ATOM     34  O   UNL A   1      35.481  31.392  29.505  1.00  0.00    -0.246 OA
BRANCH  33  35
ATOM     35  C   UNL A   1      37.141  29.857  28.858  1.00  0.00     0.060 A 
ATOM     36  C   UNL A   1      37.833  29.527  30.023  1.00  0.00     0.016 A 
ATOM     37  C   UNL A   1      37.799  29.857  27.628  1.00  0.00     0.016 A 
ATOM     38  C   UNL A   1      39.198  29.245  29.968  1.00  0.00     0.010 A 
ATOM     39  C   UNL A   1      39.147  29.497  27.563  1.00  0.00     0.010 A 
ATOM     40  C   UNL A   1      39.862  29.198  28.733  1.00  0.00    -0.014 A 
BRANCH  40  41
ATOM     41  C   UNL A   1      41.277  28.757  28.651  1.00  0.00     0.031 A 
ATOM     42  C   UNL A   1      42.408  29.734  28.803  1.00  0.00     0.074 A 
ATOM     43  C   UNL A   1      41.539  27.461  28.393  1.00  0.00     0.049 A 
ATOM     44  N   UNL A   1      43.687  29.551  28.598  1.00  0.00    -0.248 NA
ATOM     45  C   UNL A   1      42.057  31.095  29.237  1.00  0.00     0.031 C 
ATOM     46  C   UNL A   1      40.532  26.409  28.244  1.00  0.00     0.029 A 
ATOM     47  N   UNL A   1      42.731  26.810  28.197  1.00  0.00    -0.354 N 
ATOM     48  C   UNL A   1      44.294  30.774  28.851  1.00  0.00     0.074 A 
ATOM     49  C   UNL A   1      43.241  31.695  29.227  1.00  0.00     0.031 C 
ATOM     50  C   UNL A   1      41.145  25.245  27.988  1.00  0.00     0.029 A 
ATOM     51  C   UNL A   1      42.580  25.481  27.886  1.00  0.00     0.049 A 
ATOM     52  H   UNL A   1      43.608  27.251  28.272  1.00  0.00     0.167 HD
ATOM     53  C   UNL A   1      45.607  31.096  28.769  1.00  0.00     0.037 A 
ATOM     54  C   UNL A   1      43.486  24.560  27.510  1.00  0.00     0.037 A 
ATOM     55  C   UNL A   1      46.654  30.174  28.409  1.00  0.00     0.049 A 
ATOM     56  C   UNL A   1      44.925  24.956  27.378  1.00  0.00     0.074 A 
ATOM     57  C   UNL A   1      48.017  30.406  28.323  1.00  0.00     0.029 A 
ATOM     58  N   UNL A   1      46.454  28.845  28.073  1.00  0.00    -0.354 N 
ATOM     59  N   UNL A   1      45.480  26.121  27.598  1.00  0.00    -0.248 NA
ATOM     60  C   UNL A   1      45.858  23.915  26.925  1.00  0.00     0.031 C 
ATOM     61  C   UNL A   1      48.637  29.223  27.904  1.00  0.00     0.029 A 
ATOM     62  C   UNL A   1      47.665  28.248  27.759  1.00  0.00     0.049 A 
ATOM     63  H   UNL A   1      45.580  28.391  28.059  1.00  0.00     0.167 HD
ATOM     64  C   UNL A   1      46.827  25.958  27.309  1.00  0.00     0.074 A 
ATOM     65  C   UNL A   1      47.008  24.575  26.919  1.00  0.00     0.031 C 
ATOM     66  C   UNL A   1      47.823  26.875  27.357  1.00  0.00     0.037 A 
BRANCH  53  67
ATOM     67  C   UNL A   1      45.994  32.517  29.050  1.00  0.00     0.057 A 
ATOM     68  C   UNL A   1      46.038  33.485  28.040  1.00  0.00     0.134 A 
ATOM     69  C   UNL A   1      46.264  32.933  30.361  1.00  0.00     0.134 A 
ATOM     70  F   UNL A   1      45.798  33.145  26.764  1.00  0.00    -0.206 F 
ATOM     71  C   UNL A   1      46.342  34.817  28.322  1.00  0.00     0.040 A 
ATOM     72  C   UNL A   1      46.555  34.266  30.657  1.00  0.00     0.040 A 
ATOM     73  F   UNL A   1      46.233  32.055  31.374  1.00  0.00    -0.206 F 
ATOM     74  C   UNL A   1      46.595  35.213  29.635  1.00  0.00     0.006 A 
ENDBRANCH  53  67
BRANCH  54  75
ATOM     75  C   UNL A   1      43.037  23.185  27.186  1.00  0.00     0.057 A 
ATOM     76  C   UNL A   1      42.904  22.764  25.860  1.00  0.00     0.134 A 
ATOM     77  C   UNL A   1      42.763  22.254  28.195  1.00  0.00     0.134 A 
ATOM     78  F   UNL A   1      43.134  23.619  24.853  1.00  0.00    -0.206 F 
ATOM     79  C   UNL A   1      42.513  21.461  25.547  1.00  0.00     0.040 A 
ATOM     80  C   UNL A   1      42.394  20.943  27.897  1.00  0.00     0.040 A 
ATOM     81  F   UNL A   1      42.880  22.601  29.486  1.00  0.00    -0.206 F 
ATOM     82  C   UNL A   1      42.266  20.545  26.569  1.00  0.00     0.006 A 
ENDBRANCH  54  75
BRANCH  66  83
ATOM     83  C   UNL A   1      49.191  26.401  26.976  1.00  0.00     0.057 A 
ATOM     84  C   UNL A   1      50.032  25.779  27.906  1.00  0.00     0.134 A 
ATOM     85  C   UNL A   1      49.667  26.561  25.669  1.00  0.00     0.134 A 
ATOM     86  F   UNL A   1      49.636  25.614  29.177  1.00  0.00    -0.206 F 
ATOM     87  C   UNL A   1      51.311  25.347  27.553  1.00  0.00     0.040 A 
ATOM     88  C   UNL A   1      50.938  26.119  25.301  1.00  0.00     0.040 A 
ATOM     89  F   UNL A   1      48.907  27.149  24.735  1.00  0.00    -0.206 F 
ATOM     90  C   UNL A   1      51.765  25.514  26.246  1.00  0.00     0.006 A 
ENDBRANCH  66  83
ENDBRANCH  40  41
ENDBRANCH  33  35
ENDBRANCH  32  33
ENDBRANCH  31  32
ENDBRANCH   1  31
TORSDOF 14
ENDMDL
MODEL 3
REMARK VINA RESULT:     -13.1      3.500      6.857
REMARK SMILES CC1=C(C)C[C@@H](C(=O)OCCOC(=O)c2ccc(-c3c4nc(c(-c5c(F)cccc5F)c5ccc([nH]5)c(-c5c(F)cccc5F)c5nc(c(-c6c(F)cccc6F)c6ccc3[nH]6)C=C5)C=C4)cc2)[C@@H](C(=O)N2CCN(c3cccc(C(F)(F)F)c3)CC2)C1
REMARK SMILES IDX 10 1 9 2 7 3 8 4 6 5 1 6 2 7 3 8 88 9 4 10 5 11 69 12 70 13
REMARK SMILES IDX 71 14 72 15 73 16 87 17 74 18 86 19 75 20 76 21 77 22 85 23
REMARK SMILES IDX 78 24 80 25 79 26 81 27 82 28 83 29 84 30 11 31 12 32 13 33
REMARK SMILES IDX 14 34 15 35 16 36 68 37 17 38 67 39 18 40 19 41 20 42 61 43
REMARK SMILES IDX 21 44 66 45 60 46 62 47 22 48 65 49 59 50 58 51 23 53 49 54
REMARK SMILES IDX 32 55 48 56 33 57 36 58 47 59 63 60 34 61 35 62 46 64 64 65
REMARK SMILES IDX 37 66 24 67 25 68 30 69 26 70 27 71 29 72 31 73 28 74 50 75
REMARK SMILES IDX 51 76 56 77 52 78 53 79 55 80 57 81 54 82 38 83 39 84 44 85
REMARK SMILES IDX 40 86 41 87 43 88 45 89 42 90
REMARK H PARENT 62 52 36 63
REMARK Flexibility Score: inf
ROOT
ATOM      1  C   UNL A   1      32.094  30.371  25.992  1.00  0.00     0.274 C 
ENDROOT
BRANCH   1   2
ATOM      2  O   UNL A   1      31.322  29.497  25.142  1.00  0.00    -0.462 OA
BRANCH   2   3
ATOM      3  C   UNL A   1      31.984  28.979  24.093  1.00  0.00     0.310 C 
ATOM      4  O   UNL A   1      33.197  29.112  23.925  1.00  0.00    -0.252 OA
BRANCH   3   5
ATOM      5  C   UNL A   1      31.166  28.138  23.118  1.00  0.00     0.116 C 
ATOM      6  C   UNL A   1      26.794  28.223  23.729  1.00  0.00     0.039 C 
ATOM      7  C   UNL A   1      28.235  28.218  23.287  1.00  0.00    -0.074 C 
ATOM      8  C   UNL A   1      28.889  29.264  22.747  1.00  0.00    -0.073 C 
ATOM      9  C   UNL A   1      28.900  26.874  23.435  1.00  0.00     0.045 C 
ATOM     10  C   UNL A   1      28.295  30.620  22.469  1.00  0.00     0.039 C 
ATOM     11  C   UNL A   1      30.310  29.104  22.278  1.00  0.00     0.046 C 
ATOM     12  C   UNL A   1      30.448  26.825  23.472  1.00  0.00     0.097 C 
BRANCH  12  13
ATOM     13  C   UNL A   1      30.825  26.106  24.772  1.00  0.00     0.227 C 
ATOM     14  O   UNL A   1      30.302  26.435  25.839  1.00  0.00    -0.275 OA
ATOM     15  N   UNL A   1      31.577  24.946  24.670  1.00  0.00    -0.339 N 
ATOM     16  C   UNL A   1      31.517  23.982  25.779  1.00  0.00     0.141 C 
ATOM     17  C   UNL A   1      32.649  24.671  23.695  1.00  0.00     0.141 C 
ATOM     18  C   UNL A   1      31.414  22.536  25.258  1.00  0.00     0.138 C 
ATOM     19  C   UNL A   1      32.666  23.209  23.199  1.00  0.00     0.138 C 
ATOM     20  N   UNL A   1      32.507  22.278  24.317  1.00  0.00    -0.368 N 
BRANCH  20  21
ATOM     21  C   UNL A   1      33.280  21.152  24.458  1.00  0.00     0.037 A 
ATOM     22  C   UNL A   1      34.571  21.219  24.996  1.00  0.00     0.026 A 
ATOM     23  C   UNL A   1      32.822  19.915  23.991  1.00  0.00     0.039 A 
ATOM     24  C   UNL A   1      35.383  20.085  25.069  1.00  0.00     0.003 A 
ATOM     25  C   UNL A   1      33.636  18.769  24.026  1.00  0.00     0.058 A 
ATOM     26  C   UNL A   1      34.921  18.866  24.579  1.00  0.00     0.013 A 
BRANCH  25  27
ATOM     27  C   UNL A   1      33.164  17.462  23.443  1.00  0.00     0.416 C 
ATOM     28  F   UNL A   1      32.557  16.669  24.370  1.00  0.00    -0.166 F 
ATOM     29  F   UNL A   1      32.251  17.635  22.446  1.00  0.00    -0.166 F 
ATOM     30  F   UNL A   1      34.162  16.707  22.904  1.00  0.00    -0.166 F 
ENDBRANCH  25  27
ENDBRANCH  20  21
ENDBRANCH  12  13
ENDBRANCH   3   5
ENDBRANCH   2   3
ENDBRANCH   1   2
BRANCH   1  31
ATOM     31  C   UNL A   1      32.584  29.649  27.247  1.00  0.00     0.275 C 
BRANCH  31  32
ATOM     32  O   UNL A   1      34.018  29.511  27.238  1.00  0.00    -0.458 OA
BRANCH  32  33
ATOM     33  C   UNL A   1      34.680  30.357  28.054  1.00  0.00     0.338 C 
ATOM     34  O   UNL A   1      34.262  31.398  28.544  1.00  0.00    -0.246 OA
BRANCH  33  35
ATOM     35  C   UNL A   1      36.051  29.891  28.306  1.00  0.00     0.060 A 
ATOM     36  C   UNL A   1      36.418  29.385  29.554  1.00  0.00     0.016 A 
ATOM     37  C   UNL A   1      37.018  30.097  27.322  1.00  0.00     0.016 A 
ATOM     38  C   UNL A   1      37.759  29.132  29.838  1.00  0.00     0.010 A 
ATOM     39  C   UNL A   1      38.351  29.768  27.580  1.00  0.00     0.010 A 
ATOM     40  C   UNL A   1      38.736  29.293  28.843  1.00  0.00    -0.014 A 
BRANCH  40  41
ATOM     41  C   UNL A   1      40.142  28.887  29.091  1.00  0.00     0.031 A 
ATOM     42  C   UNL A   1      41.141  29.850  29.666  1.00  0.00     0.074 A 
ATOM     43  C   UNL A   1      40.529  27.642  28.750  1.00  0.00     0.049 A 
ATOM     44  N   UNL A   1      42.437  29.714  29.794  1.00  0.00    -0.248 NA
ATOM     45  C   UNL A   1      40.619  31.133  30.160  1.00  0.00     0.031 C 
ATOM     46  C   UNL A   1      39.651  26.606  28.201  1.00  0.00     0.029 A 
ATOM     47  N   UNL A   1      41.761  27.041  28.803  1.00  0.00    -0.354 N 
ATOM     48  C   UNL A   1      42.891  30.900  30.355  1.00  0.00     0.074 A 
ATOM     49  C   UNL A   1      41.731  31.746  30.546  1.00  0.00     0.031 C 
ATOM     50  C   UNL A   1      40.368  25.496  27.975  1.00  0.00     0.029 A 
ATOM     51  C   UNL A   1      41.765  25.764  28.295  1.00  0.00     0.049 A 
ATOM     52  H   UNL A   1      42.563  27.480  29.167  1.00  0.00     0.167 HD
ATOM     53  C   UNL A   1      44.161  31.249  30.673  1.00  0.00     0.037 A 
ATOM     54  C   UNL A   1      42.784  24.916  28.064  1.00  0.00     0.037 A 
ATOM     55  C   UNL A   1      45.311  30.400  30.495  1.00  0.00     0.049 A 
ATOM     56  C   UNL A   1      44.184  25.348  28.377  1.00  0.00     0.074 A 
ATOM     57  C   UNL A   1      46.635  30.660  30.810  1.00  0.00     0.029 A 
ATOM     58  N   UNL A   1      45.275  29.126  29.950  1.00  0.00    -0.354 N 
ATOM     59  N   UNL A   1      44.601  26.479  28.886  1.00  0.00    -0.248 NA
ATOM     60  C   UNL A   1      45.255  24.391  28.064  1.00  0.00     0.031 C 
ATOM     61  C   UNL A   1      47.403  29.554  30.427  1.00  0.00     0.029 A 
ATOM     62  C   UNL A   1      46.554  28.595  29.902  1.00  0.00     0.049 A 
ATOM     63  H   UNL A   1      44.460  28.666  29.643  1.00  0.00     0.167 HD
ATOM     64  C   UNL A   1      45.983  26.376  28.954  1.00  0.00     0.074 A 
ATOM     65  C   UNL A   1      46.331  25.062  28.453  1.00  0.00     0.031 C 
ATOM     66  C   UNL A   1      46.883  27.292  29.385  1.00  0.00     0.037 A 
BRANCH  53  67
ATOM     67  C   UNL A   1      44.387  32.624  31.227  1.00  0.00     0.057 A 
ATOM     68  C   UNL A   1      44.414  32.870  32.604  1.00  0.00     0.134 A 
ATOM     69  C   UNL A   1      44.644  33.701  30.369  1.00  0.00     0.134 A 
ATOM     70  F   UNL A   1      44.165  31.881  33.476  1.00  0.00    -0.206 F 
ATOM     71  C   UNL A   1      44.684  34.143  33.110  1.00  0.00     0.040 A 
ATOM     72  C   UNL A   1      44.930  34.975  30.864  1.00  0.00     0.040 A 
ATOM     73  F   UNL A   1      44.639  33.529  29.039  1.00  0.00    -0.206 F 
ATOM     74  C   UNL A   1      44.949  35.198  32.239  1.00  0.00     0.006 A 
ENDBRANCH  53  67
BRANCH  54  75
ATOM     75  C   UNL A   1      42.507  23.593  27.458  1.00  0.00     0.057 A 
ATOM     76  C   UNL A   1      42.617  23.394  26.079  1.00  0.00     0.134 A 
ATOM     77  C   UNL A   1      42.158  22.491  28.249  1.00  0.00     0.134 A 
ATOM     78  F   UNL A   1      42.929  24.418  25.272  1.00  0.00    -0.206 F 
ATOM     79  C   UNL A   1      42.390  22.142  25.504  1.00  0.00     0.040 A 
ATOM     80  C   UNL A   1      41.950  21.230  27.691  1.00  0.00     0.040 A 
ATOM     81  F   UNL A   1      42.043  22.622  29.579  1.00  0.00    -0.206 F 
ATOM     82  C   UNL A   1      42.064  21.054  26.314  1.00  0.00     0.006 A 
ENDBRANCH  54  75
BRANCH  66  83
ATOM     83  C   UNL A   1      48.325  26.894  29.331  1.00  0.00     0.057 A 
ATOM     84  C   UNL A   1      48.931  26.203  30.388  1.00  0.00     0.134 A 
ATOM     85  C   UNL A   1      49.111  27.196  28.213  1.00  0.00     0.134 A 
ATOM     86  F   UNL A   1      48.232  25.903  31.492  1.00  0.00    -0.206 F 
ATOM     87  C   UNL A   1      50.277  25.842  30.341  1.00  0.00     0.040 A 
ATOM     88  C   UNL A   1      50.454  26.826  28.149  1.00  0.00     0.040 A 
ATOM     89  F   UNL A   1      48.586  27.855  27.170  1.00  0.00    -0.206 F 
ATOM     90  C   UNL A   1      51.042  26.151  29.217  1.00  0.00     0.006 A 
ENDBRANCH  66  83
ENDBRANCH  40  41
ENDBRANCH  33  35
ENDBRANCH  32  33
ENDBRANCH  31  32
ENDBRANCH   1  31
TORSDOF 14
ENDMDL
