MODEL 1
REMARK VINA RESULT:     -10.9      0.000      0.000
REMARK SMILES CC(C)C[C@H](C)NS(=O)(=O)c1cc(C(=O)OCCOC(=O)c2ccc(-c3c4nc(c(-c5c(F)cccc5F)c5ccc([nH]5)c(-c5c(F)cccc5F)c5nc(c(-c6c(F)cccc6F)c6ccc3[nH]6)C=C5)C=C4)cc2)ccc1Cl
REMARK SMILES IDX 16 1 14 2 15 3 13 4 11 5 12 6 78 7 77 8 79 9 76 10 8 11 9 12
REMARK SMILES IDX 10 13 7 14 5 16 6 17 4 18 2 19 1 20 3 21 17 22 18 23 19 24
REMARK SMILES IDX 20 25 21 26 22 27 23 28 75 29 24 30 74 31 25 32 26 33 27 34
REMARK SMILES IDX 68 35 28 36 73 37 67 38 69 39 29 40 72 41 66 42 65 43 30 45
REMARK SMILES IDX 56 46 39 47 55 48 40 49 43 50 54 51 70 52 41 53 42 54 53 56
REMARK SMILES IDX 71 57 44 58 31 59 32 60 37 61 33 62 34 63 36 64 38 65 35 66
REMARK SMILES IDX 57 67 58 68 63 69 59 70 60 71 62 72 64 73 61 74 45 75 46 76
REMARK SMILES IDX 51 77 47 78 48 79 50 80 52 81 49 82
REMARK H PARENT 7 15 69 44 43 55
REMARK Flexibility Score: inf
ROOT
ATOM      1  O   UNL A   1      41.614  21.911  25.746  1.00  0.00    -0.458 OA
ENDROOT
BRANCH   1   2
ATOM      2  C   UNL A   1      40.575  21.126  26.130  1.00  0.00     0.338 C 
ATOM      3  O   UNL A   1      40.637  19.963  26.475  1.00  0.00    -0.246 OA
BRANCH   2   4
ATOM      4  C   UNL A   1      39.299  21.896  26.101  1.00  0.00     0.061 A 
ATOM      5  C   UNL A   1      36.873  21.941  25.760  1.00  0.00     0.101 A 
ATOM      6  C   UNL A   1      38.091  21.227  25.850  1.00  0.00     0.039 A 
ATOM      7  C   UNL A   1      36.879  23.329  25.873  1.00  0.00     0.061 A 
ATOM      8  C   UNL A   1      38.088  23.991  26.134  1.00  0.00     0.023 A 
ATOM      9  Cl  UNL A   1      35.486  24.325  25.682  1.00  0.00    -0.083 Cl
ATOM     10  C   UNL A   1      39.289  23.284  26.252  1.00  0.00     0.017 A 
BRANCH   5  11
ATOM     11  S   UNL A   1      35.394  21.037  25.381  1.00  0.00     0.242 S 
ATOM     12  O   UNL A   1      34.492  21.214  26.499  1.00  0.00    -0.207 OA
ATOM     13  O   UNL A   1      35.785  19.697  25.003  1.00  0.00    -0.207 OA
BRANCH  11  14
ATOM     14  N   UNL A   1      34.622  21.727  24.042  1.00  0.00    -0.208 NA
ATOM     15  H   UNL A   1      35.118  22.599  23.858  1.00  0.00     0.141 HD
BRANCH  14  16
ATOM     16  C   UNL A   1      33.181  22.071  23.985  1.00  0.00     0.067 C 
ATOM     17  C   UNL A   1      32.933  22.625  22.572  1.00  0.00     0.025 C 
BRANCH  16  18
ATOM     18  C   UNL A   1      32.228  20.873  24.157  1.00  0.00     0.022 C 
BRANCH  18  19
ATOM     19  C   UNL A   1      32.771  19.509  23.756  1.00  0.00    -0.016 C 
ATOM     20  C   UNL A   1      32.527  18.472  24.838  1.00  0.00     0.007 C 
ATOM     21  C   UNL A   1      32.152  19.046  22.439  1.00  0.00     0.007 C 
ENDBRANCH  18  19
ENDBRANCH  16  18
ENDBRANCH  14  16
ENDBRANCH  11  14
ENDBRANCH   5  11
ENDBRANCH   2   4
ENDBRANCH   1   2
BRANCH   1  22
ATOM     22  C   UNL A   1      42.931  21.320  25.784  1.00  0.00     0.275 C 
BRANCH  22  23
ATOM     23  C   UNL A   1      43.965  22.231  25.120  1.00  0.00     0.275 C 
BRANCH  23  24
ATOM     24  O   UNL A   1      43.345  23.461  24.704  1.00  0.00    -0.458 OA
BRANCH  24  25
ATOM     25  C   UNL A   1      44.031  24.584  24.998  1.00  0.00     0.338 C 
ATOM     26  O   UNL A   1      45.148  24.902  24.625  1.00  0.00    -0.246 OA
BRANCH  25  27
ATOM     27  C   UNL A   1      43.170  25.486  25.776  1.00  0.00     0.060 A 
ATOM     28  C   UNL A   1      43.576  26.805  25.898  1.00  0.00     0.016 A 
ATOM     29  C   UNL A   1      42.093  25.013  26.525  1.00  0.00     0.016 A 
ATOM     30  C   UNL A   1      42.986  27.614  26.863  1.00  0.00     0.010 A 
ATOM     31  C   UNL A   1      41.462  25.864  27.453  1.00  0.00     0.010 A 
ATOM     32  C   UNL A   1      41.961  27.152  27.708  1.00  0.00    -0.014 A 
BRANCH  32  33
ATOM     33  C   UNL A   1      41.570  27.974  28.912  1.00  0.00     0.031 A 
ATOM     34  C   UNL A   1      40.332  28.861  28.896  1.00  0.00     0.074 A 
ATOM     35  C   UNL A   1      42.203  27.807  30.096  1.00  0.00     0.049 A 
ATOM     36  N   UNL A   1      39.827  29.599  29.860  1.00  0.00    -0.248 NA
ATOM     37  C   UNL A   1      39.539  28.905  27.656  1.00  0.00     0.031 C 
ATOM     38  C   UNL A   1      43.367  26.947  30.320  1.00  0.00     0.029 A 
ATOM     39  N   UNL A   1      41.921  28.300  31.352  1.00  0.00    -0.354 N 
ATOM     40  C   UNL A   1      38.678  30.189  29.342  1.00  0.00     0.074 A 
ATOM     41  C   UNL A   1      38.576  29.762  27.965  1.00  0.00     0.031 C 
ATOM     42  C   UNL A   1      43.629  26.888  31.633  1.00  0.00     0.029 A 
ATOM     43  C   UNL A   1      42.747  27.811  32.337  1.00  0.00     0.049 A 
ATOM     44  H   UNL A   1      41.197  28.944  31.527  1.00  0.00     0.167 HD
ATOM     45  C   UNL A   1      37.765  30.988  29.951  1.00  0.00     0.037 A 
ATOM     46  C   UNL A   1      42.839  28.095  33.652  1.00  0.00     0.037 A 
ATOM     47  C   UNL A   1      37.820  31.412  31.325  1.00  0.00     0.049 A 
ATOM     48  C   UNL A   1      41.924  29.119  34.257  1.00  0.00     0.074 A 
ATOM     49  C   UNL A   1      36.958  32.265  31.998  1.00  0.00     0.029 A 
ATOM     50  N   UNL A   1      38.778  31.014  32.240  1.00  0.00    -0.354 N 
ATOM     51  N   UNL A   1      40.896  29.728  33.721  1.00  0.00    -0.248 NA
ATOM     52  C   UNL A   1      42.208  29.523  35.642  1.00  0.00     0.031 C 
ATOM     53  C   UNL A   1      37.430  32.426  33.305  1.00  0.00     0.029 A 
ATOM     54  C   UNL A   1      38.553  31.633  33.461  1.00  0.00     0.049 A 
ATOM     55  H   UNL A   1      39.512  30.384  32.053  1.00  0.00     0.167 HD
ATOM     56  C   UNL A   1      40.411  30.583  34.703  1.00  0.00     0.074 A 
ATOM     57  C   UNL A   1      41.235  30.392  35.876  1.00  0.00     0.031 C 
ATOM     58  C   UNL A   1      39.376  31.455  34.628  1.00  0.00     0.037 A 
BRANCH  45  59
ATOM     59  C   UNL A   1      36.626  31.498  29.115  1.00  0.00     0.057 A 
ATOM     60  C   UNL A   1      35.541  30.687  28.761  1.00  0.00     0.134 A 
ATOM     61  C   UNL A   1      36.594  32.838  28.706  1.00  0.00     0.134 A 
ATOM     62  F   UNL A   1      35.517  29.392  29.109  1.00  0.00    -0.206 F 
ATOM     63  C   UNL A   1      34.470  31.189  28.017  1.00  0.00     0.040 A 
ATOM     64  C   UNL A   1      35.521  33.356  27.981  1.00  0.00     0.040 A 
ATOM     65  F   UNL A   1      37.599  33.670  29.022  1.00  0.00    -0.206 F 
ATOM     66  C   UNL A   1      34.455  32.529  27.631  1.00  0.00     0.006 A 
ENDBRANCH  45  59
BRANCH  46  67
ATOM     67  C   UNL A   1      43.910  27.466  34.474  1.00  0.00     0.057 A 
ATOM     68  C   UNL A   1      43.682  26.300  35.215  1.00  0.00     0.134 A 
ATOM     69  C   UNL A   1      45.187  28.039  34.556  1.00  0.00     0.134 A 
ATOM     70  F   UNL A   1      42.470  25.725  35.216  1.00  0.00    -0.206 F 
ATOM     71  C   UNL A   1      44.683  25.729  36.003  1.00  0.00     0.040 A 
ATOM     72  C   UNL A   1      46.207  27.459  35.307  1.00  0.00     0.040 A 
ATOM     73  F   UNL A   1      45.468  29.166  33.884  1.00  0.00    -0.206 F 
ATOM     74  C   UNL A   1      45.954  26.302  36.040  1.00  0.00     0.006 A 
ENDBRANCH  46  67
BRANCH  58  75
ATOM     75  C   UNL A   1      39.068  32.261  35.855  1.00  0.00     0.057 A 
ATOM     76  C   UNL A   1      39.555  33.565  36.022  1.00  0.00     0.134 A 
ATOM     77  C   UNL A   1      38.266  31.737  36.877  1.00  0.00     0.134 A 
ATOM     78  F   UNL A   1      40.342  34.120  35.087  1.00  0.00    -0.206 F 
ATOM     79  C   UNL A   1      39.280  34.307  37.171  1.00  0.00     0.040 A 
ATOM     80  C   UNL A   1      37.962  32.479  38.020  1.00  0.00     0.040 A 
ATOM     81  F   UNL A   1      37.759  30.500  36.779  1.00  0.00    -0.206 F 
ATOM     82  C   UNL A   1      38.477  33.766  38.173  1.00  0.00     0.006 A 
ENDBRANCH  58  75
ENDBRANCH  32  33
ENDBRANCH  25  27
ENDBRANCH  24  25
ENDBRANCH  23  24
ENDBRANCH  22  23
ENDBRANCH   1  22
TORSDOF 16
ENDMDL
MODEL 2
REMARK VINA RESULT:     -10.8      4.112      8.202
REMARK SMILES CC(C)C[C@H](C)NS(=O)(=O)c1cc(C(=O)OCCOC(=O)c2ccc(-c3c4nc(c(-c5c(F)cccc5F)c5ccc([nH]5)c(-c5c(F)cccc5F)c5nc(c(-c6c(F)cccc6F)c6ccc3[nH]6)C=C5)C=C4)cc2)ccc1Cl
REMARK SMILES IDX 16 1 14 2 15 3 13 4 11 5 12 6 78 7 77 8 79 9 76 10 8 11 9 12
REMARK SMILES IDX 10 13 7 14 5 16 6 17 4 18 2 19 1 20 3 21 17 22 18 23 19 24
REMARK SMILES IDX 20 25 21 26 22 27 23 28 75 29 24 30 74 31 25 32 26 33 27 34
REMARK SMILES IDX 68 35 28 36 73 37 67 38 69 39 29 40 72 41 66 42 65 43 30 45
REMARK SMILES IDX 56 46 39 47 55 48 40 49 43 50 54 51 70 52 41 53 42 54 53 56
REMARK SMILES IDX 71 57 44 58 31 59 32 60 37 61 33 62 34 63 36 64 38 65 35 66
REMARK SMILES IDX 57 67 58 68 63 69 59 70 60 71 62 72 64 73 61 74 45 75 46 76
REMARK SMILES IDX 51 77 47 78 48 79 50 80 52 81 49 82
REMARK H PARENT 7 15 69 44 43 55
REMARK Flexibility Score: inf
ROOT
ATOM      1  O   UNL A   1      36.308  21.646  24.394  1.00  0.00    -0.458 OA
ENDROOT
BRANCH   1   2
ATOM      2  C   UNL A   1      36.134  22.671  23.522  1.00  0.00     0.338 C 
ATOM      3  O   UNL A   1      37.007  23.259  22.915  1.00  0.00    -0.246 OA
BRANCH   2   4
ATOM      4  C   UNL A   1      34.685  22.989  23.370  1.00  0.00     0.061 A 
ATOM      5  C   UNL A   1      32.935  24.537  22.634  1.00  0.00     0.101 A 
ATOM      6  C   UNL A   1      34.300  24.183  22.741  1.00  0.00     0.039 A 
ATOM      7  C   UNL A   1      31.964  23.715  23.203  1.00  0.00     0.061 A 
ATOM      8  C   UNL A   1      32.355  22.518  23.821  1.00  0.00     0.023 A 
ATOM      9  Cl  UNL A   1      30.281  24.079  23.233  1.00  0.00    -0.083 Cl
ATOM     10  C   UNL A   1      33.702  22.152  23.901  1.00  0.00     0.017 A 
BRANCH   5  11
ATOM     11  S   UNL A   1      32.525  26.090  21.881  1.00  0.00     0.242 S 
ATOM     12  O   UNL A   1      31.791  25.792  20.669  1.00  0.00    -0.207 OA
ATOM     13  O   UNL A   1      33.741  26.866  21.789  1.00  0.00    -0.207 OA
BRANCH  11  14
ATOM     14  N   UNL A   1      31.458  26.952  22.875  1.00  0.00    -0.208 NA
ATOM     15  H   UNL A   1      31.103  27.715  22.300  1.00  0.00     0.141 HD
BRANCH  14  16
ATOM     16  C   UNL A   1      31.827  27.569  24.171  1.00  0.00     0.067 C 
ATOM     17  C   UNL A   1      31.222  28.982  24.155  1.00  0.00     0.025 C 
BRANCH  16  18
ATOM     18  C   UNL A   1      31.246  26.859  25.409  1.00  0.00     0.022 C 
BRANCH  18  19
ATOM     19  C   UNL A   1      32.247  26.206  26.351  1.00  0.00    -0.016 C 
ATOM     20  C   UNL A   1      31.885  24.759  26.633  1.00  0.00     0.007 C 
ATOM     21  C   UNL A   1      33.661  26.288  25.780  1.00  0.00     0.007 C 
ENDBRANCH  18  19
ENDBRANCH  16  18
ENDBRANCH  14  16
ENDBRANCH  11  14
ENDBRANCH   5  11
ENDBRANCH   2   4
ENDBRANCH   1   2
BRANCH   1  22
ATOM     22  C   UNL A   1      37.456  21.715  25.267  1.00  0.00     0.275 C 
BRANCH  22  23
ATOM     23  C   UNL A   1      38.359  20.494  25.090  1.00  0.00     0.275 C 
BRANCH  23  24
ATOM     24  O   UNL A   1      39.077  20.229  26.309  1.00  0.00    -0.458 OA
BRANCH  24  25
ATOM     25  C   UNL A   1      40.366  19.860  26.155  1.00  0.00     0.338 C 
ATOM     26  O   UNL A   1      40.801  18.863  25.604  1.00  0.00    -0.246 OA
BRANCH  25  27
ATOM     27  C   UNL A   1      41.238  20.929  26.660  1.00  0.00     0.060 A 
ATOM     28  C   UNL A   1      41.285  21.118  28.031  1.00  0.00     0.016 A 
ATOM     29  C   UNL A   1      41.849  21.847  25.806  1.00  0.00     0.016 A 
ATOM     30  C   UNL A   1      41.832  22.290  28.541  1.00  0.00     0.010 A 
ATOM     31  C   UNL A   1      42.458  22.999  26.341  1.00  0.00     0.010 A 
ATOM     32  C   UNL A   1      42.374  23.289  27.713  1.00  0.00    -0.014 A 
BRANCH  32  33
ATOM     33  C   UNL A   1      42.681  24.646  28.298  1.00  0.00     0.031 A 
ATOM     34  C   UNL A   1      44.117  25.098  28.535  1.00  0.00     0.074 A 
ATOM     35  C   UNL A   1      41.703  25.566  28.459  1.00  0.00     0.049 A 
ATOM     36  N   UNL A   1      44.560  26.250  28.989  1.00  0.00    -0.248 NA
ATOM     37  C   UNL A   1      45.196  24.157  28.191  1.00  0.00     0.031 C 
ATOM     38  C   UNL A   1      40.277  25.336  28.219  1.00  0.00     0.029 A 
ATOM     39  N   UNL A   1      41.760  26.900  28.801  1.00  0.00    -0.354 N 
ATOM     40  C   UNL A   1      45.949  26.164  28.988  1.00  0.00     0.074 A 
ATOM     41  C   UNL A   1      46.283  24.834  28.531  1.00  0.00     0.031 C 
ATOM     42  C   UNL A   1      39.618  26.498  28.312  1.00  0.00     0.029 A 
ATOM     43  C   UNL A   1      40.541  27.536  28.757  1.00  0.00     0.049 A 
ATOM     44  H   UNL A   1      42.596  27.355  29.055  1.00  0.00     0.167 HD
ATOM     45  C   UNL A   1      46.875  27.104  29.306  1.00  0.00     0.037 A 
ATOM     46  C   UNL A   1      40.173  28.792  29.080  1.00  0.00     0.037 A 
ATOM     47  C   UNL A   1      46.581  28.445  29.739  1.00  0.00     0.049 A 
ATOM     48  C   UNL A   1      41.200  29.757  29.598  1.00  0.00     0.074 A 
ATOM     49  C   UNL A   1      47.466  29.438  30.129  1.00  0.00     0.029 A 
ATOM     50  N   UNL A   1      45.311  28.987  29.834  1.00  0.00    -0.354 N 
ATOM     51  N   UNL A   1      42.500  29.621  29.669  1.00  0.00    -0.248 NA
ATOM     52  C   UNL A   1      40.699  31.039  30.116  1.00  0.00     0.031 C 
ATOM     53  C   UNL A   1      46.727  30.561  30.513  1.00  0.00     0.029 A 
ATOM     54  C   UNL A   1      45.386  30.287  30.312  1.00  0.00     0.049 A 
ATOM     55  H   UNL A   1      44.477  28.520  29.596  1.00  0.00     0.167 HD
ATOM     56  C   UNL A   1      42.972  30.798  30.235  1.00  0.00     0.074 A 
ATOM     57  C   UNL A   1      41.823  31.649  30.461  1.00  0.00     0.031 C 
ATOM     58  C   UNL A   1      44.246  31.134  30.549  1.00  0.00     0.037 A 
BRANCH  45  59
ATOM     59  C   UNL A   1      48.321  26.704  29.232  1.00  0.00     0.057 A 
ATOM     60  C   UNL A   1      49.110  26.969  28.107  1.00  0.00     0.134 A 
ATOM     61  C   UNL A   1      48.941  26.091  30.329  1.00  0.00     0.134 A 
ATOM     62  F   UNL A   1      48.574  27.542  27.019  1.00  0.00    -0.206 F 
ATOM     63  C   UNL A   1      50.465  26.627  28.071  1.00  0.00     0.040 A 
ATOM     64  C   UNL A   1      50.297  25.763  30.312  1.00  0.00     0.040 A 
ATOM     65  F   UNL A   1      48.242  25.819  31.441  1.00  0.00    -0.206 F 
ATOM     66  C   UNL A   1      51.063  26.027  29.179  1.00  0.00     0.006 A 
ENDBRANCH  45  59
BRANCH  46  67
ATOM     67  C   UNL A   1      38.738  29.185  29.017  1.00  0.00     0.057 A 
ATOM     68  C   UNL A   1      37.898  29.090  30.132  1.00  0.00     0.134 A 
ATOM     69  C   UNL A   1      38.168  29.642  27.820  1.00  0.00     0.134 A 
ATOM     70  F   UNL A   1      38.369  28.619  31.296  1.00  0.00    -0.206 F 
ATOM     71  C   UNL A   1      36.547  29.437  30.060  1.00  0.00     0.040 A 
ATOM     72  C   UNL A   1      36.830  30.029  27.743  1.00  0.00     0.040 A 
ATOM     73  F   UNL A   1      38.912  29.741  26.709  1.00  0.00    -0.206 F 
ATOM     74  C   UNL A   1      36.013  29.920  28.866  1.00  0.00     0.006 A 
ENDBRANCH  46  67
BRANCH  58  75
ATOM     75  C   UNL A   1      44.470  32.487  31.157  1.00  0.00     0.057 A 
ATOM     76  C   UNL A   1      44.667  33.627  30.366  1.00  0.00     0.134 A 
ATOM     77  C   UNL A   1      44.477  32.657  32.548  1.00  0.00     0.134 A 
ATOM     78  F   UNL A   1      44.688  33.530  29.028  1.00  0.00    -0.206 F 
ATOM     79  C   UNL A   1      44.891  34.881  30.936  1.00  0.00     0.040 A 
ATOM     80  C   UNL A   1      44.673  33.912  33.129  1.00  0.00     0.040 A 
ATOM     81  F   UNL A   1      44.286  31.610  33.363  1.00  0.00    -0.206 F 
ATOM     82  C   UNL A   1      44.890  35.027  32.322  1.00  0.00     0.006 A 
ENDBRANCH  58  75
ENDBRANCH  32  33
ENDBRANCH  25  27
ENDBRANCH  24  25
ENDBRANCH  23  24
ENDBRANCH  22  23
ENDBRANCH   1  22
TORSDOF 16
ENDMDL
MODEL 3
REMARK VINA RESULT:     -10.7      3.294      8.111
REMARK SMILES CC(C)C[C@H](C)NS(=O)(=O)c1cc(C(=O)OCCOC(=O)c2ccc(-c3c4nc(c(-c5c(F)cccc5F)c5ccc([nH]5)c(-c5c(F)cccc5F)c5nc(c(-c6c(F)cccc6F)c6ccc3[nH]6)C=C5)C=C4)cc2)ccc1Cl
REMARK SMILES IDX 16 1 14 2 15 3 13 4 11 5 12 6 78 7 77 8 79 9 76 10 8 11 9 12
REMARK SMILES IDX 10 13 7 14 5 16 6 17 4 18 2 19 1 20 3 21 17 22 18 23 19 24
REMARK SMILES IDX 20 25 21 26 22 27 23 28 75 29 24 30 74 31 25 32 26 33 27 34
REMARK SMILES IDX 68 35 28 36 73 37 67 38 69 39 29 40 72 41 66 42 65 43 30 45
REMARK SMILES IDX 56 46 39 47 55 48 40 49 43 50 54 51 70 52 41 53 42 54 53 56
REMARK SMILES IDX 71 57 44 58 31 59 32 60 37 61 33 62 34 63 36 64 38 65 35 66
REMARK SMILES IDX 57 67 58 68 63 69 59 70 60 71 62 72 64 73 61 74 45 75 46 76
REMARK SMILES IDX 51 77 47 78 48 79 50 80 52 81 49 82
REMARK H PARENT 7 15 69 44 43 55
REMARK Flexibility Score: inf
ROOT
ATOM      1  O   UNL A   1      32.092  30.315  25.804  1.00  0.00    -0.458 OA
ENDROOT
BRANCH   1   2
ATOM      2  C   UNL A   1      31.923  29.154  26.487  1.00  0.00     0.338 C 
ATOM      3  O   UNL A   1      31.565  29.040  27.643  1.00  0.00    -0.246 OA
BRANCH   2   4
ATOM      4  C   UNL A   1      32.216  27.984  25.611  1.00  0.00     0.061 A 
ATOM      5  C   UNL A   1      32.261  25.556  25.284  1.00  0.00     0.101 A 
ATOM      6  C   UNL A   1      31.940  26.687  26.071  1.00  0.00     0.039 A 
ATOM      7  C   UNL A   1      32.902  25.729  24.060  1.00  0.00     0.061 A 
ATOM      8  C   UNL A   1      33.166  27.028  23.601  1.00  0.00     0.023 A 
ATOM      9  Cl  UNL A   1      33.438  24.438  23.053  1.00  0.00    -0.083 Cl
ATOM     10  C   UNL A   1      32.823  28.148  24.364  1.00  0.00     0.017 A 
BRANCH   5  11
ATOM     11  S   UNL A   1      31.939  23.946  25.955  1.00  0.00     0.242 S 
ATOM     12  O   UNL A   1      31.161  23.224  24.970  1.00  0.00    -0.207 OA
ATOM     13  O   UNL A   1      31.393  24.126  27.282  1.00  0.00    -0.207 OA
BRANCH  11  14
ATOM     14  N   UNL A   1      33.390  23.090  26.125  1.00  0.00    -0.208 NA
ATOM     15  H   UNL A   1      34.131  23.784  26.030  1.00  0.00     0.141 HD
BRANCH  14  16
ATOM     16  C   UNL A   1      33.802  21.951  25.270  1.00  0.00     0.067 C 
ATOM     17  C   UNL A   1      35.330  22.047  25.142  1.00  0.00     0.025 C 
BRANCH  16  18
ATOM     18  C   UNL A   1      33.501  20.561  25.865  1.00  0.00     0.022 C 
BRANCH  18  19
ATOM     19  C   UNL A   1      33.299  19.425  24.871  1.00  0.00    -0.016 C 
ATOM     20  C   UNL A   1      32.653  18.219  25.528  1.00  0.00     0.007 C 
ATOM     21  C   UNL A   1      32.456  19.888  23.685  1.00  0.00     0.007 C 
ENDBRANCH  18  19
ENDBRANCH  16  18
ENDBRANCH  14  16
ENDBRANCH  11  14
ENDBRANCH   5  11
ENDBRANCH   2   4
ENDBRANCH   1   2
BRANCH   1  22
ATOM     22  C   UNL A   1      30.989  31.247  25.813  1.00  0.00     0.275 C 
BRANCH  22  23
ATOM     23  C   UNL A   1      31.426  32.615  26.337  1.00  0.00     0.275 C 
BRANCH  23  24
ATOM     24  O   UNL A   1      32.076  32.472  27.613  1.00  0.00    -0.458 OA
BRANCH  24  25
ATOM     25  C   UNL A   1      32.950  33.448  27.932  1.00  0.00     0.338 C 
ATOM     26  O   UNL A   1      32.711  34.616  28.190  1.00  0.00    -0.246 OA
BRANCH  25  27
ATOM     27  C   UNL A   1      34.296  32.871  28.052  1.00  0.00     0.060 A 
ATOM     28  C   UNL A   1      34.386  31.518  28.334  1.00  0.00     0.016 A 
ATOM     29  C   UNL A   1      35.440  33.668  28.075  1.00  0.00     0.016 A 
ATOM     30  C   UNL A   1      35.598  30.989  28.764  1.00  0.00     0.010 A 
ATOM     31  C   UNL A   1      36.675  33.104  28.449  1.00  0.00     0.010 A 
ATOM     32  C   UNL A   1      36.757  31.774  28.895  1.00  0.00    -0.014 A 
BRANCH  32  33
ATOM     33  C   UNL A   1      37.948  31.215  29.634  1.00  0.00     0.031 A 
ATOM     34  C   UNL A   1      38.183  31.527  31.107  1.00  0.00     0.074 A 
ATOM     35  C   UNL A   1      38.737  30.277  29.062  1.00  0.00     0.049 A 
ATOM     36  N   UNL A   1      39.133  31.093  31.906  1.00  0.00    -0.248 NA
ATOM     37  C   UNL A   1      37.218  32.412  31.781  1.00  0.00     0.031 C 
ATOM     38  C   UNL A   1      38.621  29.801  27.681  1.00  0.00     0.029 A 
ATOM     39  N   UNL A   1      39.753  29.506  29.583  1.00  0.00    -0.354 N 
ATOM     40  C   UNL A   1      38.881  31.652  33.155  1.00  0.00     0.074 A 
ATOM     41  C   UNL A   1      37.715  32.493  33.007  1.00  0.00     0.031 C 
ATOM     42  C   UNL A   1      39.444  28.759  27.501  1.00  0.00     0.029 A 
ATOM     43  C   UNL A   1      40.251  28.576  28.701  1.00  0.00     0.049 A 
ATOM     44  H   UNL A   1      40.092  29.613  30.502  1.00  0.00     0.167 HD
ATOM     45  C   UNL A   1      39.530  31.467  34.333  1.00  0.00     0.037 A 
ATOM     46  C   UNL A   1      41.272  27.699  28.802  1.00  0.00     0.037 A 
ATOM     47  C   UNL A   1      40.676  30.618  34.524  1.00  0.00     0.049 A 
ATOM     48  C   UNL A   1      42.083  27.648  30.064  1.00  0.00     0.074 A 
ATOM     49  C   UNL A   1      41.420  30.422  35.678  1.00  0.00     0.029 A 
ATOM     50  N   UNL A   1      41.242  29.819  33.547  1.00  0.00    -0.354 N 
ATOM     51  N   UNL A   1      41.874  28.253  31.206  1.00  0.00    -0.248 NA
ATOM     52  C   UNL A   1      43.296  26.817  30.036  1.00  0.00     0.031 C 
ATOM     53  C   UNL A   1      42.470  29.547  35.382  1.00  0.00     0.029 A 
ATOM     54  C   UNL A   1      42.349  29.157  34.060  1.00  0.00     0.049 A 
ATOM     55  H   UNL A   1      40.909  29.731  32.625  1.00  0.00     0.167 HD
ATOM     56  C   UNL A   1      42.926  27.874  32.031  1.00  0.00     0.074 A 
ATOM     57  C   UNL A   1      43.754  26.964  31.270  1.00  0.00     0.031 C 
ATOM     58  C   UNL A   1      43.182  28.259  33.305  1.00  0.00     0.037 A 
BRANCH  45  59
ATOM     59  C   UNL A   1      39.034  32.238  35.523  1.00  0.00     0.057 A 
ATOM     60  C   UNL A   1      38.229  31.650  36.507  1.00  0.00     0.134 A 
ATOM     61  C   UNL A   1      39.415  33.573  35.711  1.00  0.00     0.134 A 
ATOM     62  F   UNL A   1      37.818  30.379  36.381  1.00  0.00    -0.206 F 
ATOM     63  C   UNL A   1      37.810  32.369  37.629  1.00  0.00     0.040 A 
ATOM     64  C   UNL A   1      39.020  34.295  36.837  1.00  0.00     0.040 A 
ATOM     65  F   UNL A   1      40.194  34.190  34.809  1.00  0.00    -0.206 F 
ATOM     66  C   UNL A   1      38.211  33.694  37.800  1.00  0.00     0.006 A 
ENDBRANCH  45  59
BRANCH  46  67
ATOM     67  C   UNL A   1      41.650  26.861  27.632  1.00  0.00     0.057 A 
ATOM     68  C   UNL A   1      41.194  25.546  27.489  1.00  0.00     0.134 A 
ATOM     69  C   UNL A   1      42.504  27.356  26.636  1.00  0.00     0.134 A 
ATOM     70  F   UNL A   1      40.409  24.996  28.427  1.00  0.00    -0.206 F 
ATOM     71  C   UNL A   1      41.572  24.756  26.400  1.00  0.00     0.040 A 
ATOM     72  C   UNL A   1      42.859  26.593  25.524  1.00  0.00     0.040 A 
ATOM     73  F   UNL A   1      42.991  28.603  26.720  1.00  0.00    -0.206 F 
ATOM     74  C   UNL A   1      42.397  25.285  25.408  1.00  0.00     0.006 A 
ENDBRANCH  46  67
BRANCH  58  75
ATOM     75  C   UNL A   1      44.403  27.686  33.963  1.00  0.00     0.057 A 
ATOM     76  C   UNL A   1      44.362  26.469  34.657  1.00  0.00     0.134 A 
ATOM     77  C   UNL A   1      45.635  28.348  33.893  1.00  0.00     0.134 A 
ATOM     78  F   UNL A   1      43.210  25.791  34.774  1.00  0.00    -0.206 F 
ATOM     79  C   UNL A   1      45.495  25.946  35.282  1.00  0.00     0.040 A 
ATOM     80  C   UNL A   1      46.782  27.822  34.492  1.00  0.00     0.040 A 
ATOM     81  F   UNL A   1      45.747  29.512  33.238  1.00  0.00    -0.206 F 
ATOM     82  C   UNL A   1      46.712  26.621  35.196  1.00  0.00     0.006 A 
ENDBRANCH  58  75
ENDBRANCH  32  33
ENDBRANCH  25  27
ENDBRANCH  24  25
ENDBRANCH  23  24
ENDBRANCH  22  23
ENDBRANCH   1  22
TORSDOF 16
ENDMDL
