MODEL 1
REMARK VINA RESULT:     -10.0      0.000      0.000
REMARK SMILES Nc1cc(C(=O)OCCOC(=O)c2ccc(-c3c4nc(c(-c5c(F)cccc5F)c5ccc([nH]5)c(-c5c(F)cccc5F)c5nc(c(-c6c(F)cccc6F)c6ccc3[nH]6)C=C5)C=C4)cc2)nc2ccccc12
REMARK SMILES IDX 9 1 8 2 7 3 5 4 6 5 4 6 2 7 3 8 73 9 68 10 72 11 67 12 69 13
REMARK SMILES IDX 71 14 70 15 1 16 10 19 11 20 12 21 13 22 14 23 66 24 15 25
REMARK SMILES IDX 65 26 16 27 17 28 18 29 59 30 19 31 64 32 58 33 60 34 20 35
REMARK SMILES IDX 63 36 57 37 56 38 21 40 47 41 30 42 46 43 31 44 34 45 45 46
REMARK SMILES IDX 61 47 32 48 33 49 44 51 62 52 35 53 22 54 23 55 28 56 24 57
REMARK SMILES IDX 25 58 27 59 29 60 26 61 48 62 49 63 54 64 50 65 51 66 53 67
REMARK SMILES IDX 55 68 52 69 36 70 37 71 42 72 38 73 39 74 41 75 43 76 40 77
REMARK H PARENT 1 17 1 18 60 39 34 50
REMARK Flexibility Score: inf
ROOT
ATOM      1  C   UNL A   1      43.796  19.359  25.570  1.00  0.00     0.275 C 
ENDROOT
BRANCH   1   2
ATOM      2  C   UNL A   1      44.885  19.961  24.673  1.00  0.00     0.275 C 
BRANCH   2   3
ATOM      3  O   UNL A   1      45.214  21.314  25.050  1.00  0.00    -0.457 OA
BRANCH   3   4
ATOM      4  C   UNL A   1      44.981  22.264  24.104  1.00  0.00     0.357 C 
ATOM      5  O   UNL A   1      44.388  22.082  23.051  1.00  0.00    -0.244 OA
BRANCH   4   6
ATOM      6  C   UNL A   1      45.448  23.608  24.572  1.00  0.00     0.151 A 
ATOM      7  C   UNL A   1      47.092  25.138  25.382  1.00  0.00     0.043 A 
ATOM      8  C   UNL A   1      46.764  23.867  24.900  1.00  0.00     0.062 A 
ATOM      9  C   UNL A   1      46.069  26.114  25.538  1.00  0.00     0.023 A 
ATOM     10  C   UNL A   1      44.761  25.737  25.175  1.00  0.00     0.073 A 
ATOM     11  C   UNL A   1      46.263  27.425  26.042  1.00  0.00     0.012 A 
ATOM     12  N   UNL A   1      44.471  24.541  24.660  1.00  0.00    -0.241 NA
ATOM     13  C   UNL A   1      43.710  26.623  25.374  1.00  0.00     0.029 A 
ATOM     14  C   UNL A   1      45.192  28.303  26.230  1.00  0.00     0.001 A 
ATOM     15  C   UNL A   1      43.907  27.894  25.909  1.00  0.00     0.002 A 
BRANCH   7  16
ATOM     16  N   UNL A   1      48.431  25.420  25.644  1.00  0.00    -0.398 N 
ATOM     17  H   UNL A   1      48.669  26.145  26.267  1.00  0.00     0.156 HD
ATOM     18  H   UNL A   1      49.140  24.894  25.206  1.00  0.00     0.156 HD
ENDBRANCH   7  16
ENDBRANCH   4   6
ENDBRANCH   3   4
ENDBRANCH   2   3
ENDBRANCH   1   2
BRANCH   1  19
ATOM     19  O   UNL A   1      42.491  19.426  24.965  1.00  0.00    -0.458 OA
BRANCH  19  20
ATOM     20  C   UNL A   1      41.475  19.711  25.816  1.00  0.00     0.338 C 
ATOM     21  O   UNL A   1      40.519  19.006  26.081  1.00  0.00    -0.246 OA
BRANCH  20  22
ATOM     22  C   UNL A   1      41.762  20.983  26.505  1.00  0.00     0.060 A 
ATOM     23  C   UNL A   1      41.979  21.059  27.878  1.00  0.00     0.016 A 
ATOM     24  C   UNL A   1      41.854  22.130  25.720  1.00  0.00     0.016 A 
ATOM     25  C   UNL A   1      42.249  22.306  28.457  1.00  0.00     0.010 A 
ATOM     26  C   UNL A   1      42.149  23.363  26.286  1.00  0.00     0.010 A 
ATOM     27  C   UNL A   1      42.327  23.470  27.666  1.00  0.00    -0.014 A 
BRANCH  27  28
ATOM     28  C   UNL A   1      42.607  24.798  28.265  1.00  0.00     0.031 A 
ATOM     29  C   UNL A   1      44.004  25.177  28.677  1.00  0.00     0.074 A 
ATOM     30  C   UNL A   1      41.587  25.649  28.477  1.00  0.00     0.049 A 
ATOM     31  N   UNL A   1      44.448  26.320  29.138  1.00  0.00    -0.248 NA
ATOM     32  C   UNL A   1      45.034  24.131  28.583  1.00  0.00     0.031 C 
ATOM     33  C   UNL A   1      40.178  25.360  28.206  1.00  0.00     0.029 A 
ATOM     34  N   UNL A   1      41.579  26.933  28.959  1.00  0.00    -0.354 N 
ATOM     35  C   UNL A   1      45.805  26.135  29.372  1.00  0.00     0.074 A 
ATOM     36  C   UNL A   1      46.095  24.748  29.082  1.00  0.00     0.031 C 
ATOM     37  C   UNL A   1      39.449  26.456  28.468  1.00  0.00     0.029 A 
ATOM     38  C   UNL A   1      40.334  27.512  28.951  1.00  0.00     0.049 A 
ATOM     39  H   UNL A   1      42.388  27.394  29.280  1.00  0.00     0.167 HD
ATOM     40  C   UNL A   1      46.734  27.045  29.758  1.00  0.00     0.037 A 
ATOM     41  C   UNL A   1      39.956  28.761  29.277  1.00  0.00     0.037 A 
ATOM     42  C   UNL A   1      46.435  28.420  30.065  1.00  0.00     0.049 A 
ATOM     43  C   UNL A   1      41.000  29.748  29.723  1.00  0.00     0.074 A 
ATOM     44  C   UNL A   1      47.302  29.437  30.427  1.00  0.00     0.029 A 
ATOM     45  N   UNL A   1      45.160  28.968  30.058  1.00  0.00    -0.354 N 
ATOM     46  N   UNL A   1      42.297  29.590  29.840  1.00  0.00    -0.248 NA
ATOM     47  C   UNL A   1      40.524  31.093  30.068  1.00  0.00     0.031 C 
ATOM     48  C   UNL A   1      46.546  30.586  30.688  1.00  0.00     0.029 A 
ATOM     49  C   UNL A   1      45.214  30.303  30.430  1.00  0.00     0.049 A 
ATOM     50  H   UNL A   1      44.338  28.481  29.824  1.00  0.00     0.167 HD
ATOM     51  C   UNL A   1      42.795  30.823  30.239  1.00  0.00     0.074 A 
ATOM     52  C   UNL A   1      41.662  31.722  30.324  1.00  0.00     0.031 C 
ATOM     53  C   UNL A   1      44.075  31.182  30.512  1.00  0.00     0.037 A 
BRANCH  40  54
ATOM     54  C   UNL A   1      48.158  26.571  29.859  1.00  0.00     0.057 A 
ATOM     55  C   UNL A   1      48.591  25.803  30.947  1.00  0.00     0.134 A 
ATOM     56  C   UNL A   1      49.107  26.879  28.872  1.00  0.00     0.134 A 
ATOM     57  F   UNL A   1      47.745  25.481  31.936  1.00  0.00    -0.206 F 
ATOM     58  C   UNL A   1      49.909  25.349  31.043  1.00  0.00     0.040 A 
ATOM     59  C   UNL A   1      50.418  26.402  28.941  1.00  0.00     0.040 A 
ATOM     60  F   UNL A   1      48.761  27.606  27.800  1.00  0.00    -0.206 F 
ATOM     61  C   UNL A   1      50.823  25.638  30.032  1.00  0.00     0.006 A 
ENDBRANCH  40  54
BRANCH  41  62
ATOM     62  C   UNL A   1      38.537  29.173  29.139  1.00  0.00     0.057 A 
ATOM     63  C   UNL A   1      37.655  29.145  30.225  1.00  0.00     0.134 A 
ATOM     64  C   UNL A   1      38.036  29.627  27.912  1.00  0.00     0.134 A 
ATOM     65  F   UNL A   1      38.068  28.710  31.423  1.00  0.00    -0.206 F 
ATOM     66  C   UNL A   1      36.327  29.555  30.097  1.00  0.00     0.040 A 
ATOM     67  C   UNL A   1      36.719  30.068  27.778  1.00  0.00     0.040 A 
ATOM     68  F   UNL A   1      38.837  29.690  26.838  1.00  0.00    -0.206 F 
ATOM     69  C   UNL A   1      35.859  30.029  28.873  1.00  0.00     0.006 A 
ENDBRANCH  41  62
BRANCH  53  70
ATOM     70  C   UNL A   1      44.310  32.619  30.884  1.00  0.00     0.057 A 
ATOM     71  C   UNL A   1      44.274  33.021  32.226  1.00  0.00     0.134 A 
ATOM     72  C   UNL A   1      44.578  33.603  29.924  1.00  0.00     0.134 A 
ATOM     73  F   UNL A   1      44.012  32.133  33.197  1.00  0.00    -0.206 F 
ATOM     74  C   UNL A   1      44.504  34.345  32.599  1.00  0.00     0.040 A 
ATOM     75  C   UNL A   1      44.844  34.925  30.287  1.00  0.00     0.040 A 
ATOM     76  F   UNL A   1      44.642  33.285  28.622  1.00  0.00    -0.206 F 
ATOM     77  C   UNL A   1      44.804  35.299  31.629  1.00  0.00     0.006 A 
ENDBRANCH  53  70
ENDBRANCH  27  28
ENDBRANCH  20  22
ENDBRANCH  19  20
ENDBRANCH   1  19
TORSDOF 12
ENDMDL
MODEL 2
REMARK VINA RESULT:      -9.3      2.838      4.908
REMARK SMILES Nc1cc(C(=O)OCCOC(=O)c2ccc(-c3c4nc(c(-c5c(F)cccc5F)c5ccc([nH]5)c(-c5c(F)cccc5F)c5nc(c(-c6c(F)cccc6F)c6ccc3[nH]6)C=C5)C=C4)cc2)nc2ccccc12
REMARK SMILES IDX 9 1 8 2 7 3 5 4 6 5 4 6 2 7 3 8 73 9 68 10 72 11 67 12 69 13
REMARK SMILES IDX 71 14 70 15 1 16 10 19 11 20 12 21 13 22 14 23 66 24 15 25
REMARK SMILES IDX 65 26 16 27 17 28 18 29 59 30 19 31 64 32 58 33 60 34 20 35
REMARK SMILES IDX 63 36 57 37 56 38 21 40 47 41 30 42 46 43 31 44 34 45 45 46
REMARK SMILES IDX 61 47 32 48 33 49 44 51 62 52 35 53 22 54 23 55 28 56 24 57
REMARK SMILES IDX 25 58 27 59 29 60 26 61 48 62 49 63 54 64 50 65 51 66 53 67
REMARK SMILES IDX 55 68 52 69 36 70 37 71 42 72 38 73 39 74 41 75 43 76 40 77
REMARK H PARENT 1 17 1 18 60 39 34 50
REMARK Flexibility Score: inf
ROOT
ATOM      1  C   UNL A   1      43.403  18.356  25.616  1.00  0.00     0.275 C 
ENDROOT
BRANCH   1   2
ATOM      2  C   UNL A   1      42.357  18.852  26.623  1.00  0.00     0.275 C 
BRANCH   2   3
ATOM      3  O   UNL A   1      41.635  20.002  26.133  1.00  0.00    -0.457 OA
BRANCH   3   4
ATOM      4  C   UNL A   1      41.513  21.038  27.007  1.00  0.00     0.357 C 
ATOM      5  O   UNL A   1      42.305  21.310  27.897  1.00  0.00    -0.244 OA
BRANCH   4   6
ATOM      6  C   UNL A   1      40.326  21.886  26.665  1.00  0.00     0.151 A 
ATOM      7  C   UNL A   1      38.971  23.844  26.851  1.00  0.00     0.043 A 
ATOM      8  C   UNL A   1      40.140  23.152  27.185  1.00  0.00     0.062 A 
ATOM      9  C   UNL A   1      38.007  23.223  26.008  1.00  0.00     0.023 A 
ATOM     10  C   UNL A   1      38.301  21.928  25.540  1.00  0.00     0.073 A 
ATOM     11  C   UNL A   1      36.773  23.803  25.619  1.00  0.00     0.012 A 
ATOM     12  N   UNL A   1      39.446  21.302  25.818  1.00  0.00    -0.241 NA
ATOM     13  C   UNL A   1      37.365  21.245  24.774  1.00  0.00     0.029 A 
ATOM     14  C   UNL A   1      35.847  23.100  24.844  1.00  0.00     0.001 A 
ATOM     15  C   UNL A   1      36.138  21.809  24.434  1.00  0.00     0.002 A 
BRANCH   7  16
ATOM     16  N   UNL A   1      38.819  25.148  27.317  1.00  0.00    -0.398 N 
ATOM     17  H   UNL A   1      37.923  25.551  27.368  1.00  0.00     0.156 HD
ATOM     18  H   UNL A   1      39.609  25.666  27.596  1.00  0.00     0.156 HD
ENDBRANCH   7  16
ENDBRANCH   4   6
ENDBRANCH   3   4
ENDBRANCH   2   3
ENDBRANCH   1   2
BRANCH   1  19
ATOM     19  O   UNL A   1      43.579  19.270  24.517  1.00  0.00    -0.458 OA
BRANCH  19  20
ATOM     20  C   UNL A   1      44.855  19.669  24.296  1.00  0.00     0.338 C 
ATOM     21  O   UNL A   1      45.733  19.044  23.731  1.00  0.00    -0.246 OA
BRANCH  20  22
ATOM     22  C   UNL A   1      45.007  21.069  24.731  1.00  0.00     0.060 A 
ATOM     23  C   UNL A   1      44.767  22.148  23.884  1.00  0.00     0.016 A 
ATOM     24  C   UNL A   1      45.366  21.292  26.058  1.00  0.00     0.016 A 
ATOM     25  C   UNL A   1      44.931  23.450  24.376  1.00  0.00     0.010 A 
ATOM     26  C   UNL A   1      45.503  22.581  26.556  1.00  0.00     0.010 A 
ATOM     27  C   UNL A   1      45.310  23.677  25.713  1.00  0.00    -0.014 A 
BRANCH  27  28
ATOM     28  C   UNL A   1      45.492  25.049  26.247  1.00  0.00     0.031 A 
ATOM     29  C   UNL A   1      46.839  25.718  26.208  1.00  0.00     0.074 A 
ATOM     30  C   UNL A   1      44.442  25.678  26.807  1.00  0.00     0.049 A 
ATOM     31  N   UNL A   1      47.166  26.939  26.553  1.00  0.00    -0.248 NA
ATOM     32  C   UNL A   1      47.975  24.903  25.748  1.00  0.00     0.031 C 
ATOM     33  C   UNL A   1      43.110  25.099  26.986  1.00  0.00     0.029 A 
ATOM     34  N   UNL A   1      44.329  26.944  27.320  1.00  0.00    -0.354 N 
ATOM     35  C   UNL A   1      48.535  27.043  26.335  1.00  0.00     0.074 A 
ATOM     36  C   UNL A   1      48.991  25.738  25.910  1.00  0.00     0.031 C 
ATOM     37  C   UNL A   1      42.297  26.028  27.512  1.00  0.00     0.029 A 
ATOM     38  C   UNL A   1      43.056  27.255  27.732  1.00  0.00     0.049 A 
ATOM     39  H   UNL A   1      45.086  27.570  27.386  1.00  0.00     0.167 HD
ATOM     40  C   UNL A   1      49.333  28.133  26.443  1.00  0.00     0.037 A 
ATOM     41  C   UNL A   1      42.557  28.408  28.213  1.00  0.00     0.037 A 
ATOM     42  C   UNL A   1      48.875  29.426  26.886  1.00  0.00     0.049 A 
ATOM     43  C   UNL A   1      43.466  29.599  28.344  1.00  0.00     0.074 A 
ATOM     44  C   UNL A   1      49.587  30.608  26.996  1.00  0.00     0.029 A 
ATOM     45  N   UNL A   1      47.581  29.700  27.307  1.00  0.00    -0.354 N 
ATOM     46  N   UNL A   1      44.736  29.714  28.037  1.00  0.00    -0.248 NA
ATOM     47  C   UNL A   1      42.862  30.826  28.879  1.00  0.00     0.031 C 
ATOM     48  C   UNL A   1      48.737  31.583  27.531  1.00  0.00     0.029 A 
ATOM     49  C   UNL A   1      47.480  31.026  27.699  1.00  0.00     0.049 A 
ATOM     50  H   UNL A   1      46.844  29.048  27.327  1.00  0.00     0.167 HD
ATOM     51  C   UNL A   1      45.074  31.033  28.308  1.00  0.00     0.074 A 
ATOM     52  C   UNL A   1      43.870  31.682  28.786  1.00  0.00     0.031 C 
ATOM     53  C   UNL A   1      46.273  31.655  28.175  1.00  0.00     0.037 A 
BRANCH  40  54
ATOM     54  C   UNL A   1      50.779  27.965  26.066  1.00  0.00     0.057 A 
ATOM     55  C   UNL A   1      51.755  27.703  27.036  1.00  0.00     0.134 A 
ATOM     56  C   UNL A   1      51.209  28.065  24.734  1.00  0.00     0.134 A 
ATOM     57  F   UNL A   1      51.423  27.608  28.332  1.00  0.00    -0.206 F 
ATOM     58  C   UNL A   1      53.099  27.534  26.693  1.00  0.00     0.040 A 
ATOM     59  C   UNL A   1      52.544  27.865  24.377  1.00  0.00     0.040 A 
ATOM     60  F   UNL A   1      50.328  28.310  23.753  1.00  0.00    -0.206 F 
ATOM     61  C   UNL A   1      53.494  27.602  25.359  1.00  0.00     0.006 A 
ENDBRANCH  40  54
BRANCH  41  62
ATOM     62  C   UNL A   1      41.116  28.516  28.550  1.00  0.00     0.057 A 
ATOM     63  C   UNL A   1      40.169  28.921  27.603  1.00  0.00     0.134 A 
ATOM     64  C   UNL A   1      40.650  28.194  29.831  1.00  0.00     0.134 A 
ATOM     65  F   UNL A   1      40.550  29.255  26.362  1.00  0.00    -0.206 F 
ATOM     66  C   UNL A   1      38.811  28.999  27.916  1.00  0.00     0.040 A 
ATOM     67  C   UNL A   1      39.292  28.239  30.149  1.00  0.00     0.040 A 
ATOM     68  F   UNL A   1      41.508  27.785  30.777  1.00  0.00    -0.206 F 
ATOM     69  C   UNL A   1      38.368  28.647  29.189  1.00  0.00     0.006 A 
ENDBRANCH  41  62
BRANCH  53  70
ATOM     70  C   UNL A   1      46.318  33.119  28.512  1.00  0.00     0.057 A 
ATOM     71  C   UNL A   1      46.627  33.539  29.813  1.00  0.00     0.134 A 
ATOM     72  C   UNL A   1      46.065  34.112  27.557  1.00  0.00     0.134 A 
ATOM     73  F   UNL A   1      46.870  32.642  30.780  1.00  0.00    -0.206 F 
ATOM     74  C   UNL A   1      46.691  34.892  30.148  1.00  0.00     0.040 A 
ATOM     75  C   UNL A   1      46.159  35.468  27.872  1.00  0.00     0.040 A 
ATOM     76  F   UNL A   1      45.778  33.779  26.289  1.00  0.00    -0.206 F 
ATOM     77  C   UNL A   1      46.469  35.861  29.173  1.00  0.00     0.006 A 
ENDBRANCH  53  70
ENDBRANCH  27  28
ENDBRANCH  20  22
ENDBRANCH  19  20
ENDBRANCH   1  19
TORSDOF 12
ENDMDL
MODEL 3
REMARK VINA RESULT:      -9.2      2.043      3.547
REMARK SMILES Nc1cc(C(=O)OCCOC(=O)c2ccc(-c3c4nc(c(-c5c(F)cccc5F)c5ccc([nH]5)c(-c5c(F)cccc5F)c5nc(c(-c6c(F)cccc6F)c6ccc3[nH]6)C=C5)C=C4)cc2)nc2ccccc12
REMARK SMILES IDX 9 1 8 2 7 3 5 4 6 5 4 6 2 7 3 8 73 9 68 10 72 11 67 12 69 13
REMARK SMILES IDX 71 14 70 15 1 16 10 19 11 20 12 21 13 22 14 23 66 24 15 25
REMARK SMILES IDX 65 26 16 27 17 28 18 29 59 30 19 31 64 32 58 33 60 34 20 35
REMARK SMILES IDX 63 36 57 37 56 38 21 40 47 41 30 42 46 43 31 44 34 45 45 46
REMARK SMILES IDX 61 47 32 48 33 49 44 51 62 52 35 53 22 54 23 55 28 56 24 57
REMARK SMILES IDX 25 58 27 59 29 60 26 61 48 62 49 63 54 64 50 65 51 66 53 67
REMARK SMILES IDX 55 68 52 69 36 70 37 71 42 72 38 73 39 74 41 75 43 76 40 77
REMARK H PARENT 1 17 1 18 60 39 34 50
REMARK Flexibility Score: inf
ROOT
ATOM      1  C   UNL A   1      40.772  20.004  26.721  1.00  0.00     0.275 C 
ENDROOT
BRANCH   1   2
ATOM      2  C   UNL A   1      42.291  19.804  26.630  1.00  0.00     0.275 C 
BRANCH   2   3
ATOM      3  O   UNL A   1      42.818  20.224  25.353  1.00  0.00    -0.457 OA
BRANCH   3   4
ATOM      4  C   UNL A   1      44.130  20.585  25.347  1.00  0.00     0.357 C 
ATOM      5  O   UNL A   1      45.076  19.814  25.288  1.00  0.00    -0.244 OA
BRANCH   4   6
ATOM      6  C   UNL A   1      44.271  22.076  25.304  1.00  0.00     0.151 A 
ATOM      7  C   UNL A   1      43.428  24.298  25.074  1.00  0.00     0.043 A 
ATOM      8  C   UNL A   1      43.190  22.923  25.161  1.00  0.00     0.062 A 
ATOM      9  C   UNL A   1      44.766  24.781  25.116  1.00  0.00     0.023 A 
ATOM     10  C   UNL A   1      45.790  23.825  25.260  1.00  0.00     0.073 A 
ATOM     11  C   UNL A   1      45.144  26.144  25.008  1.00  0.00     0.012 A 
ATOM     12  N   UNL A   1      45.546  22.521  25.401  1.00  0.00    -0.241 NA
ATOM     13  C   UNL A   1      47.119  24.230  25.232  1.00  0.00     0.029 A 
ATOM     14  C   UNL A   1      46.487  26.531  24.987  1.00  0.00     0.001 A 
ATOM     15  C   UNL A   1      47.478  25.568  25.084  1.00  0.00     0.002 A 
BRANCH   7  16
ATOM     16  N   UNL A   1      42.333  25.156  25.004  1.00  0.00    -0.398 N 
ATOM     17  H   UNL A   1      42.393  25.991  24.486  1.00  0.00     0.156 HD
ATOM     18  H   UNL A   1      41.497  24.926  25.472  1.00  0.00     0.156 HD
ENDBRANCH   7  16
ENDBRANCH   4   6
ENDBRANCH   3   4
ENDBRANCH   2   3
ENDBRANCH   1   2
BRANCH   1  19
ATOM     19  O   UNL A   1      40.421  21.192  27.455  1.00  0.00    -0.458 OA
BRANCH  19  20
ATOM     20  C   UNL A   1      39.654  22.082  26.780  1.00  0.00     0.338 C 
ATOM     21  O   UNL A   1      38.735  21.833  26.022  1.00  0.00    -0.246 OA
BRANCH  20  22
ATOM     22  C   UNL A   1      40.007  23.448  27.207  1.00  0.00     0.060 A 
ATOM     23  C   UNL A   1      39.289  24.570  26.800  1.00  0.00     0.016 A 
ATOM     24  C   UNL A   1      41.080  23.588  28.083  1.00  0.00     0.016 A 
ATOM     25  C   UNL A   1      39.687  25.835  27.253  1.00  0.00     0.010 A 
ATOM     26  C   UNL A   1      41.461  24.837  28.555  1.00  0.00     0.010 A 
ATOM     27  C   UNL A   1      40.783  25.979  28.126  1.00  0.00    -0.014 A 
BRANCH  27  28
ATOM     28  C   UNL A   1      41.220  27.312  28.610  1.00  0.00     0.031 A 
ATOM     29  C   UNL A   1      42.669  27.713  28.560  1.00  0.00     0.074 A 
ATOM     30  C   UNL A   1      40.306  28.148  29.137  1.00  0.00     0.049 A 
ATOM     31  N   UNL A   1      43.219  28.863  28.862  1.00  0.00    -0.248 NA
ATOM     32  C   UNL A   1      43.631  26.682  28.140  1.00  0.00     0.031 C 
ATOM     33  C   UNL A   1      38.888  27.837  29.326  1.00  0.00     0.029 A 
ATOM     34  N   UNL A   1      40.433  29.431  29.603  1.00  0.00    -0.354 N 
ATOM     35  C   UNL A   1      44.584  28.699  28.653  1.00  0.00     0.074 A 
ATOM     36  C   UNL A   1      44.786  27.316  28.280  1.00  0.00     0.031 C 
ATOM     37  C   UNL A   1      38.264  28.922  29.809  1.00  0.00     0.029 A 
ATOM     38  C   UNL A   1      39.241  29.992  29.991  1.00  0.00     0.049 A 
ATOM     39  H   UNL A   1      41.294  29.905  29.653  1.00  0.00     0.167 HD
ATOM     40  C   UNL A   1      45.573  29.623  28.728  1.00  0.00     0.037 A 
ATOM     41  C   UNL A   1      38.967  31.235  30.425  1.00  0.00     0.037 A 
ATOM     42  C   UNL A   1      45.366  30.994  29.118  1.00  0.00     0.049 A 
ATOM     43  C   UNL A   1      40.084  32.239  30.520  1.00  0.00     0.074 A 
ATOM     44  C   UNL A   1      46.288  32.024  29.191  1.00  0.00     0.029 A 
ATOM     45  N   UNL A   1      44.147  31.523  29.518  1.00  0.00    -0.354 N 
ATOM     46  N   UNL A   1      41.353  32.101  30.221  1.00  0.00    -0.248 NA
ATOM     47  C   UNL A   1      39.721  33.577  31.004  1.00  0.00     0.031 C 
ATOM     48  C   UNL A   1      45.636  33.162  29.683  1.00  0.00     0.029 A 
ATOM     49  C   UNL A   1      44.296  32.858  29.859  1.00  0.00     0.049 A 
ATOM     50  H   UNL A   1      43.300  31.023  29.554  1.00  0.00     0.167 HD
ATOM     51  C   UNL A   1      41.934  33.342  30.446  1.00  0.00     0.074 A 
ATOM     52  C   UNL A   1      40.872  34.223  30.889  1.00  0.00     0.031 C 
ATOM     53  C   UNL A   1      43.228  33.721  30.301  1.00  0.00     0.037 A 
BRANCH  40  54
ATOM     54  C   UNL A   1      46.962  29.171  28.371  1.00  0.00     0.057 A 
ATOM     55  C   UNL A   1      47.448  29.286  27.062  1.00  0.00     0.134 A 
ATOM     56  C   UNL A   1      47.825  28.617  29.328  1.00  0.00     0.134 A 
ATOM     57  F   UNL A   1      46.676  29.793  26.089  1.00  0.00    -0.206 F 
ATOM     58  C   UNL A   1      48.741  28.879  26.723  1.00  0.00     0.040 A 
ATOM     59  C   UNL A   1      49.130  28.238  29.008  1.00  0.00     0.040 A 
ATOM     60  F   UNL A   1      47.428  28.480  30.602  1.00  0.00    -0.206 F 
ATOM     61  C   UNL A   1      49.590  28.366  27.701  1.00  0.00     0.006 A 
ENDBRANCH  40  54
BRANCH  41  62
ATOM     62  C   UNL A   1      37.571  31.626  30.744  1.00  0.00     0.057 A 
ATOM     63  C   UNL A   1      36.685  32.060  29.752  1.00  0.00     0.134 A 
ATOM     64  C   UNL A   1      37.086  31.553  32.056  1.00  0.00     0.134 A 
ATOM     65  F   UNL A   1      37.090  32.164  28.479  1.00  0.00    -0.206 F 
ATOM     66  C   UNL A   1      35.366  32.404  30.053  1.00  0.00     0.040 A 
ATOM     67  C   UNL A   1      35.761  31.865  32.365  1.00  0.00     0.040 A 
ATOM     68  F   UNL A   1      37.884  31.129  33.048  1.00  0.00    -0.206 F 
ATOM     69  C   UNL A   1      34.898  32.296  31.361  1.00  0.00     0.006 A 
ENDBRANCH  41  62
BRANCH  53  70
ATOM     70  C   UNL A   1      43.548  35.162  30.584  1.00  0.00     0.057 A 
ATOM     71  C   UNL A   1      43.496  36.116  29.559  1.00  0.00     0.134 A 
ATOM     72  C   UNL A   1      43.901  35.608  31.864  1.00  0.00     0.134 A 
ATOM     73  F   UNL A   1      43.176  35.756  28.308  1.00  0.00    -0.206 F 
ATOM     74  C   UNL A   1      43.774  37.462  29.800  1.00  0.00     0.040 A 
ATOM     75  C   UNL A   1      44.147  36.958  32.124  1.00  0.00     0.040 A 
ATOM     76  F   UNL A   1      43.956  34.750  32.894  1.00  0.00    -0.206 F 
ATOM     77  C   UNL A   1      44.087  37.888  31.088  1.00  0.00     0.006 A 
ENDBRANCH  53  70
ENDBRANCH  27  28
ENDBRANCH  20  22
ENDBRANCH  19  20
ENDBRANCH   1  19
TORSDOF 12
ENDMDL
