MODEL 1
REMARK VINA RESULT:     -12.4      0.000      0.000
REMARK SMILES Cc1ccc(C(=O)N2CCC3(CCC(=O)N(CC(=O)OCCOC(=O)c4ccc(-c5c6nc(c(-c7c(F)cccc7F)c7ccc([nH]7)c(-c7c(F)cccc7F)c7nc(c(-c8c(F)cccc8F)c8ccc5[nH]8)C=C7)C=C6)cc4)C3)CC2)cc1O
REMARK SMILES IDX 21 1 20 2 18 3 19 4 17 5 16 6 6 7 7 8 8 9 9 10 82 11 10 12
REMARK SMILES IDX 81 13 11 14 12 15 80 16 13 17 14 18 15 19 5 20 1 21 2 22
REMARK SMILES IDX 3 23 84 24 4 25 83 26 85 27 22 29 23 30 24 31 25 32 26 33
REMARK SMILES IDX 27 34 79 35 28 36 78 37 29 38 30 39 31 40 72 41 32 42 77 43
REMARK SMILES IDX 71 44 73 45 33 46 76 47 70 48 69 49 34 51 60 52 43 53 59 54
REMARK SMILES IDX 44 55 47 56 58 57 74 58 45 59 46 60 57 62 75 63 48 64 35 65
REMARK SMILES IDX 36 66 41 67 37 68 38 69 40 70 42 71 39 72 61 73 62 74 67 75
REMARK SMILES IDX 63 76 64 77 66 78 68 79 65 80 49 81 50 82 55 83 51 84 52 85
REMARK SMILES IDX 54 86 56 87 53 88
REMARK H PARENT 85 28 73 50 47 61
REMARK Flexibility Score: inf
ROOT
ATOM      1  C   UNL A   1      39.525  21.550  26.055  1.00  0.00     0.274 C 
ENDROOT
BRANCH   1   2
ATOM      2  O   UNL A   1      38.143  21.903  25.861  1.00  0.00    -0.461 OA
BRANCH   2   3
ATOM      3  C   UNL A   1      37.446  21.099  25.026  1.00  0.00     0.325 C 
ATOM      4  O   UNL A   1      37.778  19.961  24.702  1.00  0.00    -0.250 OA
BRANCH   3   5
ATOM      5  C   UNL A   1      36.157  21.722  24.500  1.00  0.00     0.242 C 
BRANCH   5   6
ATOM      6  N   UNL A   1      34.890  21.540  25.205  1.00  0.00    -0.331 N 
ATOM      7  C   UNL A   1      32.393  27.387  24.011  1.00  0.00     0.253 C 
ATOM      8  O   UNL A   1      32.330  27.855  22.877  1.00  0.00    -0.269 OA
ATOM      9  N   UNL A   1      32.327  26.021  24.257  1.00  0.00    -0.339 N 
ATOM     10  C   UNL A   1      32.793  25.101  23.236  1.00  0.00     0.120 C 
ATOM     11  C   UNL A   1      31.621  25.413  25.375  1.00  0.00     0.120 C 
ATOM     12  C   UNL A   1      33.778  24.121  23.876  1.00  0.00     0.030 C 
ATOM     13  C   UNL A   1      32.485  24.362  26.064  1.00  0.00     0.030 C 
ATOM     14  C   UNL A   1      33.179  23.362  25.095  1.00  0.00    -0.008 C 
ATOM     15  C   UNL A   1      32.175  22.269  24.650  1.00  0.00     0.019 C 
ATOM     16  C   UNL A   1      34.301  22.666  25.898  1.00  0.00     0.127 C 
ATOM     17  C   UNL A   1      32.843  21.073  23.982  1.00  0.00     0.101 C 
ATOM     18  C   UNL A   1      34.047  20.545  24.737  1.00  0.00     0.223 C 
ATOM     19  O   UNL A   1      34.357  19.361  24.711  1.00  0.00    -0.275 OA
BRANCH   7  20
ATOM     20  C   UNL A   1      32.723  28.305  25.137  1.00  0.00     0.043 A 
ATOM     21  C   UNL A   1      34.020  31.358  27.910  1.00  0.00     0.048 C 
ATOM     22  C   UNL A   1      33.528  30.291  26.976  1.00  0.00    -0.009 A 
ATOM     23  C   UNL A   1      34.336  29.173  26.734  1.00  0.00     0.008 A 
ATOM     24  C   UNL A   1      32.315  30.396  26.281  1.00  0.00     0.119 A 
ATOM     25  C   UNL A   1      33.946  28.200  25.810  1.00  0.00     0.014 A 
ATOM     26  C   UNL A   1      31.907  29.412  25.378  1.00  0.00     0.060 A 
BRANCH  24  27
ATOM     27  O   UNL A   1      31.484  31.473  26.413  1.00  0.00    -0.508 OA
ATOM     28  H   UNL A   1      31.707  32.167  27.000  1.00  0.00     0.293 HD
ENDBRANCH  24  27
ENDBRANCH   7  20
ENDBRANCH   5   6
ENDBRANCH   3   5
ENDBRANCH   2   3
ENDBRANCH   1   2
BRANCH   1  29
ATOM     29  C   UNL A   1      40.222  22.595  26.926  1.00  0.00     0.275 C 
BRANCH  29  30
ATOM     30  O   UNL A   1      39.695  23.901  26.623  1.00  0.00    -0.458 OA
BRANCH  30  31
ATOM     31  C   UNL A   1      40.618  24.876  26.469  1.00  0.00     0.338 C 
ATOM     32  O   UNL A   1      41.583  24.886  25.727  1.00  0.00    -0.246 OA
BRANCH  31  33
ATOM     33  C   UNL A   1      40.377  25.951  27.445  1.00  0.00     0.060 A 
ATOM     34  C   UNL A   1      41.113  27.138  27.434  1.00  0.00     0.016 A 
ATOM     35  C   UNL A   1      39.457  25.698  28.466  1.00  0.00     0.016 A 
ATOM     36  C   UNL A   1      40.975  28.047  28.485  1.00  0.00     0.010 A 
ATOM     37  C   UNL A   1      39.278  26.633  29.483  1.00  0.00     0.010 A 
ATOM     38  C   UNL A   1      40.060  27.798  29.520  1.00  0.00    -0.014 A 
BRANCH  38  39
ATOM     39  C   UNL A   1      39.921  28.738  30.659  1.00  0.00     0.031 A 
ATOM     40  C   UNL A   1      38.912  29.851  30.603  1.00  0.00     0.074 A 
ATOM     41  C   UNL A   1      40.730  28.611  31.728  1.00  0.00     0.049 A 
ATOM     42  N   UNL A   1      38.734  30.848  31.432  1.00  0.00    -0.248 NA
ATOM     43  C   UNL A   1      37.986  29.849  29.458  1.00  0.00     0.031 C 
ATOM     44  C   UNL A   1      41.745  27.571  31.901  1.00  0.00     0.029 A 
ATOM     45  N   UNL A   1      40.833  29.373  32.864  1.00  0.00    -0.354 N 
ATOM     46  C   UNL A   1      37.704  31.609  30.894  1.00  0.00     0.074 A 
ATOM     47  C   UNL A   1      37.296  30.962  29.665  1.00  0.00     0.031 C 
ATOM     48  C   UNL A   1      42.365  27.756  33.076  1.00  0.00     0.029 A 
ATOM     49  C   UNL A   1      41.829  28.955  33.712  1.00  0.00     0.049 A 
ATOM     50  H   UNL A   1      40.251  30.144  33.053  1.00  0.00     0.167 HD
ATOM     51  C   UNL A   1      37.151  32.744  31.383  1.00  0.00     0.037 A 
ATOM     52  C   UNL A   1      42.281  29.495  34.859  1.00  0.00     0.037 A 
ATOM     53  C   UNL A   1      37.533  33.366  32.624  1.00  0.00     0.049 A 
ATOM     54  C   UNL A   1      41.651  30.755  35.377  1.00  0.00     0.074 A 
ATOM     55  C   UNL A   1      37.004  34.497  33.221  1.00  0.00     0.029 A 
ATOM     56  N   UNL A   1      38.537  32.903  33.460  1.00  0.00    -0.354 N 
ATOM     57  N   UNL A   1      40.676  31.463  34.860  1.00  0.00    -0.248 NA
ATOM     58  C   UNL A   1      42.186  31.296  36.634  1.00  0.00     0.031 C 
ATOM     59  C   UNL A   1      37.707  34.734  34.408  1.00  0.00     0.029 A 
ATOM     60  C   UNL A   1      38.652  33.733  34.562  1.00  0.00     0.049 A 
ATOM     61  H   UNL A   1      39.086  32.103  33.295  1.00  0.00     0.167 HD
ATOM     62  C   UNL A   1      40.476  32.525  35.730  1.00  0.00     0.074 A 
ATOM     63  C   UNL A   1      41.418  32.360  36.818  1.00  0.00     0.031 C 
ATOM     64  C   UNL A   1      39.594  33.550  35.634  1.00  0.00     0.037 A 
BRANCH  51  65
ATOM     65  C   UNL A   1      36.079  33.405  30.571  1.00  0.00     0.057 A 
ATOM     66  C   UNL A   1      34.737  33.397  30.970  1.00  0.00     0.134 A 
ATOM     67  C   UNL A   1      36.405  34.113  29.406  1.00  0.00     0.134 A 
ATOM     68  F   UNL A   1      34.359  32.726  32.069  1.00  0.00    -0.206 F 
ATOM     69  C   UNL A   1      33.755  34.065  30.236  1.00  0.00     0.040 A 
ATOM     70  C   UNL A   1      35.435  34.799  28.674  1.00  0.00     0.040 A 
ATOM     71  F   UNL A   1      37.674  34.162  28.973  1.00  0.00    -0.206 F 
ATOM     72  C   UNL A   1      34.105  34.776  29.088  1.00  0.00     0.006 A 
ENDBRANCH  51  65
BRANCH  52  73
ATOM     73  C   UNL A   1      43.408  28.856  35.579  1.00  0.00     0.057 A 
ATOM     74  C   UNL A   1      44.728  29.258  35.359  1.00  0.00     0.134 A 
ATOM     75  C   UNL A   1      43.187  27.834  36.510  1.00  0.00     0.134 A 
ATOM     76  F   UNL A   1      45.001  30.218  34.463  1.00  0.00    -0.206 F 
ATOM     77  C   UNL A   1      45.794  28.660  36.032  1.00  0.00     0.040 A 
ATOM     78  C   UNL A   1      44.241  27.243  37.207  1.00  0.00     0.040 A 
ATOM     79  F   UNL A   1      41.942  27.408  36.767  1.00  0.00    -0.206 F 
ATOM     80  C   UNL A   1      45.551  27.653  36.964  1.00  0.00     0.006 A 
ENDBRANCH  52  73
BRANCH  64  81
ATOM     81  C   UNL A   1      39.601  34.554  36.743  1.00  0.00     0.057 A 
ATOM     82  C   UNL A   1      38.880  34.346  37.924  1.00  0.00     0.134 A 
ATOM     83  C   UNL A   1      40.359  35.728  36.639  1.00  0.00     0.134 A 
ATOM     84  F   UNL A   1      38.125  33.247  38.075  1.00  0.00    -0.206 F 
ATOM     85  C   UNL A   1      38.896  35.282  38.959  1.00  0.00     0.040 A 
ATOM     86  C   UNL A   1      40.396  36.662  37.674  1.00  0.00     0.040 A 
ATOM     87  F   UNL A   1      41.074  35.981  35.533  1.00  0.00    -0.206 F 
ATOM     88  C   UNL A   1      39.660  36.441  38.837  1.00  0.00     0.006 A 
ENDBRANCH  64  81
ENDBRANCH  38  39
ENDBRANCH  31  33
ENDBRANCH  30  31
ENDBRANCH  29  30
ENDBRANCH   1  29
TORSDOF 14
ENDMDL
MODEL 2
REMARK VINA RESULT:     -12.3      0.519      6.033
REMARK SMILES Cc1ccc(C(=O)N2CCC3(CCC(=O)N(CC(=O)OCCOC(=O)c4ccc(-c5c6nc(c(-c7c(F)cccc7F)c7ccc([nH]7)c(-c7c(F)cccc7F)c7nc(c(-c8c(F)cccc8F)c8ccc5[nH]8)C=C7)C=C6)cc4)C3)CC2)cc1O
REMARK SMILES IDX 21 1 20 2 18 3 19 4 17 5 16 6 6 7 7 8 8 9 9 10 82 11 10 12
REMARK SMILES IDX 81 13 11 14 12 15 80 16 13 17 14 18 15 19 5 20 1 21 2 22
REMARK SMILES IDX 3 23 84 24 4 25 83 26 85 27 22 29 23 30 24 31 25 32 26 33
REMARK SMILES IDX 27 34 79 35 28 36 78 37 29 38 30 39 31 40 72 41 32 42 77 43
REMARK SMILES IDX 71 44 73 45 33 46 76 47 70 48 69 49 34 51 60 52 43 53 59 54
REMARK SMILES IDX 44 55 47 56 58 57 74 58 45 59 46 60 57 62 75 63 48 64 35 65
REMARK SMILES IDX 36 66 41 67 37 68 38 69 40 70 42 71 39 72 61 73 62 74 67 75
REMARK SMILES IDX 63 76 64 77 66 78 68 79 65 80 49 81 50 82 55 83 51 84 52 85
REMARK SMILES IDX 54 86 56 87 53 88
REMARK H PARENT 85 28 73 50 47 61
REMARK Flexibility Score: inf
ROOT
ATOM      1  C   UNL A   1      39.081  21.463  25.732  1.00  0.00     0.274 C 
ENDROOT
BRANCH   1   2
ATOM      2  O   UNL A   1      37.694  21.827  25.601  1.00  0.00    -0.461 OA
BRANCH   2   3
ATOM      3  C   UNL A   1      36.884  20.872  25.088  1.00  0.00     0.325 C 
ATOM      4  O   UNL A   1      37.171  19.682  24.993  1.00  0.00    -0.250 OA
BRANCH   3   5
ATOM      5  C   UNL A   1      35.528  21.395  24.626  1.00  0.00     0.242 C 
BRANCH   5   6
ATOM      6  N   UNL A   1      34.352  21.303  25.489  1.00  0.00    -0.331 N 
ATOM      7  C   UNL A   1      31.980  27.211  24.348  1.00  0.00     0.253 C 
ATOM      8  O   UNL A   1      31.796  27.637  23.210  1.00  0.00    -0.269 OA
ATOM      9  N   UNL A   1      31.886  25.860  24.661  1.00  0.00    -0.339 N 
ATOM     10  C   UNL A   1      32.181  24.879  23.633  1.00  0.00     0.120 C 
ATOM     11  C   UNL A   1      31.299  25.332  25.884  1.00  0.00     0.120 C 
ATOM     12  C   UNL A   1      33.195  23.879  24.191  1.00  0.00     0.030 C 
ATOM     13  C   UNL A   1      32.196  24.269  26.508  1.00  0.00     0.030 C 
ATOM     14  C   UNL A   1      32.721  23.199  25.507  1.00  0.00    -0.008 C 
ATOM     15  C   UNL A   1      31.623  22.139  25.238  1.00  0.00     0.019 C 
ATOM     16  C   UNL A   1      33.903  22.481  26.197  1.00  0.00     0.127 C 
ATOM     17  C   UNL A   1      32.151  20.886  24.548  1.00  0.00     0.101 C 
ATOM     18  C   UNL A   1      33.415  20.331  25.172  1.00  0.00     0.223 C 
ATOM     19  O   UNL A   1      33.668  19.133  25.162  1.00  0.00    -0.275 OA
BRANCH   7  20
ATOM     20  C   UNL A   1      32.487  28.156  25.383  1.00  0.00     0.043 A 
ATOM     21  C   UNL A   1      34.292  31.219  27.842  1.00  0.00     0.048 C 
ATOM     22  C   UNL A   1      33.625  30.155  27.020  1.00  0.00    -0.009 A 
ATOM     23  C   UNL A   1      34.299  28.948  26.794  1.00  0.00     0.008 A 
ATOM     24  C   UNL A   1      32.377  30.341  26.411  1.00  0.00     0.119 A 
ATOM     25  C   UNL A   1      33.744  27.967  25.969  1.00  0.00     0.014 A 
ATOM     26  C   UNL A   1      31.804  29.352  25.609  1.00  0.00     0.060 A 
BRANCH  24  27
ATOM     27  O   UNL A   1      31.667  31.503  26.532  1.00  0.00    -0.508 OA
ATOM     28  H   UNL A   1      31.765  32.180  25.892  1.00  0.00     0.293 HD
ENDBRANCH  24  27
ENDBRANCH   7  20
ENDBRANCH   5   6
ENDBRANCH   3   5
ENDBRANCH   2   3
ENDBRANCH   1   2
BRANCH   1  29
ATOM     29  C   UNL A   1      39.728  22.239  26.878  1.00  0.00     0.275 C 
BRANCH  29  30
ATOM     30  O   UNL A   1      39.477  23.647  26.706  1.00  0.00    -0.458 OA
BRANCH  30  31
ATOM     31  C   UNL A   1      40.578  24.421  26.586  1.00  0.00     0.338 C 
ATOM     32  O   UNL A   1      41.594  24.188  25.956  1.00  0.00    -0.246 OA
BRANCH  31  33
ATOM     33  C   UNL A   1      40.453  25.607  27.449  1.00  0.00     0.060 A 
ATOM     34  C   UNL A   1      41.319  26.696  27.339  1.00  0.00     0.016 A 
ATOM     35  C   UNL A   1      39.500  25.560  28.470  1.00  0.00     0.016 A 
ATOM     36  C   UNL A   1      41.277  27.712  28.295  1.00  0.00     0.010 A 
ATOM     37  C   UNL A   1      39.420  26.604  29.389  1.00  0.00     0.010 A 
ATOM     38  C   UNL A   1      40.329  27.671  29.331  1.00  0.00    -0.014 A 
BRANCH  38  39
ATOM     39  C   UNL A   1      40.288  28.727  30.371  1.00  0.00     0.031 A 
ATOM     40  C   UNL A   1      41.205  28.652  31.561  1.00  0.00     0.074 A 
ATOM     41  C   UNL A   1      39.400  29.732  30.264  1.00  0.00     0.049 A 
ATOM     42  N   UNL A   1      41.227  29.397  32.636  1.00  0.00    -0.248 NA
ATOM     43  C   UNL A   1      42.227  27.592  31.545  1.00  0.00     0.031 C 
ATOM     44  C   UNL A   1      38.461  29.916  29.157  1.00  0.00     0.029 A 
ATOM     45  N   UNL A   1      39.133  30.781  31.107  1.00  0.00    -0.354 N 
ATOM     46  C   UNL A   1      42.236  28.878  33.438  1.00  0.00     0.074 A 
ATOM     47  C   UNL A   1      42.804  27.752  32.728  1.00  0.00     0.031 C 
ATOM     48  C   UNL A   1      37.724  31.014  29.386  1.00  0.00     0.029 A 
ATOM     49  C   UNL A   1      38.102  31.579  30.677  1.00  0.00     0.049 A 
ATOM     50  H   UNL A   1      39.631  30.945  31.940  1.00  0.00     0.167 HD
ATOM     51  C   UNL A   1      42.649  29.305  34.654  1.00  0.00     0.037 A 
ATOM     52  C   UNL A   1      37.507  32.630  31.269  1.00  0.00     0.037 A 
ATOM     53  C   UNL A   1      42.108  30.447  35.343  1.00  0.00     0.049 A 
ATOM     54  C   UNL A   1      37.984  33.080  32.620  1.00  0.00     0.074 A 
ATOM     55  C   UNL A   1      42.487  30.980  36.562  1.00  0.00     0.029 A 
ATOM     56  N   UNL A   1      41.073  31.236  34.865  1.00  0.00    -0.354 N 
ATOM     57  N   UNL A   1      38.940  32.582  33.365  1.00  0.00    -0.248 NA
ATOM     58  C   UNL A   1      37.295  34.233  33.216  1.00  0.00     0.031 C 
ATOM     59  C   UNL A   1      41.663  32.078  36.836  1.00  0.00     0.029 A 
ATOM     60  C   UNL A   1      40.792  32.244  35.772  1.00  0.00     0.049 A 
ATOM     61  H   UNL A   1      40.608  31.101  34.008  1.00  0.00     0.167 HD
ATOM     62  C   UNL A   1      38.975  33.364  34.510  1.00  0.00     0.074 A 
ATOM     63  C   UNL A   1      37.955  34.381  34.355  1.00  0.00     0.031 C 
ATOM     64  C   UNL A   1      39.775  33.247  35.597  1.00  0.00     0.037 A 
BRANCH  51  65
ATOM     65  C   UNL A   1      43.733  28.526  35.337  1.00  0.00     0.057 A 
ATOM     66  C   UNL A   1      43.446  27.470  36.210  1.00  0.00     0.134 A 
ATOM     67  C   UNL A   1      45.081  28.797  35.066  1.00  0.00     0.134 A 
ATOM     68  F   UNL A   1      42.176  27.169  36.518  1.00  0.00    -0.206 F 
ATOM     69  C   UNL A   1      44.463  26.713  36.795  1.00  0.00     0.040 A 
ATOM     70  C   UNL A   1      46.105  28.037  35.632  1.00  0.00     0.040 A 
ATOM     71  F   UNL A   1      45.420  29.794  34.235  1.00  0.00    -0.206 F 
ATOM     72  C   UNL A   1      45.797  26.991  36.500  1.00  0.00     0.006 A 
ENDBRANCH  51  65
BRANCH  52  73
ATOM     73  C   UNL A   1      36.375  33.311  30.596  1.00  0.00     0.057 A 
ATOM     74  C   UNL A   1      35.060  33.136  31.038  1.00  0.00     0.134 A 
ATOM     75  C   UNL A   1      36.585  34.157  29.502  1.00  0.00     0.134 A 
ATOM     76  F   UNL A   1      34.796  32.319  32.069  1.00  0.00    -0.206 F 
ATOM     77  C   UNL A   1      33.990  33.772  30.408  1.00  0.00     0.040 A 
ATOM     78  C   UNL A   1      35.527  34.818  28.877  1.00  0.00     0.040 A 
ATOM     79  F   UNL A   1      37.825  34.367  29.036  1.00  0.00    -0.206 F 
ATOM     80  C   UNL A   1      34.223  34.621  29.328  1.00  0.00     0.006 A 
ENDBRANCH  52  73
BRANCH  64  81
ATOM     81  C   UNL A   1      39.587  34.255  36.688  1.00  0.00     0.057 A 
ATOM     82  C   UNL A   1      38.822  33.970  37.824  1.00  0.00     0.134 A 
ATOM     83  C   UNL A   1      40.199  35.512  36.612  1.00  0.00     0.134 A 
ATOM     84  F   UNL A   1      38.200  32.787  37.946  1.00  0.00    -0.206 F 
ATOM     85  C   UNL A   1      38.657  34.909  38.842  1.00  0.00     0.040 A 
ATOM     86  C   UNL A   1      40.055  36.453  37.631  1.00  0.00     0.040 A 
ATOM     87  F   UNL A   1      40.948  35.842  35.549  1.00  0.00    -0.206 F 
ATOM     88  C   UNL A   1      39.278  36.153  38.749  1.00  0.00     0.006 A 
ENDBRANCH  64  81
ENDBRANCH  38  39
ENDBRANCH  31  33
ENDBRANCH  30  31
ENDBRANCH  29  30
ENDBRANCH   1  29
TORSDOF 14
ENDMDL
MODEL 3
REMARK VINA RESULT:     -12.1      4.315      6.109
REMARK SMILES Cc1ccc(C(=O)N2CCC3(CCC(=O)N(CC(=O)OCCOC(=O)c4ccc(-c5c6nc(c(-c7c(F)cccc7F)c7ccc([nH]7)c(-c7c(F)cccc7F)c7nc(c(-c8c(F)cccc8F)c8ccc5[nH]8)C=C7)C=C6)cc4)C3)CC2)cc1O
REMARK SMILES IDX 21 1 20 2 18 3 19 4 17 5 16 6 6 7 7 8 8 9 9 10 82 11 10 12
REMARK SMILES IDX 81 13 11 14 12 15 80 16 13 17 14 18 15 19 5 20 1 21 2 22
REMARK SMILES IDX 3 23 84 24 4 25 83 26 85 27 22 29 23 30 24 31 25 32 26 33
REMARK SMILES IDX 27 34 79 35 28 36 78 37 29 38 30 39 31 40 72 41 32 42 77 43
REMARK SMILES IDX 71 44 73 45 33 46 76 47 70 48 69 49 34 51 60 52 43 53 59 54
REMARK SMILES IDX 44 55 47 56 58 57 74 58 45 59 46 60 57 62 75 63 48 64 35 65
REMARK SMILES IDX 36 66 41 67 37 68 38 69 40 70 42 71 39 72 61 73 62 74 67 75
REMARK SMILES IDX 63 76 64 77 66 78 68 79 65 80 49 81 50 82 55 83 51 84 52 85
REMARK SMILES IDX 54 86 56 87 53 88
REMARK H PARENT 85 28 73 50 47 61
REMARK Flexibility Score: inf
ROOT
ATOM      1  C   UNL A   1      38.301  20.120  25.183  1.00  0.00     0.274 C 
ENDROOT
BRANCH   1   2
ATOM      2  O   UNL A   1      38.369  21.472  25.673  1.00  0.00    -0.461 OA
BRANCH   2   3
ATOM      3  C   UNL A   1      37.394  22.302  25.236  1.00  0.00     0.325 C 
ATOM      4  O   UNL A   1      37.392  23.523  25.378  1.00  0.00    -0.250 OA
BRANCH   3   5
ATOM      5  C   UNL A   1      36.253  21.592  24.515  1.00  0.00     0.242 C 
BRANCH   5   6
ATOM      6  N   UNL A   1      34.976  21.349  25.182  1.00  0.00    -0.331 N 
ATOM      7  C   UNL A   1      32.109  26.934  23.624  1.00  0.00     0.253 C 
ATOM      8  O   UNL A   1      32.057  27.345  22.467  1.00  0.00    -0.269 OA
ATOM      9  N   UNL A   1      32.133  25.579  23.931  1.00  0.00    -0.339 N 
ATOM     10  C   UNL A   1      32.704  24.652  22.972  1.00  0.00     0.120 C 
ATOM     11  C   UNL A   1      31.429  24.971  25.051  1.00  0.00     0.120 C 
ATOM     12  C   UNL A   1      33.732  23.777  23.693  1.00  0.00     0.030 C 
ATOM     13  C   UNL A   1      32.340  24.019  25.819  1.00  0.00     0.030 C 
ATOM     14  C   UNL A   1      33.143  23.031  24.924  1.00  0.00    -0.008 C 
ATOM     15  C   UNL A   1      32.239  21.848  24.495  1.00  0.00     0.019 C 
ATOM     16  C   UNL A   1      34.280  22.456  25.799  1.00  0.00     0.127 C 
ATOM     17  C   UNL A   1      33.019  20.676  23.909  1.00  0.00     0.101 C 
ATOM     18  C   UNL A   1      34.227  20.273  24.731  1.00  0.00     0.223 C 
ATOM     19  O   UNL A   1      34.623  19.115  24.772  1.00  0.00    -0.275 OA
BRANCH   7  20
ATOM     20  C   UNL A   1      32.327  27.923  24.717  1.00  0.00     0.043 A 
ATOM     21  C   UNL A   1      33.394  31.120  27.425  1.00  0.00     0.048 C 
ATOM     22  C   UNL A   1      32.978  30.008  26.507  1.00  0.00    -0.009 A 
ATOM     23  C   UNL A   1      33.735  28.831  26.477  1.00  0.00     0.008 A 
ATOM     24  C   UNL A   1      31.894  30.122  25.625  1.00  0.00     0.119 A 
ATOM     25  C   UNL A   1      33.424  27.807  25.578  1.00  0.00     0.014 A 
ATOM     26  C   UNL A   1      31.561  29.090  24.745  1.00  0.00     0.060 A 
BRANCH  24  27
ATOM     27  O   UNL A   1      31.128  31.251  25.545  1.00  0.00    -0.508 OA
ATOM     28  H   UNL A   1      30.398  31.281  24.959  1.00  0.00     0.293 HD
ENDBRANCH  24  27
ENDBRANCH   7  20
ENDBRANCH   5   6
ENDBRANCH   3   5
ENDBRANCH   2   3
ENDBRANCH   1   2
BRANCH   1  29
ATOM     29  C   UNL A   1      39.358  19.254  25.866  1.00  0.00     0.275 C 
BRANCH  29  30
ATOM     30  O   UNL A   1      40.613  19.391  25.172  1.00  0.00    -0.458 OA
BRANCH  30  31
ATOM     31  C   UNL A   1      41.707  19.458  25.963  1.00  0.00     0.338 C 
ATOM     32  O   UNL A   1      42.419  18.544  26.339  1.00  0.00    -0.246 OA
BRANCH  31  33
ATOM     33  C   UNL A   1      41.892  20.836  26.445  1.00  0.00     0.060 A 
ATOM     34  C   UNL A   1      42.161  21.894  25.574  1.00  0.00     0.016 A 
ATOM     35  C   UNL A   1      41.903  21.037  27.827  1.00  0.00     0.016 A 
ATOM     36  C   UNL A   1      42.508  23.144  26.091  1.00  0.00     0.010 A 
ATOM     37  C   UNL A   1      42.192  22.300  28.340  1.00  0.00     0.010 A 
ATOM     38  C   UNL A   1      42.530  23.355  27.479  1.00  0.00    -0.014 A 
BRANCH  38  39
ATOM     39  C   UNL A   1      42.925  24.667  28.046  1.00  0.00     0.031 A 
ATOM     40  C   UNL A   1      41.877  25.696  28.371  1.00  0.00     0.074 A 
ATOM     41  C   UNL A   1      44.228  24.946  28.233  1.00  0.00     0.049 A 
ATOM     42  N   UNL A   1      42.029  26.941  28.744  1.00  0.00    -0.248 NA
ATOM     43  C   UNL A   1      40.472  25.271  28.254  1.00  0.00     0.031 C 
ATOM     44  C   UNL A   1      45.337  24.030  27.959  1.00  0.00     0.029 A 
ATOM     45  N   UNL A   1      44.840  26.087  28.684  1.00  0.00    -0.354 N 
ATOM     46  C   UNL A   1      40.746  27.458  28.870  1.00  0.00     0.074 A 
ATOM     47  C   UNL A   1      39.825  26.394  28.533  1.00  0.00     0.031 C 
ATOM     48  C   UNL A   1      46.493  24.643  28.252  1.00  0.00     0.029 A 
ATOM     49  C   UNL A   1      46.211  26.008  28.684  1.00  0.00     0.049 A 
ATOM     50  H   UNL A   1      44.346  26.886  28.979  1.00  0.00     0.167 HD
ATOM     51  C   UNL A   1      40.374  28.707  29.236  1.00  0.00     0.037 A 
ATOM     52  C   UNL A   1      47.139  26.940  28.969  1.00  0.00     0.037 A 
ATOM     53  C   UNL A   1      41.291  29.754  29.606  1.00  0.00     0.049 A 
ATOM     54  C   UNL A   1      46.698  28.319  29.368  1.00  0.00     0.074 A 
ATOM     55  C   UNL A   1      41.007  31.041  30.027  1.00  0.00     0.029 A 
ATOM     56  N   UNL A   1      42.671  29.628  29.605  1.00  0.00    -0.354 N 
ATOM     57  N   UNL A   1      45.482  28.793  29.487  1.00  0.00    -0.248 NA
ATOM     58  C   UNL A   1      47.756  29.293  29.668  1.00  0.00     0.031 C 
ATOM     59  C   UNL A   1      42.218  31.705  30.256  1.00  0.00     0.029 A 
ATOM     60  C   UNL A   1      43.253  30.819  30.005  1.00  0.00     0.049 A 
ATOM     61  H   UNL A   1      43.164  28.813  29.357  1.00  0.00     0.167 HD
ATOM     62  C   UNL A   1      45.627  30.115  29.882  1.00  0.00     0.074 A 
ATOM     63  C   UNL A   1      47.050  30.363  30.001  1.00  0.00     0.031 C 
ATOM     64  C   UNL A   1      44.669  31.044  30.119  1.00  0.00     0.037 A 
BRANCH  51  65
ATOM     65  C   UNL A   1      38.910  29.027  29.240  1.00  0.00     0.057 A 
ATOM     66  C   UNL A   1      38.132  28.919  30.399  1.00  0.00     0.134 A 
ATOM     67  C   UNL A   1      38.285  29.510  28.082  1.00  0.00     0.134 A 
ATOM     68  F   UNL A   1      38.670  28.451  31.536  1.00  0.00    -0.206 F 
ATOM     69  C   UNL A   1      36.783  29.274  30.406  1.00  0.00     0.040 A 
ATOM     70  C   UNL A   1      36.941  29.884  28.081  1.00  0.00     0.040 A 
ATOM     71  F   UNL A   1      38.977  29.640  26.940  1.00  0.00    -0.206 F 
ATOM     72  C   UNL A   1      36.185  29.766  29.246  1.00  0.00     0.006 A 
ENDBRANCH  51  65
BRANCH  52  73
ATOM     73  C   UNL A   1      48.578  26.604  28.859  1.00  0.00     0.057 A 
ATOM     74  C   UNL A   1      49.287  26.096  29.951  1.00  0.00     0.134 A 
ATOM     75  C   UNL A   1      49.274  26.775  27.656  1.00  0.00     0.134 A 
ATOM     76  F   UNL A   1      48.678  25.931  31.135  1.00  0.00    -0.206 F 
ATOM     77  C   UNL A   1      50.643  25.779  29.856  1.00  0.00     0.040 A 
ATOM     78  C   UNL A   1      50.623  26.441  27.540  1.00  0.00     0.040 A 
ATOM     79  F   UNL A   1      48.646  27.255  26.573  1.00  0.00    -0.206 F 
ATOM     80  C   UNL A   1      51.313  25.945  28.645  1.00  0.00     0.006 A 
ENDBRANCH  52  73
BRANCH  64  81
ATOM     81  C   UNL A   1      45.134  32.401  30.547  1.00  0.00     0.057 A 
ATOM     82  C   UNL A   1      45.364  33.422  29.619  1.00  0.00     0.134 A 
ATOM     83  C   UNL A   1      45.325  32.695  31.902  1.00  0.00     0.134 A 
ATOM     84  F   UNL A   1      45.211  33.194  28.305  1.00  0.00    -0.206 F 
ATOM     85  C   UNL A   1      45.789  34.688  30.023  1.00  0.00     0.040 A 
ATOM     86  C   UNL A   1      45.733  33.963  32.319  1.00  0.00     0.040 A 
ATOM     87  F   UNL A   1      45.116  31.758  32.839  1.00  0.00    -0.206 F 
ATOM     88  C   UNL A   1      45.970  34.962  31.377  1.00  0.00     0.006 A 
ENDBRANCH  64  81
ENDBRANCH  38  39
ENDBRANCH  31  33
ENDBRANCH  30  31
ENDBRANCH  29  30
ENDBRANCH   1  29
TORSDOF 14
ENDMDL
