MODEL 1
REMARK VINA RESULT:      -9.1      0.000      0.000
REMARK SMILES O=CN1CCC[C@@H](C(=O)OCCOC(=O)c2ccc(-c3c4nc(c(-c5c(F)cccc5F)c5ccc([nH]5)c(-c5c(F)cccc5F)c5nc(c(-c6c(F)cccc6F)c6ccc3[nH]6)C=C5)C=C4)cc2)C1
REMARK SMILES IDX 12 1 11 2 10 3 8 4 9 5 7 6 3 7 4 8 70 9 5 10 6 11 2 12 1 13
REMARK SMILES IDX 13 14 14 15 15 16 16 17 17 18 69 19 18 20 68 21 19 22 20 23
REMARK SMILES IDX 21 24 62 25 22 26 67 27 61 28 63 29 23 30 66 31 60 32 59 33
REMARK SMILES IDX 24 35 50 36 33 37 49 38 34 39 37 40 48 41 64 42 35 43 36 44
REMARK SMILES IDX 47 46 65 47 38 48 25 49 26 50 31 51 27 52 28 53 30 54 32 55
REMARK SMILES IDX 29 56 51 57 52 58 57 59 53 60 54 61 56 62 58 63 55 64 39 65
REMARK SMILES IDX 40 66 45 67 41 68 42 69 44 70 46 71 43 72
REMARK H PARENT 63 34 37 45
REMARK Flexibility Score: inf
ROOT
ATOM      1  C   UNL A   1      43.801  19.089  25.382  1.00  0.00     0.275 C 
ENDROOT
BRANCH   1   2
ATOM      2  C   UNL A   1      44.968  19.854  24.763  1.00  0.00     0.274 C 
BRANCH   2   3
ATOM      3  O   UNL A   1      45.132  21.131  25.415  1.00  0.00    -0.462 OA
BRANCH   3   4
ATOM      4  C   UNL A   1      44.927  22.231  24.642  1.00  0.00     0.310 C 
ATOM      5  O   UNL A   1      44.424  22.224  23.525  1.00  0.00    -0.252 OA
BRANCH   4   6
ATOM      6  C   UNL A   1      45.426  23.484  25.334  1.00  0.00     0.119 C 
ATOM      7  N   UNL A   1      47.305  25.059  25.272  1.00  0.00    -0.344 N 
ATOM      8  C   UNL A   1      46.498  26.186  24.843  1.00  0.00     0.119 C 
ATOM      9  C   UNL A   1      46.849  23.744  24.844  1.00  0.00     0.134 C 
ATOM     10  C   UNL A   1      45.097  26.034  25.416  1.00  0.00     0.022 C 
ATOM     11  C   UNL A   1      44.493  24.680  25.043  1.00  0.00     0.019 C 
BRANCH   7  12
ATOM     12  C   UNL A   1      48.309  25.199  26.204  1.00  0.00     0.339 C 
ATOM     13  O   UNL A   1      48.562  24.409  27.104  1.00  0.00    -0.279 OA
ENDBRANCH   7  12
ENDBRANCH   4   6
ENDBRANCH   3   4
ENDBRANCH   2   3
ENDBRANCH   1   2
BRANCH   1  14
ATOM     14  O   UNL A   1      42.563  19.672  24.937  1.00  0.00    -0.458 OA
BRANCH  14  15
ATOM     15  C   UNL A   1      41.583  19.752  25.864  1.00  0.00     0.338 C 
ATOM     16  O   UNL A   1      40.742  18.917  26.139  1.00  0.00    -0.246 OA
BRANCH  15  17
ATOM     17  C   UNL A   1      41.674  21.049  26.555  1.00  0.00     0.060 A 
ATOM     18  C   UNL A   1      41.588  22.230  25.820  1.00  0.00     0.016 A 
ATOM     19  C   UNL A   1      41.971  21.089  27.916  1.00  0.00     0.016 A 
ATOM     20  C   UNL A   1      41.894  23.449  26.420  1.00  0.00     0.010 A 
ATOM     21  C   UNL A   1      42.178  22.323  28.539  1.00  0.00     0.010 A 
ATOM     22  C   UNL A   1      42.182  23.515  27.792  1.00  0.00    -0.014 A 
BRANCH  22  23
ATOM     23  C   UNL A   1      42.525  24.813  28.438  1.00  0.00     0.031 A 
ATOM     24  C   UNL A   1      41.459  25.855  28.661  1.00  0.00     0.074 A 
ATOM     25  C   UNL A   1      43.787  25.072  28.836  1.00  0.00     0.049 A 
ATOM     26  N   UNL A   1      41.586  27.109  29.013  1.00  0.00    -0.248 NA
ATOM     27  C   UNL A   1      40.066  25.432  28.445  1.00  0.00     0.031 C 
ATOM     28  C   UNL A   1      44.919  24.149  28.731  1.00  0.00     0.029 A 
ATOM     29  N   UNL A   1      44.328  26.193  29.417  1.00  0.00    -0.354 N 
ATOM     30  C   UNL A   1      40.303  27.641  28.995  1.00  0.00     0.074 A 
ATOM     31  C   UNL A   1      39.407  26.571  28.609  1.00  0.00     0.031 C 
ATOM     32  C   UNL A   1      46.007  24.724  29.268  1.00  0.00     0.029 A 
ATOM     33  C   UNL A   1      45.672  26.084  29.677  1.00  0.00     0.049 A 
ATOM     34  H   UNL A   1      43.803  26.999  29.627  1.00  0.00     0.167 HD
ATOM     35  C   UNL A   1      39.907  28.907  29.269  1.00  0.00     0.037 A 
ATOM     36  C   UNL A   1      46.551  26.986  30.153  1.00  0.00     0.037 A 
ATOM     37  C   UNL A   1      40.784  29.958  29.719  1.00  0.00     0.049 A 
ATOM     38  C   UNL A   1      46.092  28.384  30.448  1.00  0.00     0.074 A 
ATOM     39  C   UNL A   1      40.471  31.271  30.027  1.00  0.00     0.029 A 
ATOM     40  N   UNL A   1      42.141  29.805  29.949  1.00  0.00    -0.354 N 
ATOM     41  N   UNL A   1      44.890  28.895  30.345  1.00  0.00    -0.248 NA
ATOM     42  C   UNL A   1      47.117  29.336  30.898  1.00  0.00     0.031 C 
ATOM     43  C   UNL A   1      41.645  31.917  30.430  1.00  0.00     0.029 A 
ATOM     44  C   UNL A   1      42.682  30.999  30.396  1.00  0.00     0.049 A 
ATOM     45  H   UNL A   1      42.647  28.970  29.816  1.00  0.00     0.167 HD
ATOM     46  C   UNL A   1      45.014  30.228  30.712  1.00  0.00     0.074 A 
ATOM     47  C   UNL A   1      46.403  30.441  31.065  1.00  0.00     0.031 C 
ATOM     48  C   UNL A   1      44.064  31.193  30.743  1.00  0.00     0.037 A 
BRANCH  35  49
ATOM     49  C   UNL A   1      38.461  29.239  29.058  1.00  0.00     0.057 A 
ATOM     50  C   UNL A   1      37.530  29.203  30.102  1.00  0.00     0.134 A 
ATOM     51  C   UNL A   1      38.006  29.638  27.794  1.00  0.00     0.134 A 
ATOM     52  F   UNL A   1      37.902  28.815  31.330  1.00  0.00    -0.206 F 
ATOM     53  C   UNL A   1      36.191  29.538  29.892  1.00  0.00     0.040 A 
ATOM     54  C   UNL A   1      36.674  29.993  27.577  1.00  0.00     0.040 A 
ATOM     55  F   UNL A   1      38.850  29.697  26.753  1.00  0.00    -0.206 F 
ATOM     56  C   UNL A   1      35.761  29.940  28.628  1.00  0.00     0.006 A 
ENDBRANCH  35  49
BRANCH  36  57
ATOM     57  C   UNL A   1      47.972  26.603  30.340  1.00  0.00     0.057 A 
ATOM     58  C   UNL A   1      48.941  26.947  29.393  1.00  0.00     0.134 A 
ATOM     59  C   UNL A   1      48.393  25.895  31.472  1.00  0.00     0.134 A 
ATOM     60  F   UNL A   1      48.592  27.604  28.278  1.00  0.00    -0.206 F 
ATOM     61  C   UNL A   1      50.282  26.598  29.562  1.00  0.00     0.040 A 
ATOM     62  C   UNL A   1      49.734  25.559  31.665  1.00  0.00     0.040 A 
ATOM     63  F   UNL A   1      47.509  25.538  32.415  1.00  0.00    -0.206 F 
ATOM     64  C   UNL A   1      50.681  25.909  30.706  1.00  0.00     0.006 A 
ENDBRANCH  36  57
BRANCH  48  65
ATOM     65  C   UNL A   1      44.495  32.557  31.184  1.00  0.00     0.057 A 
ATOM     66  C   UNL A   1      44.936  33.516  30.265  1.00  0.00     0.134 A 
ATOM     67  C   UNL A   1      44.442  32.922  32.534  1.00  0.00     0.134 A 
ATOM     68  F   UNL A   1      45.022  33.218  28.960  1.00  0.00    -0.206 F 
ATOM     69  C   UNL A   1      45.325  34.791  30.677  1.00  0.00     0.040 A 
ATOM     70  C   UNL A   1      44.813  34.200  32.956  1.00  0.00     0.040 A 
ATOM     71  F   UNL A   1      44.025  32.048  33.460  1.00  0.00    -0.206 F 
ATOM     72  C   UNL A   1      45.261  35.137  32.026  1.00  0.00     0.006 A 
ENDBRANCH  48  65
ENDBRANCH  22  23
ENDBRANCH  15  17
ENDBRANCH  14  15
ENDBRANCH   1  14
TORSDOF 12
ENDMDL
MODEL 2
REMARK VINA RESULT:      -9.1      3.996      8.442
REMARK SMILES O=CN1CCC[C@@H](C(=O)OCCOC(=O)c2ccc(-c3c4nc(c(-c5c(F)cccc5F)c5ccc([nH]5)c(-c5c(F)cccc5F)c5nc(c(-c6c(F)cccc6F)c6ccc3[nH]6)C=C5)C=C4)cc2)C1
REMARK SMILES IDX 12 1 11 2 10 3 8 4 9 5 7 6 3 7 4 8 70 9 5 10 6 11 2 12 1 13
REMARK SMILES IDX 13 14 14 15 15 16 16 17 17 18 69 19 18 20 68 21 19 22 20 23
REMARK SMILES IDX 21 24 62 25 22 26 67 27 61 28 63 29 23 30 66 31 60 32 59 33
REMARK SMILES IDX 24 35 50 36 33 37 49 38 34 39 37 40 48 41 64 42 35 43 36 44
REMARK SMILES IDX 47 46 65 47 38 48 25 49 26 50 31 51 27 52 28 53 30 54 32 55
REMARK SMILES IDX 29 56 51 57 52 58 57 59 53 60 54 61 56 62 58 63 55 64 39 65
REMARK SMILES IDX 40 66 45 67 41 68 42 69 44 70 46 71 43 72
REMARK H PARENT 63 34 37 45
REMARK Flexibility Score: inf
ROOT
ATOM      1  C   UNL A   1      43.698  21.133  25.522  1.00  0.00     0.275 C 
ENDROOT
BRANCH   1   2
ATOM      2  C   UNL A   1      42.610  20.245  26.119  1.00  0.00     0.274 C 
BRANCH   2   3
ATOM      3  O   UNL A   1      41.317  20.616  25.597  1.00  0.00    -0.462 OA
BRANCH   3   4
ATOM      4  C   UNL A   1      40.443  21.160  26.487  1.00  0.00     0.310 C 
ATOM      5  O   UNL A   1      40.424  20.925  27.688  1.00  0.00    -0.252 OA
BRANCH   4   6
ATOM      6  C   UNL A   1      39.466  22.088  25.793  1.00  0.00     0.119 C 
ATOM      7  N   UNL A   1      37.144  22.145  25.006  1.00  0.00    -0.344 N 
ATOM      8  C   UNL A   1      36.730  23.176  25.941  1.00  0.00     0.119 C 
ATOM      9  C   UNL A   1      38.222  21.272  25.450  1.00  0.00     0.134 C 
ATOM     10  C   UNL A   1      37.912  24.094  26.215  1.00  0.00     0.022 C 
ATOM     11  C   UNL A   1      39.129  23.299  26.690  1.00  0.00     0.019 C 
BRANCH   7  12
ATOM     12  C   UNL A   1      36.703  22.129  23.703  1.00  0.00     0.339 C 
ATOM     13  O   UNL A   1      36.619  23.103  22.966  1.00  0.00    -0.279 OA
ENDBRANCH   7  12
ENDBRANCH   4   6
ENDBRANCH   3   4
ENDBRANCH   2   3
ENDBRANCH   1   2
BRANCH   1  14
ATOM     14  O   UNL A   1      43.783  22.353  26.280  1.00  0.00    -0.458 OA
BRANCH  14  15
ATOM     15  C   UNL A   1      43.552  23.492  25.589  1.00  0.00     0.338 C 
ATOM     16  O   UNL A   1      43.755  23.706  24.408  1.00  0.00    -0.246 OA
BRANCH  15  17
ATOM     17  C   UNL A   1      42.974  24.498  26.493  1.00  0.00     0.060 A 
ATOM     18  C   UNL A   1      43.287  25.845  26.318  1.00  0.00     0.016 A 
ATOM     19  C   UNL A   1      42.219  24.090  27.592  1.00  0.00     0.016 A 
ATOM     20  C   UNL A   1      42.932  26.776  27.291  1.00  0.00     0.010 A 
ATOM     21  C   UNL A   1      41.777  25.042  28.515  1.00  0.00     0.010 A 
ATOM     22  C   UNL A   1      42.161  26.391  28.398  1.00  0.00    -0.014 A 
BRANCH  22  23
ATOM     23  C   UNL A   1      41.791  27.378  29.451  1.00  0.00     0.031 A 
ATOM     24  C   UNL A   1      42.586  27.457  30.729  1.00  0.00     0.074 A 
ATOM     25  C   UNL A   1      40.747  28.213  29.276  1.00  0.00     0.049 A 
ATOM     26  N   UNL A   1      42.309  28.092  31.840  1.00  0.00    -0.248 NA
ATOM     27  C   UNL A   1      43.852  26.710  30.767  1.00  0.00     0.031 C 
ATOM     28  C   UNL A   1      39.910  28.290  28.078  1.00  0.00     0.029 A 
ATOM     29  N   UNL A   1      40.217  29.167  30.111  1.00  0.00    -0.354 N 
ATOM     30  C   UNL A   1      43.328  27.769  32.727  1.00  0.00     0.074 A 
ATOM     31  C   UNL A   1      44.237  26.890  32.024  1.00  0.00     0.031 C 
ATOM     32  C   UNL A   1      39.001  29.265  28.237  1.00  0.00     0.029 A 
ATOM     33  C   UNL A   1      39.135  29.824  29.577  1.00  0.00     0.049 A 
ATOM     34  H   UNL A   1      40.577  29.361  31.006  1.00  0.00     0.167 HD
ATOM     35  C   UNL A   1      43.487  28.164  34.013  1.00  0.00     0.037 A 
ATOM     36  C   UNL A   1      38.313  30.744  30.116  1.00  0.00     0.037 A 
ATOM     37  C   UNL A   1      42.624  29.091  34.696  1.00  0.00     0.049 A 
ATOM     38  C   UNL A   1      38.507  31.166  31.543  1.00  0.00     0.074 A 
ATOM     39  C   UNL A   1      42.711  29.555  35.998  1.00  0.00     0.029 A 
ATOM     40  N   UNL A   1      41.529  29.716  34.121  1.00  0.00    -0.354 N 
ATOM     41  N   UNL A   1      39.426  30.787  32.397  1.00  0.00    -0.248 NA
ATOM     42  C   UNL A   1      37.533  32.122  32.090  1.00  0.00     0.031 C 
ATOM     43  C   UNL A   1      41.657  30.451  36.215  1.00  0.00     0.029 A 
ATOM     44  C   UNL A   1      40.931  30.562  35.041  1.00  0.00     0.049 A 
ATOM     45  H   UNL A   1      41.222  29.580  33.195  1.00  0.00     0.167 HD
ATOM     46  C   UNL A   1      39.139  31.453  33.581  1.00  0.00     0.074 A 
ATOM     47  C   UNL A   1      37.977  32.279  33.329  1.00  0.00     0.031 C 
ATOM     48  C   UNL A   1      39.776  31.376  34.775  1.00  0.00     0.037 A 
BRANCH  35  49
ATOM     49  C   UNL A   1      44.627  27.567  34.782  1.00  0.00     0.057 A 
ATOM     50  C   UNL A   1      45.888  28.171  34.832  1.00  0.00     0.134 A 
ATOM     51  C   UNL A   1      44.443  26.385  35.513  1.00  0.00     0.134 A 
ATOM     52  F   UNL A   1      46.130  29.295  34.142  1.00  0.00    -0.206 F 
ATOM     53  C   UNL A   1      46.932  27.613  35.572  1.00  0.00     0.040 A 
ATOM     54  C   UNL A   1      45.474  25.829  36.271  1.00  0.00     0.040 A 
ATOM     55  F   UNL A   1      43.256  25.759  35.508  1.00  0.00    -0.206 F 
ATOM     56  C   UNL A   1      46.725  26.441  36.299  1.00  0.00     0.006 A 
ENDBRANCH  35  49
BRANCH  36  57
ATOM     57  C   UNL A   1      37.200  31.301  29.310  1.00  0.00     0.057 A 
ATOM     58  C   UNL A   1      37.277  32.587  28.766  1.00  0.00     0.134 A 
ATOM     59  C   UNL A   1      36.041  30.558  29.056  1.00  0.00     0.134 A 
ATOM     60  F   UNL A   1      38.354  33.353  28.996  1.00  0.00    -0.206 F 
ATOM     61  C   UNL A   1      36.239  33.118  28.000  1.00  0.00     0.040 A 
ATOM     62  C   UNL A   1      35.005  31.068  28.273  1.00  0.00     0.040 A 
ATOM     63  F   UNL A   1      35.909  29.318  29.550  1.00  0.00    -0.206 F 
ATOM     64  C   UNL A   1      35.102  32.354  27.745  1.00  0.00     0.006 A 
ENDBRANCH  36  57
BRANCH  48  65
ATOM     65  C   UNL A   1      39.235  32.217  35.888  1.00  0.00     0.057 A 
ATOM     66  C   UNL A   1      39.678  33.529  36.095  1.00  0.00     0.134 A 
ATOM     67  C   UNL A   1      38.242  31.721  36.742  1.00  0.00     0.134 A 
ATOM     68  F   UNL A   1      40.637  34.052  35.317  1.00  0.00    -0.206 F 
ATOM     69  C   UNL A   1      39.162  34.315  37.126  1.00  0.00     0.040 A 
ATOM     70  C   UNL A   1      37.708  32.504  37.766  1.00  0.00     0.040 A 
ATOM     71  F   UNL A   1      37.775  30.474  36.591  1.00  0.00    -0.206 F 
ATOM     72  C   UNL A   1      38.171  33.805  37.962  1.00  0.00     0.006 A 
ENDBRANCH  48  65
ENDBRANCH  22  23
ENDBRANCH  15  17
ENDBRANCH  14  15
ENDBRANCH   1  14
TORSDOF 12
ENDMDL
MODEL 3
REMARK VINA RESULT:      -9.0      6.891     11.891
REMARK SMILES O=CN1CCC[C@@H](C(=O)OCCOC(=O)c2ccc(-c3c4nc(c(-c5c(F)cccc5F)c5ccc([nH]5)c(-c5c(F)cccc5F)c5nc(c(-c6c(F)cccc6F)c6ccc3[nH]6)C=C5)C=C4)cc2)C1
REMARK SMILES IDX 12 1 11 2 10 3 8 4 9 5 7 6 3 7 4 8 70 9 5 10 6 11 2 12 1 13
REMARK SMILES IDX 13 14 14 15 15 16 16 17 17 18 69 19 18 20 68 21 19 22 20 23
REMARK SMILES IDX 21 24 62 25 22 26 67 27 61 28 63 29 23 30 66 31 60 32 59 33
REMARK SMILES IDX 24 35 50 36 33 37 49 38 34 39 37 40 48 41 64 42 35 43 36 44
REMARK SMILES IDX 47 46 65 47 38 48 25 49 26 50 31 51 27 52 28 53 30 54 32 55
REMARK SMILES IDX 29 56 51 57 52 58 57 59 53 60 54 61 56 62 58 63 55 64 39 65
REMARK SMILES IDX 40 66 45 67 41 68 42 69 44 70 46 71 43 72
REMARK H PARENT 63 34 37 45
REMARK Flexibility Score: inf
ROOT
ATOM      1  C   UNL A   1      32.586  35.607  29.588  1.00  0.00     0.275 C 
ENDROOT
BRANCH   1   2
ATOM      2  C   UNL A   1      33.876  35.096  28.955  1.00  0.00     0.274 C 
BRANCH   2   3
ATOM      3  O   UNL A   1      34.003  33.672  29.154  1.00  0.00    -0.462 OA
BRANCH   3   4
ATOM      4  C   UNL A   1      34.755  33.001  28.240  1.00  0.00     0.310 C 
ATOM      5  O   UNL A   1      35.595  33.510  27.509  1.00  0.00    -0.252 OA
BRANCH   4   6
ATOM      6  C   UNL A   1      34.401  31.527  28.220  1.00  0.00     0.119 C 
ATOM      7  N   UNL A   1      33.065  29.920  26.938  1.00  0.00    -0.344 N 
ATOM      8  C   UNL A   1      34.213  29.167  26.463  1.00  0.00     0.119 C 
ATOM      9  C   UNL A   1      33.288  31.336  27.192  1.00  0.00     0.134 C 
ATOM     10  C   UNL A   1      35.308  29.225  27.517  1.00  0.00     0.022 C 
ATOM     11  C   UNL A   1      35.642  30.670  27.887  1.00  0.00     0.019 C 
BRANCH   7  12
ATOM     12  C   UNL A   1      31.903  29.297  27.332  1.00  0.00     0.339 C 
ATOM     13  O   UNL A   1      31.832  28.224  27.916  1.00  0.00    -0.279 OA
ENDBRANCH   7  12
ENDBRANCH   4   6
ENDBRANCH   3   4
ENDBRANCH   2   3
ENDBRANCH   1   2
BRANCH   1  14
ATOM     14  O   UNL A   1      32.908  36.422  30.729  1.00  0.00    -0.458 OA
BRANCH  14  15
ATOM     15  C   UNL A   1      32.543  35.922  31.931  1.00  0.00     0.338 C 
ATOM     16  O   UNL A   1      31.463  36.014  32.484  1.00  0.00    -0.246 OA
BRANCH  15  17
ATOM     17  C   UNL A   1      33.680  35.194  32.518  1.00  0.00     0.060 A 
ATOM     18  C   UNL A   1      34.944  35.780  32.528  1.00  0.00     0.016 A 
ATOM     19  C   UNL A   1      33.513  33.877  32.944  1.00  0.00     0.016 A 
ATOM     20  C   UNL A   1      36.061  35.023  32.872  1.00  0.00     0.010 A 
ATOM     21  C   UNL A   1      34.622  33.151  33.385  1.00  0.00     0.010 A 
ATOM     22  C   UNL A   1      35.916  33.700  33.318  1.00  0.00    -0.014 A 
BRANCH  22  23
ATOM     23  C   UNL A   1      37.108  32.879  33.672  1.00  0.00     0.031 A 
ATOM     24  C   UNL A   1      37.791  33.070  35.002  1.00  0.00     0.074 A 
ATOM     25  C   UNL A   1      37.587  31.955  32.816  1.00  0.00     0.049 A 
ATOM     26  N   UNL A   1      38.945  32.610  35.414  1.00  0.00    -0.248 NA
ATOM     27  C   UNL A   1      37.089  33.899  35.993  1.00  0.00     0.031 C 
ATOM     28  C   UNL A   1      37.010  31.622  31.512  1.00  0.00     0.029 A 
ATOM     29  N   UNL A   1      38.672  31.118  32.920  1.00  0.00    -0.354 N 
ATOM     30  C   UNL A   1      39.138  33.146  36.681  1.00  0.00     0.074 A 
ATOM     31  C   UNL A   1      37.976  33.958  36.977  1.00  0.00     0.031 C 
ATOM     32  C   UNL A   1      37.719  30.625  30.958  1.00  0.00     0.029 A 
ATOM     33  C   UNL A   1      38.848  30.308  31.825  1.00  0.00     0.049 A 
ATOM     34  H   UNL A   1      39.267  31.102  33.704  1.00  0.00     0.167 HD
ATOM     35  C   UNL A   1      40.190  32.983  37.519  1.00  0.00     0.037 A 
ATOM     36  C   UNL A   1      39.829  29.434  31.528  1.00  0.00     0.037 A 
ATOM     37  C   UNL A   1      41.315  32.123  37.259  1.00  0.00     0.049 A 
ATOM     38  C   UNL A   1      40.986  29.270  32.469  1.00  0.00     0.074 A 
ATOM     39  C   UNL A   1      42.426  31.890  38.052  1.00  0.00     0.029 A 
ATOM     40  N   UNL A   1      41.460  31.336  36.128  1.00  0.00    -0.354 N 
ATOM     41  N   UNL A   1      41.196  29.849  33.626  1.00  0.00    -0.248 NA
ATOM     42  C   UNL A   1      42.055  28.353  32.051  1.00  0.00     0.031 C 
ATOM     43  C   UNL A   1      43.250  30.971  37.393  1.00  0.00     0.029 A 
ATOM     44  C   UNL A   1      42.640  30.615  36.201  1.00  0.00     0.049 A 
ATOM     45  H   UNL A   1      40.817  31.295  35.382  1.00  0.00     0.167 HD
ATOM     46  C   UNL A   1      42.421  29.372  34.071  1.00  0.00     0.074 A 
ATOM     47  C   UNL A   1      42.896  28.435  33.073  1.00  0.00     0.031 C 
ATOM     48  C   UNL A   1      43.097  29.689  35.201  1.00  0.00     0.037 A 
BRANCH  35  49
ATOM     49  C   UNL A   1      40.190  33.778  38.789  1.00  0.00     0.057 A 
ATOM     50  C   UNL A   1      40.887  34.985  38.912  1.00  0.00     0.134 A 
ATOM     51  C   UNL A   1      39.448  33.341  39.895  1.00  0.00     0.134 A 
ATOM     52  F   UNL A   1      41.627  35.448  37.893  1.00  0.00    -0.206 F 
ATOM     53  C   UNL A   1      40.857  35.724  40.096  1.00  0.00     0.040 A 
ATOM     54  C   UNL A   1      39.395  34.080  41.077  1.00  0.00     0.040 A 
ATOM     55  F   UNL A   1      38.755  32.193  39.840  1.00  0.00    -0.206 F 
ATOM     56  C   UNL A   1      40.105  35.275  41.181  1.00  0.00     0.006 A 
ENDBRANCH  35  49
BRANCH  36  57
ATOM     57  C   UNL A   1      39.779  28.675  30.255  1.00  0.00     0.057 A 
ATOM     58  C   UNL A   1      40.375  29.177  29.093  1.00  0.00     0.134 A 
ATOM     59  C   UNL A   1      39.144  27.430  30.173  1.00  0.00     0.134 A 
ATOM     60  F   UNL A   1      40.976  30.375  29.107  1.00  0.00    -0.206 F 
ATOM     61  C   UNL A   1      40.339  28.468  27.892  1.00  0.00     0.040 A 
ATOM     62  C   UNL A   1      39.121  26.701  28.983  1.00  0.00     0.040 A 
ATOM     63  F   UNL A   1      38.555  26.898  31.254  1.00  0.00    -0.206 F 
ATOM     64  C   UNL A   1      39.717  27.222  27.838  1.00  0.00     0.006 A 
ENDBRANCH  36  57
BRANCH  48  65
ATOM     65  C   UNL A   1      44.412  29.010  35.418  1.00  0.00     0.057 A 
ATOM     66  C   UNL A   1      44.499  27.785  36.090  1.00  0.00     0.134 A 
ATOM     67  C   UNL A   1      45.598  29.570  34.928  1.00  0.00     0.134 A 
ATOM     68  F   UNL A   1      43.399  27.207  36.595  1.00  0.00    -0.206 F 
ATOM     69  C   UNL A   1      45.725  27.146  36.281  1.00  0.00     0.040 A 
ATOM     70  C   UNL A   1      46.828  28.933  35.098  1.00  0.00     0.040 A 
ATOM     71  F   UNL A   1      45.578  30.740  34.273  1.00  0.00    -0.206 F 
ATOM     72  C   UNL A   1      46.894  27.719  35.781  1.00  0.00     0.006 A 
ENDBRANCH  48  65
ENDBRANCH  22  23
ENDBRANCH  15  17
ENDBRANCH  14  15
ENDBRANCH   1  14
TORSDOF 12
ENDMDL
