MODEL 1
REMARK VINA RESULT:     -12.1      0.000      0.000
REMARK SMILES O=C(OCCOC(=O)C1(C[C@@H]2COc3ccccc32)CC[NH2+]CC1)c1ccc(-c2c3nc(c(-c4c(F)cccc4F)c4ccc([nH]4)c(-c4c(F)cccc4F)c4nc(c(-c5c(F)cccc5F)c5ccc2[nH]5)C=C4)C=C3)cc1
REMARK SMILES IDX 4 1 3 2 2 3 1 4 25 5 26 6 78 7 27 8 77 9 28 10 29 11 30 12
REMARK SMILES IDX 71 13 31 14 76 15 70 16 72 17 32 18 75 19 69 20 68 21 33 23
REMARK SMILES IDX 59 24 42 25 58 26 43 27 46 28 57 29 73 30 44 31 45 32 56 34
REMARK SMILES IDX 74 35 47 36 34 37 35 38 40 39 36 40 37 41 39 42 41 43 38 44
REMARK SMILES IDX 60 45 61 46 66 47 62 48 63 49 65 50 67 51 64 52 48 53 49 54
REMARK SMILES IDX 54 55 50 56 51 57 53 58 55 59 52 60 5 61 6 62 7 63 8 64 9 65
REMARK SMILES IDX 20 66 24 67 21 68 23 69 22 70 10 73 11 74 12 75 19 76 13 77
REMARK SMILES IDX 14 78 18 79 15 80 17 81 16 82
REMARK H PARENT 72 22 46 33 22 71 22 72
REMARK Flexibility Score: inf
ROOT
ATOM      1  C   UNL A   1      31.403  32.025  26.905  1.00  0.00     0.275 C 
ENDROOT
BRANCH   1   2
ATOM      2  O   UNL A   1      32.364  33.063  27.173  1.00  0.00    -0.458 OA
BRANCH   2   3
ATOM      3  C   UNL A   1      33.316  33.154  28.134  1.00  0.00     0.338 C 
ATOM      4  O   UNL A   1      33.100  33.860  29.117  1.00  0.00    -0.246 OA
BRANCH   3   5
ATOM      5  C   UNL A   1      34.674  32.536  28.008  1.00  0.00     0.060 A 
ATOM      6  C   UNL A   1      35.883  33.218  28.001  1.00  0.00     0.016 A 
ATOM      7  C   UNL A   1      34.730  31.138  27.911  1.00  0.00     0.016 A 
ATOM      8  C   UNL A   1      37.092  32.524  28.180  1.00  0.00     0.010 A 
ATOM      9  C   UNL A   1      35.929  30.442  28.157  1.00  0.00     0.010 A 
ATOM     10  C   UNL A   1      37.115  31.138  28.446  1.00  0.00    -0.014 A 
BRANCH  10  11
ATOM     11  C   UNL A   1      38.537  30.293  28.907  1.00  0.00     0.031 A 
ATOM     12  C   UNL A   1      38.522  31.123  30.597  1.00  0.00     0.074 A 
ATOM     13  C   UNL A   1      39.771  29.087  28.189  1.00  0.00     0.049 A 
ATOM     14  N   UNL A   1      39.497  31.082  31.500  1.00  0.00    -0.248 NA
ATOM     15  C   UNL A   1      37.425  31.978  31.114  1.00  0.00     0.031 C 
ATOM     16  C   UNL A   1      40.249  28.486  26.737  1.00  0.00     0.029 A 
ATOM     17  N   UNL A   1      40.944  28.266  28.781  1.00  0.00    -0.354 N 
ATOM     18  C   UNL A   1      39.116  31.706  32.635  1.00  0.00     0.074 A 
ATOM     19  C   UNL A   1      37.903  32.405  32.289  1.00  0.00     0.031 C 
ATOM     20  C   UNL A   1      41.107  27.463  26.738  1.00  0.00     0.029 A 
ATOM     21  C   UNL A   1      41.637  27.368  28.048  1.00  0.00     0.049 A 
ATOM     22  H   UNL A   1      41.192  28.402  29.724  1.00  0.00     0.167 HD
ATOM     23  C   UNL A   1      39.715  31.543  33.838  1.00  0.00     0.037 A 
ATOM     24  C   UNL A   1      42.718  26.693  28.459  1.00  0.00     0.037 A 
ATOM     25  C   UNL A   1      40.801  30.594  34.104  1.00  0.00     0.049 A 
ATOM     26  C   UNL A   1      43.098  26.818  29.910  1.00  0.00     0.074 A 
ATOM     27  C   UNL A   1      41.322  30.259  35.340  1.00  0.00     0.029 A 
ATOM     28  N   UNL A   1      41.488  29.784  33.170  1.00  0.00    -0.354 N 
ATOM     29  N   UNL A   1      42.644  27.651  30.829  1.00  0.00    -0.248 NA
ATOM     30  C   UNL A   1      44.096  25.868  30.380  1.00  0.00     0.031 C 
ATOM     31  C   UNL A   1      42.274  29.249  35.168  1.00  0.00     0.029 A 
ATOM     32  C   UNL A   1      42.361  28.902  33.823  1.00  0.00     0.049 A 
ATOM     33  H   UNL A   1      41.370  29.834  32.195  1.00  0.00     0.167 HD
ATOM     34  C   UNL A   1      43.289  27.320  32.012  1.00  0.00     0.074 A 
ATOM     35  C   UNL A   1      44.154  26.187  31.665  1.00  0.00     0.031 C 
ATOM     36  C   UNL A   1      43.206  27.838  33.273  1.00  0.00     0.037 A 
BRANCH  23  37
ATOM     37  C   UNL A   1      39.109  32.315  34.971  1.00  0.00     0.057 A 
ATOM     38  C   UNL A   1      39.450  33.652  35.217  1.00  0.00     0.134 A 
ATOM     39  C   UNL A   1      38.177  31.721  35.831  1.00  0.00     0.134 A 
ATOM     40  F   UNL A   1      40.328  34.288  34.425  1.00  0.00    -0.206 F 
ATOM     41  C   UNL A   1      38.938  34.351  36.310  1.00  0.00     0.040 A 
ATOM     42  C   UNL A   1      37.633  32.421  36.911  1.00  0.00     0.040 A 
ATOM     43  F   UNL A   1      37.784  30.453  35.641  1.00  0.00    -0.206 F 
ATOM     44  C   UNL A   1      38.025  33.734  37.162  1.00  0.00     0.006 A 
ENDBRANCH  23  37
BRANCH  24  45
ATOM     45  C   UNL A   1      43.464  25.922  27.446  1.00  0.00     0.057 A 
ATOM     46  C   UNL A   1      43.066  24.643  27.059  1.00  0.00     0.134 A 
ATOM     47  C   UNL A   1      44.466  26.553  26.692  1.00  0.00     0.134 A 
ATOM     48  F   UNL A   1      42.105  24.000  27.737  1.00  0.00    -0.206 F 
ATOM     49  C   UNL A   1      43.626  24.019  25.943  1.00  0.00     0.040 A 
ATOM     50  C   UNL A   1      45.012  25.953  25.560  1.00  0.00     0.040 A 
ATOM     51  F   UNL A   1      44.850  27.803  26.990  1.00  0.00    -0.206 F 
ATOM     52  C   UNL A   1      44.588  24.682  25.181  1.00  0.00     0.006 A 
ENDBRANCH  24  45
BRANCH  36  53
ATOM     53  C   UNL A   1      44.099  27.113  34.261  1.00  0.00     0.057 A 
ATOM     54  C   UNL A   1      43.650  25.992  34.975  1.00  0.00     0.134 A 
ATOM     55  C   UNL A   1      45.375  27.608  34.566  1.00  0.00     0.134 A 
ATOM     56  F   UNL A   1      42.421  25.498  34.762  1.00  0.00    -0.206 F 
ATOM     57  C   UNL A   1      44.419  25.422  35.992  1.00  0.00     0.040 A 
ATOM     58  C   UNL A   1      46.166  27.023  35.556  1.00  0.00     0.040 A 
ATOM     59  F   UNL A   1      45.861  28.680  33.923  1.00  0.00    -0.206 F 
ATOM     60  C   UNL A   1      45.682  25.937  36.284  1.00  0.00     0.006 A 
ENDBRANCH  36  53
ENDBRANCH  10  11
ENDBRANCH   3   5
ENDBRANCH   2   3
ENDBRANCH   1   2
BRANCH   1  61
ATOM     61  C   UNL A   1      31.934  30.830  26.126  1.00  0.00     0.274 C 
BRANCH  61  62
ATOM     62  O   UNL A   1      31.052  30.376  25.083  1.00  0.00    -0.462 OA
BRANCH  62  63
ATOM     63  C   UNL A   1      31.113  29.047  24.815  1.00  0.00     0.312 C 
ATOM     64  O   UNL A   1      31.377  28.214  25.675  1.00  0.00    -0.252 OA
BRANCH  63  65
ATOM     65  C   UNL A   1      30.988  28.729  23.311  1.00  0.00     0.079 C 
ATOM     66  C   UNL A   1      30.315  29.766  22.434  1.00  0.00     0.080 C 
ATOM     67  C   UNL A   1      30.102  27.451  23.210  1.00  0.00     0.080 C 
ATOM     68  C   UNL A   1      28.831  29.990  22.658  1.00  0.00     0.261 C 
ATOM     69  C   UNL A   1      28.621  27.762  23.501  1.00  0.00     0.261 C 
ATOM     70  N   UNL A   1      28.105  28.735  22.539  1.00  0.00    -0.346 N 
ATOM     71  H   UNL A   1      28.218  28.368  21.594  1.00  0.00     0.346 HD
ATOM     72  H   UNL A   1      27.117  28.903  22.731  1.00  0.00     0.346 HD
BRANCH  65  73
ATOM     73  C   UNL A   1      32.404  28.473  22.725  1.00  0.00     0.031 C 
BRANCH  73  74
ATOM     74  C   UNL A   1      33.027  27.050  22.536  1.00  0.00     0.062 C 
ATOM     75  C   UNL A   1      32.695  26.191  21.252  1.00  0.00     0.238 C 
ATOM     76  C   UNL A   1      33.336  25.966  23.586  1.00  0.00     0.001 A 
ATOM     77  O   UNL A   1      33.278  24.849  21.196  1.00  0.00    -0.493 OA
ATOM     78  C   UNL A   1      33.552  24.508  22.495  1.00  0.00     0.122 A 
ATOM     79  C   UNL A   1      34.028  25.915  25.304  1.00  0.00     0.008 A 
ATOM     80  C   UNL A   1      34.333  22.953  23.046  1.00  0.00     0.047 A 
ATOM     81  C   UNL A   1      34.899  24.373  25.914  1.00  0.00     0.001 A 
ATOM     82  C   UNL A   1      35.017  22.844  24.759  1.00  0.00     0.004 A 
ENDBRANCH  73  74
ENDBRANCH  65  73
ENDBRANCH  63  65
ENDBRANCH  62  63
ENDBRANCH  61  62
ENDBRANCH   1  61
TORSDOF 13
ENDMDL
MODEL 2
REMARK VINA RESULT:     -11.9      1.177      1.885
REMARK SMILES O=C(OCCOC(=O)C1(C[C@@H]2COc3ccccc32)CC[NH2+]CC1)c1ccc(-c2c3nc(c(-c4c(F)cccc4F)c4ccc([nH]4)c(-c4c(F)cccc4F)c4nc(c(-c5c(F)cccc5F)c5ccc2[nH]5)C=C4)C=C3)cc1
REMARK SMILES IDX 4 1 3 2 2 3 1 4 25 5 26 6 78 7 27 8 77 9 28 10 29 11 30 12
REMARK SMILES IDX 71 13 31 14 76 15 70 16 72 17 32 18 75 19 69 20 68 21 33 23
REMARK SMILES IDX 59 24 42 25 58 26 43 27 46 28 57 29 73 30 44 31 45 32 56 34
REMARK SMILES IDX 74 35 47 36 34 37 35 38 40 39 36 40 37 41 39 42 41 43 38 44
REMARK SMILES IDX 60 45 61 46 66 47 62 48 63 49 65 50 67 51 64 52 48 53 49 54
REMARK SMILES IDX 54 55 50 56 51 57 53 58 55 59 52 60 5 61 6 62 7 63 8 64 9 65
REMARK SMILES IDX 20 66 24 67 21 68 23 69 22 70 10 73 11 74 12 75 19 76 13 77
REMARK SMILES IDX 14 78 18 79 15 80 17 81 16 82
REMARK H PARENT 72 22 46 33 22 71 22 72
REMARK Flexibility Score: inf
ROOT
ATOM      1  C   UNL A   1      32.006  32.877  26.634  1.00  0.00     0.275 C 
ENDROOT
BRANCH   1   2
ATOM      2  O   UNL A   1      32.214  33.675  27.814  1.00  0.00    -0.458 OA
BRANCH   2   3
ATOM      3  C   UNL A   1      33.277  33.747  28.652  1.00  0.00     0.338 C 
ATOM      4  O   UNL A   1      33.245  34.552  29.580  1.00  0.00    -0.246 OA
BRANCH   3   5
ATOM      5  C   UNL A   1      34.545  32.980  28.441  1.00  0.00     0.060 A 
ATOM      6  C   UNL A   1      35.775  33.521  28.089  1.00  0.00     0.016 A 
ATOM      7  C   UNL A   1      34.491  31.593  28.638  1.00  0.00     0.016 A 
ATOM      8  C   UNL A   1      36.948  32.757  28.212  1.00  0.00     0.010 A 
ATOM      9  C   UNL A   1      35.667  30.842  28.827  1.00  0.00     0.010 A 
ATOM     10  C   UNL A   1      36.929  31.457  28.761  1.00  0.00    -0.014 A 
BRANCH  10  11
ATOM     11  C   UNL A   1      38.352  30.581  29.153  1.00  0.00     0.031 A 
ATOM     12  C   UNL A   1      38.397  31.354  30.868  1.00  0.00     0.074 A 
ATOM     13  C   UNL A   1      39.550  29.384  28.359  1.00  0.00     0.049 A 
ATOM     14  N   UNL A   1      39.397  31.273  31.740  1.00  0.00    -0.248 NA
ATOM     15  C   UNL A   1      37.326  32.205  31.445  1.00  0.00     0.031 C 
ATOM     16  C   UNL A   1      39.977  28.825  26.875  1.00  0.00     0.029 A 
ATOM     17  N   UNL A   1      40.729  28.530  28.890  1.00  0.00    -0.354 N 
ATOM     18  C   UNL A   1      39.058  31.863  32.905  1.00  0.00     0.074 A 
ATOM     19  C   UNL A   1      37.844  32.588  32.618  1.00  0.00     0.031 C 
ATOM     20  C   UNL A   1      40.823  27.793  26.818  1.00  0.00     0.029 A 
ATOM     21  C   UNL A   1      41.389  27.648  28.108  1.00  0.00     0.049 A 
ATOM     22  H   UNL A   1      41.006  28.632  29.829  1.00  0.00     0.167 HD
ATOM     23  C   UNL A   1      39.689  31.655  34.085  1.00  0.00     0.037 A 
ATOM     24  C   UNL A   1      42.473  26.947  28.465  1.00  0.00     0.037 A 
ATOM     25  C   UNL A   1      40.771  30.684  34.287  1.00  0.00     0.049 A 
ATOM     26  C   UNL A   1      42.897  27.020  29.907  1.00  0.00     0.074 A 
ATOM     27  C   UNL A   1      41.323  30.303  35.496  1.00  0.00     0.029 A 
ATOM     28  N   UNL A   1      41.419  29.897  33.308  1.00  0.00    -0.354 N 
ATOM     29  N   UNL A   1      42.480  27.829  30.866  1.00  0.00    -0.248 NA
ATOM     30  C   UNL A   1      43.895  26.044  30.317  1.00  0.00     0.031 C 
ATOM     31  C   UNL A   1      42.257  29.288  35.264  1.00  0.00     0.029 A 
ATOM     32  C   UNL A   1      42.299  28.984  33.905  1.00  0.00     0.049 A 
ATOM     33  H   UNL A   1      41.273  29.980  32.338  1.00  0.00     0.167 HD
ATOM     34  C   UNL A   1      43.155  27.451  32.018  1.00  0.00     0.074 A 
ATOM     35  C   UNL A   1      43.994  26.320  31.609  1.00  0.00     0.031 C 
ATOM     36  C   UNL A   1      43.114  27.928  33.297  1.00  0.00     0.037 A 
BRANCH  23  37
ATOM     37  C   UNL A   1      39.126  32.396  35.259  1.00  0.00     0.057 A 
ATOM     38  C   UNL A   1      38.192  31.807  36.123  1.00  0.00     0.134 A 
ATOM     39  C   UNL A   1      39.513  33.714  35.533  1.00  0.00     0.134 A 
ATOM     40  F   UNL A   1      37.786  30.543  35.927  1.00  0.00    -0.206 F 
ATOM     41  C   UNL A   1      37.617  32.518  37.177  1.00  0.00     0.040 A 
ATOM     42  C   UNL A   1      38.968  34.426  36.604  1.00  0.00     0.040 A 
ATOM     43  F   UNL A   1      40.421  34.333  34.764  1.00  0.00    -0.206 F 
ATOM     44  C   UNL A   1      38.006  33.834  37.419  1.00  0.00     0.006 A 
ENDBRANCH  23  37
BRANCH  24  45
ATOM     45  C   UNL A   1      43.179  26.202  27.406  1.00  0.00     0.057 A 
ATOM     46  C   UNL A   1      42.781  24.922  27.021  1.00  0.00     0.134 A 
ATOM     47  C   UNL A   1      44.134  26.858  26.613  1.00  0.00     0.134 A 
ATOM     48  F   UNL A   1      41.864  24.255  27.736  1.00  0.00    -0.206 F 
ATOM     49  C   UNL A   1      43.294  24.321  25.870  1.00  0.00     0.040 A 
ATOM     50  C   UNL A   1      44.632  26.281  25.447  1.00  0.00     0.040 A 
ATOM     51  F   UNL A   1      44.514  28.109  26.910  1.00  0.00    -0.206 F 
ATOM     52  C   UNL A   1      44.208  25.009  25.071  1.00  0.00     0.006 A 
ENDBRANCH  24  45
BRANCH  36  53
ATOM     53  C   UNL A   1      44.027  27.161  34.234  1.00  0.00     0.057 A 
ATOM     54  C   UNL A   1      43.576  26.040  34.948  1.00  0.00     0.134 A 
ATOM     55  C   UNL A   1      45.328  27.615  34.495  1.00  0.00     0.134 A 
ATOM     56  F   UNL A   1      42.326  25.585  34.778  1.00  0.00    -0.206 F 
ATOM     57  C   UNL A   1      44.370  25.430  35.922  1.00  0.00     0.040 A 
ATOM     58  C   UNL A   1      46.142  26.990  35.440  1.00  0.00     0.040 A 
ATOM     59  F   UNL A   1      45.818  28.684  33.850  1.00  0.00    -0.206 F 
ATOM     60  C   UNL A   1      45.657  25.905  36.169  1.00  0.00     0.006 A 
ENDBRANCH  36  53
ENDBRANCH  10  11
ENDBRANCH   3   5
ENDBRANCH   2   3
ENDBRANCH   1   2
BRANCH   1  61
ATOM     61  C   UNL A   1      31.400  31.501  26.875  1.00  0.00     0.274 C 
BRANCH  61  62
ATOM     62  O   UNL A   1      31.402  30.652  25.713  1.00  0.00    -0.462 OA
BRANCH  62  63
ATOM     63  C   UNL A   1      32.431  29.769  25.647  1.00  0.00     0.312 C 
ATOM     64  O   UNL A   1      33.576  30.070  25.961  1.00  0.00    -0.252 OA
BRANCH  63  65
ATOM     65  C   UNL A   1      32.037  28.434  24.984  1.00  0.00     0.079 C 
ATOM     66  C   UNL A   1      32.938  27.911  23.883  1.00  0.00     0.080 C 
ATOM     67  C   UNL A   1      30.649  28.674  24.316  1.00  0.00     0.080 C 
ATOM     68  C   UNL A   1      32.972  28.708  22.592  1.00  0.00     0.261 C 
ATOM     69  C   UNL A   1      30.773  29.533  23.042  1.00  0.00     0.261 C 
ATOM     70  N   UNL A   1      31.627  28.868  22.059  1.00  0.00    -0.346 N 
ATOM     71  H   UNL A   1      31.239  27.951  21.840  1.00  0.00     0.346 HD
ATOM     72  H   UNL A   1      31.671  29.439  21.214  1.00  0.00     0.346 HD
BRANCH  65  73
ATOM     73  C   UNL A   1      31.946  27.331  26.075  1.00  0.00     0.031 C 
BRANCH  73  74
ATOM     74  C   UNL A   1      31.883  25.799  25.765  1.00  0.00     0.062 C 
ATOM     75  C   UNL A   1      30.595  24.958  26.127  1.00  0.00     0.238 C 
ATOM     76  C   UNL A   1      32.998  24.737  25.829  1.00  0.00     0.001 A 
ATOM     77  O   UNL A   1      30.656  23.520  25.853  1.00  0.00    -0.493 OA
ATOM     78  C   UNL A   1      31.990  23.206  25.816  1.00  0.00     0.122 A 
ATOM     79  C   UNL A   1      34.790  24.639  25.372  1.00  0.00     0.008 A 
ATOM     80  C   UNL A   1      32.685  21.554  25.468  1.00  0.00     0.047 A 
ATOM     81  C   UNL A   1      35.555  22.984  24.942  1.00  0.00     0.001 A 
ATOM     82  C   UNL A   1      34.474  21.400  25.031  1.00  0.00     0.004 A 
ENDBRANCH  73  74
ENDBRANCH  65  73
ENDBRANCH  63  65
ENDBRANCH  62  63
ENDBRANCH  61  62
ENDBRANCH   1  61
TORSDOF 13
ENDMDL
MODEL 3
REMARK VINA RESULT:     -11.8      2.351      3.415
REMARK SMILES O=C(OCCOC(=O)C1(C[C@@H]2COc3ccccc32)CC[NH2+]CC1)c1ccc(-c2c3nc(c(-c4c(F)cccc4F)c4ccc([nH]4)c(-c4c(F)cccc4F)c4nc(c(-c5c(F)cccc5F)c5ccc2[nH]5)C=C4)C=C3)cc1
REMARK SMILES IDX 4 1 3 2 2 3 1 4 25 5 26 6 78 7 27 8 77 9 28 10 29 11 30 12
REMARK SMILES IDX 71 13 31 14 76 15 70 16 72 17 32 18 75 19 69 20 68 21 33 23
REMARK SMILES IDX 59 24 42 25 58 26 43 27 46 28 57 29 73 30 44 31 45 32 56 34
REMARK SMILES IDX 74 35 47 36 34 37 35 38 40 39 36 40 37 41 39 42 41 43 38 44
REMARK SMILES IDX 60 45 61 46 66 47 62 48 63 49 65 50 67 51 64 52 48 53 49 54
REMARK SMILES IDX 54 55 50 56 51 57 53 58 55 59 52 60 5 61 6 62 7 63 8 64 9 65
REMARK SMILES IDX 20 66 24 67 21 68 23 69 22 70 10 73 11 74 12 75 19 76 13 77
REMARK SMILES IDX 14 78 18 79 15 80 17 81 16 82
REMARK H PARENT 72 22 46 33 22 71 22 72
REMARK Flexibility Score: inf
ROOT
ATOM      1  C   UNL A   1      33.269  29.512  26.225  1.00  0.00     0.275 C 
ENDROOT
BRANCH   1   2
ATOM      2  O   UNL A   1      33.175  30.510  27.258  1.00  0.00    -0.458 OA
BRANCH   2   3
ATOM      3  C   UNL A   1      34.133  31.288  27.821  1.00  0.00     0.338 C 
ATOM      4  O   UNL A   1      34.000  32.509  27.784  1.00  0.00    -0.246 OA
BRANCH   3   5
ATOM      5  C   UNL A   1      35.409  30.744  28.383  1.00  0.00     0.060 A 
ATOM      6  C   UNL A   1      35.541  30.042  29.573  1.00  0.00     0.016 A 
ATOM      7  C   UNL A   1      36.574  30.945  27.628  1.00  0.00     0.016 A 
ATOM      8  C   UNL A   1      36.720  29.327  29.849  1.00  0.00     0.010 A 
ATOM      9  C   UNL A   1      37.731  30.179  27.864  1.00  0.00     0.010 A 
ATOM     10  C   UNL A   1      37.767  29.237  28.907  1.00  0.00    -0.014 A 
BRANCH  10  11
ATOM     11  C   UNL A   1      39.113  28.189  29.095  1.00  0.00     0.031 A 
ATOM     12  C   UNL A   1      39.814  29.278  30.460  1.00  0.00     0.074 A 
ATOM     13  C   UNL A   1      39.821  26.632  28.339  1.00  0.00     0.049 A 
ATOM     14  N   UNL A   1      41.024  29.177  31.003  1.00  0.00    -0.248 NA
ATOM     15  C   UNL A   1      39.110  30.433  31.072  1.00  0.00     0.031 C 
ATOM     16  C   UNL A   1      39.665  25.699  26.996  1.00  0.00     0.029 A 
ATOM     17  N   UNL A   1      40.986  25.684  28.718  1.00  0.00    -0.354 N 
ATOM     18  C   UNL A   1      41.162  30.055  32.018  1.00  0.00     0.074 A 
ATOM     19  C   UNL A   1      40.027  30.938  31.906  1.00  0.00     0.031 C 
ATOM     20  C   UNL A   1      40.304  24.526  26.975  1.00  0.00     0.029 A 
ATOM     21  C   UNL A   1      41.235  24.542  28.042  1.00  0.00     0.049 A 
ATOM     22  H   UNL A   1      41.565  25.922  29.479  1.00  0.00     0.167 HD
ATOM     23  C   UNL A   1      42.110  29.973  32.981  1.00  0.00     0.037 A 
ATOM     24  C   UNL A   1      42.274  23.723  28.248  1.00  0.00     0.037 A 
ATOM     25  C   UNL A   1      43.062  28.865  33.116  1.00  0.00     0.049 A 
ATOM     26  C   UNL A   1      43.150  24.008  29.439  1.00  0.00     0.074 A 
ATOM     27  C   UNL A   1      43.922  28.641  34.175  1.00  0.00     0.029 A 
ATOM     28  N   UNL A   1      43.248  27.775  32.237  1.00  0.00    -0.354 N 
ATOM     29  N   UNL A   1      43.177  25.068  30.229  1.00  0.00    -0.248 NA
ATOM     30  C   UNL A   1      44.091  22.955  29.790  1.00  0.00     0.031 C 
ATOM     31  C   UNL A   1      44.589  27.429  33.963  1.00  0.00     0.029 A 
ATOM     32  C   UNL A   1      44.148  26.846  32.778  1.00  0.00     0.049 A 
ATOM     33  H   UNL A   1      42.807  27.681  31.362  1.00  0.00     0.167 HD
ATOM     34  C   UNL A   1      44.135  24.809  31.198  1.00  0.00     0.074 A 
ATOM     35  C   UNL A   1      44.640  23.469  30.881  1.00  0.00     0.031 C 
ATOM     36  C   UNL A   1      44.575  25.541  32.264  1.00  0.00     0.037 A 
BRANCH  23  37
ATOM     37  C   UNL A   1      42.061  31.044  34.029  1.00  0.00     0.057 A 
ATOM     38  C   UNL A   1      41.264  30.918  35.174  1.00  0.00     0.134 A 
ATOM     39  C   UNL A   1      42.813  32.218  33.895  1.00  0.00     0.134 A 
ATOM     40  F   UNL A   1      40.526  29.814  35.373  1.00  0.00    -0.206 F 
ATOM     41  C   UNL A   1      41.165  31.942  36.117  1.00  0.00     0.040 A 
ATOM     42  C   UNL A   1      42.748  33.237  34.848  1.00  0.00     0.040 A 
ATOM     43  F   UNL A   1      43.618  32.397  32.838  1.00  0.00    -0.206 F 
ATOM     44  C   UNL A   1      41.911  33.107  35.954  1.00  0.00     0.006 A 
ENDBRANCH  23  37
BRANCH  24  45
ATOM     45  C   UNL A   1      42.494  22.643  27.267  1.00  0.00     0.057 A 
ATOM     46  C   UNL A   1      43.514  22.713  26.318  1.00  0.00     0.134 A 
ATOM     47  C   UNL A   1      41.818  21.423  27.415  1.00  0.00     0.134 A 
ATOM     48  F   UNL A   1      44.200  23.851  26.144  1.00  0.00    -0.206 F 
ATOM     49  C   UNL A   1      43.868  21.598  25.556  1.00  0.00     0.040 A 
ATOM     50  C   UNL A   1      42.180  20.296  26.681  1.00  0.00     0.040 A 
ATOM     51  F   UNL A   1      40.864  21.287  28.348  1.00  0.00    -0.206 F 
ATOM     52  C   UNL A   1      43.212  20.382  25.750  1.00  0.00     0.006 A 
ENDBRANCH  24  45
BRANCH  36  53
ATOM     53  C   UNL A   1      45.635  24.816  33.071  1.00  0.00     0.057 A 
ATOM     54  C   UNL A   1      45.298  23.845  34.026  1.00  0.00     0.134 A 
ATOM     55  C   UNL A   1      46.986  25.172  32.959  1.00  0.00     0.134 A 
ATOM     56  F   UNL A   1      44.016  23.494  34.214  1.00  0.00    -0.206 F 
ATOM     57  C   UNL A   1      46.261  23.291  34.872  1.00  0.00     0.040 A 
ATOM     58  C   UNL A   1      47.962  24.598  33.775  1.00  0.00     0.040 A 
ATOM     59  F   UNL A   1      47.375  26.098  32.069  1.00  0.00    -0.206 F 
ATOM     60  C   UNL A   1      47.597  23.668  34.747  1.00  0.00     0.006 A 
ENDBRANCH  36  53
ENDBRANCH  10  11
ENDBRANCH   3   5
ENDBRANCH   2   3
ENDBRANCH   1   2
BRANCH   1  61
ATOM     61  C   UNL A   1      32.976  28.085  26.669  1.00  0.00     0.274 C 
BRANCH  61  62
ATOM     62  O   UNL A   1      32.743  27.173  25.580  1.00  0.00    -0.462 OA
BRANCH  62  63
ATOM     63  C   UNL A   1      31.440  26.876  25.346  1.00  0.00     0.312 C 
ATOM     64  O   UNL A   1      30.646  26.645  26.250  1.00  0.00    -0.252 OA
BRANCH  63  65
ATOM     65  C   UNL A   1      31.122  26.697  23.848  1.00  0.00     0.079 C 
ATOM     66  C   UNL A   1      32.208  27.065  22.856  1.00  0.00     0.080 C 
ATOM     67  C   UNL A   1      29.929  27.651  23.540  1.00  0.00     0.080 C 
ATOM     68  C   UNL A   1      32.568  28.535  22.752  1.00  0.00     0.261 C 
ATOM     69  C   UNL A   1      30.376  29.126  23.503  1.00  0.00     0.261 C 
ATOM     70  N   UNL A   1      31.383  29.328  22.463  1.00  0.00    -0.346 N 
ATOM     71  H   UNL A   1      30.999  29.045  21.562  1.00  0.00     0.346 HD
ATOM     72  H   UNL A   1      31.642  30.315  22.436  1.00  0.00     0.346 HD
BRANCH  65  73
ATOM     73  C   UNL A   1      30.733  25.216  23.583  1.00  0.00     0.031 C 
BRANCH  73  74
ATOM     74  C   UNL A   1      31.521  23.990  24.151  1.00  0.00     0.062 C 
ATOM     75  C   UNL A   1      30.992  23.213  25.422  1.00  0.00     0.238 C 
ATOM     76  C   UNL A   1      33.041  23.749  24.228  1.00  0.00     0.001 A 
ATOM     77  O   UNL A   1      31.832  22.118  25.913  1.00  0.00    -0.493 OA
ATOM     78  C   UNL A   1      33.093  22.376  25.441  1.00  0.00     0.122 A 
ATOM     79  C   UNL A   1      34.505  24.036  23.130  1.00  0.00     0.008 A 
ATOM     80  C   UNL A   1      34.562  21.324  25.700  1.00  0.00     0.047 A 
ATOM     81  C   UNL A   1      36.024  22.953  23.297  1.00  0.00     0.001 A 
ATOM     82  C   UNL A   1      36.057  21.587  24.646  1.00  0.00     0.004 A 
ENDBRANCH  73  74
ENDBRANCH  65  73
ENDBRANCH  63  65
ENDBRANCH  62  63
ENDBRANCH  61  62
ENDBRANCH   1  61
TORSDOF 13
ENDMDL
