MODEL 1
REMARK VINA RESULT:     -12.3      0.000      0.000
REMARK SMILES CCSc1ccc(-c2cc(Cl)cc3c2O[C@H](C(F)(F)F)C(C(=O)OCCOC(=O)c2ccc(-c4c5nc(c(-c6c(F)cccc6F)c6ccc([nH]6)c(-c6c(F)cccc6F)c6nc(c(-c7c(F)cccc7F)c7ccc4[nH]7)C=C6)C=C5)cc2)=C3)cc1
REMARK SMILES IDX 25 1 24 2 22 3 23 4 21 5 8 6 9 7 14 8 10 9 13 10 15 11 11 12
REMARK SMILES IDX 12 13 84 14 16 15 7 16 4 17 5 18 86 19 6 20 85 21 3 22 2 23
REMARK SMILES IDX 1 24 17 25 18 26 19 27 20 28 26 29 27 30 28 31 29 32 30 33
REMARK SMILES IDX 31 34 83 35 32 36 82 37 33 38 34 39 35 40 76 41 36 42 81 43
REMARK SMILES IDX 75 44 77 45 37 46 80 47 74 48 73 49 38 51 64 52 47 53 63 54
REMARK SMILES IDX 48 55 51 56 62 57 78 58 49 59 50 60 61 62 79 63 52 64 39 65
REMARK SMILES IDX 40 66 45 67 41 68 42 69 44 70 46 71 43 72 65 73 66 74 71 75
REMARK SMILES IDX 67 76 68 77 70 78 72 79 69 80 53 81 54 82 59 83 55 84 56 85
REMARK SMILES IDX 58 86 60 87 57 88
REMARK H PARENT 77 50 51 61
REMARK Flexibility Score: inf
ROOT
ATOM      1  C   UNL A   1      31.067  29.093  24.545  1.00  0.00     0.275 C 
ENDROOT
BRANCH   1   2
ATOM      2  O   UNL A   1      30.759  27.897  25.306  1.00  0.00    -0.459 OA
BRANCH   2   3
ATOM      3  C   UNL A   1      30.531  26.820  24.509  1.00  0.00     0.338 C 
ATOM      4  O   UNL A   1      29.418  26.469  24.129  1.00  0.00    -0.246 OA
BRANCH   3   5
ATOM      5  C   UNL A   1      31.760  26.128  24.043  1.00  0.00     0.087 C 
ATOM      6  C   UNL A   1      32.086  22.084  24.346  1.00  0.00     0.026 A 
ATOM      7  C   UNL A   1      31.181  21.837  25.410  1.00  0.00     0.033 A 
ATOM      8  C   UNL A   1      32.374  23.441  24.159  1.00  0.00     0.135 A 
ATOM      9  C   UNL A   1      30.737  22.819  26.305  1.00  0.00     0.042 A 
ATOM     10  C   UNL A   1      32.158  24.347  25.230  1.00  0.00     0.019 A 
ATOM     11  O   UNL A   1      32.648  24.030  22.929  1.00  0.00    -0.475 OA
ATOM     12  Cl  UNL A   1      29.452  22.612  27.420  1.00  0.00    -0.084 Cl
ATOM     13  C   UNL A   1      31.333  24.050  26.295  1.00  0.00     0.032 A 
ATOM     14  C   UNL A   1      32.555  25.755  25.059  1.00  0.00     0.027 C 
ATOM     15  C   UNL A   1      31.904  25.345  22.752  1.00  0.00     0.316 C 
BRANCH   6  16
ATOM     16  C   UNL A   1      32.753  20.845  23.804  1.00  0.00    -0.015 A 
ATOM     17  C   UNL A   1      33.367  18.017  23.712  1.00  0.00     0.007 A 
ATOM     18  C   UNL A   1      32.476  18.593  22.805  1.00  0.00     0.015 A 
ATOM     19  C   UNL A   1      34.035  18.880  24.583  1.00  0.00     0.015 A 
ATOM     20  C   UNL A   1      32.207  19.994  22.826  1.00  0.00     0.010 A 
ATOM     21  C   UNL A   1      33.742  20.258  24.621  1.00  0.00     0.010 A 
BRANCH  17  22
ATOM     22  S   UNL A   1      33.612  16.261  23.986  1.00  0.00    -0.126 SA
BRANCH  22  23
ATOM     23  C   UNL A   1      33.216  15.982  25.745  1.00  0.00     0.071 C 
ATOM     24  C   UNL A   1      32.054  15.029  25.934  1.00  0.00     0.016 C 
ENDBRANCH  22  23
ENDBRANCH  17  22
ENDBRANCH   6  16
BRANCH  15  25
ATOM     25  C   UNL A   1      32.661  26.281  21.801  1.00  0.00     0.430 C 
ATOM     26  F   UNL A   1      33.984  26.325  22.093  1.00  0.00    -0.167 F 
ATOM     27  F   UNL A   1      32.535  25.915  20.510  1.00  0.00    -0.167 F 
ATOM     28  F   UNL A   1      32.195  27.553  21.902  1.00  0.00    -0.167 F 
ENDBRANCH  15  25
ENDBRANCH   3   5
ENDBRANCH   2   3
ENDBRANCH   1   2
BRANCH   1  29
ATOM     29  C   UNL A   1      32.464  29.653  24.831  1.00  0.00     0.275 C 
BRANCH  29  30
ATOM     30  O   UNL A   1      32.797  29.548  26.229  1.00  0.00    -0.458 OA
BRANCH  30  31
ATOM     31  C   UNL A   1      32.982  30.745  26.841  1.00  0.00     0.338 C 
ATOM     32  O   UNL A   1      32.155  31.629  26.952  1.00  0.00    -0.246 OA
BRANCH  31  33
ATOM     33  C   UNL A   1      34.309  30.807  27.510  1.00  0.00     0.060 A 
ATOM     34  C   UNL A   1      34.823  29.595  27.954  1.00  0.00     0.016 A 
ATOM     35  C   UNL A   1      35.051  31.977  27.726  1.00  0.00     0.016 A 
ATOM     36  C   UNL A   1      36.080  29.557  28.557  1.00  0.00     0.010 A 
ATOM     37  C   UNL A   1      36.332  31.922  28.333  1.00  0.00     0.010 A 
ATOM     38  C   UNL A   1      36.884  30.699  28.730  1.00  0.00    -0.014 A 
BRANCH  38  39
ATOM     39  C   UNL A   1      38.230  30.501  29.381  1.00  0.00     0.031 A 
ATOM     40  C   UNL A   1      38.425  30.970  30.792  1.00  0.00     0.074 A 
ATOM     41  C   UNL A   1      39.214  29.738  28.848  1.00  0.00     0.049 A 
ATOM     42  N   UNL A   1      39.481  30.860  31.554  1.00  0.00    -0.248 NA
ATOM     43  C   UNL A   1      37.297  31.676  31.414  1.00  0.00     0.031 C 
ATOM     44  C   UNL A   1      39.214  29.221  27.496  1.00  0.00     0.029 A 
ATOM     45  N   UNL A   1      40.358  29.184  29.386  1.00  0.00    -0.354 N 
ATOM     46  C   UNL A   1      39.148  31.477  32.746  1.00  0.00     0.074 A 
ATOM     47  C   UNL A   1      37.791  31.963  32.606  1.00  0.00     0.031 C 
ATOM     48  C   UNL A   1      40.156  28.277  27.357  1.00  0.00     0.029 A 
ATOM     49  C   UNL A   1      40.980  28.265  28.558  1.00  0.00     0.049 A 
ATOM     50  H   UNL A   1      40.701  29.422  30.278  1.00  0.00     0.167 HD
ATOM     51  C   UNL A   1      39.904  31.629  33.858  1.00  0.00     0.037 A 
ATOM     52  C   UNL A   1      42.109  27.536  28.709  1.00  0.00     0.037 A 
ATOM     53  C   UNL A   1      41.274  31.207  33.980  1.00  0.00     0.049 A 
ATOM     54  C   UNL A   1      42.952  27.769  29.935  1.00  0.00     0.074 A 
ATOM     55  C   UNL A   1      42.164  31.445  35.014  1.00  0.00     0.029 A 
ATOM     56  N   UNL A   1      41.944  30.419  33.055  1.00  0.00    -0.354 N 
ATOM     57  N   UNL A   1      42.732  28.585  30.936  1.00  0.00    -0.248 NA
ATOM     58  C   UNL A   1      44.224  27.036  30.032  1.00  0.00     0.031 C 
ATOM     59  C   UNL A   1      43.352  30.757  34.741  1.00  0.00     0.029 A 
ATOM     60  C   UNL A   1      43.186  30.060  33.556  1.00  0.00     0.049 A 
ATOM     61  H   UNL A   1      41.591  30.155  32.175  1.00  0.00     0.167 HD
ATOM     62  C   UNL A   1      43.825  28.459  31.780  1.00  0.00     0.074 A 
ATOM     63  C   UNL A   1      44.707  27.478  31.185  1.00  0.00     0.031 C 
ATOM     64  C   UNL A   1      44.073  29.105  32.944  1.00  0.00     0.037 A 
BRANCH  51  65
ATOM     65  C   UNL A   1      39.231  32.296  35.015  1.00  0.00     0.057 A 
ATOM     66  C   UNL A   1      39.278  33.689  35.180  1.00  0.00     0.134 A 
ATOM     67  C   UNL A   1      38.590  31.545  36.006  1.00  0.00     0.134 A 
ATOM     68  F   UNL A   1      39.906  34.459  34.277  1.00  0.00    -0.206 F 
ATOM     69  C   UNL A   1      38.755  34.305  36.316  1.00  0.00     0.040 A 
ATOM     70  C   UNL A   1      38.032  32.155  37.129  1.00  0.00     0.040 A 
ATOM     71  F   UNL A   1      38.512  30.210  35.907  1.00  0.00    -0.206 F 
ATOM     72  C   UNL A   1      38.128  33.536  37.293  1.00  0.00     0.006 A 
ENDBRANCH  51  65
BRANCH  52  73
ATOM     73  C   UNL A   1      42.584  26.607  27.635  1.00  0.00     0.057 A 
ATOM     74  C   UNL A   1      42.246  25.245  27.626  1.00  0.00     0.134 A 
ATOM     75  C   UNL A   1      43.428  27.048  26.606  1.00  0.00     0.134 A 
ATOM     76  F   UNL A   1      41.475  24.731  28.596  1.00  0.00    -0.206 F 
ATOM     77  C   UNL A   1      42.737  24.366  26.653  1.00  0.00     0.040 A 
ATOM     78  C   UNL A   1      43.886  26.193  25.601  1.00  0.00     0.040 A 
ATOM     79  F   UNL A   1      43.816  28.331  26.552  1.00  0.00    -0.206 F 
ATOM     80  C   UNL A   1      43.549  24.844  25.627  1.00  0.00     0.006 A 
ENDBRANCH  52  73
BRANCH  64  81
ATOM     81  C   UNL A   1      45.334  28.744  33.668  1.00  0.00     0.057 A 
ATOM     82  C   UNL A   1      46.529  29.445  33.467  1.00  0.00     0.134 A 
ATOM     83  C   UNL A   1      45.342  27.698  34.599  1.00  0.00     0.134 A 
ATOM     84  F   UNL A   1      46.591  30.444  32.575  1.00  0.00    -0.206 F 
ATOM     85  C   UNL A   1      47.694  29.108  34.160  1.00  0.00     0.040 A 
ATOM     86  C   UNL A   1      46.495  27.365  35.311  1.00  0.00     0.040 A 
ATOM     87  F   UNL A   1      44.228  26.989  34.836  1.00  0.00    -0.206 F 
ATOM     88  C   UNL A   1      47.676  28.070  35.090  1.00  0.00     0.006 A 
ENDBRANCH  64  81
ENDBRANCH  38  39
ENDBRANCH  31  33
ENDBRANCH  30  31
ENDBRANCH  29  30
ENDBRANCH   1  29
TORSDOF 15
ENDMDL
MODEL 2
REMARK VINA RESULT:     -12.2      4.077      7.306
REMARK SMILES CCSc1ccc(-c2cc(Cl)cc3c2O[C@H](C(F)(F)F)C(C(=O)OCCOC(=O)c2ccc(-c4c5nc(c(-c6c(F)cccc6F)c6ccc([nH]6)c(-c6c(F)cccc6F)c6nc(c(-c7c(F)cccc7F)c7ccc4[nH]7)C=C6)C=C5)cc2)=C3)cc1
REMARK SMILES IDX 25 1 24 2 22 3 23 4 21 5 8 6 9 7 14 8 10 9 13 10 15 11 11 12
REMARK SMILES IDX 12 13 84 14 16 15 7 16 4 17 5 18 86 19 6 20 85 21 3 22 2 23
REMARK SMILES IDX 1 24 17 25 18 26 19 27 20 28 26 29 27 30 28 31 29 32 30 33
REMARK SMILES IDX 31 34 83 35 32 36 82 37 33 38 34 39 35 40 76 41 36 42 81 43
REMARK SMILES IDX 75 44 77 45 37 46 80 47 74 48 73 49 38 51 64 52 47 53 63 54
REMARK SMILES IDX 48 55 51 56 62 57 78 58 49 59 50 60 61 62 79 63 52 64 39 65
REMARK SMILES IDX 40 66 45 67 41 68 42 69 44 70 46 71 43 72 65 73 66 74 71 75
REMARK SMILES IDX 67 76 68 77 70 78 72 79 69 80 53 81 54 82 59 83 55 84 56 85
REMARK SMILES IDX 58 86 60 87 57 88
REMARK H PARENT 77 50 51 61
REMARK Flexibility Score: inf
ROOT
ATOM      1  C   UNL A   1      32.700  28.580  26.734  1.00  0.00     0.275 C 
ENDROOT
BRANCH   1   2
ATOM      2  O   UNL A   1      33.414  27.441  26.188  1.00  0.00    -0.459 OA
BRANCH   2   3
ATOM      3  C   UNL A   1      33.433  27.445  24.830  1.00  0.00     0.338 C 
ATOM      4  O   UNL A   1      34.142  28.184  24.154  1.00  0.00    -0.246 OA
BRANCH   3   5
ATOM      5  C   UNL A   1      32.579  26.406  24.199  1.00  0.00     0.087 C 
ATOM      6  C   UNL A   1      33.361  22.458  24.791  1.00  0.00     0.026 A 
ATOM      7  C   UNL A   1      34.746  22.518  25.096  1.00  0.00     0.033 A 
ATOM      8  C   UNL A   1      32.843  23.662  24.301  1.00  0.00     0.135 A 
ATOM      9  C   UNL A   1      35.569  23.608  24.788  1.00  0.00     0.042 A 
ATOM     10  C   UNL A   1      33.729  24.616  23.736  1.00  0.00     0.019 A 
ATOM     11  O   UNL A   1      31.545  24.113  24.520  1.00  0.00    -0.475 OA
ATOM     12  Cl  UNL A   1      37.164  23.821  25.377  1.00  0.00    -0.084 Cl
ATOM     13  C   UNL A   1      35.086  24.604  23.986  1.00  0.00     0.032 A 
ATOM     14  C   UNL A   1      33.166  25.837  23.133  1.00  0.00     0.027 C 
ATOM     15  C   UNL A   1      31.513  25.585  24.900  1.00  0.00     0.316 C 
BRANCH   6  16
ATOM     16  C   UNL A   1      32.787  21.064  24.805  1.00  0.00    -0.015 A 
ATOM     17  C   UNL A   1      32.828  18.200  24.378  1.00  0.00     0.007 A 
ATOM     18  C   UNL A   1      32.966  18.741  25.657  1.00  0.00     0.015 A 
ATOM     19  C   UNL A   1      32.552  19.089  23.337  1.00  0.00     0.015 A 
ATOM     20  C   UNL A   1      32.903  20.151  25.870  1.00  0.00     0.010 A 
ATOM     21  C   UNL A   1      32.524  20.482  23.547  1.00  0.00     0.010 A 
BRANCH  17  22
ATOM     22  S   UNL A   1      33.139  16.496  23.910  1.00  0.00    -0.126 SA
BRANCH  22  23
ATOM     23  C   UNL A   1      33.895  15.718  25.376  1.00  0.00     0.071 C 
ATOM     24  C   UNL A   1      35.406  15.828  25.376  1.00  0.00     0.016 C 
ENDBRANCH  22  23
ENDBRANCH  17  22
ENDBRANCH   6  16
BRANCH  15  25
ATOM     25  C   UNL A   1      30.183  26.229  24.492  1.00  0.00     0.430 C 
ATOM     26  F   UNL A   1      29.199  25.953  25.384  1.00  0.00    -0.167 F 
ATOM     27  F   UNL A   1      30.273  27.570  24.380  1.00  0.00    -0.167 F 
ATOM     28  F   UNL A   1      29.765  25.756  23.289  1.00  0.00    -0.167 F 
ENDBRANCH  15  25
ENDBRANCH   3   5
ENDBRANCH   2   3
ENDBRANCH   1   2
BRANCH   1  29
ATOM     29  C   UNL A   1      33.622  29.712  27.196  1.00  0.00     0.275 C 
BRANCH  29  30
ATOM     30  O   UNL A   1      34.688  29.216  28.029  1.00  0.00    -0.458 OA
BRANCH  30  31
ATOM     31  C   UNL A   1      35.483  30.190  28.541  1.00  0.00     0.338 C 
ATOM     32  O   UNL A   1      35.113  31.270  28.959  1.00  0.00    -0.246 OA
BRANCH  31  33
ATOM     33  C   UNL A   1      36.888  29.723  28.673  1.00  0.00     0.060 A 
ATOM     34  C   UNL A   1      37.638  29.714  27.504  1.00  0.00     0.016 A 
ATOM     35  C   UNL A   1      37.489  29.293  29.865  1.00  0.00     0.016 A 
ATOM     36  C   UNL A   1      38.978  29.328  27.544  1.00  0.00     0.010 A 
ATOM     37  C   UNL A   1      38.854  28.911  29.893  1.00  0.00     0.010 A 
ATOM     38  C   UNL A   1      39.634  28.955  28.732  1.00  0.00    -0.014 A 
BRANCH  38  39
ATOM     39  C   UNL A   1      41.091  28.582  28.625  1.00  0.00     0.031 A 
ATOM     40  C   UNL A   1      41.449  27.180  28.229  1.00  0.00     0.074 A 
ATOM     41  C   UNL A   1      42.100  29.484  28.658  1.00  0.00     0.049 A 
ATOM     42  N   UNL A   1      42.632  26.660  28.034  1.00  0.00    -0.248 NA
ATOM     43  C   UNL A   1      40.335  26.239  28.056  1.00  0.00     0.031 C 
ATOM     44  C   UNL A   1      41.951  30.871  29.043  1.00  0.00     0.029 A 
ATOM     45  N   UNL A   1      43.427  29.413  28.283  1.00  0.00    -0.354 N 
ATOM     46  C   UNL A   1      42.409  25.333  27.712  1.00  0.00     0.074 A 
ATOM     47  C   UNL A   1      40.976  25.126  27.740  1.00  0.00     0.031 C 
ATOM     48  C   UNL A   1      43.042  31.571  28.700  1.00  0.00     0.029 A 
ATOM     49  C   UNL A   1      44.069  30.640  28.255  1.00  0.00     0.049 A 
ATOM     50  H   UNL A   1      43.875  28.567  28.056  1.00  0.00     0.167 HD
ATOM     51  C   UNL A   1      43.315  24.371  27.422  1.00  0.00     0.037 A 
ATOM     52  C   UNL A   1      45.345  30.982  27.966  1.00  0.00     0.037 A 
ATOM     53  C   UNL A   1      44.741  24.553  27.456  1.00  0.00     0.049 A 
ATOM     54  C   UNL A   1      46.337  29.882  27.698  1.00  0.00     0.074 A 
ATOM     55  C   UNL A   1      45.739  23.603  27.317  1.00  0.00     0.029 A 
ATOM     56  N   UNL A   1      45.379  25.777  27.599  1.00  0.00    -0.354 N 
ATOM     57  N   UNL A   1      46.136  28.587  27.672  1.00  0.00    -0.248 NA
ATOM     58  C   UNL A   1      47.739  30.272  27.481  1.00  0.00     0.031 C 
ATOM     59  C   UNL A   1      46.976  24.257  27.321  1.00  0.00     0.029 A 
ATOM     60  C   UNL A   1      46.745  25.619  27.423  1.00  0.00     0.049 A 
ATOM     61  H   UNL A   1      44.929  26.631  27.795  1.00  0.00     0.167 HD
ATOM     62  C   UNL A   1      47.374  28.013  27.430  1.00  0.00     0.074 A 
ATOM     63  C   UNL A   1      48.326  29.096  27.302  1.00  0.00     0.031 C 
ATOM     64  C   UNL A   1      47.691  26.700  27.327  1.00  0.00     0.037 A 
BRANCH  51  65
ATOM     65  C   UNL A   1      42.749  23.036  27.053  1.00  0.00     0.057 A 
ATOM     66  C   UNL A   1      42.312  22.135  28.036  1.00  0.00     0.134 A 
ATOM     67  C   UNL A   1      42.700  22.618  25.719  1.00  0.00     0.134 A 
ATOM     68  F   UNL A   1      42.364  22.468  29.336  1.00  0.00    -0.206 F 
ATOM     69  C   UNL A   1      41.895  20.846  27.707  1.00  0.00     0.040 A 
ATOM     70  C   UNL A   1      42.251  21.344  25.376  1.00  0.00     0.040 A 
ATOM     71  F   UNL A   1      43.105  23.433  24.734  1.00  0.00    -0.206 F 
ATOM     72  C   UNL A   1      41.862  20.449  26.372  1.00  0.00     0.006 A 
ENDBRANCH  51  65
BRANCH  52  73
ATOM     73  C   UNL A   1      45.800  32.407  28.027  1.00  0.00     0.057 A 
ATOM     74  C   UNL A   1      46.297  32.980  29.209  1.00  0.00     0.134 A 
ATOM     75  C   UNL A   1      45.709  33.253  26.913  1.00  0.00     0.134 A 
ATOM     76  F   UNL A   1      46.380  32.252  30.332  1.00  0.00    -0.206 F 
ATOM     77  C   UNL A   1      46.669  34.328  29.279  1.00  0.00     0.040 A 
ATOM     78  C   UNL A   1      46.122  34.587  26.956  1.00  0.00     0.040 A 
ATOM     79  F   UNL A   1      45.226  32.791  25.750  1.00  0.00    -0.206 F 
ATOM     80  C   UNL A   1      46.594  35.132  28.145  1.00  0.00     0.006 A 
ENDBRANCH  52  73
BRANCH  64  81
ATOM     81  C   UNL A   1      49.120  26.366  27.027  1.00  0.00     0.057 A 
ATOM     82  C   UNL A   1      50.044  26.086  28.042  1.00  0.00     0.134 A 
ATOM     83  C   UNL A   1      49.569  26.295  25.702  1.00  0.00     0.134 A 
ATOM     84  F   UNL A   1      49.679  26.155  29.331  1.00  0.00    -0.206 F 
ATOM     85  C   UNL A   1      51.369  25.761  27.749  1.00  0.00     0.040 A 
ATOM     86  C   UNL A   1      50.887  25.954  25.396  1.00  0.00     0.040 A 
ATOM     87  F   UNL A   1      48.733  26.552  24.685  1.00  0.00    -0.206 F 
ATOM     88  C   UNL A   1      51.792  25.687  26.422  1.00  0.00     0.006 A 
ENDBRANCH  64  81
ENDBRANCH  38  39
ENDBRANCH  31  33
ENDBRANCH  30  31
ENDBRANCH  29  30
ENDBRANCH   1  29
TORSDOF 15
ENDMDL
MODEL 3
REMARK VINA RESULT:     -12.2      0.838      6.002
REMARK SMILES CCSc1ccc(-c2cc(Cl)cc3c2O[C@H](C(F)(F)F)C(C(=O)OCCOC(=O)c2ccc(-c4c5nc(c(-c6c(F)cccc6F)c6ccc([nH]6)c(-c6c(F)cccc6F)c6nc(c(-c7c(F)cccc7F)c7ccc4[nH]7)C=C6)C=C5)cc2)=C3)cc1
REMARK SMILES IDX 25 1 24 2 22 3 23 4 21 5 8 6 9 7 14 8 10 9 13 10 15 11 11 12
REMARK SMILES IDX 12 13 84 14 16 15 7 16 4 17 5 18 86 19 6 20 85 21 3 22 2 23
REMARK SMILES IDX 1 24 17 25 18 26 19 27 20 28 26 29 27 30 28 31 29 32 30 33
REMARK SMILES IDX 31 34 83 35 32 36 82 37 33 38 34 39 35 40 76 41 36 42 81 43
REMARK SMILES IDX 75 44 77 45 37 46 80 47 74 48 73 49 38 51 64 52 47 53 63 54
REMARK SMILES IDX 48 55 51 56 62 57 78 58 49 59 50 60 61 62 79 63 52 64 39 65
REMARK SMILES IDX 40 66 45 67 41 68 42 69 44 70 46 71 43 72 65 73 66 74 71 75
REMARK SMILES IDX 67 76 68 77 70 78 72 79 69 80 53 81 54 82 59 83 55 84 56 85
REMARK SMILES IDX 58 86 60 87 57 88
REMARK H PARENT 77 50 51 61
REMARK Flexibility Score: inf
ROOT
ATOM      1  C   UNL A   1      31.012  29.110  24.481  1.00  0.00     0.275 C 
ENDROOT
BRANCH   1   2
ATOM      2  O   UNL A   1      30.786  27.921  25.281  1.00  0.00    -0.459 OA
BRANCH   2   3
ATOM      3  C   UNL A   1      30.559  26.820  24.519  1.00  0.00     0.338 C 
ATOM      4  O   UNL A   1      29.447  26.449  24.160  1.00  0.00    -0.246 OA
BRANCH   3   5
ATOM      5  C   UNL A   1      31.790  26.123  24.064  1.00  0.00     0.087 C 
ATOM      6  C   UNL A   1      32.092  22.076  24.354  1.00  0.00     0.026 A 
ATOM      7  C   UNL A   1      31.174  21.830  25.408  1.00  0.00     0.033 A 
ATOM      8  C   UNL A   1      32.389  23.433  24.176  1.00  0.00     0.135 A 
ATOM      9  C   UNL A   1      30.727  22.811  26.302  1.00  0.00     0.042 A 
ATOM     10  C   UNL A   1      32.166  24.336  25.248  1.00  0.00     0.019 A 
ATOM     11  O   UNL A   1      32.679  24.025  22.951  1.00  0.00    -0.475 OA
ATOM     12  Cl  UNL A   1      29.428  22.606  27.402  1.00  0.00    -0.084 Cl
ATOM     13  C   UNL A   1      31.328  24.038  26.303  1.00  0.00     0.032 A 
ATOM     14  C   UNL A   1      32.572  25.742  25.086  1.00  0.00     0.027 C 
ATOM     15  C   UNL A   1      31.944  25.343  22.771  1.00  0.00     0.316 C 
BRANCH   6  16
ATOM     16  C   UNL A   1      32.759  20.836  23.815  1.00  0.00    -0.015 A 
ATOM     17  C   UNL A   1      33.469  18.028  23.799  1.00  0.00     0.007 A 
ATOM     18  C   UNL A   1      32.485  18.530  22.945  1.00  0.00     0.015 A 
ATOM     19  C   UNL A   1      34.173  18.955  24.571  1.00  0.00     0.015 A 
ATOM     20  C   UNL A   1      32.166  19.921  22.925  1.00  0.00     0.010 A 
ATOM     21  C   UNL A   1      33.833  20.322  24.572  1.00  0.00     0.010 A 
BRANCH  17  22
ATOM     22  S   UNL A   1      33.801  16.297  24.131  1.00  0.00    -0.126 SA
BRANCH  22  23
ATOM     23  C   UNL A   1      33.170  15.993  25.815  1.00  0.00     0.071 C 
ATOM     24  C   UNL A   1      32.118  14.904  25.852  1.00  0.00     0.016 C 
ENDBRANCH  22  23
ENDBRANCH  17  22
ENDBRANCH   6  16
BRANCH  15  25
ATOM     25  C   UNL A   1      32.715  26.279  21.832  1.00  0.00     0.430 C 
ATOM     26  F   UNL A   1      32.481  25.985  20.529  1.00  0.00    -0.167 F 
ATOM     27  F   UNL A   1      32.399  27.576  22.024  1.00  0.00    -0.167 F 
ATOM     28  F   UNL A   1      34.055  26.163  22.026  1.00  0.00    -0.167 F 
ENDBRANCH  15  25
ENDBRANCH   3   5
ENDBRANCH   2   3
ENDBRANCH   1   2
BRANCH   1  29
ATOM     29  C   UNL A   1      31.181  30.383  25.317  1.00  0.00     0.275 C 
BRANCH  29  30
ATOM     30  O   UNL A   1      32.498  30.462  25.895  1.00  0.00    -0.458 OA
BRANCH  30  31
ATOM     31  C   UNL A   1      32.653  31.488  26.770  1.00  0.00     0.338 C 
ATOM     32  O   UNL A   1      31.891  32.422  26.921  1.00  0.00    -0.246 OA
BRANCH  31  33
ATOM     33  C   UNL A   1      33.827  31.266  27.657  1.00  0.00     0.060 A 
ATOM     34  C   UNL A   1      34.136  29.940  27.935  1.00  0.00     0.016 A 
ATOM     35  C   UNL A   1      34.614  32.278  28.223  1.00  0.00     0.016 A 
ATOM     36  C   UNL A   1      35.244  29.641  28.727  1.00  0.00     0.010 A 
ATOM     37  C   UNL A   1      35.744  31.958  29.019  1.00  0.00     0.010 A 
ATOM     38  C   UNL A   1      36.098  30.626  29.257  1.00  0.00    -0.014 A 
BRANCH  38  39
ATOM     39  C   UNL A   1      37.271  30.150  30.078  1.00  0.00     0.031 A 
ATOM     40  C   UNL A   1      38.393  29.437  29.384  1.00  0.00     0.074 A 
ATOM     41  C   UNL A   1      37.478  30.509  31.367  1.00  0.00     0.049 A 
ATOM     42  N   UNL A   1      39.512  28.986  29.886  1.00  0.00    -0.248 NA
ATOM     43  C   UNL A   1      38.222  29.177  27.949  1.00  0.00     0.031 C 
ATOM     44  C   UNL A   1      36.502  31.176  32.202  1.00  0.00     0.029 A 
ATOM     45  N   UNL A   1      38.590  30.453  32.183  1.00  0.00    -0.354 N 
ATOM     46  C   UNL A   1      40.182  28.391  28.833  1.00  0.00     0.074 A 
ATOM     47  C   UNL A   1      39.343  28.536  27.662  1.00  0.00     0.031 C 
ATOM     48  C   UNL A   1      37.086  31.655  33.310  1.00  0.00     0.029 A 
ATOM     49  C   UNL A   1      38.448  31.146  33.373  1.00  0.00     0.049 A 
ATOM     50  H   UNL A   1      39.409  29.964  31.940  1.00  0.00     0.167 HD
ATOM     51  C   UNL A   1      41.387  27.776  28.838  1.00  0.00     0.037 A 
ATOM     52  C   UNL A   1      39.284  31.311  34.424  1.00  0.00     0.037 A 
ATOM     53  C   UNL A   1      42.196  27.570  30.010  1.00  0.00     0.049 A 
ATOM     54  C   UNL A   1      40.595  30.571  34.418  1.00  0.00     0.074 A 
ATOM     55  C   UNL A   1      43.362  26.835  30.139  1.00  0.00     0.029 A 
ATOM     56  N   UNL A   1      41.949  28.140  31.251  1.00  0.00    -0.354 N 
ATOM     57  N   UNL A   1      41.083  29.779  33.496  1.00  0.00    -0.248 NA
ATOM     58  C   UNL A   1      41.445  30.689  35.614  1.00  0.00     0.031 C 
ATOM     59  C   UNL A   1      43.848  27.002  31.441  1.00  0.00     0.029 A 
ATOM     60  C   UNL A   1      43.005  27.874  32.109  1.00  0.00     0.049 A 
ATOM     61  H   UNL A   1      41.143  28.655  31.487  1.00  0.00     0.167 HD
ATOM     62  C   UNL A   1      42.292  29.314  33.991  1.00  0.00     0.074 A 
ATOM     63  C   UNL A   1      42.476  29.920  35.293  1.00  0.00     0.031 C 
ATOM     64  C   UNL A   1      43.168  28.457  33.415  1.00  0.00     0.037 A 
BRANCH  51  65
ATOM     65  C   UNL A   1      41.870  27.281  27.511  1.00  0.00     0.057 A 
ATOM     66  C   UNL A   1      41.646  25.958  27.103  1.00  0.00     0.134 A 
ATOM     67  C   UNL A   1      42.620  28.105  26.665  1.00  0.00     0.134 A 
ATOM     68  F   UNL A   1      40.960  25.111  27.887  1.00  0.00    -0.206 F 
ATOM     69  C   UNL A   1      42.195  25.459  25.922  1.00  0.00     0.040 A 
ATOM     70  C   UNL A   1      43.143  27.626  25.465  1.00  0.00     0.040 A 
ATOM     71  F   UNL A   1      42.870  29.380  27.000  1.00  0.00    -0.206 F 
ATOM     72  C   UNL A   1      42.944  26.296  25.099  1.00  0.00     0.006 A 
ENDBRANCH  51  65
BRANCH  52  73
ATOM     73  C   UNL A   1      38.876  32.110  35.622  1.00  0.00     0.057 A 
ATOM     74  C   UNL A   1      38.170  31.539  36.693  1.00  0.00     0.134 A 
ATOM     75  C   UNL A   1      39.142  33.484  35.712  1.00  0.00     0.134 A 
ATOM     76  F   UNL A   1      37.840  30.239  36.670  1.00  0.00    -0.206 F 
ATOM     77  C   UNL A   1      37.740  32.300  37.787  1.00  0.00     0.040 A 
ATOM     78  C   UNL A   1      38.761  34.245  36.819  1.00  0.00     0.040 A 
ATOM     79  F   UNL A   1      39.794  34.112  34.722  1.00  0.00    -0.206 F 
ATOM     80  C   UNL A   1      38.049  33.655  37.858  1.00  0.00     0.006 A 
ENDBRANCH  52  73
BRANCH  64  81
ATOM     81  C   UNL A   1      44.422  28.152  34.175  1.00  0.00     0.057 A 
ATOM     82  C   UNL A   1      45.567  28.950  34.065  1.00  0.00     0.134 A 
ATOM     83  C   UNL A   1      44.474  27.059  35.050  1.00  0.00     0.134 A 
ATOM     84  F   UNL A   1      45.587  30.000  33.230  1.00  0.00    -0.206 F 
ATOM     85  C   UNL A   1      46.726  28.664  34.791  1.00  0.00     0.040 A 
ATOM     86  C   UNL A   1      45.619  26.774  35.794  1.00  0.00     0.040 A 
ATOM     87  F   UNL A   1      43.409  26.256  35.199  1.00  0.00    -0.206 F 
ATOM     88  C   UNL A   1      46.750  27.577  35.663  1.00  0.00     0.006 A 
ENDBRANCH  64  81
ENDBRANCH  38  39
ENDBRANCH  31  33
ENDBRANCH  30  31
ENDBRANCH  29  30
ENDBRANCH   1  29
TORSDOF 15
ENDMDL
