MODEL 1
REMARK VINA RESULT:     -12.6      0.000      0.000
REMARK SMILES COc1cc(Cl)c(C)cc1N1C(=O)C[C@H](Nc2cc(C(=O)OCCOC(=O)c3ccc(-c4c5nc(c(-c6c(F)cccc6F)c6ccc([nH]6)c(-c6c(F)cccc6F)c6nc(c(-c7c(F)cccc7F)c7ccc4[nH]7)C=C6)C=C5)cc3)ccc2C)C1=O
REMARK SMILES IDX 23 1 22 2 20 3 21 4 19 5 17 6 18 7 84 8 83 9 85 10 82 11
REMARK SMILES IDX 16 12 15 14 11 15 12 16 86 17 13 18 14 19 87 20 10 21 3 22
REMARK SMILES IDX 4 23 5 24 9 25 6 26 7 27 8 28 2 29 1 30 24 31 25 32 26 33
REMARK SMILES IDX 27 34 28 35 29 36 81 37 30 38 80 39 31 40 32 41 33 42 74 43
REMARK SMILES IDX 34 44 79 45 73 46 75 47 35 48 78 49 72 50 71 51 36 53 62 54
REMARK SMILES IDX 45 55 61 56 46 57 49 58 60 59 76 60 47 61 48 62 59 64 77 65
REMARK SMILES IDX 50 66 37 67 38 68 43 69 39 70 40 71 42 72 44 73 41 74 63 75
REMARK SMILES IDX 64 76 69 77 65 78 66 79 68 80 70 81 67 82 51 83 52 84 57 85
REMARK SMILES IDX 53 86 54 87 56 88 58 89 55 90
REMARK H PARENT 16 13 75 52 49 63
REMARK Flexibility Score: inf
ROOT
ATOM      1  C   UNL A   1      32.592  35.886  30.056  1.00  0.00     0.275 C 
ENDROOT
BRANCH   1   2
ATOM      2  O   UNL A   1      32.970  34.677  29.382  1.00  0.00    -0.458 OA
BRANCH   2   3
ATOM      3  C   UNL A   1      33.998  34.731  28.506  1.00  0.00     0.338 C 
ATOM      4  O   UNL A   1      34.489  35.723  28.028  1.00  0.00    -0.246 OA
BRANCH   3   5
ATOM      5  C   UNL A   1      34.388  33.355  28.126  1.00  0.00     0.062 A 
ATOM      6  C   UNL A   1      33.817  31.028  27.732  1.00  0.00     0.038 A 
ATOM      7  C   UNL A   1      33.425  32.362  27.921  1.00  0.00     0.041 A 
ATOM      8  C   UNL A   1      35.190  30.709  27.722  1.00  0.00    -0.028 A 
ATOM      9  C   UNL A   1      36.145  31.729  27.852  1.00  0.00     0.006 A 
ATOM     10  C   UNL A   1      35.680  29.294  27.545  1.00  0.00     0.046 C 
ATOM     11  C   UNL A   1      35.745  33.039  28.094  1.00  0.00     0.016 A 
BRANCH   6  12
ATOM     12  N   UNL A   1      32.880  30.002  27.796  1.00  0.00    -0.373 N 
ATOM     13  H   UNL A   1      32.721  29.538  28.651  1.00  0.00     0.161 HD
BRANCH  12  14
ATOM     14  C   UNL A   1      32.131  29.606  26.608  1.00  0.00     0.179 C 
ATOM     15  N   UNL A   1      32.519  27.553  25.539  1.00  0.00    -0.245 N 
ATOM     16  C   UNL A   1      33.288  28.462  24.861  1.00  0.00     0.236 C 
ATOM     17  C   UNL A   1      31.846  28.113  26.599  1.00  0.00     0.256 C 
ATOM     18  O   UNL A   1      34.041  28.257  23.918  1.00  0.00    -0.274 OA
ATOM     19  C   UNL A   1      32.993  29.835  25.377  1.00  0.00     0.136 C 
ATOM     20  O   UNL A   1      31.210  27.538  27.473  1.00  0.00    -0.272 OA
BRANCH  15  21
ATOM     21  C   UNL A   1      32.437  26.185  25.189  1.00  0.00     0.094 A 
ATOM     22  C   UNL A   1      31.551  25.724  24.202  1.00  0.00     0.144 A 
ATOM     23  C   UNL A   1      31.487  24.366  23.885  1.00  0.00     0.069 A 
ATOM     24  C   UNL A   1      32.291  23.448  24.559  1.00  0.00     0.047 A 
ATOM     25  C   UNL A   1      33.255  25.251  25.847  1.00  0.00     0.035 A 
ATOM     26  Cl  UNL A   1      32.172  21.785  24.110  1.00  0.00    -0.084 Cl
ATOM     27  C   UNL A   1      33.162  23.874  25.572  1.00  0.00    -0.030 A 
ATOM     28  C   UNL A   1      33.969  22.901  26.386  1.00  0.00     0.046 C 
BRANCH  22  29
ATOM     29  O   UNL A   1      30.687  26.535  23.516  1.00  0.00    -0.495 OA
ATOM     30  C   UNL A   1      29.377  26.555  24.074  1.00  0.00     0.278 C 
ENDBRANCH  22  29
ENDBRANCH  15  21
ENDBRANCH  12  14
ENDBRANCH   6  12
ENDBRANCH   3   5
ENDBRANCH   2   3
ENDBRANCH   1   2
BRANCH   1  31
ATOM     31  C   UNL A   1      33.101  36.201  31.488  1.00  0.00     0.275 C 
BRANCH  31  32
ATOM     32  O   UNL A   1      34.059  35.425  32.282  1.00  0.00    -0.458 OA
BRANCH  32  33
ATOM     33  C   UNL A   1      34.119  34.108  32.574  1.00  0.00     0.338 C 
ATOM     34  O   UNL A   1      33.188  33.468  33.044  1.00  0.00    -0.246 OA
BRANCH  33  35
ATOM     35  C   UNL A   1      35.434  33.497  32.424  1.00  0.00     0.060 A 
ATOM     36  C   UNL A   1      36.372  34.030  31.524  1.00  0.00     0.016 A 
ATOM     37  C   UNL A   1      35.734  32.424  33.249  1.00  0.00     0.016 A 
ATOM     38  C   UNL A   1      37.665  33.533  31.515  1.00  0.00     0.010 A 
ATOM     39  C   UNL A   1      37.041  32.074  33.392  1.00  0.00     0.010 A 
ATOM     40  C   UNL A   1      37.970  32.557  32.457  1.00  0.00    -0.014 A 
BRANCH  40  41
ATOM     41  C   UNL A   1      39.062  31.620  32.312  1.00  0.00     0.031 A 
ATOM     42  C   UNL A   1      38.944  30.456  31.440  1.00  0.00     0.074 A 
ATOM     43  C   UNL A   1      40.202  32.197  32.762  1.00  0.00     0.049 A 
ATOM     44  N   UNL A   1      39.772  29.477  31.457  1.00  0.00    -0.248 NA
ATOM     45  C   UNL A   1      37.859  30.265  30.478  1.00  0.00     0.031 C 
ATOM     46  C   UNL A   1      41.590  32.004  32.403  1.00  0.00     0.029 A 
ATOM     47  N   UNL A   1      40.255  33.192  33.752  1.00  0.00    -0.354 N 
ATOM     48  C   UNL A   1      39.571  28.752  30.301  1.00  0.00     0.074 A 
ATOM     49  C   UNL A   1      38.284  29.181  29.812  1.00  0.00     0.031 C 
ATOM     50  C   UNL A   1      42.360  32.601  33.340  1.00  0.00     0.029 A 
ATOM     51  C   UNL A   1      41.480  33.083  34.401  1.00  0.00     0.049 A 
ATOM     52  H   UNL A   1      39.550  33.850  33.950  1.00  0.00     0.167 HD
ATOM     53  C   UNL A   1      40.620  28.030  29.807  1.00  0.00     0.037 A 
ATOM     54  C   UNL A   1      41.435  32.618  35.687  1.00  0.00     0.037 A 
ATOM     55  C   UNL A   1      41.790  28.247  30.657  1.00  0.00     0.049 A 
ATOM     56  C   UNL A   1      41.952  31.199  35.732  1.00  0.00     0.074 A 
ATOM     57  C   UNL A   1      42.831  29.155  30.563  1.00  0.00     0.029 A 
ATOM     58  N   UNL A   1      41.768  27.799  31.970  1.00  0.00    -0.354 N 
ATOM     59  N   UNL A   1      41.898  30.364  34.727  1.00  0.00    -0.248 NA
ATOM     60  C   UNL A   1      42.664  30.653  36.880  1.00  0.00     0.031 C 
ATOM     61  C   UNL A   1      43.380  29.317  31.865  1.00  0.00     0.029 A 
ATOM     62  C   UNL A   1      42.671  28.509  32.739  1.00  0.00     0.049 A 
ATOM     63  H   UNL A   1      41.190  27.078  32.308  1.00  0.00     0.167 HD
ATOM     64  C   UNL A   1      42.605  29.237  35.035  1.00  0.00     0.074 A 
ATOM     65  C   UNL A   1      43.046  29.456  36.403  1.00  0.00     0.031 C 
ATOM     66  C   UNL A   1      42.809  28.214  34.155  1.00  0.00     0.037 A 
BRANCH  53  67
ATOM     67  C   UNL A   1      40.717  27.402  28.435  1.00  0.00     0.057 A 
ATOM     68  C   UNL A   1      40.095  26.162  28.167  1.00  0.00     0.134 A 
ATOM     69  C   UNL A   1      41.391  27.957  27.337  1.00  0.00     0.134 A 
ATOM     70  F   UNL A   1      39.335  25.542  29.079  1.00  0.00    -0.206 F 
ATOM     71  C   UNL A   1      40.208  25.492  26.942  1.00  0.00     0.040 A 
ATOM     72  C   UNL A   1      41.545  27.281  26.113  1.00  0.00     0.040 A 
ATOM     73  F   UNL A   1      41.884  29.202  27.378  1.00  0.00    -0.206 F 
ATOM     74  C   UNL A   1      40.959  26.039  25.915  1.00  0.00     0.006 A 
ENDBRANCH  53  67
BRANCH  54  75
ATOM     75  C   UNL A   1      40.266  33.178  36.453  1.00  0.00     0.057 A 
ATOM     76  C   UNL A   1      39.165  32.322  36.693  1.00  0.00     0.134 A 
ATOM     77  C   UNL A   1      40.337  34.325  37.251  1.00  0.00     0.134 A 
ATOM     78  F   UNL A   1      39.020  31.198  35.972  1.00  0.00    -0.206 F 
ATOM     79  C   UNL A   1      38.263  32.527  37.744  1.00  0.00     0.040 A 
ATOM     80  C   UNL A   1      39.420  34.555  38.294  1.00  0.00     0.040 A 
ATOM     81  F   UNL A   1      41.346  35.194  37.112  1.00  0.00    -0.206 F 
ATOM     82  C   UNL A   1      38.407  33.637  38.569  1.00  0.00     0.006 A 
ENDBRANCH  54  75
BRANCH  66  83
ATOM     83  C   UNL A   1      43.219  26.823  34.552  1.00  0.00     0.057 A 
ATOM     84  C   UNL A   1      44.556  26.429  34.687  1.00  0.00     0.134 A 
ATOM     85  C   UNL A   1      42.262  25.894  35.016  1.00  0.00     0.134 A 
ATOM     86  F   UNL A   1      45.568  27.261  34.404  1.00  0.00    -0.206 F 
ATOM     87  C   UNL A   1      44.916  25.175  35.185  1.00  0.00     0.040 A 
ATOM     88  C   UNL A   1      42.614  24.672  35.588  1.00  0.00     0.040 A 
ATOM     89  F   UNL A   1      40.944  26.147  34.976  1.00  0.00    -0.206 F 
ATOM     90  C   UNL A   1      43.946  24.299  35.655  1.00  0.00     0.006 A 
ENDBRANCH  66  83
ENDBRANCH  40  41
ENDBRANCH  33  35
ENDBRANCH  32  33
ENDBRANCH  31  32
ENDBRANCH   1  31
TORSDOF 15
ENDMDL
MODEL 2
REMARK VINA RESULT:     -12.1      5.546     10.994
REMARK SMILES COc1cc(Cl)c(C)cc1N1C(=O)C[C@H](Nc2cc(C(=O)OCCOC(=O)c3ccc(-c4c5nc(c(-c6c(F)cccc6F)c6ccc([nH]6)c(-c6c(F)cccc6F)c6nc(c(-c7c(F)cccc7F)c7ccc4[nH]7)C=C6)C=C5)cc3)ccc2C)C1=O
REMARK SMILES IDX 23 1 22 2 20 3 21 4 19 5 17 6 18 7 84 8 83 9 85 10 82 11
REMARK SMILES IDX 16 12 15 14 11 15 12 16 86 17 13 18 14 19 87 20 10 21 3 22
REMARK SMILES IDX 4 23 5 24 9 25 6 26 7 27 8 28 2 29 1 30 24 31 25 32 26 33
REMARK SMILES IDX 27 34 28 35 29 36 81 37 30 38 80 39 31 40 32 41 33 42 74 43
REMARK SMILES IDX 34 44 79 45 73 46 75 47 35 48 78 49 72 50 71 51 36 53 62 54
REMARK SMILES IDX 45 55 61 56 46 57 49 58 60 59 76 60 47 61 48 62 59 64 77 65
REMARK SMILES IDX 50 66 37 67 38 68 43 69 39 70 40 71 42 72 44 73 41 74 63 75
REMARK SMILES IDX 64 76 69 77 65 78 66 79 68 80 70 81 67 82 51 83 52 84 57 85
REMARK SMILES IDX 53 86 54 87 56 88 58 89 55 90
REMARK H PARENT 16 13 75 52 49 63
REMARK Flexibility Score: inf
ROOT
ATOM      1  C   UNL A   1      43.420  19.172  26.010  1.00  0.00     0.275 C 
ENDROOT
BRANCH   1   2
ATOM      2  O   UNL A   1      42.370  19.872  26.693  1.00  0.00    -0.458 OA
BRANCH   2   3
ATOM      3  C   UNL A   1      41.103  19.704  26.255  1.00  0.00     0.338 C 
ATOM      4  O   UNL A   1      40.656  18.738  25.688  1.00  0.00    -0.246 OA
BRANCH   3   5
ATOM      5  C   UNL A   1      40.337  20.949  26.488  1.00  0.00     0.062 A 
ATOM      6  C   UNL A   1      38.593  22.511  25.843  1.00  0.00     0.038 A 
ATOM      7  C   UNL A   1      39.203  21.253  25.729  1.00  0.00     0.041 A 
ATOM      8  C   UNL A   1      39.119  23.450  26.753  1.00  0.00    -0.028 A 
ATOM      9  C   UNL A   1      40.211  23.101  27.563  1.00  0.00     0.006 A 
ATOM     10  C   UNL A   1      38.526  24.826  26.913  1.00  0.00     0.046 C 
ATOM     11  C   UNL A   1      40.842  21.872  27.402  1.00  0.00     0.016 A 
BRANCH   6  12
ATOM     12  N   UNL A   1      37.643  22.921  24.915  1.00  0.00    -0.373 N 
ATOM     13  H   UNL A   1      37.812  23.719  24.362  1.00  0.00     0.161 HD
BRANCH  12  14
ATOM     14  C   UNL A   1      36.395  22.181  24.753  1.00  0.00     0.179 C 
ATOM     15  N   UNL A   1      34.307  23.215  25.036  1.00  0.00    -0.245 N 
ATOM     16  C   UNL A   1      34.594  22.644  26.249  1.00  0.00     0.236 C 
ATOM     17  C   UNL A   1      35.315  23.041  24.117  1.00  0.00     0.256 C 
ATOM     18  O   UNL A   1      33.927  22.681  27.275  1.00  0.00    -0.274 OA
ATOM     19  C   UNL A   1      35.843  21.830  26.125  1.00  0.00     0.136 C 
ATOM     20  O   UNL A   1      35.420  23.557  23.012  1.00  0.00    -0.272 OA
BRANCH  15  21
ATOM     21  C   UNL A   1      33.110  23.917  24.767  1.00  0.00     0.094 A 
ATOM     22  C   UNL A   1      31.973  23.273  24.253  1.00  0.00     0.144 A 
ATOM     23  C   UNL A   1      30.807  23.994  23.989  1.00  0.00     0.069 A 
ATOM     24  C   UNL A   1      30.765  25.369  24.218  1.00  0.00     0.047 A 
ATOM     25  C   UNL A   1      33.046  25.299  25.011  1.00  0.00     0.035 A 
ATOM     26  Cl  UNL A   1      29.289  26.200  23.883  1.00  0.00    -0.084 Cl
ATOM     27  C   UNL A   1      31.895  26.046  24.701  1.00  0.00    -0.030 A 
ATOM     28  C   UNL A   1      31.915  27.540  24.864  1.00  0.00     0.046 C 
BRANCH  22  29
ATOM     29  O   UNL A   1      31.926  21.938  23.950  1.00  0.00    -0.495 OA
ATOM     30  C   UNL A   1      32.155  21.671  22.570  1.00  0.00     0.278 C 
ENDBRANCH  22  29
ENDBRANCH  15  21
ENDBRANCH  12  14
ENDBRANCH   6  12
ENDBRANCH   3   5
ENDBRANCH   2   3
ENDBRANCH   1   2
BRANCH   1  31
ATOM     31  C   UNL A   1      43.941  19.652  24.628  1.00  0.00     0.275 C 
BRANCH  31  32
ATOM     32  O   UNL A   1      44.490  20.971  24.295  1.00  0.00    -0.458 OA
BRANCH  32  33
ATOM     33  C   UNL A   1      45.626  21.590  24.681  1.00  0.00     0.338 C 
ATOM     34  O   UNL A   1      46.748  21.138  24.500  1.00  0.00    -0.246 OA
BRANCH  33  35
ATOM     35  C   UNL A   1      45.436  22.801  25.471  1.00  0.00     0.060 A 
ATOM     36  C   UNL A   1      45.300  22.730  26.867  1.00  0.00     0.016 A 
ATOM     37  C   UNL A   1      45.464  24.011  24.795  1.00  0.00     0.016 A 
ATOM     38  C   UNL A   1      45.282  23.899  27.610  1.00  0.00     0.010 A 
ATOM     39  C   UNL A   1      45.654  25.145  25.524  1.00  0.00     0.010 A 
ATOM     40  C   UNL A   1      45.459  25.090  26.912  1.00  0.00    -0.014 A 
BRANCH  40  41
ATOM     41  C   UNL A   1      45.021  26.377  27.404  1.00  0.00     0.031 A 
ATOM     42  C   UNL A   1      43.623  26.786  27.302  1.00  0.00     0.074 A 
ATOM     43  C   UNL A   1      45.963  26.874  28.241  1.00  0.00     0.049 A 
ATOM     44  N   UNL A   1      43.226  27.990  27.496  1.00  0.00    -0.248 NA
ATOM     45  C   UNL A   1      42.534  25.880  26.940  1.00  0.00     0.031 C 
ATOM     46  C   UNL A   1      45.874  27.770  29.374  1.00  0.00     0.029 A 
ATOM     47  N   UNL A   1      47.334  26.581  28.162  1.00  0.00    -0.354 N 
ATOM     48  C   UNL A   1      41.859  27.946  27.667  1.00  0.00     0.074 A 
ATOM     49  C   UNL A   1      41.461  26.655  27.160  1.00  0.00     0.031 C 
ATOM     50  C   UNL A   1      47.121  28.188  29.686  1.00  0.00     0.029 A 
ATOM     51  C   UNL A   1      48.034  27.670  28.670  1.00  0.00     0.049 A 
ATOM     52  H   UNL A   1      47.729  25.750  27.811  1.00  0.00     0.167 HD
ATOM     53  C   UNL A   1      41.273  28.936  28.403  1.00  0.00     0.037 A 
ATOM     54  C   UNL A   1      48.729  28.412  27.755  1.00  0.00     0.037 A 
ATOM     55  C   UNL A   1      42.311  29.839  28.898  1.00  0.00     0.049 A 
ATOM     56  C   UNL A   1      48.020  29.726  27.522  1.00  0.00     0.074 A 
ATOM     57  C   UNL A   1      43.015  29.855  30.091  1.00  0.00     0.029 A 
ATOM     58  N   UNL A   1      43.043  30.594  27.993  1.00  0.00    -0.354 N 
ATOM     59  N   UNL A   1      46.734  29.905  27.675  1.00  0.00    -0.248 NA
ATOM     60  C   UNL A   1      48.726  30.960  27.203  1.00  0.00     0.031 C 
ATOM     61  C   UNL A   1      44.230  30.558  29.864  1.00  0.00     0.029 A 
ATOM     62  C   UNL A   1      44.258  30.962  28.539  1.00  0.00     0.049 A 
ATOM     63  H   UNL A   1      42.741  30.834  27.087  1.00  0.00     0.167 HD
ATOM     64  C   UNL A   1      46.444  31.235  27.562  1.00  0.00     0.074 A 
ATOM     65  C   UNL A   1      47.721  31.852  27.244  1.00  0.00     0.031 C 
ATOM     66  C   UNL A   1      45.196  31.751  27.759  1.00  0.00     0.037 A 
BRANCH  53  67
ATOM     67  C   UNL A   1      39.863  28.941  28.949  1.00  0.00     0.057 A 
ATOM     68  C   UNL A   1      38.777  29.325  28.131  1.00  0.00     0.134 A 
ATOM     69  C   UNL A   1      39.499  28.576  30.254  1.00  0.00     0.134 A 
ATOM     70  F   UNL A   1      38.939  29.615  26.834  1.00  0.00    -0.206 F 
ATOM     71  C   UNL A   1      37.459  29.422  28.595  1.00  0.00     0.040 A 
ATOM     72  C   UNL A   1      38.187  28.703  30.746  1.00  0.00     0.040 A 
ATOM     73  F   UNL A   1      40.384  28.027  31.097  1.00  0.00    -0.206 F 
ATOM     74  C   UNL A   1      37.163  29.136  29.917  1.00  0.00     0.006 A 
ENDBRANCH  53  67
BRANCH  54  75
ATOM     75  C   UNL A   1      49.399  27.552  26.717  1.00  0.00     0.057 A 
ATOM     76  C   UNL A   1      48.826  27.512  25.424  1.00  0.00     0.134 A 
ATOM     77  C   UNL A   1      50.719  27.099  26.817  1.00  0.00     0.134 A 
ATOM     78  F   UNL A   1      47.563  27.928  25.238  1.00  0.00    -0.206 F 
ATOM     79  C   UNL A   1      49.559  27.165  24.282  1.00  0.00     0.040 A 
ATOM     80  C   UNL A   1      51.458  26.722  25.679  1.00  0.00     0.040 A 
ATOM     81  F   UNL A   1      51.358  27.106  27.994  1.00  0.00    -0.206 F 
ATOM     82  C   UNL A   1      50.892  26.794  24.406  1.00  0.00     0.006 A 
ENDBRANCH  54  75
BRANCH  66  83
ATOM     83  C   UNL A   1      44.750  33.102  27.271  1.00  0.00     0.057 A 
ATOM     84  C   UNL A   1      44.131  33.301  26.032  1.00  0.00     0.134 A 
ATOM     85  C   UNL A   1      44.746  34.217  28.139  1.00  0.00     0.134 A 
ATOM     86  F   UNL A   1      43.952  32.295  25.163  1.00  0.00    -0.206 F 
ATOM     87  C   UNL A   1      43.604  34.537  25.652  1.00  0.00     0.040 A 
ATOM     88  C   UNL A   1      44.153  35.432  27.800  1.00  0.00     0.040 A 
ATOM     89  F   UNL A   1      45.279  34.164  29.369  1.00  0.00    -0.206 F 
ATOM     90  C   UNL A   1      43.597  35.603  26.543  1.00  0.00     0.006 A 
ENDBRANCH  66  83
ENDBRANCH  40  41
ENDBRANCH  33  35
ENDBRANCH  32  33
ENDBRANCH  31  32
ENDBRANCH   1  31
TORSDOF 15
ENDMDL
MODEL 3
REMARK VINA RESULT:     -11.4      2.273      3.791
REMARK SMILES COc1cc(Cl)c(C)cc1N1C(=O)C[C@H](Nc2cc(C(=O)OCCOC(=O)c3ccc(-c4c5nc(c(-c6c(F)cccc6F)c6ccc([nH]6)c(-c6c(F)cccc6F)c6nc(c(-c7c(F)cccc7F)c7ccc4[nH]7)C=C6)C=C5)cc3)ccc2C)C1=O
REMARK SMILES IDX 23 1 22 2 20 3 21 4 19 5 17 6 18 7 84 8 83 9 85 10 82 11
REMARK SMILES IDX 16 12 15 14 11 15 12 16 86 17 13 18 14 19 87 20 10 21 3 22
REMARK SMILES IDX 4 23 5 24 9 25 6 26 7 27 8 28 2 29 1 30 24 31 25 32 26 33
REMARK SMILES IDX 27 34 28 35 29 36 81 37 30 38 80 39 31 40 32 41 33 42 74 43
REMARK SMILES IDX 34 44 79 45 73 46 75 47 35 48 78 49 72 50 71 51 36 53 62 54
REMARK SMILES IDX 45 55 61 56 46 57 49 58 60 59 76 60 47 61 48 62 59 64 77 65
REMARK SMILES IDX 50 66 37 67 38 68 43 69 39 70 40 71 42 72 44 73 41 74 63 75
REMARK SMILES IDX 64 76 69 77 65 78 66 79 68 80 70 81 67 82 51 83 52 84 57 85
REMARK SMILES IDX 53 86 54 87 56 88 58 89 55 90
REMARK H PARENT 16 13 75 52 49 63
REMARK Flexibility Score: inf
ROOT
ATOM      1  C   UNL A   1      34.329  31.772  27.784  1.00  0.00     0.275 C 
ENDROOT
BRANCH   1   2
ATOM      2  O   UNL A   1      33.482  30.767  27.209  1.00  0.00    -0.458 OA
BRANCH   2   3
ATOM      3  C   UNL A   1      34.014  29.549  26.965  1.00  0.00     0.338 C 
ATOM      4  O   UNL A   1      35.029  29.096  27.433  1.00  0.00    -0.246 OA
BRANCH   3   5
ATOM      5  C   UNL A   1      33.204  28.860  25.936  1.00  0.00     0.062 A 
ATOM      6  C   UNL A   1      32.757  26.919  24.546  1.00  0.00     0.038 A 
ATOM      7  C   UNL A   1      33.410  27.509  25.639  1.00  0.00     0.041 A 
ATOM      8  C   UNL A   1      31.871  27.697  23.773  1.00  0.00    -0.028 A 
ATOM      9  C   UNL A   1      31.617  29.030  24.131  1.00  0.00     0.006 A 
ATOM     10  C   UNL A   1      31.151  27.133  22.574  1.00  0.00     0.046 C 
ATOM     11  C   UNL A   1      32.311  29.620  25.182  1.00  0.00     0.016 A 
BRANCH   6  12
ATOM     12  N   UNL A   1      33.150  25.670  24.080  1.00  0.00    -0.373 N 
ATOM     13  H   UNL A   1      32.749  25.307  23.256  1.00  0.00     0.161 HD
BRANCH  12  14
ATOM     14  C   UNL A   1      34.151  24.890  24.801  1.00  0.00     0.179 C 
ATOM     15  N   UNL A   1      33.971  22.560  25.018  1.00  0.00    -0.245 N 
ATOM     16  C   UNL A   1      33.416  23.072  26.162  1.00  0.00     0.236 C 
ATOM     17  C   UNL A   1      34.385  23.539  24.145  1.00  0.00     0.256 C 
ATOM     18  O   UNL A   1      32.906  22.459  27.091  1.00  0.00    -0.274 OA
ATOM     19  C   UNL A   1      33.618  24.554  26.184  1.00  0.00     0.136 C 
ATOM     20  O   UNL A   1      34.774  23.402  22.993  1.00  0.00    -0.272 OA
BRANCH  15  21
ATOM     21  C   UNL A   1      34.094  21.175  24.762  1.00  0.00     0.094 A 
ATOM     22  C   UNL A   1      35.250  20.458  25.106  1.00  0.00     0.144 A 
ATOM     23  C   UNL A   1      35.346  19.091  24.833  1.00  0.00     0.069 A 
ATOM     24  C   UNL A   1      34.297  18.428  24.197  1.00  0.00     0.047 A 
ATOM     25  C   UNL A   1      33.038  20.489  24.139  1.00  0.00     0.035 A 
ATOM     26  Cl  UNL A   1      34.474  16.736  23.899  1.00  0.00    -0.084 Cl
ATOM     27  C   UNL A   1      33.143  19.124  23.811  1.00  0.00    -0.030 A 
ATOM     28  C   UNL A   1      32.038  18.461  23.036  1.00  0.00     0.046 C 
BRANCH  22  29
ATOM     29  O   UNL A   1      36.353  21.024  25.690  1.00  0.00    -0.495 OA
ATOM     30  C   UNL A   1      37.503  20.998  24.852  1.00  0.00     0.278 C 
ENDBRANCH  22  29
ENDBRANCH  15  21
ENDBRANCH  12  14
ENDBRANCH   6  12
ENDBRANCH   3   5
ENDBRANCH   2   3
ENDBRANCH   1   2
BRANCH   1  31
ATOM     31  C   UNL A   1      33.798  33.201  28.076  1.00  0.00     0.275 C 
BRANCH  31  32
ATOM     32  O   UNL A   1      34.110  34.045  29.235  1.00  0.00    -0.458 OA
BRANCH  32  33
ATOM     33  C   UNL A   1      34.504  33.733  30.489  1.00  0.00     0.338 C 
ATOM     34  O   UNL A   1      33.878  34.028  31.496  1.00  0.00    -0.246 OA
BRANCH  33  35
ATOM     35  C   UNL A   1      35.826  33.125  30.591  1.00  0.00     0.060 A 
ATOM     36  C   UNL A   1      36.922  33.677  29.907  1.00  0.00     0.016 A 
ATOM     37  C   UNL A   1      35.959  32.035  31.437  1.00  0.00     0.016 A 
ATOM     38  C   UNL A   1      38.192  33.181  30.146  1.00  0.00     0.010 A 
ATOM     39  C   UNL A   1      37.214  31.682  31.830  1.00  0.00     0.010 A 
ATOM     40  C   UNL A   1      38.308  32.184  31.109  1.00  0.00    -0.014 A 
BRANCH  40  41
ATOM     41  C   UNL A   1      39.410  31.251  31.166  1.00  0.00     0.031 A 
ATOM     42  C   UNL A   1      39.438  30.065  30.315  1.00  0.00     0.074 A 
ATOM     43  C   UNL A   1      40.462  31.845  31.780  1.00  0.00     0.049 A 
ATOM     44  N   UNL A   1      40.254  29.092  30.489  1.00  0.00    -0.248 NA
ATOM     45  C   UNL A   1      38.522  29.845  29.196  1.00  0.00     0.031 C 
ATOM     46  C   UNL A   1      41.890  31.651  31.654  1.00  0.00     0.029 A 
ATOM     47  N   UNL A   1      40.353  32.863  32.740  1.00  0.00    -0.354 N 
ATOM     48  C   UNL A   1      40.244  28.338  29.335  1.00  0.00     0.074 A 
ATOM     49  C   UNL A   1      39.051  28.748  28.634  1.00  0.00     0.031 C 
ATOM     50  C   UNL A   1      42.498  32.276  32.688  1.00  0.00     0.029 A 
ATOM     51  C   UNL A   1      41.457  32.777  33.581  1.00  0.00     0.049 A 
ATOM     52  H   UNL A   1      39.623  33.522  32.806  1.00  0.00     0.167 HD
ATOM     53  C   UNL A   1      41.360  27.611  29.034  1.00  0.00     0.037 A 
ATOM     54  C   UNL A   1      41.206  32.344  34.854  1.00  0.00     0.037 A 
ATOM     55  C   UNL A   1      42.376  27.855  30.056  1.00  0.00     0.049 A 
ATOM     56  C   UNL A   1      41.711  30.929  35.016  1.00  0.00     0.074 A 
ATOM     57  C   UNL A   1      43.418  28.767  30.110  1.00  0.00     0.029 A 
ATOM     58  N   UNL A   1      42.144  27.439  31.359  1.00  0.00    -0.354 N 
ATOM     59  N   UNL A   1      41.822  30.070  34.037  1.00  0.00    -0.248 NA
ATOM     60  C   UNL A   1      42.229  30.415  36.278  1.00  0.00     0.031 C 
ATOM     61  C   UNL A   1      43.749  28.963  31.478  1.00  0.00     0.029 A 
ATOM     62  C   UNL A   1      42.910  28.172  32.246  1.00  0.00     0.049 A 
ATOM     63  H   UNL A   1      41.521  26.722  31.617  1.00  0.00     0.167 HD
ATOM     64  C   UNL A   1      42.473  28.955  34.483  1.00  0.00     0.074 A 
ATOM     65  C   UNL A   1      42.687  29.209  35.898  1.00  0.00     0.031 C 
ATOM     66  C   UNL A   1      42.818  27.912  33.672  1.00  0.00     0.037 A 
BRANCH  53  67
ATOM     67  C   UNL A   1      41.678  26.950  27.712  1.00  0.00     0.057 A 
ATOM     68  C   UNL A   1      41.778  25.545  27.616  1.00  0.00     0.134 A 
ATOM     69  C   UNL A   1      41.889  27.626  26.500  1.00  0.00     0.134 A 
ATOM     70  F   UNL A   1      41.516  24.746  28.659  1.00  0.00    -0.206 F 
ATOM     71  C   UNL A   1      42.141  24.876  26.440  1.00  0.00     0.040 A 
ATOM     72  C   UNL A   1      42.290  26.973  25.321  1.00  0.00     0.040 A 
ATOM     73  F   UNL A   1      41.661  28.941  26.386  1.00  0.00    -0.206 F 
ATOM     74  C   UNL A   1      42.426  25.592  25.290  1.00  0.00     0.006 A 
ENDBRANCH  53  67
BRANCH  54  75
ATOM     75  C   UNL A   1      39.927  32.914  35.407  1.00  0.00     0.057 A 
ATOM     76  C   UNL A   1      38.823  32.041  35.551  1.00  0.00     0.134 A 
ATOM     77  C   UNL A   1      39.858  34.114  36.124  1.00  0.00     0.134 A 
ATOM     78  F   UNL A   1      38.808  30.867  34.898  1.00  0.00    -0.206 F 
ATOM     79  C   UNL A   1      37.777  32.286  36.448  1.00  0.00     0.040 A 
ATOM     80  C   UNL A   1      38.797  34.383  37.010  1.00  0.00     0.040 A 
ATOM     81  F   UNL A   1      40.857  35.004  36.066  1.00  0.00    -0.206 F 
ATOM     82  C   UNL A   1      37.777  33.453  37.204  1.00  0.00     0.006 A 
ENDBRANCH  54  75
BRANCH  66  83
ATOM     83  C   UNL A   1      43.161  26.533  34.165  1.00  0.00     0.057 A 
ATOM     84  C   UNL A   1      42.244  25.706  34.824  1.00  0.00     0.134 A 
ATOM     85  C   UNL A   1      44.378  25.918  33.795  1.00  0.00     0.134 A 
ATOM     86  F   UNL A   1      41.005  26.123  35.120  1.00  0.00    -0.206 F 
ATOM     87  C   UNL A   1      42.539  24.382  35.155  1.00  0.00     0.040 A 
ATOM     88  C   UNL A   1      44.650  24.575  34.050  1.00  0.00     0.040 A 
ATOM     89  F   UNL A   1      45.339  26.580  33.132  1.00  0.00    -0.206 F 
ATOM     90  C   UNL A   1      43.737  23.806  34.752  1.00  0.00     0.006 A 
ENDBRANCH  66  83
ENDBRANCH  40  41
ENDBRANCH  33  35
ENDBRANCH  32  33
ENDBRANCH  31  32
ENDBRANCH   1  31
TORSDOF 15
ENDMDL
