MODEL 1
REMARK VINA RESULT:     -11.4      0.000      0.000
REMARK SMILES CNC(=O)NC(=O)CCSc1csc(C(=O)OCCOC(=O)c2ccc(-c3c4nc(c(-c5c(F)cccc5F)c5ccc([nH]5)c(-c5c(F)cccc5F)c5nc(c(-c6c(F)cccc6F)c6ccc3[nH]6)C=C5)C=C4)cc2)c1
REMARK SMILES IDX 18 1 17 2 15 3 16 4 14 5 11 6 12 7 77 8 13 9 10 10 9 11 8 12
REMARK SMILES IDX 6 13 1 14 2 15 3 16 4 18 5 19 7 21 19 22 20 23 21 24 22 25
REMARK SMILES IDX 23 26 24 27 76 28 25 29 75 30 26 31 27 32 28 33 69 34 29 35
REMARK SMILES IDX 74 36 68 37 70 38 30 39 73 40 67 41 66 42 31 44 57 45 40 46
REMARK SMILES IDX 56 47 41 48 44 49 55 50 71 51 42 52 43 53 54 55 72 56 45 57
REMARK SMILES IDX 32 58 33 59 38 60 34 61 35 62 37 63 39 64 36 65 58 66 59 67
REMARK SMILES IDX 64 68 60 69 61 70 63 71 65 72 62 73 46 74 47 75 52 76 48 77
REMARK SMILES IDX 49 78 51 79 53 80 50 81
REMARK H PARENT 2 17 5 20 70 43 44 54
REMARK Flexibility Score: inf
ROOT
ATOM      1  C   UNL A   1      42.426  20.578  26.268  1.00  0.00     0.275 C 
ENDROOT
BRANCH   1   2
ATOM      2  O   UNL A   1      41.070  21.042  26.099  1.00  0.00    -0.458 OA
BRANCH   2   3
ATOM      3  C   UNL A   1      40.177  20.087  25.707  1.00  0.00     0.348 C 
ATOM      4  O   UNL A   1      40.449  18.891  25.626  1.00  0.00    -0.245 OA
BRANCH   3   5
ATOM      5  C   UNL A   1      38.857  20.659  25.533  1.00  0.00     0.113 A 
ATOM      6  C   UNL A   1      36.589  21.042  25.168  1.00  0.00     0.019 A 
ATOM      7  C   UNL A   1      37.027  22.312  25.447  1.00  0.00     0.080 A 
ATOM      8  C   UNL A   1      37.672  20.113  25.066  1.00  0.00     0.042 A 
ATOM      9  S   UNL A   1      38.614  22.283  26.030  1.00  0.00    -0.136 S 
BRANCH   6  10
ATOM     10  S   UNL A   1      34.905  20.589  24.999  1.00  0.00    -0.125 SA
BRANCH  10  11
ATOM     11  C   UNL A   1      34.216  22.017  24.083  1.00  0.00     0.085 C 
BRANCH  11  12
ATOM     12  C   UNL A   1      32.791  22.481  24.383  1.00  0.00     0.112 C 
BRANCH  12  13
ATOM     13  C   UNL A   1      31.948  21.646  25.308  1.00  0.00     0.228 C 
ATOM     14  C   UNL A   1      32.533  25.009  26.378  1.00  0.00     0.144 C 
ATOM     15  N   UNL A   1      31.210  24.519  26.654  1.00  0.00    -0.341 N 
ATOM     16  C   UNL A   1      30.736  23.287  26.871  1.00  0.00     0.321 C 
ATOM     17  H   UNL A   1      30.522  25.222  26.688  1.00  0.00     0.165 HD
ATOM     18  O   UNL A   1      29.666  23.192  27.478  1.00  0.00    -0.248 OA
ATOM     19  N   UNL A   1      31.344  22.142  26.448  1.00  0.00    -0.278 N 
ATOM     20  H   UNL A   1      31.355  21.468  27.167  1.00  0.00     0.174 HD
ATOM     21  O   UNL A   1      31.788  20.445  25.053  1.00  0.00    -0.275 OA
ENDBRANCH  12  13
ENDBRANCH  11  12
ENDBRANCH  10  11
ENDBRANCH   6  10
ENDBRANCH   3   5
ENDBRANCH   2   3
ENDBRANCH   1   2
BRANCH   1  22
ATOM     22  C   UNL A   1      43.428  21.545  25.633  1.00  0.00     0.275 C 
BRANCH  22  23
ATOM     23  O   UNL A   1      42.753  22.641  24.985  1.00  0.00    -0.458 OA
BRANCH  23  24
ATOM     24  C   UNL A   1      43.407  23.825  25.017  1.00  0.00     0.338 C 
ATOM     25  O   UNL A   1      44.417  24.127  24.405  1.00  0.00    -0.246 OA
BRANCH  24  26
ATOM     26  C   UNL A   1      42.695  24.795  25.866  1.00  0.00     0.060 A 
ATOM     27  C   UNL A   1      43.164  26.098  25.907  1.00  0.00     0.016 A 
ATOM     28  C   UNL A   1      41.743  24.377  26.791  1.00  0.00     0.016 A 
ATOM     29  C   UNL A   1      42.851  26.923  26.982  1.00  0.00     0.010 A 
ATOM     30  C   UNL A   1      41.292  25.274  27.773  1.00  0.00     0.010 A 
ATOM     31  C   UNL A   1      41.889  26.539  27.924  1.00  0.00    -0.014 A 
BRANCH  31  32
ATOM     32  C   UNL A   1      41.546  27.449  29.061  1.00  0.00     0.031 A 
ATOM     33  C   UNL A   1      42.358  27.432  30.335  1.00  0.00     0.074 A 
ATOM     34  C   UNL A   1      40.522  28.323  28.951  1.00  0.00     0.049 A 
ATOM     35  N   UNL A   1      42.123  28.031  31.478  1.00  0.00    -0.248 NA
ATOM     36  C   UNL A   1      43.588  26.625  30.332  1.00  0.00     0.031 C 
ATOM     37  C   UNL A   1      39.672  28.493  27.769  1.00  0.00     0.029 A 
ATOM     38  N   UNL A   1      40.024  29.243  29.843  1.00  0.00    -0.354 N 
ATOM     39  C   UNL A   1      43.136  27.625  32.340  1.00  0.00     0.074 A 
ATOM     40  C   UNL A   1      43.982  26.718  31.594  1.00  0.00     0.031 C 
ATOM     41  C   UNL A   1      38.802  29.489  27.987  1.00  0.00     0.029 A 
ATOM     42  C   UNL A   1      38.953  29.955  29.358  1.00  0.00     0.049 A 
ATOM     43  H   UNL A   1      40.400  29.380  30.743  1.00  0.00     0.167 HD
ATOM     44  C   UNL A   1      43.346  27.979  33.633  1.00  0.00     0.037 A 
ATOM     45  C   UNL A   1      38.141  30.849  29.954  1.00  0.00     0.037 A 
ATOM     46  C   UNL A   1      42.535  28.926  34.357  1.00  0.00     0.049 A 
ATOM     47  C   UNL A   1      38.367  31.191  31.398  1.00  0.00     0.074 A 
ATOM     48  C   UNL A   1      42.678  29.360  35.664  1.00  0.00     0.029 A 
ATOM     49  N   UNL A   1      41.439  29.594  33.832  1.00  0.00    -0.354 N 
ATOM     50  N   UNL A   1      39.300  30.763  32.212  1.00  0.00    -0.248 NA
ATOM     51  C   UNL A   1      37.417  32.130  32.010  1.00  0.00     0.031 C 
ATOM     52  C   UNL A   1      41.642  30.258  35.945  1.00  0.00     0.029 A 
ATOM     53  C   UNL A   1      40.887  30.425  34.796  1.00  0.00     0.049 A 
ATOM     54  H   UNL A   1      41.104  29.495  32.912  1.00  0.00     0.167 HD
ATOM     55  C   UNL A   1      39.066  31.398  33.424  1.00  0.00     0.074 A 
ATOM     56  C   UNL A   1      37.912  32.252  33.233  1.00  0.00     0.031 C 
ATOM     57  C   UNL A   1      39.745  31.279  34.591  1.00  0.00     0.037 A 
BRANCH  44  58
ATOM     58  C   UNL A   1      44.477  27.312  34.365  1.00  0.00     0.057 A 
ATOM     59  C   UNL A   1      45.753  27.883  34.455  1.00  0.00     0.134 A 
ATOM     60  C   UNL A   1      44.271  26.093  35.025  1.00  0.00     0.134 A 
ATOM     61  F   UNL A   1      46.024  29.044  33.841  1.00  0.00    -0.206 F 
ATOM     62  C   UNL A   1      46.789  27.252  35.150  1.00  0.00     0.040 A 
ATOM     63  C   UNL A   1      45.290  25.467  35.748  1.00  0.00     0.040 A 
ATOM     64  F   UNL A   1      43.071  25.493  34.991  1.00  0.00    -0.206 F 
ATOM     65  C   UNL A   1      46.556  26.043  35.804  1.00  0.00     0.006 A 
ENDBRANCH  44  58
BRANCH  45  66
ATOM     66  C   UNL A   1      37.013  31.450  29.196  1.00  0.00     0.057 A 
ATOM     67  C   UNL A   1      35.840  30.729  28.946  1.00  0.00     0.134 A 
ATOM     68  C   UNL A   1      37.081  32.761  28.704  1.00  0.00     0.134 A 
ATOM     69  F   UNL A   1      35.723  29.462  29.368  1.00  0.00    -0.206 F 
ATOM     70  C   UNL A   1      34.781  31.284  28.224  1.00  0.00     0.040 A 
ATOM     71  C   UNL A   1      36.017  33.339  28.010  1.00  0.00     0.040 A 
ATOM     72  F   UNL A   1      38.176  33.508  28.912  1.00  0.00    -0.206 F 
ATOM     73  C   UNL A   1      34.865  32.596  27.761  1.00  0.00     0.006 A 
ENDBRANCH  45  66
BRANCH  57  74
ATOM     74  C   UNL A   1      39.288  32.134  35.737  1.00  0.00     0.057 A 
ATOM     75  C   UNL A   1      39.744  33.447  35.913  1.00  0.00     0.134 A 
ATOM     76  C   UNL A   1      38.362  31.641  36.664  1.00  0.00     0.134 A 
ATOM     77  F   UNL A   1      40.644  33.973  35.068  1.00  0.00    -0.206 F 
ATOM     78  C   UNL A   1      39.315  34.230  36.986  1.00  0.00     0.040 A 
ATOM     79  C   UNL A   1      37.903  32.424  37.725  1.00  0.00     0.040 A 
ATOM     80  F   UNL A   1      37.880  30.394  36.550  1.00  0.00    -0.206 F 
ATOM     81  C   UNL A   1      38.386  33.719  37.892  1.00  0.00     0.006 A 
ENDBRANCH  57  74
ENDBRANCH  31  32
ENDBRANCH  24  26
ENDBRANCH  23  24
ENDBRANCH  22  23
ENDBRANCH   1  22
TORSDOF 15
ENDMDL
MODEL 2
REMARK VINA RESULT:     -11.1      3.189      7.924
REMARK SMILES CNC(=O)NC(=O)CCSc1csc(C(=O)OCCOC(=O)c2ccc(-c3c4nc(c(-c5c(F)cccc5F)c5ccc([nH]5)c(-c5c(F)cccc5F)c5nc(c(-c6c(F)cccc6F)c6ccc3[nH]6)C=C5)C=C4)cc2)c1
REMARK SMILES IDX 18 1 17 2 15 3 16 4 14 5 11 6 12 7 77 8 13 9 10 10 9 11 8 12
REMARK SMILES IDX 6 13 1 14 2 15 3 16 4 18 5 19 7 21 19 22 20 23 21 24 22 25
REMARK SMILES IDX 23 26 24 27 76 28 25 29 75 30 26 31 27 32 28 33 69 34 29 35
REMARK SMILES IDX 74 36 68 37 70 38 30 39 73 40 67 41 66 42 31 44 57 45 40 46
REMARK SMILES IDX 56 47 41 48 44 49 55 50 71 51 42 52 43 53 54 55 72 56 45 57
REMARK SMILES IDX 32 58 33 59 38 60 34 61 35 62 37 63 39 64 36 65 58 66 59 67
REMARK SMILES IDX 64 68 60 69 61 70 63 71 65 72 62 73 46 74 47 75 52 76 48 77
REMARK SMILES IDX 49 78 51 79 53 80 50 81
REMARK H PARENT 2 17 5 20 70 43 44 54
REMARK Flexibility Score: inf
ROOT
ATOM      1  C   UNL A   1      31.833  29.486  24.939  1.00  0.00     0.275 C 
ENDROOT
BRANCH   1   2
ATOM      2  O   UNL A   1      30.628  28.839  24.482  1.00  0.00    -0.458 OA
BRANCH   2   3
ATOM      3  C   UNL A   1      30.636  28.461  23.170  1.00  0.00     0.348 C 
ATOM      4  O   UNL A   1      30.515  29.248  22.234  1.00  0.00    -0.245 OA
BRANCH   3   5
ATOM      5  C   UNL A   1      30.934  27.049  23.044  1.00  0.00     0.113 A 
ATOM      6  C   UNL A   1      31.891  24.969  22.614  1.00  0.00     0.019 A 
ATOM      7  C   UNL A   1      30.726  24.598  23.237  1.00  0.00     0.080 A 
ATOM      8  C   UNL A   1      31.939  26.378  22.365  1.00  0.00     0.042 A 
ATOM      9  S   UNL A   1      29.955  25.942  23.914  1.00  0.00    -0.136 S 
BRANCH   6  10
ATOM     10  S   UNL A   1      33.193  23.870  22.207  1.00  0.00    -0.125 SA
BRANCH  10  11
ATOM     11  C   UNL A   1      32.597  22.293  22.922  1.00  0.00     0.085 C 
BRANCH  11  12
ATOM     12  C   UNL A   1      33.198  21.793  24.236  1.00  0.00     0.112 C 
BRANCH  12  13
ATOM     13  C   UNL A   1      32.272  21.214  25.271  1.00  0.00     0.228 C 
ATOM     14  C   UNL A   1      33.590  24.453  26.026  1.00  0.00     0.144 C 
ATOM     15  N   UNL A   1      32.219  24.264  26.412  1.00  0.00    -0.341 N 
ATOM     16  C   UNL A   1      31.525  23.174  26.756  1.00  0.00     0.321 C 
ATOM     17  H   UNL A   1      31.690  25.094  26.425  1.00  0.00     0.165 HD
ATOM     18  O   UNL A   1      30.502  23.343  27.426  1.00  0.00    -0.248 OA
ATOM     19  N   UNL A   1      31.860  21.902  26.397  1.00  0.00    -0.278 N 
ATOM     20  H   UNL A   1      31.786  21.292  27.167  1.00  0.00     0.174 HD
ATOM     21  O   UNL A   1      31.858  20.057  25.125  1.00  0.00    -0.275 OA
ENDBRANCH  12  13
ENDBRANCH  11  12
ENDBRANCH  10  11
ENDBRANCH   6  10
ENDBRANCH   3   5
ENDBRANCH   2   3
ENDBRANCH   1   2
BRANCH   1  22
ATOM     22  C   UNL A   1      31.516  30.661  25.869  1.00  0.00     0.275 C 
BRANCH  22  23
ATOM     23  O   UNL A   1      32.335  30.620  27.054  1.00  0.00    -0.458 OA
BRANCH  23  24
ATOM     24  C   UNL A   1      33.039  31.747  27.310  1.00  0.00     0.338 C 
ATOM     25  O   UNL A   1      32.619  32.892  27.325  1.00  0.00    -0.246 OA
BRANCH  24  26
ATOM     26  C   UNL A   1      34.434  31.428  27.655  1.00  0.00     0.060 A 
ATOM     27  C   UNL A   1      34.763  30.104  27.897  1.00  0.00     0.016 A 
ATOM     28  C   UNL A   1      35.343  32.433  27.976  1.00  0.00     0.016 A 
ATOM     29  C   UNL A   1      35.893  29.787  28.643  1.00  0.00     0.010 A 
ATOM     30  C   UNL A   1      36.568  32.093  28.569  1.00  0.00     0.010 A 
ATOM     31  C   UNL A   1      36.833  30.771  28.973  1.00  0.00    -0.014 A 
BRANCH  31  32
ATOM     32  C   UNL A   1      38.056  30.408  29.755  1.00  0.00     0.031 A 
ATOM     33  C   UNL A   1      39.133  29.541  29.145  1.00  0.00     0.074 A 
ATOM     34  C   UNL A   1      38.228  30.877  31.010  1.00  0.00     0.049 A 
ATOM     35  N   UNL A   1      40.182  28.997  29.713  1.00  0.00    -0.248 NA
ATOM     36  C   UNL A   1      39.009  29.232  27.712  1.00  0.00     0.031 C 
ATOM     37  C   UNL A   1      37.302  31.762  31.722  1.00  0.00     0.029 A 
ATOM     38  N   UNL A   1      39.249  30.684  31.911  1.00  0.00    -0.354 N 
ATOM     39  C   UNL A   1      40.803  28.238  28.727  1.00  0.00     0.074 A 
ATOM     40  C   UNL A   1      40.007  28.379  27.527  1.00  0.00     0.031 C 
ATOM     41  C   UNL A   1      37.819  32.078  32.917  1.00  0.00     0.029 A 
ATOM     42  C   UNL A   1      39.057  31.334  33.107  1.00  0.00     0.049 A 
ATOM     43  H   UNL A   1      40.042  30.135  31.717  1.00  0.00     0.167 HD
ATOM     44  C   UNL A   1      41.934  27.494  28.811  1.00  0.00     0.037 A 
ATOM     45  C   UNL A   1      39.762  31.305  34.253  1.00  0.00     0.037 A 
ATOM     46  C   UNL A   1      42.757  27.399  29.991  1.00  0.00     0.049 A 
ATOM     47  C   UNL A   1      40.987  30.441  34.336  1.00  0.00     0.074 A 
ATOM     48  C   UNL A   1      43.930  26.685  30.169  1.00  0.00     0.029 A 
ATOM     49  N   UNL A   1      42.501  28.050  31.189  1.00  0.00    -0.354 N 
ATOM     50  N   UNL A   1      41.533  29.692  33.409  1.00  0.00    -0.248 NA
ATOM     51  C   UNL A   1      41.684  30.406  35.629  1.00  0.00     0.031 C 
ATOM     52  C   UNL A   1      44.360  26.866  31.488  1.00  0.00     0.029 A 
ATOM     53  C   UNL A   1      43.486  27.738  32.116  1.00  0.00     0.049 A 
ATOM     54  H   UNL A   1      41.735  28.644  31.357  1.00  0.00     0.167 HD
ATOM     55  C   UNL A   1      42.651  29.117  33.998  1.00  0.00     0.074 A 
ATOM     56  C   UNL A   1      42.712  29.617  35.356  1.00  0.00     0.031 C 
ATOM     57  C   UNL A   1      43.543  28.250  33.461  1.00  0.00     0.037 A 
BRANCH  44  58
ATOM     58  C   UNL A   1      42.334  26.691  27.604  1.00  0.00     0.057 A 
ATOM     59  C   UNL A   1      41.916  25.368  27.412  1.00  0.00     0.134 A 
ATOM     60  C   UNL A   1      43.121  27.269  26.599  1.00  0.00     0.134 A 
ATOM     61  F   UNL A   1      41.168  24.749  28.337  1.00  0.00    -0.206 F 
ATOM     62  C   UNL A   1      42.289  24.641  26.277  1.00  0.00     0.040 A 
ATOM     63  C   UNL A   1      43.475  26.562  25.447  1.00  0.00     0.040 A 
ATOM     64  F   UNL A   1      43.548  28.536  26.711  1.00  0.00    -0.206 F 
ATOM     65  C   UNL A   1      43.066  25.241  25.288  1.00  0.00     0.006 A 
ENDBRANCH  44  58
BRANCH  45  66
ATOM     66  C   UNL A   1      39.301  32.088  35.430  1.00  0.00     0.057 A 
ATOM     67  C   UNL A   1      38.458  31.524  36.392  1.00  0.00     0.134 A 
ATOM     68  C   UNL A   1      39.695  33.420  35.619  1.00  0.00     0.134 A 
ATOM     69  F   UNL A   1      38.026  30.262  36.256  1.00  0.00    -0.206 F 
ATOM     70  C   UNL A   1      38.012  32.257  37.494  1.00  0.00     0.040 A 
ATOM     71  C   UNL A   1      39.283  34.154  36.733  1.00  0.00     0.040 A 
ATOM     72  F   UNL A   1      40.505  34.020  34.735  1.00  0.00    -0.206 F 
ATOM     73  C   UNL A   1      38.432  33.574  37.670  1.00  0.00     0.006 A 
ENDBRANCH  45  66
BRANCH  57  74
ATOM     74  C   UNL A   1      44.692  27.828  34.328  1.00  0.00     0.057 A 
ATOM     75  C   UNL A   1      45.886  28.559  34.388  1.00  0.00     0.134 A 
ATOM     76  C   UNL A   1      44.593  26.685  35.132  1.00  0.00     0.134 A 
ATOM     77  F   UNL A   1      46.052  29.654  33.631  1.00  0.00    -0.206 F 
ATOM     78  C   UNL A   1      46.950  28.152  35.195  1.00  0.00     0.040 A 
ATOM     79  C   UNL A   1      45.638  26.284  35.965  1.00  0.00     0.040 A 
ATOM     80  F   UNL A   1      43.475  25.944  35.127  1.00  0.00    -0.206 F 
ATOM     81  C   UNL A   1      46.824  27.015  35.992  1.00  0.00     0.006 A 
ENDBRANCH  57  74
ENDBRANCH  31  32
ENDBRANCH  24  26
ENDBRANCH  23  24
ENDBRANCH  22  23
ENDBRANCH   1  22
TORSDOF 15
ENDMDL
MODEL 3
REMARK VINA RESULT:     -10.9      5.771     10.486
REMARK SMILES CNC(=O)NC(=O)CCSc1csc(C(=O)OCCOC(=O)c2ccc(-c3c4nc(c(-c5c(F)cccc5F)c5ccc([nH]5)c(-c5c(F)cccc5F)c5nc(c(-c6c(F)cccc6F)c6ccc3[nH]6)C=C5)C=C4)cc2)c1
REMARK SMILES IDX 18 1 17 2 15 3 16 4 14 5 11 6 12 7 77 8 13 9 10 10 9 11 8 12
REMARK SMILES IDX 6 13 1 14 2 15 3 16 4 18 5 19 7 21 19 22 20 23 21 24 22 25
REMARK SMILES IDX 23 26 24 27 76 28 25 29 75 30 26 31 27 32 28 33 69 34 29 35
REMARK SMILES IDX 74 36 68 37 70 38 30 39 73 40 67 41 66 42 31 44 57 45 40 46
REMARK SMILES IDX 56 47 41 48 44 49 55 50 71 51 42 52 43 53 54 55 72 56 45 57
REMARK SMILES IDX 32 58 33 59 38 60 34 61 35 62 37 63 39 64 36 65 58 66 59 67
REMARK SMILES IDX 64 68 60 69 61 70 63 71 65 72 62 73 46 74 47 75 52 76 48 77
REMARK SMILES IDX 49 78 51 79 53 80 50 81
REMARK H PARENT 2 17 5 20 70 43 44 54
REMARK Flexibility Score: inf
ROOT
ATOM      1  C   UNL A   1      34.340  34.090  29.895  1.00  0.00     0.275 C 
ENDROOT
BRANCH   1   2
ATOM      2  O   UNL A   1      33.771  32.942  29.231  1.00  0.00    -0.458 OA
BRANCH   2   3
ATOM      3  C   UNL A   1      34.355  32.615  28.042  1.00  0.00     0.348 C 
ATOM      4  O   UNL A   1      35.157  33.337  27.454  1.00  0.00    -0.245 OA
BRANCH   3   5
ATOM      5  C   UNL A   1      34.001  31.266  27.650  1.00  0.00     0.113 A 
ATOM      6  C   UNL A   1      32.944  29.339  26.879  1.00  0.00     0.019 A 
ATOM      7  C   UNL A   1      34.185  28.847  27.196  1.00  0.00     0.080 A 
ATOM      8  C   UNL A   1      32.789  30.702  27.285  1.00  0.00     0.042 A 
ATOM      9  S   UNL A   1      35.261  30.108  27.527  1.00  0.00    -0.136 S 
BRANCH   6  10
ATOM     10  S   UNL A   1      31.703  28.432  26.037  1.00  0.00    -0.125 SA
BRANCH  10  11
ATOM     11  C   UNL A   1      31.619  29.304  24.429  1.00  0.00     0.085 C 
BRANCH  11  12
ATOM     12  C   UNL A   1      30.255  29.700  23.863  1.00  0.00     0.112 C 
BRANCH  12  13
ATOM     13  C   UNL A   1      29.838  29.125  22.537  1.00  0.00     0.228 C 
ATOM     14  C   UNL A   1      27.614  31.559  23.924  1.00  0.00     0.144 C 
ATOM     15  N   UNL A   1      27.771  31.641  22.498  1.00  0.00    -0.341 N 
ATOM     16  C   UNL A   1      28.071  30.723  21.573  1.00  0.00     0.321 C 
ATOM     17  H   UNL A   1      27.632  32.545  22.132  1.00  0.00     0.165 HD
ATOM     18  O   UNL A   1      27.742  30.965  20.408  1.00  0.00    -0.248 OA
ATOM     19  N   UNL A   1      28.732  29.558  21.830  1.00  0.00    -0.278 N 
ATOM     20  H   UNL A   1      28.292  28.802  21.378  1.00  0.00     0.174 HD
ATOM     21  O   UNL A   1      30.506  28.205  22.046  1.00  0.00    -0.275 OA
ENDBRANCH  12  13
ENDBRANCH  11  12
ENDBRANCH  10  11
ENDBRANCH   6  10
ENDBRANCH   3   5
ENDBRANCH   2   3
ENDBRANCH   1   2
BRANCH   1  22
ATOM     22  C   UNL A   1      34.449  33.861  31.406  1.00  0.00     0.275 C 
BRANCH  22  23
ATOM     23  O   UNL A   1      35.825  33.722  31.811  1.00  0.00    -0.458 OA
BRANCH  23  24
ATOM     24  C   UNL A   1      36.110  32.604  32.517  1.00  0.00     0.338 C 
ATOM     25  O   UNL A   1      35.645  32.273  33.595  1.00  0.00    -0.246 OA
BRANCH  24  26
ATOM     26  C   UNL A   1      37.046  31.740  31.779  1.00  0.00     0.060 A 
ATOM     27  C   UNL A   1      37.990  31.028  32.501  1.00  0.00     0.016 A 
ATOM     28  C   UNL A   1      37.154  31.817  30.393  1.00  0.00     0.016 A 
ATOM     29  C   UNL A   1      39.149  30.572  31.881  1.00  0.00     0.010 A 
ATOM     30  C   UNL A   1      38.236  31.199  29.748  1.00  0.00     0.010 A 
ATOM     31  C   UNL A   1      39.286  30.625  30.489  1.00  0.00    -0.014 A 
BRANCH  31  32
ATOM     32  C   UNL A   1      40.529  30.107  29.837  1.00  0.00     0.031 A 
ATOM     33  C   UNL A   1      41.738  30.997  29.665  1.00  0.00     0.074 A 
ATOM     34  C   UNL A   1      40.598  28.825  29.420  1.00  0.00     0.049 A 
ATOM     35  N   UNL A   1      42.842  30.778  28.992  1.00  0.00    -0.248 NA
ATOM     36  C   UNL A   1      41.698  32.313  30.322  1.00  0.00     0.031 C 
ATOM     37  C   UNL A   1      39.533  27.828  29.556  1.00  0.00     0.029 A 
ATOM     38  N   UNL A   1      41.613  28.131  28.803  1.00  0.00    -0.354 N 
ATOM     39  C   UNL A   1      43.594  31.943  29.096  1.00  0.00     0.074 A 
ATOM     40  C   UNL A   1      42.816  32.874  29.884  1.00  0.00     0.031 C 
ATOM     41  C   UNL A   1      39.966  26.647  29.093  1.00  0.00     0.029 A 
ATOM     42  C   UNL A   1      41.296  26.823  28.526  1.00  0.00     0.049 A 
ATOM     43  H   UNL A   1      42.484  28.534  28.583  1.00  0.00     0.167 HD
ATOM     44  C   UNL A   1      44.821  32.213  28.584  1.00  0.00     0.037 A 
ATOM     45  C   UNL A   1      41.968  25.874  27.848  1.00  0.00     0.037 A 
ATOM     46  C   UNL A   1      45.618  31.265  27.846  1.00  0.00     0.049 A 
ATOM     47  C   UNL A   1      43.306  26.209  27.254  1.00  0.00     0.074 A 
ATOM     48  C   UNL A   1      46.880  31.440  27.302  1.00  0.00     0.029 A 
ATOM     49  N   UNL A   1      45.238  29.962  27.561  1.00  0.00    -0.354 N 
ATOM     50  N   UNL A   1      43.981  27.331  27.320  1.00  0.00    -0.248 NA
ATOM     51  C   UNL A   1      43.968  25.152  26.478  1.00  0.00     0.031 C 
ATOM     52  C   UNL A   1      47.244  30.258  26.649  1.00  0.00     0.029 A 
ATOM     53  C   UNL A   1      46.235  29.328  26.834  1.00  0.00     0.049 A 
ATOM     54  H   UNL A   1      44.388  29.549  27.835  1.00  0.00     0.167 HD
ATOM     55  C   UNL A   1      45.157  27.107  26.617  1.00  0.00     0.074 A 
ATOM     56  C   UNL A   1      45.108  25.738  26.147  1.00  0.00     0.031 C 
ATOM     57  C   UNL A   1      46.181  27.961  26.381  1.00  0.00     0.037 A 
BRANCH  44  58
ATOM     58  C   UNL A   1      45.366  33.602  28.771  1.00  0.00     0.057 A 
ATOM     59  C   UNL A   1      45.084  34.645  27.880  1.00  0.00     0.134 A 
ATOM     60  C   UNL A   1      46.157  33.907  29.887  1.00  0.00     0.134 A 
ATOM     61  F   UNL A   1      44.340  34.423  26.786  1.00  0.00    -0.206 F 
ATOM     62  C   UNL A   1      45.591  35.933  28.078  1.00  0.00     0.040 A 
ATOM     63  C   UNL A   1      46.645  35.196  30.111  1.00  0.00     0.040 A 
ATOM     64  F   UNL A   1      46.459  32.960  30.789  1.00  0.00    -0.206 F 
ATOM     65  C   UNL A   1      46.369  36.212  29.199  1.00  0.00     0.006 A 
ENDBRANCH  44  58
BRANCH  45  66
ATOM     66  C   UNL A   1      41.367  24.528  27.658  1.00  0.00     0.057 A 
ATOM     67  C   UNL A   1      41.791  23.430  28.414  1.00  0.00     0.134 A 
ATOM     68  C   UNL A   1      40.353  24.308  26.716  1.00  0.00     0.134 A 
ATOM     69  F   UNL A   1      42.775  23.570  29.313  1.00  0.00    -0.206 F 
ATOM     70  C   UNL A   1      41.239  22.161  28.232  1.00  0.00     0.040 A 
ATOM     71  C   UNL A   1      39.769  23.052  26.547  1.00  0.00     0.040 A 
ATOM     72  F   UNL A   1      39.898  25.320  25.960  1.00  0.00    -0.206 F 
ATOM     73  C   UNL A   1      40.218  21.971  27.302  1.00  0.00     0.006 A 
ENDBRANCH  45  66
BRANCH  57  74
ATOM     74  C   UNL A   1      47.358  27.423  25.622  1.00  0.00     0.057 A 
ATOM     75  C   UNL A   1      47.471  27.557  24.232  1.00  0.00     0.134 A 
ATOM     76  C   UNL A   1      48.403  26.779  26.297  1.00  0.00     0.134 A 
ATOM     77  F   UNL A   1      46.497  28.149  23.524  1.00  0.00    -0.206 F 
ATOM     78  C   UNL A   1      48.569  27.046  23.537  1.00  0.00     0.040 A 
ATOM     79  C   UNL A   1      49.520  26.290  25.617  1.00  0.00     0.040 A 
ATOM     80  F   UNL A   1      48.361  26.624  27.628  1.00  0.00    -0.206 F 
ATOM     81  C   UNL A   1      49.601  26.417  24.233  1.00  0.00     0.006 A 
ENDBRANCH  57  74
ENDBRANCH  31  32
ENDBRANCH  24  26
ENDBRANCH  23  24
ENDBRANCH  22  23
ENDBRANCH   1  22
TORSDOF 15
ENDMDL
