MODEL 1
REMARK VINA RESULT:     -10.0      0.000      0.000
REMARK SMILES CC[NH2+][C@@]1(C(=O)OCCOC(=O)c2ccc(-c3c4nc(c(-c5c(F)cccc5F)c5ccc([nH]5)c(-c5c(F)cccc5F)c5nc(c(-c6c(F)cccc6F)c6ccc3[nH]6)C=C5)C=C4)cc2)CC[C@@H]([N@@H+](C)Cc2nccn2C)C1
REMARK SMILES IDX 8 1 7 2 5 3 6 4 4 5 67 6 79 7 68 8 69 9 3 10 2 13 1 14 70 15
REMARK SMILES IDX 71 16 72 18 73 19 74 20 77 21 75 22 76 23 78 24 9 25 10 26
REMARK SMILES IDX 11 27 12 28 13 29 14 30 66 31 15 32 65 33 16 34 17 35 18 36
REMARK SMILES IDX 59 37 19 38 64 39 58 40 60 41 20 42 63 43 57 44 56 45 21 47
REMARK SMILES IDX 47 48 30 49 46 50 31 51 34 52 45 53 61 54 32 55 33 56 44 58
REMARK SMILES IDX 62 59 35 60 22 61 23 62 28 63 24 64 25 65 27 66 29 67 26 68
REMARK SMILES IDX 48 69 49 70 54 71 50 72 51 73 53 74 55 75 52 76 36 77 37 78
REMARK SMILES IDX 42 79 38 80 39 81 41 82 43 83 40 84
REMARK H PARENT 3 11 3 12 70 17 60 46 34 57
REMARK Flexibility Score: inf
ROOT
ATOM      1  C   UNL A   1      44.647  22.361  25.370  1.00  0.00     0.274 C 
ENDROOT
BRANCH   1   2
ATOM      2  O   UNL A   1      43.253  22.146  25.119  1.00  0.00    -0.457 OA
BRANCH   2   3
ATOM      3  C   UNL A   1      42.710  21.130  25.827  1.00  0.00     0.368 C 
ATOM      4  O   UNL A   1      42.781  19.947  25.495  1.00  0.00    -0.245 OA
BRANCH   3   5
ATOM      5  C   UNL A   1      41.987  21.595  27.116  1.00  0.00     0.200 C 
ATOM      6  C   UNL A   1      40.864  20.580  27.332  1.00  0.00     0.087 C 
ATOM      7  C   UNL A   1      41.185  22.914  27.031  1.00  0.00     0.146 C 
ATOM      8  C   UNL A   1      39.813  21.027  26.314  1.00  0.00     0.072 C 
ATOM      9  C   UNL A   1      39.870  22.568  26.306  1.00  0.00     0.191 C 
BRANCH   5  10
ATOM     10  N   UNL A   1      42.930  21.735  28.259  1.00  0.00    -0.332 N 
ATOM     11  H   UNL A   1      42.792  20.934  28.876  1.00  0.00     0.347 HD
ATOM     12  H   UNL A   1      43.860  21.786  27.842  1.00  0.00     0.347 HD
BRANCH  10  13
ATOM     13  C   UNL A   1      42.792  22.946  29.061  1.00  0.00     0.257 C 
ATOM     14  C   UNL A   1      43.891  22.992  30.103  1.00  0.00     0.071 C 
ENDBRANCH  10  13
ENDBRANCH   5  10
BRANCH   9  15
ATOM     15  N   UNL A   1      38.690  23.326  26.756  1.00  0.00    -0.328 N 
ATOM     16  C   UNL A   1      39.065  24.439  27.631  1.00  0.00     0.333 C 
ATOM     17  H   UNL A   1      38.185  22.608  27.275  1.00  0.00     0.348 HD
BRANCH  15  18
ATOM     18  C   UNL A   1      37.668  23.734  25.768  1.00  0.00     0.338 C 
BRANCH  18  19
ATOM     19  C   UNL A   1      36.382  22.952  25.759  1.00  0.00     0.164 A 
ATOM     20  N   UNL A   1      36.288  21.637  25.886  1.00  0.00    -0.236 NA
ATOM     21  N   UNL A   1      35.120  23.500  25.665  1.00  0.00    -0.333 N 
ATOM     22  C   UNL A   1      34.959  21.361  26.057  1.00  0.00     0.131 A 
ATOM     23  C   UNL A   1      34.214  22.506  25.942  1.00  0.00     0.107 A 
ATOM     24  C   UNL A   1      34.738  24.874  25.443  1.00  0.00     0.151 C 
ENDBRANCH  18  19
ENDBRANCH  15  18
ENDBRANCH   9  15
ENDBRANCH   3   5
ENDBRANCH   2   3
ENDBRANCH   1   2
BRANCH   1  25
ATOM     25  C   UNL A   1      45.100  23.612  24.624  1.00  0.00     0.275 C 
BRANCH  25  26
ATOM     26  O   UNL A   1      44.248  24.740  24.908  1.00  0.00    -0.458 OA
BRANCH  26  27
ATOM     27  C   UNL A   1      44.894  25.897  25.212  1.00  0.00     0.338 C 
ATOM     28  O   UNL A   1      45.870  26.364  24.645  1.00  0.00    -0.246 OA
BRANCH  27  29
ATOM     29  C   UNL A   1      44.227  26.561  26.352  1.00  0.00     0.060 A 
ATOM     30  C   UNL A   1      44.662  27.825  26.767  1.00  0.00     0.016 A 
ATOM     31  C   UNL A   1      43.202  25.912  27.048  1.00  0.00     0.016 A 
ATOM     32  C   UNL A   1      44.039  28.462  27.846  1.00  0.00     0.010 A 
ATOM     33  C   UNL A   1      42.598  26.538  28.142  1.00  0.00     0.010 A 
ATOM     34  C   UNL A   1      43.004  27.820  28.542  1.00  0.00    -0.014 A 
BRANCH  34  35
ATOM     35  C   UNL A   1      42.413  28.438  29.754  1.00  0.00     0.031 A 
ATOM     36  C   UNL A   1      41.091  29.131  29.636  1.00  0.00     0.074 A 
ATOM     37  C   UNL A   1      43.053  28.407  30.938  1.00  0.00     0.049 A 
ATOM     38  N   UNL A   1      40.399  29.752  30.553  1.00  0.00    -0.248 NA
ATOM     39  C   UNL A   1      40.477  29.141  28.298  1.00  0.00     0.031 C 
ATOM     40  C   UNL A   1      44.355  27.795  31.170  1.00  0.00     0.029 A 
ATOM     41  N   UNL A   1      42.703  28.908  32.169  1.00  0.00    -0.354 N 
ATOM     42  C   UNL A   1      39.265  30.225  29.908  1.00  0.00     0.074 A 
ATOM     43  C   UNL A   1      39.373  29.838  28.517  1.00  0.00     0.031 C 
ATOM     44  C   UNL A   1      44.683  27.915  32.466  1.00  0.00     0.029 A 
ATOM     45  C   UNL A   1      43.643  28.679  33.148  1.00  0.00     0.049 A 
ATOM     46  H   UNL A   1      41.858  29.385  32.336  1.00  0.00     0.167 HD
ATOM     47  C   UNL A   1      38.233  30.928  30.429  1.00  0.00     0.037 A 
ATOM     48  C   UNL A   1      43.680  29.070  34.437  1.00  0.00     0.037 A 
ATOM     49  C   UNL A   1      38.160  31.361  31.799  1.00  0.00     0.049 A 
ATOM     50  C   UNL A   1      42.549  29.908  34.971  1.00  0.00     0.074 A 
ATOM     51  C   UNL A   1      37.159  32.088  32.420  1.00  0.00     0.029 A 
ATOM     52  N   UNL A   1      39.139  31.131  32.754  1.00  0.00    -0.354 N 
ATOM     53  N   UNL A   1      41.456  30.306  34.364  1.00  0.00    -0.248 NA
ATOM     54  C   UNL A   1      42.662  30.367  36.363  1.00  0.00     0.031 C 
ATOM     55  C   UNL A   1      37.560  32.345  33.735  1.00  0.00     0.029 A 
ATOM     56  C   UNL A   1      38.779  31.725  33.953  1.00  0.00     0.049 A 
ATOM     57  H   UNL A   1      39.968  30.621  32.603  1.00  0.00     0.167 HD
ATOM     58  C   UNL A   1      40.743  31.039  35.304  1.00  0.00     0.074 A 
ATOM     59  C   UNL A   1      41.517  31.012  36.528  1.00  0.00     0.031 C 
ATOM     60  C   UNL A   1      39.558  31.681  35.165  1.00  0.00     0.037 A 
BRANCH  47  61
ATOM     61  C   UNL A   1      37.128  31.307  29.490  1.00  0.00     0.057 A 
ATOM     62  C   UNL A   1      36.075  30.430  29.198  1.00  0.00     0.134 A 
ATOM     63  C   UNL A   1      37.116  32.561  28.869  1.00  0.00     0.134 A 
ATOM     64  F   UNL A   1      36.038  29.205  29.746  1.00  0.00    -0.206 F 
ATOM     65  C   UNL A   1      35.063  30.777  28.302  1.00  0.00     0.040 A 
ATOM     66  C   UNL A   1      36.096  32.930  27.991  1.00  0.00     0.040 A 
ATOM     67  F   UNL A   1      38.096  33.447  29.103  1.00  0.00    -0.206 F 
ATOM     68  C   UNL A   1      35.071  32.034  27.699  1.00  0.00     0.006 A 
ENDBRANCH  47  61
BRANCH  48  69
ATOM     69  C   UNL A   1      44.832  28.715  35.309  1.00  0.00     0.057 A 
ATOM     70  C   UNL A   1      45.976  29.522  35.367  1.00  0.00     0.134 A 
ATOM     71  C   UNL A   1      44.841  27.539  36.070  1.00  0.00     0.134 A 
ATOM     72  F   UNL A   1      46.044  30.650  34.644  1.00  0.00    -0.206 F 
ATOM     73  C   UNL A   1      47.093  29.160  36.126  1.00  0.00     0.040 A 
ATOM     74  C   UNL A   1      45.938  27.182  36.859  1.00  0.00     0.040 A 
ATOM     75  F   UNL A   1      43.781  26.718  36.063  1.00  0.00    -0.206 F 
ATOM     76  C   UNL A   1      47.073  27.988  36.878  1.00  0.00     0.006 A 
ENDBRANCH  48  69
BRANCH  60  77
ATOM     77  C   UNL A   1      39.004  32.372  36.378  1.00  0.00     0.057 A 
ATOM     78  C   UNL A   1      38.109  31.741  37.251  1.00  0.00     0.134 A 
ATOM     79  C   UNL A   1      39.408  33.675  36.697  1.00  0.00     0.134 A 
ATOM     80  F   UNL A   1      37.670  30.500  36.995  1.00  0.00    -0.206 F 
ATOM     81  C   UNL A   1      37.618  32.390  38.386  1.00  0.00     0.040 A 
ATOM     82  C   UNL A   1      38.950  34.322  37.845  1.00  0.00     0.040 A 
ATOM     83  F   UNL A   1      40.270  34.334  35.908  1.00  0.00    -0.206 F 
ATOM     84  C   UNL A   1      38.046  33.681  38.690  1.00  0.00     0.006 A 
ENDBRANCH  60  77
ENDBRANCH  34  35
ENDBRANCH  27  29
ENDBRANCH  26  27
ENDBRANCH  25  26
ENDBRANCH   1  25
TORSDOF 16
ENDMDL
MODEL 2
REMARK VINA RESULT:      -9.9      3.867      8.451
REMARK SMILES CC[NH2+][C@@]1(C(=O)OCCOC(=O)c2ccc(-c3c4nc(c(-c5c(F)cccc5F)c5ccc([nH]5)c(-c5c(F)cccc5F)c5nc(c(-c6c(F)cccc6F)c6ccc3[nH]6)C=C5)C=C4)cc2)CC[C@@H]([N@@H+](C)Cc2nccn2C)C1
REMARK SMILES IDX 8 1 7 2 5 3 6 4 4 5 67 6 79 7 68 8 69 9 3 10 2 13 1 14 70 15
REMARK SMILES IDX 71 16 72 18 73 19 74 20 77 21 75 22 76 23 78 24 9 25 10 26
REMARK SMILES IDX 11 27 12 28 13 29 14 30 66 31 15 32 65 33 16 34 17 35 18 36
REMARK SMILES IDX 59 37 19 38 64 39 58 40 60 41 20 42 63 43 57 44 56 45 21 47
REMARK SMILES IDX 47 48 30 49 46 50 31 51 34 52 45 53 61 54 32 55 33 56 44 58
REMARK SMILES IDX 62 59 35 60 22 61 23 62 28 63 24 64 25 65 27 66 29 67 26 68
REMARK SMILES IDX 48 69 49 70 54 71 50 72 51 73 53 74 55 75 52 76 36 77 37 78
REMARK SMILES IDX 42 79 38 80 39 81 41 82 43 83 40 84
REMARK H PARENT 3 11 3 12 70 17 60 46 34 57
REMARK Flexibility Score: inf
ROOT
ATOM      1  C   UNL A   1      38.821  21.244  25.953  1.00  0.00     0.274 C 
ENDROOT
BRANCH   1   2
ATOM      2  O   UNL A   1      37.775  21.747  25.112  1.00  0.00    -0.457 OA
BRANCH   2   3
ATOM      3  C   UNL A   1      37.239  22.916  25.528  1.00  0.00     0.368 C 
ATOM      4  O   UNL A   1      37.896  23.935  25.744  1.00  0.00    -0.245 OA
BRANCH   3   5
ATOM      5  C   UNL A   1      35.700  22.861  25.700  1.00  0.00     0.200 C 
ATOM      6  C   UNL A   1      35.193  22.068  24.496  1.00  0.00     0.087 C 
ATOM      7  C   UNL A   1      34.930  24.190  25.528  1.00  0.00     0.146 C 
ATOM      8  C   UNL A   1      35.253  23.100  23.368  1.00  0.00     0.072 C 
ATOM      9  C   UNL A   1      34.846  24.441  24.010  1.00  0.00     0.191 C 
BRANCH   5  10
ATOM     10  N   UNL A   1      35.311  22.304  27.024  1.00  0.00    -0.332 N 
ATOM     11  H   UNL A   1      36.052  21.670  27.325  1.00  0.00     0.347 HD
ATOM     12  H   UNL A   1      35.179  23.112  27.633  1.00  0.00     0.347 HD
BRANCH  10  13
ATOM     13  C   UNL A   1      34.051  21.570  27.067  1.00  0.00     0.257 C 
ATOM     14  C   UNL A   1      33.069  22.300  27.961  1.00  0.00     0.071 C 
ENDBRANCH  10  13
ENDBRANCH   5  10
BRANCH   9  15
ATOM     15  N   UNL A   1      33.610  25.102  23.554  1.00  0.00    -0.328 N 
ATOM     16  C   UNL A   1      33.004  24.394  22.425  1.00  0.00     0.333 C 
ATOM     17  H   UNL A   1      33.973  26.010  23.263  1.00  0.00     0.348 HD
BRANCH  15  18
ATOM     18  C   UNL A   1      32.594  25.508  24.548  1.00  0.00     0.338 C 
BRANCH  18  19
ATOM     19  C   UNL A   1      32.182  26.955  24.545  1.00  0.00     0.164 A 
ATOM     20  N   UNL A   1      31.210  27.471  23.807  1.00  0.00    -0.236 NA
ATOM     21  N   UNL A   1      32.725  27.939  25.346  1.00  0.00    -0.333 N 
ATOM     22  C   UNL A   1      31.009  28.743  24.266  1.00  0.00     0.131 A 
ATOM     23  C   UNL A   1      31.928  29.051  25.236  1.00  0.00     0.107 A 
ATOM     24  C   UNL A   1      33.846  27.858  26.251  1.00  0.00     0.151 C 
ENDBRANCH  18  19
ENDBRANCH  15  18
ENDBRANCH   9  15
ENDBRANCH   3   5
ENDBRANCH   2   3
ENDBRANCH   1   2
BRANCH   1  25
ATOM     25  C   UNL A   1      39.433  20.008  25.301  1.00  0.00     0.275 C 
BRANCH  25  26
ATOM     26  O   UNL A   1      40.361  19.344  26.183  1.00  0.00    -0.458 OA
BRANCH  26  27
ATOM     27  C   UNL A   1      41.673  19.622  25.965  1.00  0.00     0.338 C 
ATOM     28  O   UNL A   1      42.488  18.914  25.391  1.00  0.00    -0.246 OA
BRANCH  27  29
ATOM     29  C   UNL A   1      42.004  20.954  26.513  1.00  0.00     0.060 A 
ATOM     30  C   UNL A   1      41.849  21.196  27.882  1.00  0.00     0.016 A 
ATOM     31  C   UNL A   1      42.422  21.984  25.664  1.00  0.00     0.016 A 
ATOM     32  C   UNL A   1      42.157  22.455  28.412  1.00  0.00     0.010 A 
ATOM     33  C   UNL A   1      42.705  23.248  26.189  1.00  0.00     0.010 A 
ATOM     34  C   UNL A   1      42.585  23.490  27.566  1.00  0.00    -0.014 A 
BRANCH  34  35
ATOM     35  C   UNL A   1      42.808  24.856  28.100  1.00  0.00     0.031 A 
ATOM     36  C   UNL A   1      44.194  25.249  28.510  1.00  0.00     0.074 A 
ATOM     37  C   UNL A   1      41.791  25.726  28.241  1.00  0.00     0.049 A 
ATOM     38  N   UNL A   1      44.616  26.377  29.015  1.00  0.00    -0.248 NA
ATOM     39  C   UNL A   1      45.238  24.225  28.347  1.00  0.00     0.031 C 
ATOM     40  C   UNL A   1      40.400  25.449  27.910  1.00  0.00     0.029 A 
ATOM     41  N   UNL A   1      41.765  27.018  28.708  1.00  0.00    -0.354 N 
ATOM     42  C   UNL A   1      45.976  26.205  29.228  1.00  0.00     0.074 A 
ATOM     43  C   UNL A   1      46.304  24.855  28.818  1.00  0.00     0.031 C 
ATOM     44  C   UNL A   1      39.657  26.542  28.142  1.00  0.00     0.029 A 
ATOM     45  C   UNL A   1      40.509  27.581  28.708  1.00  0.00     0.049 A 
ATOM     46  H   UNL A   1      42.570  27.497  29.013  1.00  0.00     0.167 HD
ATOM     47  C   UNL A   1      46.868  27.089  29.730  1.00  0.00     0.037 A 
ATOM     48  C   UNL A   1      40.087  28.784  29.147  1.00  0.00     0.037 A 
ATOM     49  C   UNL A   1      46.526  28.408  30.192  1.00  0.00     0.049 A 
ATOM     50  C   UNL A   1      41.092  29.722  29.762  1.00  0.00     0.074 A 
ATOM     51  C   UNL A   1      47.357  29.376  30.727  1.00  0.00     0.029 A 
ATOM     52  N   UNL A   1      45.243  28.936  30.197  1.00  0.00    -0.354 N 
ATOM     53  N   UNL A   1      42.386  29.567  29.911  1.00  0.00    -0.248 NA
ATOM     54  C   UNL A   1      40.577  30.995  30.286  1.00  0.00     0.031 C 
ATOM     55  C   UNL A   1      46.569  30.466  31.109  1.00  0.00     0.029 A 
ATOM     56  C   UNL A   1      45.255  30.205  30.752  1.00  0.00     0.049 A 
ATOM     57  H   UNL A   1      44.441  28.476  29.857  1.00  0.00     0.167 HD
ATOM     58  C   UNL A   1      42.842  30.728  30.523  1.00  0.00     0.074 A 
ATOM     59  C   UNL A   1      41.688  31.587  30.696  1.00  0.00     0.031 C 
ATOM     60  C   UNL A   1      44.099  31.051  30.910  1.00  0.00     0.037 A 
BRANCH  47  61
ATOM     61  C   UNL A   1      48.290  26.628  29.846  1.00  0.00     0.057 A 
ATOM     62  C   UNL A   1      49.232  26.886  28.842  1.00  0.00     0.134 A 
ATOM     63  C   UNL A   1      48.722  25.918  30.972  1.00  0.00     0.134 A 
ATOM     64  F   UNL A   1      48.877  27.545  27.728  1.00  0.00    -0.206 F 
ATOM     65  C   UNL A   1      50.548  26.430  28.942  1.00  0.00     0.040 A 
ATOM     66  C   UNL A   1      50.041  25.480  31.095  1.00  0.00     0.040 A 
ATOM     67  F   UNL A   1      47.869  25.636  31.969  1.00  0.00    -0.206 F 
ATOM     68  C   UNL A   1      50.955  25.728  30.075  1.00  0.00     0.006 A 
ENDBRANCH  47  61
BRANCH  48  69
ATOM     69  C   UNL A   1      38.653  29.167  29.061  1.00  0.00     0.057 A 
ATOM     70  C   UNL A   1      38.101  29.658  27.870  1.00  0.00     0.134 A 
ATOM     71  C   UNL A   1      37.806  29.097  30.175  1.00  0.00     0.134 A 
ATOM     72  F   UNL A   1      38.862  29.774  26.772  1.00  0.00    -0.206 F 
ATOM     73  C   UNL A   1      36.774  30.090  27.798  1.00  0.00     0.040 A 
ATOM     74  C   UNL A   1      36.468  29.495  30.108  1.00  0.00     0.040 A 
ATOM     75  F   UNL A   1      38.265  28.637  31.348  1.00  0.00    -0.206 F 
ATOM     76  C   UNL A   1      35.952  30.005  28.919  1.00  0.00     0.006 A 
ENDBRANCH  48  69
BRANCH  60  77
ATOM     77  C   UNL A   1      44.303  32.407  31.522  1.00  0.00     0.057 A 
ATOM     78  C   UNL A   1      44.242  32.618  32.905  1.00  0.00     0.134 A 
ATOM     79  C   UNL A   1      44.607  33.511  30.713  1.00  0.00     0.134 A 
ATOM     80  F   UNL A   1      43.940  31.607  33.734  1.00  0.00    -0.206 F 
ATOM     81  C   UNL A   1      44.454  33.881  33.460  1.00  0.00     0.040 A 
ATOM     82  C   UNL A   1      44.853  34.771  31.258  1.00  0.00     0.040 A 
ATOM     83  F   UNL A   1      44.689  33.377  29.380  1.00  0.00    -0.206 F 
ATOM     84  C   UNL A   1      44.769  34.960  32.636  1.00  0.00     0.006 A 
ENDBRANCH  60  77
ENDBRANCH  34  35
ENDBRANCH  27  29
ENDBRANCH  26  27
ENDBRANCH  25  26
ENDBRANCH   1  25
TORSDOF 16
ENDMDL
MODEL 3
REMARK VINA RESULT:      -9.8      4.058      6.432
REMARK SMILES CC[NH2+][C@@]1(C(=O)OCCOC(=O)c2ccc(-c3c4nc(c(-c5c(F)cccc5F)c5ccc([nH]5)c(-c5c(F)cccc5F)c5nc(c(-c6c(F)cccc6F)c6ccc3[nH]6)C=C5)C=C4)cc2)CC[C@@H]([N@@H+](C)Cc2nccn2C)C1
REMARK SMILES IDX 8 1 7 2 5 3 6 4 4 5 67 6 79 7 68 8 69 9 3 10 2 13 1 14 70 15
REMARK SMILES IDX 71 16 72 18 73 19 74 20 77 21 75 22 76 23 78 24 9 25 10 26
REMARK SMILES IDX 11 27 12 28 13 29 14 30 66 31 15 32 65 33 16 34 17 35 18 36
REMARK SMILES IDX 59 37 19 38 64 39 58 40 60 41 20 42 63 43 57 44 56 45 21 47
REMARK SMILES IDX 47 48 30 49 46 50 31 51 34 52 45 53 61 54 32 55 33 56 44 58
REMARK SMILES IDX 62 59 35 60 22 61 23 62 28 63 24 64 25 65 27 66 29 67 26 68
REMARK SMILES IDX 48 69 49 70 54 71 50 72 51 73 53 74 55 75 52 76 36 77 37 78
REMARK SMILES IDX 42 79 38 80 39 81 41 82 43 83 40 84
REMARK H PARENT 3 11 3 12 70 17 60 46 34 57
REMARK Flexibility Score: inf
ROOT
ATOM      1  C   UNL A   1      38.735  21.286  25.737  1.00  0.00     0.274 C 
ENDROOT
BRANCH   1   2
ATOM      2  O   UNL A   1      37.457  21.542  25.144  1.00  0.00    -0.457 OA
BRANCH   2   3
ATOM      3  C   UNL A   1      36.984  22.791  25.355  1.00  0.00     0.368 C 
ATOM      4  O   UNL A   1      37.679  23.806  25.310  1.00  0.00    -0.245 OA
BRANCH   3   5
ATOM      5  C   UNL A   1      35.464  22.831  25.654  1.00  0.00     0.200 C 
ATOM      6  C   UNL A   1      34.813  22.050  24.512  1.00  0.00     0.087 C 
ATOM      7  C   UNL A   1      34.761  24.201  25.517  1.00  0.00     0.146 C 
ATOM      8  C   UNL A   1      34.840  23.059  23.362  1.00  0.00     0.072 C 
ATOM      9  C   UNL A   1      34.566  24.432  24.006  1.00  0.00     0.191 C 
BRANCH   5  10
ATOM     10  N   UNL A   1      35.154  22.320  27.016  1.00  0.00    -0.332 N 
ATOM     11  H   UNL A   1      35.927  21.722  27.308  1.00  0.00     0.347 HD
ATOM     12  H   UNL A   1      35.025  23.150  27.597  1.00  0.00     0.347 HD
BRANCH  10  13
ATOM     13  C   UNL A   1      33.920  21.553  27.150  1.00  0.00     0.257 C 
ATOM     14  C   UNL A   1      32.898  22.365  27.919  1.00  0.00     0.071 C 
ENDBRANCH  10  13
ENDBRANCH   5  10
BRANCH   9  15
ATOM     15  N   UNL A   1      33.338  25.159  23.638  1.00  0.00    -0.328 N 
ATOM     16  C   UNL A   1      32.290  24.994  24.648  1.00  0.00     0.333 C 
ATOM     17  H   UNL A   1      33.086  24.686  22.770  1.00  0.00     0.348 HD
BRANCH  15  18
ATOM     18  C   UNL A   1      33.434  26.561  23.179  1.00  0.00     0.338 C 
BRANCH  18  19
ATOM     19  C   UNL A   1      33.244  27.631  24.220  1.00  0.00     0.164 A 
ATOM     20  N   UNL A   1      34.011  27.805  25.285  1.00  0.00    -0.236 NA
ATOM     21  N   UNL A   1      32.272  28.610  24.185  1.00  0.00    -0.333 N 
ATOM     22  C   UNL A   1      33.644  29.003  25.834  1.00  0.00     0.131 A 
ATOM     23  C   UNL A   1      32.576  29.531  25.156  1.00  0.00     0.107 A 
ATOM     24  C   UNL A   1      31.178  28.774  23.258  1.00  0.00     0.151 C 
ENDBRANCH  18  19
ENDBRANCH  15  18
ENDBRANCH   9  15
ENDBRANCH   3   5
ENDBRANCH   2   3
ENDBRANCH   1   2
BRANCH   1  25
ATOM     25  C   UNL A   1      39.213  19.901  25.311  1.00  0.00     0.275 C 
BRANCH  25  26
ATOM     26  O   UNL A   1      40.223  19.387  26.204  1.00  0.00    -0.458 OA
BRANCH  26  27
ATOM     27  C   UNL A   1      41.500  19.745  25.907  1.00  0.00     0.338 C 
ATOM     28  O   UNL A   1      42.309  19.105  25.253  1.00  0.00    -0.246 OA
BRANCH  27  29
ATOM     29  C   UNL A   1      41.797  21.074  26.483  1.00  0.00     0.060 A 
ATOM     30  C   UNL A   1      42.273  22.096  25.653  1.00  0.00     0.016 A 
ATOM     31  C   UNL A   1      41.654  21.298  27.856  1.00  0.00     0.016 A 
ATOM     32  C   UNL A   1      42.559  23.357  26.188  1.00  0.00     0.010 A 
ATOM     33  C   UNL A   1      41.965  22.550  28.394  1.00  0.00     0.010 A 
ATOM     34  C   UNL A   1      42.409  23.591  27.563  1.00  0.00    -0.014 A 
BRANCH  34  35
ATOM     35  C   UNL A   1      42.814  24.889  28.157  1.00  0.00     0.031 A 
ATOM     36  C   UNL A   1      41.765  25.933  28.384  1.00  0.00     0.074 A 
ATOM     37  C   UNL A   1      44.099  25.146  28.466  1.00  0.00     0.049 A 
ATOM     38  N   UNL A   1      41.892  27.139  28.871  1.00  0.00    -0.248 NA
ATOM     39  C   UNL A   1      40.393  25.577  27.990  1.00  0.00     0.031 C 
ATOM     40  C   UNL A   1      45.209  24.226  28.260  1.00  0.00     0.029 A 
ATOM     41  N   UNL A   1      44.692  26.259  29.011  1.00  0.00    -0.354 N 
ATOM     42  C   UNL A   1      40.618  27.687  28.848  1.00  0.00     0.074 A 
ATOM     43  C   UNL A   1      39.736  26.690  28.278  1.00  0.00     0.031 C 
ATOM     44  C   UNL A   1      46.344  24.785  28.707  1.00  0.00     0.029 A 
ATOM     45  C   UNL A   1      46.054  26.139  29.168  1.00  0.00     0.049 A 
ATOM     46  H   UNL A   1      44.190  27.066  29.267  1.00  0.00     0.167 HD
ATOM     47  C   UNL A   1      40.223  28.914  29.256  1.00  0.00     0.037 A 
ATOM     48  C   UNL A   1      46.969  27.029  29.600  1.00  0.00     0.037 A 
ATOM     49  C   UNL A   1      41.114  29.922  29.767  1.00  0.00     0.049 A 
ATOM     50  C   UNL A   1      46.508  28.409  29.986  1.00  0.00     0.074 A 
ATOM     51  C   UNL A   1      40.811  31.202  30.197  1.00  0.00     0.029 A 
ATOM     52  N   UNL A   1      42.487  29.773  29.891  1.00  0.00    -0.354 N 
ATOM     53  N   UNL A   1      45.292  28.900  30.008  1.00  0.00    -0.248 NA
ATOM     54  C   UNL A   1      47.547  29.368  30.389  1.00  0.00     0.031 C 
ATOM     55  C   UNL A   1      42.007  31.846  30.527  1.00  0.00     0.029 A 
ATOM     56  C   UNL A   1      43.050  30.947  30.365  1.00  0.00     0.049 A 
ATOM     57  H   UNL A   1      42.989  28.954  29.673  1.00  0.00     0.167 HD
ATOM     58  C   UNL A   1      45.417  30.211  30.448  1.00  0.00     0.074 A 
ATOM     59  C   UNL A   1      46.826  30.433  30.702  1.00  0.00     0.031 C 
ATOM     60  C   UNL A   1      44.454  31.149  30.621  1.00  0.00     0.037 A 
BRANCH  47  61
ATOM     61  C   UNL A   1      38.766  29.240  29.117  1.00  0.00     0.057 A 
ATOM     62  C   UNL A   1      37.887  29.168  30.206  1.00  0.00     0.134 A 
ATOM     63  C   UNL A   1      38.235  29.628  27.882  1.00  0.00     0.134 A 
ATOM     64  F   UNL A   1      38.330  28.783  31.413  1.00  0.00    -0.206 F 
ATOM     65  C   UNL A   1      36.526  29.444  30.064  1.00  0.00     0.040 A 
ATOM     66  C   UNL A   1      36.882  29.932  27.733  1.00  0.00     0.040 A 
ATOM     67  F   UNL A   1      39.022  29.714  26.798  1.00  0.00    -0.206 F 
ATOM     68  C   UNL A   1      36.022  29.833  28.824  1.00  0.00     0.006 A 
ENDBRANCH  47  61
BRANCH  48  69
ATOM     69  C   UNL A   1      48.412  26.671  29.663  1.00  0.00     0.057 A 
ATOM     70  C   UNL A   1      48.962  26.066  30.801  1.00  0.00     0.134 A 
ATOM     71  C   UNL A   1      49.288  26.965  28.610  1.00  0.00     0.134 A 
ATOM     72  F   UNL A   1      48.184  25.779  31.856  1.00  0.00    -0.206 F 
ATOM     73  C   UNL A   1      50.329  25.793  30.900  1.00  0.00     0.040 A 
ATOM     74  C   UNL A   1      50.651  26.667  28.683  1.00  0.00     0.040 A 
ATOM     75  F   UNL A   1      48.832  27.544  27.490  1.00  0.00    -0.206 F 
ATOM     76  C   UNL A   1      51.177  26.090  29.836  1.00  0.00     0.006 A 
ENDBRANCH  48  69
BRANCH  60  77
ATOM     77  C   UNL A   1      44.884  32.487  31.148  1.00  0.00     0.057 A 
ATOM     78  C   UNL A   1      44.955  32.760  32.520  1.00  0.00     0.134 A 
ATOM     79  C   UNL A   1      45.273  33.504  30.266  1.00  0.00     0.134 A 
ATOM     80  F   UNL A   1      44.582  31.835  33.418  1.00  0.00    -0.206 F 
ATOM     81  C   UNL A   1      45.376  34.003  32.996  1.00  0.00     0.040 A 
ATOM     82  C   UNL A   1      45.727  34.740  30.729  1.00  0.00     0.040 A 
ATOM     83  F   UNL A   1      45.238  33.307  28.940  1.00  0.00    -0.206 F 
ATOM     84  C   UNL A   1      45.772  34.994  32.099  1.00  0.00     0.006 A 
ENDBRANCH  60  77
ENDBRANCH  34  35
ENDBRANCH  27  29
ENDBRANCH  26  27
ENDBRANCH  25  26
ENDBRANCH   1  25
TORSDOF 16
ENDMDL
