MODEL 1
REMARK VINA RESULT:     -11.2      0.000      0.000
REMARK SMILES C[C@H]1[C@@H](C(=O)OCCOC(=O)c2ccc(-c3c4nc(c(-c5c(F)cccc5F)c5ccc([nH]5)c(-c5c(F)cccc5F)c5nc(c(-c6c(F)cccc6F)c6ccc3[nH]6)C=C5)C=C4)cc2)CCN1C(=O)NCC(C1CC1)C1CC1
REMARK SMILES IDX 7 1 6 2 4 3 5 4 3 5 1 6 2 7 68 8 66 9 67 10 69 11 70 12
REMARK SMILES IDX 71 13 72 15 73 16 74 17 75 18 76 19 77 20 78 21 79 22 8 23
REMARK SMILES IDX 9 24 10 25 11 26 12 27 13 28 65 29 14 30 64 31 15 32 16 33
REMARK SMILES IDX 17 34 58 35 18 36 63 37 57 38 59 39 19 40 62 41 56 42 55 43
REMARK SMILES IDX 20 45 46 46 29 47 45 48 30 49 33 50 44 51 60 52 31 53 32 54
REMARK SMILES IDX 43 56 61 57 34 58 21 59 22 60 27 61 23 62 24 63 26 64 28 65
REMARK SMILES IDX 25 66 47 67 48 68 53 69 49 70 50 71 52 72 54 73 51 74 35 75
REMARK SMILES IDX 36 76 41 77 37 78 38 79 40 80 42 81 39 82
REMARK H PARENT 71 14 59 44 33 55
REMARK Flexibility Score: inf
ROOT
ATOM      1  C   UNL A   1      31.294  29.142  24.187  1.00  0.00     0.274 C 
ENDROOT
BRANCH   1   2
ATOM      2  O   UNL A   1      32.191  28.126  23.697  1.00  0.00    -0.462 OA
BRANCH   2   3
ATOM      3  C   UNL A   1      31.676  27.046  23.075  1.00  0.00     0.311 C 
ATOM      4  O   UNL A   1      31.125  27.083  21.980  1.00  0.00    -0.252 OA
BRANCH   3   5
ATOM      5  C   UNL A   1      31.849  25.747  23.840  1.00  0.00     0.123 C 
ATOM      6  C   UNL A   1      29.527  25.962  25.080  1.00  0.00     0.032 C 
ATOM      7  C   UNL A   1      30.686  25.088  24.601  1.00  0.00     0.098 C 
ATOM      8  N   UNL A   1      31.317  24.453  25.753  1.00  0.00    -0.321 N 
ATOM      9  C   UNL A   1      33.021  25.768  24.828  1.00  0.00     0.039 C 
ATOM     10  C   UNL A   1      32.482  25.223  26.134  1.00  0.00     0.122 C 
BRANCH   8  11
ATOM     11  C   UNL A   1      30.930  23.407  26.527  1.00  0.00     0.317 C 
ATOM     12  O   UNL A   1      29.932  23.478  27.251  1.00  0.00    -0.249 OA
ATOM     13  N   UNL A   1      31.592  22.239  26.567  1.00  0.00    -0.338 N 
ATOM     14  H   UNL A   1      31.149  21.596  27.167  1.00  0.00     0.165 HD
BRANCH  13  15
ATOM     15  C   UNL A   1      32.791  21.662  25.961  1.00  0.00     0.121 C 
BRANCH  15  16
ATOM     16  C   UNL A   1      32.445  20.558  24.940  1.00  0.00     0.014 C 
BRANCH  16  17
ATOM     17  C   UNL A   1      32.602  21.002  23.489  1.00  0.00    -0.006 C 
ATOM     18  C   UNL A   1      31.778  22.057  22.785  1.00  0.00     0.004 C 
ATOM     19  C   UNL A   1      33.199  22.354  23.172  1.00  0.00     0.004 C 
ENDBRANCH  16  17
BRANCH  16  20
ATOM     20  C   UNL A   1      33.186  19.235  25.115  1.00  0.00    -0.006 C 
ATOM     21  C   UNL A   1      32.529  17.875  25.089  1.00  0.00     0.004 C 
ATOM     22  C   UNL A   1      33.438  18.291  23.964  1.00  0.00     0.004 C 
ENDBRANCH  16  20
ENDBRANCH  15  16
ENDBRANCH  13  15
ENDBRANCH   8  11
ENDBRANCH   3   5
ENDBRANCH   2   3
ENDBRANCH   1   2
BRANCH   1  23
ATOM     23  C   UNL A   1      31.592  29.422  25.657  1.00  0.00     0.275 C 
BRANCH  23  24
ATOM     24  O   UNL A   1      32.905  29.995  25.774  1.00  0.00    -0.458 OA
BRANCH  24  25
ATOM     25  C   UNL A   1      33.049  30.935  26.733  1.00  0.00     0.338 C 
ATOM     26  O   UNL A   1      32.228  31.747  27.122  1.00  0.00    -0.246 OA
BRANCH  25  27
ATOM     27  C   UNL A   1      34.372  30.778  27.345  1.00  0.00     0.060 A 
ATOM     28  C   UNL A   1      34.789  29.498  27.708  1.00  0.00     0.016 A 
ATOM     29  C   UNL A   1      35.135  31.893  27.674  1.00  0.00     0.016 A 
ATOM     30  C   UNL A   1      35.918  29.333  28.496  1.00  0.00     0.010 A 
ATOM     31  C   UNL A   1      36.340  31.710  28.358  1.00  0.00     0.010 A 
ATOM     32  C   UNL A   1      36.731  30.430  28.795  1.00  0.00    -0.014 A 
BRANCH  32  33
ATOM     33  C   UNL A   1      37.998  30.249  29.546  1.00  0.00     0.031 A 
ATOM     34  C   UNL A   1      39.102  29.421  28.959  1.00  0.00     0.074 A 
ATOM     35  C   UNL A   1      38.144  30.799  30.768  1.00  0.00     0.049 A 
ATOM     36  N   UNL A   1      40.132  28.876  29.554  1.00  0.00    -0.248 NA
ATOM     37  C   UNL A   1      39.031  29.155  27.513  1.00  0.00     0.031 C 
ATOM     38  C   UNL A   1      37.181  31.686  31.425  1.00  0.00     0.029 A 
ATOM     39  N   UNL A   1      39.158  30.678  31.684  1.00  0.00    -0.354 N 
ATOM     40  C   UNL A   1      40.789  28.144  28.574  1.00  0.00     0.074 A 
ATOM     41  C   UNL A   1      40.057  28.333  27.340  1.00  0.00     0.031 C 
ATOM     42  C   UNL A   1      37.656  32.043  32.626  1.00  0.00     0.029 A 
ATOM     43  C   UNL A   1      38.900  31.324  32.868  1.00  0.00     0.049 A 
ATOM     44  H   UNL A   1      39.989  30.179  31.510  1.00  0.00     0.167 HD
ATOM     45  C   UNL A   1      41.893  27.374  28.709  1.00  0.00     0.037 A 
ATOM     46  C   UNL A   1      39.546  31.285  34.047  1.00  0.00     0.037 A 
ATOM     47  C   UNL A   1      42.638  27.244  29.934  1.00  0.00     0.049 A 
ATOM     48  C   UNL A   1      40.747  30.399  34.185  1.00  0.00     0.074 A 
ATOM     49  C   UNL A   1      43.767  26.486  30.185  1.00  0.00     0.029 A 
ATOM     50  N   UNL A   1      42.334  27.914  31.111  1.00  0.00    -0.354 N 
ATOM     51  N   UNL A   1      41.305  29.626  33.286  1.00  0.00    -0.248 NA
ATOM     52  C   UNL A   1      41.387  30.352  35.506  1.00  0.00     0.031 C 
ATOM     53  C   UNL A   1      44.136  26.681  31.521  1.00  0.00     0.029 A 
ATOM     54  C   UNL A   1      43.253  27.585  32.091  1.00  0.00     0.049 A 
ATOM     55  H   UNL A   1      41.577  28.531  31.231  1.00  0.00     0.167 HD
ATOM     56  C   UNL A   1      42.367  29.006  33.926  1.00  0.00     0.074 A 
ATOM     57  C   UNL A   1      42.381  29.503  35.289  1.00  0.00     0.031 C 
ATOM     58  C   UNL A   1      43.249  28.105  33.434  1.00  0.00     0.037 A 
BRANCH  45  59
ATOM     59  C   UNL A   1      42.333  26.575  27.519  1.00  0.00     0.057 A 
ATOM     60  C   UNL A   1      43.209  27.089  26.557  1.00  0.00     0.134 A 
ATOM     61  C   UNL A   1      41.894  25.254  27.356  1.00  0.00     0.134 A 
ATOM     62  F   UNL A   1      43.653  28.351  26.647  1.00  0.00    -0.206 F 
ATOM     63  C   UNL A   1      43.621  26.322  25.465  1.00  0.00     0.040 A 
ATOM     64  C   UNL A   1      42.315  24.472  26.280  1.00  0.00     0.040 A 
ATOM     65  F   UNL A   1      41.054  24.701  28.244  1.00  0.00    -0.206 F 
ATOM     66  C   UNL A   1      43.179  25.007  25.328  1.00  0.00     0.006 A 
ENDBRANCH  45  59
BRANCH  46  67
ATOM     67  C   UNL A   1      39.018  32.059  35.197  1.00  0.00     0.057 A 
ATOM     68  C   UNL A   1      38.239  31.446  36.182  1.00  0.00     0.134 A 
ATOM     69  C   UNL A   1      39.320  33.417  35.362  1.00  0.00     0.134 A 
ATOM     70  F   UNL A   1      37.901  30.153  36.069  1.00  0.00    -0.206 F 
ATOM     71  C   UNL A   1      37.779  32.154  37.293  1.00  0.00     0.040 A 
ATOM     72  C   UNL A   1      38.888  34.131  36.480  1.00  0.00     0.040 A 
ATOM     73  F   UNL A   1      40.070  34.059  34.455  1.00  0.00    -0.206 F 
ATOM     74  C   UNL A   1      38.112  33.499  37.449  1.00  0.00     0.006 A 
ENDBRANCH  46  67
BRANCH  58  75
ATOM     75  C   UNL A   1      44.322  27.630  34.362  1.00  0.00     0.057 A 
ATOM     76  C   UNL A   1      45.527  28.327  34.506  1.00  0.00     0.134 A 
ATOM     77  C   UNL A   1      44.125  26.492  35.151  1.00  0.00     0.134 A 
ATOM     78  F   UNL A   1      45.776  29.417  33.765  1.00  0.00    -0.206 F 
ATOM     79  C   UNL A   1      46.507  27.900  35.403  1.00  0.00     0.040 A 
ATOM     80  C   UNL A   1      45.090  26.064  36.061  1.00  0.00     0.040 A 
ATOM     81  F   UNL A   1      42.988  25.787  35.057  1.00  0.00    -0.206 F 
ATOM     82  C   UNL A   1      46.287  26.768  36.187  1.00  0.00     0.006 A 
ENDBRANCH  58  75
ENDBRANCH  32  33
ENDBRANCH  25  27
ENDBRANCH  24  25
ENDBRANCH  23  24
ENDBRANCH   1  23
TORSDOF 16
ENDMDL
MODEL 2
REMARK VINA RESULT:     -11.0      3.936      8.950
REMARK SMILES C[C@H]1[C@@H](C(=O)OCCOC(=O)c2ccc(-c3c4nc(c(-c5c(F)cccc5F)c5ccc([nH]5)c(-c5c(F)cccc5F)c5nc(c(-c6c(F)cccc6F)c6ccc3[nH]6)C=C5)C=C4)cc2)CCN1C(=O)NCC(C1CC1)C1CC1
REMARK SMILES IDX 7 1 6 2 4 3 5 4 3 5 1 6 2 7 68 8 66 9 67 10 69 11 70 12
REMARK SMILES IDX 71 13 72 15 73 16 74 17 75 18 76 19 77 20 78 21 79 22 8 23
REMARK SMILES IDX 9 24 10 25 11 26 12 27 13 28 65 29 14 30 64 31 15 32 16 33
REMARK SMILES IDX 17 34 58 35 18 36 63 37 57 38 59 39 19 40 62 41 56 42 55 43
REMARK SMILES IDX 20 45 46 46 29 47 45 48 30 49 33 50 44 51 60 52 31 53 32 54
REMARK SMILES IDX 43 56 61 57 34 58 21 59 22 60 27 61 23 62 24 63 26 64 28 65
REMARK SMILES IDX 25 66 47 67 48 68 53 69 49 70 50 71 52 72 54 73 51 74 35 75
REMARK SMILES IDX 36 76 41 77 37 78 38 79 40 80 42 81 39 82
REMARK H PARENT 71 14 59 44 33 55
REMARK Flexibility Score: inf
ROOT
ATOM      1  C   UNL A   1      34.578  20.990  25.293  1.00  0.00     0.274 C 
ENDROOT
BRANCH   1   2
ATOM      2  O   UNL A   1      34.037  22.280  25.643  1.00  0.00    -0.462 OA
BRANCH   2   3
ATOM      3  C   UNL A   1      32.732  22.524  25.411  1.00  0.00     0.311 C 
ATOM      4  O   UNL A   1      31.825  21.759  25.721  1.00  0.00    -0.252 OA
BRANCH   3   5
ATOM      5  C   UNL A   1      32.459  23.858  24.740  1.00  0.00     0.123 C 
ATOM      6  C   UNL A   1      33.125  22.986  22.338  1.00  0.00     0.032 C 
ATOM      7  C   UNL A   1      32.387  24.001  23.211  1.00  0.00     0.098 C 
ATOM      8  N   UNL A   1      32.911  25.336  22.944  1.00  0.00    -0.321 N 
ATOM      9  C   UNL A   1      33.388  24.983  25.211  1.00  0.00     0.039 C 
ATOM     10  C   UNL A   1      33.892  25.666  23.957  1.00  0.00     0.122 C 
BRANCH   8  11
ATOM     11  C   UNL A   1      32.720  26.186  21.903  1.00  0.00     0.317 C 
ATOM     12  O   UNL A   1      33.529  26.253  20.972  1.00  0.00    -0.249 OA
ATOM     13  N   UNL A   1      31.661  27.006  21.809  1.00  0.00    -0.338 N 
ATOM     14  H   UNL A   1      31.684  27.529  20.975  1.00  0.00     0.165 HD
BRANCH  13  15
ATOM     15  C   UNL A   1      30.481  27.332  22.609  1.00  0.00     0.121 C 
BRANCH  15  16
ATOM     16  C   UNL A   1      30.612  28.710  23.291  1.00  0.00     0.014 C 
BRANCH  16  17
ATOM     17  C   UNL A   1      29.277  29.424  23.480  1.00  0.00    -0.006 C 
ATOM     18  C   UNL A   1      28.933  30.813  22.991  1.00  0.00     0.004 C 
ATOM     19  C   UNL A   1      28.347  29.611  22.303  1.00  0.00     0.004 C 
ENDBRANCH  16  17
BRANCH  16  20
ATOM     20  C   UNL A   1      31.351  28.722  24.627  1.00  0.00    -0.006 C 
ATOM     21  C   UNL A   1      32.763  29.220  24.820  1.00  0.00     0.004 C 
ATOM     22  C   UNL A   1      31.610  29.995  25.396  1.00  0.00     0.004 C 
ENDBRANCH  16  20
ENDBRANCH  15  16
ENDBRANCH  13  15
ENDBRANCH   8  11
ENDBRANCH   3   5
ENDBRANCH   2   3
ENDBRANCH   1   2
BRANCH   1  23
ATOM     23  C   UNL A   1      36.000  21.158  24.766  1.00  0.00     0.275 C 
BRANCH  23  24
ATOM     24  O   UNL A   1      36.817  21.756  25.786  1.00  0.00    -0.458 OA
BRANCH  24  25
ATOM     25  C   UNL A   1      38.102  21.342  25.823  1.00  0.00     0.338 C 
ATOM     26  O   UNL A   1      38.548  20.244  25.543  1.00  0.00    -0.246 OA
BRANCH  25  27
ATOM     27  C   UNL A   1      38.950  22.484  26.176  1.00  0.00     0.060 A 
ATOM     28  C   UNL A   1      40.129  22.244  26.880  1.00  0.00     0.016 A 
ATOM     29  C   UNL A   1      38.522  23.785  25.931  1.00  0.00     0.016 A 
ATOM     30  C   UNL A   1      40.835  23.301  27.436  1.00  0.00     0.010 A 
ATOM     31  C   UNL A   1      39.305  24.850  26.383  1.00  0.00     0.010 A 
ATOM     32  C   UNL A   1      40.457  24.617  27.159  1.00  0.00    -0.014 A 
BRANCH  32  33
ATOM     33  C   UNL A   1      41.266  25.756  27.660  1.00  0.00     0.031 A 
ATOM     34  C   UNL A   1      40.632  26.792  28.541  1.00  0.00     0.074 A 
ATOM     35  C   UNL A   1      42.558  25.879  27.298  1.00  0.00     0.049 A 
ATOM     36  N   UNL A   1      41.043  28.002  28.821  1.00  0.00    -0.248 NA
ATOM     37  C   UNL A   1      39.358  26.425  29.181  1.00  0.00     0.031 C 
ATOM     38  C   UNL A   1      43.319  24.908  26.506  1.00  0.00     0.029 A 
ATOM     39  N   UNL A   1      43.459  26.887  27.536  1.00  0.00    -0.354 N 
ATOM     40  C   UNL A   1      40.046  28.566  29.605  1.00  0.00     0.074 A 
ATOM     41  C   UNL A   1      39.020  27.559  29.779  1.00  0.00     0.031 C 
ATOM     42  C   UNL A   1      44.570  25.356  26.341  1.00  0.00     0.029 A 
ATOM     43  C   UNL A   1      44.669  26.690  26.917  1.00  0.00     0.049 A 
ATOM     44  H   UNL A   1      43.258  27.671  28.096  1.00  0.00     0.167 HD
ATOM     45  C   UNL A   1      39.994  29.818  30.114  1.00  0.00     0.037 A 
ATOM     46  C   UNL A   1      45.717  27.518  26.759  1.00  0.00     0.037 A 
ATOM     47  C   UNL A   1      41.050  30.786  29.976  1.00  0.00     0.049 A 
ATOM     48  C   UNL A   1      45.625  28.913  27.301  1.00  0.00     0.074 A 
ATOM     49  C   UNL A   1      41.101  32.086  30.445  1.00  0.00     0.029 A 
ATOM     50  N   UNL A   1      42.256  30.544  29.334  1.00  0.00    -0.354 N 
ATOM     51  N   UNL A   1      44.638  29.479  27.951  1.00  0.00    -0.248 NA
ATOM     52  C   UNL A   1      46.774  29.794  27.058  1.00  0.00     0.031 C 
ATOM     53  C   UNL A   1      42.331  32.638  30.070  1.00  0.00     0.029 A 
ATOM     54  C   UNL A   1      43.056  31.671  29.394  1.00  0.00     0.049 A 
ATOM     55  H   UNL A   1      42.505  29.696  28.900  1.00  0.00     0.167 HD
ATOM     56  C   UNL A   1      45.048  30.779  28.206  1.00  0.00     0.074 A 
ATOM     57  C   UNL A   1      46.379  30.914  27.647  1.00  0.00     0.031 C 
ATOM     58  C   UNL A   1      44.381  31.772  28.840  1.00  0.00     0.037 A 
BRANCH  45  59
ATOM     59  C   UNL A   1      38.738  30.229  30.824  1.00  0.00     0.057 A 
ATOM     60  C   UNL A   1      37.656  30.808  30.151  1.00  0.00     0.134 A 
ATOM     61  C   UNL A   1      38.603  30.008  32.201  1.00  0.00     0.134 A 
ATOM     62  F   UNL A   1      37.729  31.060  28.836  1.00  0.00    -0.206 F 
ATOM     63  C   UNL A   1      36.487  31.166  30.828  1.00  0.00     0.040 A 
ATOM     64  C   UNL A   1      37.432  30.343  32.883  1.00  0.00     0.040 A 
ATOM     65  F   UNL A   1      39.603  29.455  32.904  1.00  0.00    -0.206 F 
ATOM     66  C   UNL A   1      36.371  30.928  32.196  1.00  0.00     0.006 A 
ENDBRANCH  45  59
BRANCH  46  67
ATOM     67  C   UNL A   1      46.903  27.061  25.996  1.00  0.00     0.057 A 
ATOM     68  C   UNL A   1      47.028  27.327  24.629  1.00  0.00     0.134 A 
ATOM     69  C   UNL A   1      47.959  26.387  26.624  1.00  0.00     0.134 A 
ATOM     70  F   UNL A   1      46.041  27.950  23.969  1.00  0.00    -0.206 F 
ATOM     71  C   UNL A   1      48.163  26.943  23.913  1.00  0.00     0.040 A 
ATOM     72  C   UNL A   1      49.109  26.021  25.926  1.00  0.00     0.040 A 
ATOM     73  F   UNL A   1      47.901  26.110  27.935  1.00  0.00    -0.206 F 
ATOM     74  C   UNL A   1      49.212  26.297  24.564  1.00  0.00     0.006 A 
ENDBRANCH  46  67
BRANCH  58  75
ATOM     75  C   UNL A   1      45.099  33.076  28.996  1.00  0.00     0.057 A 
ATOM     76  C   UNL A   1      45.952  33.318  30.078  1.00  0.00     0.134 A 
ATOM     77  C   UNL A   1      44.967  34.077  28.028  1.00  0.00     0.134 A 
ATOM     78  F   UNL A   1      46.105  32.399  31.042  1.00  0.00    -0.206 F 
ATOM     79  C   UNL A   1      46.647  34.522  30.196  1.00  0.00     0.040 A 
ATOM     80  C   UNL A   1      45.668  35.278  28.127  1.00  0.00     0.040 A 
ATOM     81  F   UNL A   1      44.165  33.899  26.968  1.00  0.00    -0.206 F 
ATOM     82  C   UNL A   1      46.510  35.503  29.215  1.00  0.00     0.006 A 
ENDBRANCH  58  75
ENDBRANCH  32  33
ENDBRANCH  25  27
ENDBRANCH  24  25
ENDBRANCH  23  24
ENDBRANCH   1  23
TORSDOF 16
ENDMDL
MODEL 3
REMARK VINA RESULT:     -10.8      3.784      7.301
REMARK SMILES C[C@H]1[C@@H](C(=O)OCCOC(=O)c2ccc(-c3c4nc(c(-c5c(F)cccc5F)c5ccc([nH]5)c(-c5c(F)cccc5F)c5nc(c(-c6c(F)cccc6F)c6ccc3[nH]6)C=C5)C=C4)cc2)CCN1C(=O)NCC(C1CC1)C1CC1
REMARK SMILES IDX 7 1 6 2 4 3 5 4 3 5 1 6 2 7 68 8 66 9 67 10 69 11 70 12
REMARK SMILES IDX 71 13 72 15 73 16 74 17 75 18 76 19 77 20 78 21 79 22 8 23
REMARK SMILES IDX 9 24 10 25 11 26 12 27 13 28 65 29 14 30 64 31 15 32 16 33
REMARK SMILES IDX 17 34 58 35 18 36 63 37 57 38 59 39 19 40 62 41 56 42 55 43
REMARK SMILES IDX 20 45 46 46 29 47 45 48 30 49 33 50 44 51 60 52 31 53 32 54
REMARK SMILES IDX 43 56 61 57 34 58 21 59 22 60 27 61 23 62 24 63 26 64 28 65
REMARK SMILES IDX 25 66 47 67 48 68 53 69 49 70 50 71 52 72 54 73 51 74 35 75
REMARK SMILES IDX 36 76 41 77 37 78 38 79 40 80 42 81 39 82
REMARK H PARENT 71 14 59 44 33 55
REMARK Flexibility Score: inf
ROOT
ATOM      1  C   UNL A   1      31.797  29.669  26.695  1.00  0.00     0.274 C 
ENDROOT
BRANCH   1   2
ATOM      2  O   UNL A   1      31.337  28.727  25.706  1.00  0.00    -0.462 OA
BRANCH   2   3
ATOM      3  C   UNL A   1      31.227  27.427  26.045  1.00  0.00     0.311 C 
ATOM      4  O   UNL A   1      31.116  27.026  27.199  1.00  0.00    -0.252 OA
BRANCH   3   5
ATOM      5  C   UNL A   1      31.231  26.473  24.864  1.00  0.00     0.123 C 
ATOM      6  C   UNL A   1      33.794  26.843  24.348  1.00  0.00     0.032 C 
ATOM      7  C   UNL A   1      32.536  25.984  24.216  1.00  0.00     0.098 C 
ATOM      8  N   UNL A   1      32.207  25.828  22.803  1.00  0.00    -0.321 N 
ATOM      9  C   UNL A   1      30.347  26.937  23.699  1.00  0.00     0.039 C 
ATOM     10  C   UNL A   1      31.190  26.796  22.449  1.00  0.00     0.122 C 
BRANCH   8  11
ATOM     11  C   UNL A   1      32.759  25.059  21.831  1.00  0.00     0.317 C 
ATOM     12  O   UNL A   1      33.212  25.558  20.796  1.00  0.00    -0.249 OA
ATOM     13  N   UNL A   1      32.849  23.721  21.915  1.00  0.00    -0.338 N 
ATOM     14  H   UNL A   1      33.298  23.341  21.126  1.00  0.00     0.165 HD
BRANCH  13  15
ATOM     15  C   UNL A   1      32.462  22.676  22.862  1.00  0.00     0.121 C 
BRANCH  15  16
ATOM     16  C   UNL A   1      33.586  22.372  23.874  1.00  0.00     0.014 C 
BRANCH  16  17
ATOM     17  C   UNL A   1      33.673  20.900  24.262  1.00  0.00    -0.006 C 
ATOM     18  C   UNL A   1      33.185  20.289  25.556  1.00  0.00     0.004 C 
ATOM     19  C   UNL A   1      32.424  20.048  24.282  1.00  0.00     0.004 C 
ENDBRANCH  16  17
BRANCH  16  20
ATOM     20  C   UNL A   1      34.984  22.841  23.474  1.00  0.00    -0.006 C 
ATOM     21  C   UNL A   1      35.878  23.701  24.336  1.00  0.00     0.004 C 
ATOM     22  C   UNL A   1      36.237  22.262  24.085  1.00  0.00     0.004 C 
ENDBRANCH  16  20
ENDBRANCH  15  16
ENDBRANCH  13  15
ENDBRANCH   8  11
ENDBRANCH   3   5
ENDBRANCH   2   3
ENDBRANCH   1   2
BRANCH   1  23
ATOM     23  C   UNL A   1      33.277  29.965  26.470  1.00  0.00     0.275 C 
BRANCH  23  24
ATOM     24  O   UNL A   1      34.030  29.511  27.607  1.00  0.00    -0.458 OA
BRANCH  24  25
ATOM     25  C   UNL A   1      34.776  30.451  28.227  1.00  0.00     0.338 C 
ATOM     26  O   UNL A   1      34.412  31.517  28.690  1.00  0.00    -0.246 OA
BRANCH  25  27
ATOM     27  C   UNL A   1      36.145  29.947  28.359  1.00  0.00     0.060 A 
ATOM     28  C   UNL A   1      36.543  29.416  29.585  1.00  0.00     0.016 A 
ATOM     29  C   UNL A   1      37.063  30.115  27.327  1.00  0.00     0.016 A 
ATOM     30  C   UNL A   1      37.883  29.148  29.824  1.00  0.00     0.010 A 
ATOM     31  C   UNL A   1      38.389  29.724  27.530  1.00  0.00     0.010 A 
ATOM     32  C   UNL A   1      38.815  29.257  28.789  1.00  0.00    -0.014 A 
BRANCH  32  33
ATOM     33  C   UNL A   1      40.232  28.872  29.004  1.00  0.00     0.031 A 
ATOM     34  C   UNL A   1      41.215  29.888  29.506  1.00  0.00     0.074 A 
ATOM     35  C   UNL A   1      40.644  27.620  28.718  1.00  0.00     0.049 A 
ATOM     36  N   UNL A   1      42.521  29.866  29.460  1.00  0.00    -0.248 NA
ATOM     37  C   UNL A   1      40.653  31.099  30.127  1.00  0.00     0.031 C 
ATOM     38  C   UNL A   1      39.781  26.514  28.294  1.00  0.00     0.029 A 
ATOM     39  N   UNL A   1      41.901  27.072  28.727  1.00  0.00    -0.354 N 
ATOM     40  C   UNL A   1      42.936  31.087  29.976  1.00  0.00     0.074 A 
ATOM     41  C   UNL A   1      41.744  31.817  30.352  1.00  0.00     0.031 C 
ATOM     42  C   UNL A   1      40.529  25.420  28.102  1.00  0.00     0.029 A 
ATOM     43  C   UNL A   1      41.930  25.774  28.281  1.00  0.00     0.049 A 
ATOM     44  H   UNL A   1      42.703  27.560  29.025  1.00  0.00     0.167 HD
ATOM     45  C   UNL A   1      44.201  31.552  30.104  1.00  0.00     0.037 A 
ATOM     46  C   UNL A   1      42.968  24.976  27.972  1.00  0.00     0.037 A 
ATOM     47  C   UNL A   1      45.375  30.787  29.775  1.00  0.00     0.049 A 
ATOM     48  C   UNL A   1      44.360  25.522  28.087  1.00  0.00     0.074 A 
ATOM     49  C   UNL A   1      46.704  31.161  29.858  1.00  0.00     0.029 A 
ATOM     50  N   UNL A   1      45.354  29.477  29.319  1.00  0.00    -0.354 N 
ATOM     51  N   UNL A   1      44.745  26.712  28.476  1.00  0.00    -0.248 NA
ATOM     52  C   UNL A   1      45.456  24.629  27.690  1.00  0.00     0.031 C 
ATOM     53  C   UNL A   1      47.488  30.082  29.433  1.00  0.00     0.029 A 
ATOM     54  C   UNL A   1      46.648  29.028  29.115  1.00  0.00     0.049 A 
ATOM     55  H   UNL A   1      44.541  28.944  29.163  1.00  0.00     0.167 HD
ATOM     56  C   UNL A   1      46.129  26.712  28.380  1.00  0.00     0.074 A 
ATOM     57  C   UNL A   1      46.515  25.397  27.907  1.00  0.00     0.031 C 
ATOM     58  C   UNL A   1      47.001  27.710  28.655  1.00  0.00     0.037 A 
BRANCH  45  59
ATOM     59  C   UNL A   1      44.378  32.965  30.572  1.00  0.00     0.057 A 
ATOM     60  C   UNL A   1      44.305  34.055  29.699  1.00  0.00     0.134 A 
ATOM     61  C   UNL A   1      44.593  33.235  31.931  1.00  0.00     0.134 A 
ATOM     62  F   UNL A   1      44.117  33.863  28.385  1.00  0.00    -0.206 F 
ATOM     63  C   UNL A   1      44.454  35.366  30.159  1.00  0.00     0.040 A 
ATOM     64  C   UNL A   1      44.723  34.541  32.404  1.00  0.00     0.040 A 
ATOM     65  F   UNL A   1      44.672  32.234  32.820  1.00  0.00    -0.206 F 
ATOM     66  C   UNL A   1      44.658  35.612  31.516  1.00  0.00     0.006 A 
ENDBRANCH  45  59
BRANCH  46  67
ATOM     67  C   UNL A   1      42.713  23.608  27.460  1.00  0.00     0.057 A 
ATOM     68  C   UNL A   1      42.498  22.539  28.334  1.00  0.00     0.134 A 
ATOM     69  C   UNL A   1      42.633  23.346  26.085  1.00  0.00     0.134 A 
ATOM     70  F   UNL A   1      42.582  22.723  29.660  1.00  0.00    -0.206 F 
ATOM     71  C   UNL A   1      42.210  21.257  27.862  1.00  0.00     0.040 A 
ATOM     72  C   UNL A   1      42.321  22.077  25.600  1.00  0.00     0.040 A 
ATOM     73  F   UNL A   1      42.822  24.333  25.197  1.00  0.00    -0.206 F 
ATOM     74  C   UNL A   1      42.110  21.026  26.491  1.00  0.00     0.006 A 
ENDBRANCH  46  67
BRANCH  58  75
ATOM     75  C   UNL A   1      48.456  27.403  28.487  1.00  0.00     0.057 A 
ATOM     76  C   UNL A   1      49.132  27.690  27.297  1.00  0.00     0.134 A 
ATOM     77  C   UNL A   1      49.192  26.859  29.545  1.00  0.00     0.134 A 
ATOM     78  F   UNL A   1      48.473  28.199  26.245  1.00  0.00    -0.206 F 
ATOM     79  C   UNL A   1      50.497  27.436  27.161  1.00  0.00     0.040 A 
ATOM     80  C   UNL A   1      50.559  26.615  29.427  1.00  0.00     0.040 A 
ATOM     81  F   UNL A   1      48.596  26.567  30.711  1.00  0.00    -0.206 F 
ATOM     82  C   UNL A   1      51.215  26.903  28.231  1.00  0.00     0.006 A 
ENDBRANCH  58  75
ENDBRANCH  32  33
ENDBRANCH  25  27
ENDBRANCH  24  25
ENDBRANCH  23  24
ENDBRANCH   1  23
TORSDOF 16
ENDMDL
