MODEL 1
REMARK VINA RESULT:     -11.8      0.000      0.000
REMARK SMILES Cc1cc([C@H](C)NC(=O)N2CC[C@H](C(=O)OCCOC(=O)c3ccc(-c4c5nc(c(-c6c(F)cccc6F)c6ccc([nH]6)c(-c6c(F)cccc6F)c6nc(c(-c7c(F)cccc7F)c7ccc4[nH]7)C=C6)C=C5)cc3)[C@@H]2C)c(C)s1
REMARK SMILES IDX 17 1 16 2 14 3 15 4 13 5 10 6 11 7 76 8 12 9 77 10 8 11 7 12
REMARK SMILES IDX 9 14 5 15 6 16 4 17 1 18 2 19 3 20 80 21 78 22 79 23 18 24
REMARK SMILES IDX 19 25 20 26 21 27 22 28 23 29 75 30 24 31 74 32 25 33 26 34
REMARK SMILES IDX 27 35 68 36 28 37 73 38 67 39 69 40 29 41 72 42 66 43 65 44
REMARK SMILES IDX 30 46 56 47 39 48 55 49 40 50 43 51 54 52 70 53 41 54 42 55
REMARK SMILES IDX 53 57 71 58 44 59 31 60 32 61 37 62 33 63 34 64 36 65 38 66
REMARK SMILES IDX 35 67 57 68 58 69 63 70 59 71 60 72 62 73 64 74 61 75 45 76
REMARK SMILES IDX 46 77 51 78 47 79 48 80 50 81 52 82 49 83
REMARK H PARENT 7 13 69 45 43 56
REMARK Flexibility Score: inf
ROOT
ATOM      1  C   UNL A   1      32.091  29.743  25.152  1.00  0.00     0.274 C 
ENDROOT
BRANCH   1   2
ATOM      2  O   UNL A   1      31.163  28.639  25.030  1.00  0.00    -0.462 OA
BRANCH   2   3
ATOM      3  C   UNL A   1      31.402  27.549  25.818  1.00  0.00     0.311 C 
ATOM      4  O   UNL A   1      31.304  27.538  27.037  1.00  0.00    -0.252 OA
BRANCH   3   5
ATOM      5  C   UNL A   1      31.867  26.364  24.976  1.00  0.00     0.123 C 
ATOM      6  N   UNL A   1      31.593  24.195  25.977  1.00  0.00    -0.321 N 
ATOM      7  C   UNL A   1      32.808  24.791  26.514  1.00  0.00     0.122 C 
ATOM      8  C   UNL A   1      30.970  25.103  25.003  1.00  0.00     0.098 C 
ATOM      9  C   UNL A   1      33.211  25.835  25.485  1.00  0.00     0.039 C 
ATOM     10  C   UNL A   1      29.514  25.403  25.297  1.00  0.00     0.032 C 
BRANCH   6  11
ATOM     11  C   UNL A   1      31.165  23.010  26.503  1.00  0.00     0.318 C 
ATOM     12  N   UNL A   1      31.518  21.820  25.968  1.00  0.00    -0.331 N 
ATOM     13  H   UNL A   1      30.786  21.170  25.854  1.00  0.00     0.165 HD
ATOM     14  O   UNL A   1      30.407  22.978  27.474  1.00  0.00    -0.249 OA
BRANCH  12  15
ATOM     15  C   UNL A   1      32.833  21.370  25.539  1.00  0.00     0.112 C 
ATOM     16  C   UNL A   1      33.755  21.251  26.759  1.00  0.00     0.036 C 
BRANCH  15  17
ATOM     17  C   UNL A   1      32.689  20.052  24.786  1.00  0.00    -0.012 A 
ATOM     18  C   UNL A   1      33.118  16.267  24.646  1.00  0.00     0.056 C 
ATOM     19  C   UNL A   1      32.830  17.716  24.461  1.00  0.00     0.002 A 
ATOM     20  C   UNL A   1      32.901  18.746  25.374  1.00  0.00     0.021 A 
ATOM     21  S   UNL A   1      32.349  18.275  22.930  1.00  0.00    -0.146 S 
ATOM     22  C   UNL A   1      32.404  19.912  23.429  1.00  0.00     0.007 A 
ATOM     23  C   UNL A   1      32.152  20.940  22.376  1.00  0.00     0.057 C 
ENDBRANCH  15  17
ENDBRANCH  12  15
ENDBRANCH   6  11
ENDBRANCH   3   5
ENDBRANCH   2   3
ENDBRANCH   1   2
BRANCH   1  24
ATOM     24  C   UNL A   1      31.397  30.997  25.691  1.00  0.00     0.275 C 
BRANCH  24  25
ATOM     25  O   UNL A   1      31.811  31.207  27.049  1.00  0.00    -0.458 OA
BRANCH  25  26
ATOM     26  C   UNL A   1      32.549  32.319  27.290  1.00  0.00     0.338 C 
ATOM     27  O   UNL A   1      32.153  33.471  27.227  1.00  0.00    -0.246 OA
BRANCH  26  28
ATOM     28  C   UNL A   1      33.900  31.933  27.786  1.00  0.00     0.060 A 
ATOM     29  C   UNL A   1      34.225  30.594  28.012  1.00  0.00     0.016 A 
ATOM     30  C   UNL A   1      34.798  32.927  28.188  1.00  0.00     0.016 A 
ATOM     31  C   UNL A   1      35.366  30.263  28.738  1.00  0.00     0.010 A 
ATOM     32  C   UNL A   1      36.008  32.576  28.810  1.00  0.00     0.010 A 
ATOM     33  C   UNL A   1      36.298  31.238  29.121  1.00  0.00    -0.014 A 
BRANCH  33  34
ATOM     34  C   UNL A   1      37.563  30.846  29.812  1.00  0.00     0.031 A 
ATOM     35  C   UNL A   1      38.591  29.966  29.143  1.00  0.00     0.074 A 
ATOM     36  C   UNL A   1      37.817  31.291  31.062  1.00  0.00     0.049 A 
ATOM     37  N   UNL A   1      39.641  29.379  29.665  1.00  0.00    -0.248 NA
ATOM     38  C   UNL A   1      38.420  29.703  27.705  1.00  0.00     0.031 C 
ATOM     39  C   UNL A   1      36.966  32.202  31.830  1.00  0.00     0.029 A 
ATOM     40  N   UNL A   1      38.871  31.037  31.910  1.00  0.00    -0.354 N 
ATOM     41  C   UNL A   1      40.242  28.670  28.632  1.00  0.00     0.074 A 
ATOM     42  C   UNL A   1      39.434  28.886  27.450  1.00  0.00     0.031 C 
ATOM     43  C   UNL A   1      37.549  32.468  33.005  1.00  0.00     0.029 A 
ATOM     44  C   UNL A   1      38.746  31.646  33.134  1.00  0.00     0.049 A 
ATOM     45  H   UNL A   1      39.638  30.474  31.662  1.00  0.00     0.167 HD
ATOM     46  C   UNL A   1      41.363  27.909  28.669  1.00  0.00     0.037 A 
ATOM     47  C   UNL A   1      39.454  31.516  34.270  1.00  0.00     0.037 A 
ATOM     48  C   UNL A   1      42.183  27.699  29.837  1.00  0.00     0.049 A 
ATOM     49  C   UNL A   1      40.596  30.552  34.327  1.00  0.00     0.074 A 
ATOM     50  C   UNL A   1      43.341  26.946  29.953  1.00  0.00     0.029 A 
ATOM     51  N   UNL A   1      41.939  28.240  31.089  1.00  0.00    -0.354 N 
ATOM     52  N   UNL A   1      41.104  29.821  33.369  1.00  0.00    -0.248 NA
ATOM     53  C   UNL A   1      41.237  30.364  35.636  1.00  0.00     0.031 C 
ATOM     54  C   UNL A   1      43.768  26.991  31.284  1.00  0.00     0.029 A 
ATOM     55  C   UNL A   1      42.903  27.808  31.989  1.00  0.00     0.049 A 
ATOM     56  H   UNL A   1      41.191  28.843  31.307  1.00  0.00     0.167 HD
ATOM     57  C   UNL A   1      42.122  29.084  33.955  1.00  0.00     0.074 A 
ATOM     58  C   UNL A   1      42.174  29.471  35.349  1.00  0.00     0.031 C 
ATOM     59  C   UNL A   1      42.936  28.166  33.382  1.00  0.00     0.037 A 
BRANCH  46  60
ATOM     60  C   UNL A   1      41.776  27.203  27.411  1.00  0.00     0.057 A 
ATOM     61  C   UNL A   1      42.646  27.790  26.486  1.00  0.00     0.134 A 
ATOM     62  C   UNL A   1      41.389  25.874  27.188  1.00  0.00     0.134 A 
ATOM     63  F   UNL A   1      43.039  29.064  26.632  1.00  0.00    -0.206 F 
ATOM     64  C   UNL A   1      43.130  27.074  25.389  1.00  0.00     0.040 A 
ATOM     65  C   UNL A   1      41.875  25.146  26.101  1.00  0.00     0.040 A 
ATOM     66  F   UNL A   1      40.563  25.253  28.043  1.00  0.00    -0.206 F 
ATOM     67  C   UNL A   1      42.753  25.745  25.200  1.00  0.00     0.006 A 
ENDBRANCH  46  60
BRANCH  47  68
ATOM     68  C   UNL A   1      39.018  32.255  35.481  1.00  0.00     0.057 A 
ATOM     69  C   UNL A   1      38.224  31.650  36.457  1.00  0.00     0.134 A 
ATOM     70  C   UNL A   1      39.431  33.577  35.705  1.00  0.00     0.134 A 
ATOM     71  F   UNL A   1      37.773  30.399  36.282  1.00  0.00    -0.206 F 
ATOM     72  C   UNL A   1      37.867  32.327  37.624  1.00  0.00     0.040 A 
ATOM     73  C   UNL A   1      39.106  34.254  36.879  1.00  0.00     0.040 A 
ATOM     74  F   UNL A   1      40.190  34.212  34.800  1.00  0.00    -0.206 F 
ATOM     75  C   UNL A   1      38.320  33.627  37.844  1.00  0.00     0.006 A 
ENDBRANCH  47  68
BRANCH  59  76
ATOM     76  C   UNL A   1      43.956  27.520  34.270  1.00  0.00     0.057 A 
ATOM     77  C   UNL A   1      45.214  28.098  34.481  1.00  0.00     0.134 A 
ATOM     78  C   UNL A   1      43.685  26.305  34.910  1.00  0.00     0.134 A 
ATOM     79  F   UNL A   1      45.541  29.253  33.882  1.00  0.00    -0.206 F 
ATOM     80  C   UNL A   1      46.177  27.476  35.278  1.00  0.00     0.040 A 
ATOM     81  C   UNL A   1      44.632  25.684  35.726  1.00  0.00     0.040 A 
ATOM     82  F   UNL A   1      42.497  25.701  34.752  1.00  0.00    -0.206 F 
ATOM     83  C   UNL A   1      45.885  26.266  35.906  1.00  0.00     0.006 A 
ENDBRANCH  59  76
ENDBRANCH  33  34
ENDBRANCH  26  28
ENDBRANCH  25  26
ENDBRANCH  24  25
ENDBRANCH   1  24
TORSDOF 14
ENDMDL
MODEL 2
REMARK VINA RESULT:     -11.7      4.382      9.458
REMARK SMILES Cc1cc([C@H](C)NC(=O)N2CC[C@H](C(=O)OCCOC(=O)c3ccc(-c4c5nc(c(-c6c(F)cccc6F)c6ccc([nH]6)c(-c6c(F)cccc6F)c6nc(c(-c7c(F)cccc7F)c7ccc4[nH]7)C=C6)C=C5)cc3)[C@@H]2C)c(C)s1
REMARK SMILES IDX 17 1 16 2 14 3 15 4 13 5 10 6 11 7 76 8 12 9 77 10 8 11 7 12
REMARK SMILES IDX 9 14 5 15 6 16 4 17 1 18 2 19 3 20 80 21 78 22 79 23 18 24
REMARK SMILES IDX 19 25 20 26 21 27 22 28 23 29 75 30 24 31 74 32 25 33 26 34
REMARK SMILES IDX 27 35 68 36 28 37 73 38 67 39 69 40 29 41 72 42 66 43 65 44
REMARK SMILES IDX 30 46 56 47 39 48 55 49 40 50 43 51 54 52 70 53 41 54 42 55
REMARK SMILES IDX 53 57 71 58 44 59 31 60 32 61 37 62 33 63 34 64 36 65 38 66
REMARK SMILES IDX 35 67 57 68 58 69 63 70 59 71 60 72 62 73 64 74 61 75 45 76
REMARK SMILES IDX 46 77 51 78 47 79 48 80 50 81 52 82 49 83
REMARK H PARENT 7 13 69 45 43 56
REMARK Flexibility Score: inf
ROOT
ATOM      1  C   UNL A   1      35.305  21.388  25.760  1.00  0.00     0.274 C 
ENDROOT
BRANCH   1   2
ATOM      2  O   UNL A   1      34.465  22.157  24.868  1.00  0.00    -0.462 OA
BRANCH   2   3
ATOM      3  C   UNL A   1      33.184  22.390  25.283  1.00  0.00     0.311 C 
ATOM      4  O   UNL A   1      32.338  21.523  25.449  1.00  0.00    -0.252 OA
BRANCH   3   5
ATOM      5  C   UNL A   1      32.935  23.887  25.452  1.00  0.00     0.123 C 
ATOM      6  N   UNL A   1      33.006  25.195  23.436  1.00  0.00    -0.321 N 
ATOM      7  C   UNL A   1      34.374  24.977  23.882  1.00  0.00     0.122 C 
ATOM      8  C   UNL A   1      32.061  24.567  24.370  1.00  0.00     0.098 C 
ATOM      9  C   UNL A   1      34.250  24.667  25.365  1.00  0.00     0.039 C 
ATOM     10  C   UNL A   1      31.081  23.623  23.702  1.00  0.00     0.032 C 
BRANCH   6  11
ATOM     11  C   UNL A   1      32.807  25.806  22.231  1.00  0.00     0.318 C 
ATOM     12  N   UNL A   1      31.924  26.819  22.080  1.00  0.00    -0.331 N 
ATOM     13  H   UNL A   1      31.332  26.754  21.296  1.00  0.00     0.165 HD
ATOM     14  O   UNL A   1      33.404  25.436  21.219  1.00  0.00    -0.249 OA
BRANCH  12  15
ATOM     15  C   UNL A   1      31.732  27.991  22.919  1.00  0.00     0.112 C 
ATOM     16  C   UNL A   1      32.861  28.996  22.659  1.00  0.00     0.036 C 
BRANCH  15  17
ATOM     17  C   UNL A   1      30.352  28.580  22.647  1.00  0.00    -0.012 A 
ATOM     18  C   UNL A   1      28.178  31.466  21.432  1.00  0.00     0.056 C 
ATOM     19  C   UNL A   1      28.793  30.205  21.929  1.00  0.00     0.002 A 
ATOM     20  C   UNL A   1      30.118  29.824  21.943  1.00  0.00     0.021 A 
ATOM     21  S   UNL A   1      27.796  29.009  22.608  1.00  0.00    -0.146 S 
ATOM     22  C   UNL A   1      29.137  28.056  23.083  1.00  0.00     0.007 A 
ATOM     23  C   UNL A   1      28.837  26.831  23.882  1.00  0.00     0.057 C 
ENDBRANCH  15  17
ENDBRANCH  12  15
ENDBRANCH   6  11
ENDBRANCH   3   5
ENDBRANCH   2   3
ENDBRANCH   1   2
BRANCH   1  24
ATOM     24  C   UNL A   1      36.324  20.551  24.982  1.00  0.00     0.275 C 
BRANCH  24  25
ATOM     25  O   UNL A   1      37.530  21.315  24.830  1.00  0.00    -0.458 OA
BRANCH  25  26
ATOM     26  C   UNL A   1      38.590  20.924  25.580  1.00  0.00     0.338 C 
ATOM     27  O   UNL A   1      39.043  19.794  25.651  1.00  0.00    -0.246 OA
BRANCH  26  28
ATOM     28  C   UNL A   1      39.227  22.113  26.214  1.00  0.00     0.060 A 
ATOM     29  C   UNL A   1      38.674  23.387  26.064  1.00  0.00     0.016 A 
ATOM     30  C   UNL A   1      40.478  21.984  26.824  1.00  0.00     0.016 A 
ATOM     31  C   UNL A   1      39.414  24.516  26.405  1.00  0.00     0.010 A 
ATOM     32  C   UNL A   1      41.164  23.122  27.279  1.00  0.00     0.010 A 
ATOM     33  C   UNL A   1      40.654  24.411  27.049  1.00  0.00    -0.014 A 
BRANCH  33  34
ATOM     34  C   UNL A   1      41.383  25.637  27.495  1.00  0.00     0.031 A 
ATOM     35  C   UNL A   1      40.719  26.684  28.356  1.00  0.00     0.074 A 
ATOM     36  C   UNL A   1      42.672  25.824  27.137  1.00  0.00     0.049 A 
ATOM     37  N   UNL A   1      41.141  27.886  28.667  1.00  0.00    -0.248 NA
ATOM     38  C   UNL A   1      39.412  26.345  28.942  1.00  0.00     0.031 C 
ATOM     39  C   UNL A   1      43.487  24.884  26.365  1.00  0.00     0.029 A 
ATOM     40  N   UNL A   1      43.529  26.873  27.380  1.00  0.00    -0.354 N 
ATOM     41  C   UNL A   1      40.153  28.449  29.464  1.00  0.00     0.074 A 
ATOM     42  C   UNL A   1      39.098  27.464  29.582  1.00  0.00     0.031 C 
ATOM     43  C   UNL A   1      44.728  25.371  26.240  1.00  0.00     0.029 A 
ATOM     44  C   UNL A   1      44.765  26.713  26.804  1.00  0.00     0.049 A 
ATOM     45  H   UNL A   1      43.279  27.661  27.914  1.00  0.00     0.167 HD
ATOM     46  C   UNL A   1      40.128  29.675  30.042  1.00  0.00     0.037 A 
ATOM     47  C   UNL A   1      45.799  27.563  26.664  1.00  0.00     0.037 A 
ATOM     48  C   UNL A   1      41.179  30.658  29.943  1.00  0.00     0.049 A 
ATOM     49  C   UNL A   1      45.686  28.963  27.179  1.00  0.00     0.074 A 
ATOM     50  C   UNL A   1      41.232  31.923  30.507  1.00  0.00     0.029 A 
ATOM     51  N   UNL A   1      42.361  30.492  29.238  1.00  0.00    -0.354 N 
ATOM     52  N   UNL A   1      44.712  29.513  27.858  1.00  0.00    -0.248 NA
ATOM     53  C   UNL A   1      46.799  29.871  26.873  1.00  0.00     0.031 C 
ATOM     54  C   UNL A   1      42.421  32.540  30.103  1.00  0.00     0.029 A 
ATOM     55  C   UNL A   1      43.130  31.643  29.324  1.00  0.00     0.049 A 
ATOM     56  H   UNL A   1      42.616  29.676  28.749  1.00  0.00     0.167 HD
ATOM     57  C   UNL A   1      45.090  30.832  28.058  1.00  0.00     0.074 A 
ATOM     58  C   UNL A   1      46.393  30.995  27.447  1.00  0.00     0.031 C 
ATOM     59  C   UNL A   1      44.411  31.817  28.691  1.00  0.00     0.037 A 
BRANCH  46  60
ATOM     60  C   UNL A   1      38.907  30.060  30.823  1.00  0.00     0.057 A 
ATOM     61  C   UNL A   1      37.812  30.689  30.222  1.00  0.00     0.134 A 
ATOM     62  C   UNL A   1      38.785  29.688  32.170  1.00  0.00     0.134 A 
ATOM     63  F   UNL A   1      37.872  31.087  28.943  1.00  0.00    -0.206 F 
ATOM     64  C   UNL A   1      36.629  30.921  30.928  1.00  0.00     0.040 A 
ATOM     65  C   UNL A   1      37.604  29.905  32.881  1.00  0.00     0.040 A 
ATOM     66  F   UNL A   1      39.797  29.076  32.801  1.00  0.00    -0.206 F 
ATOM     67  C   UNL A   1      36.520  30.519  32.259  1.00  0.00     0.006 A 
ENDBRANCH  46  60
BRANCH  47  68
ATOM     68  C   UNL A   1      46.995  27.124  25.904  1.00  0.00     0.057 A 
ATOM     69  C   UNL A   1      47.123  27.381  24.537  1.00  0.00     0.134 A 
ATOM     70  C   UNL A   1      48.059  26.475  26.546  1.00  0.00     0.134 A 
ATOM     71  F   UNL A   1      46.125  27.970  23.863  1.00  0.00    -0.206 F 
ATOM     72  C   UNL A   1      48.276  27.023  23.836  1.00  0.00     0.040 A 
ATOM     73  C   UNL A   1      49.227  26.139  25.864  1.00  0.00     0.040 A 
ATOM     74  F   UNL A   1      47.992  26.197  27.857  1.00  0.00    -0.206 F 
ATOM     75  C   UNL A   1      49.338  26.413  24.503  1.00  0.00     0.006 A 
ENDBRANCH  47  68
BRANCH  59  76
ATOM     76  C   UNL A   1      45.072  33.161  28.755  1.00  0.00     0.057 A 
ATOM     77  C   UNL A   1      45.974  33.485  29.776  1.00  0.00     0.134 A 
ATOM     78  C   UNL A   1      44.796  34.144  27.796  1.00  0.00     0.134 A 
ATOM     79  F   UNL A   1      46.266  32.593  30.734  1.00  0.00    -0.206 F 
ATOM     80  C   UNL A   1      46.560  34.749  29.856  1.00  0.00     0.040 A 
ATOM     81  C   UNL A   1      45.393  35.404  27.854  1.00  0.00     0.040 A 
ATOM     82  F   UNL A   1      43.944  33.895  26.790  1.00  0.00    -0.206 F 
ATOM     83  C   UNL A   1      46.271  35.713  28.890  1.00  0.00     0.006 A 
ENDBRANCH  59  76
ENDBRANCH  33  34
ENDBRANCH  26  28
ENDBRANCH  25  26
ENDBRANCH  24  25
ENDBRANCH   1  24
TORSDOF 14
ENDMDL
MODEL 3
REMARK VINA RESULT:     -11.6      4.213      9.251
REMARK SMILES Cc1cc([C@H](C)NC(=O)N2CC[C@H](C(=O)OCCOC(=O)c3ccc(-c4c5nc(c(-c6c(F)cccc6F)c6ccc([nH]6)c(-c6c(F)cccc6F)c6nc(c(-c7c(F)cccc7F)c7ccc4[nH]7)C=C6)C=C5)cc3)[C@@H]2C)c(C)s1
REMARK SMILES IDX 17 1 16 2 14 3 15 4 13 5 10 6 11 7 76 8 12 9 77 10 8 11 7 12
REMARK SMILES IDX 9 14 5 15 6 16 4 17 1 18 2 19 3 20 80 21 78 22 79 23 18 24
REMARK SMILES IDX 19 25 20 26 21 27 22 28 23 29 75 30 24 31 74 32 25 33 26 34
REMARK SMILES IDX 27 35 68 36 28 37 73 38 67 39 69 40 29 41 72 42 66 43 65 44
REMARK SMILES IDX 30 46 56 47 39 48 55 49 40 50 43 51 54 52 70 53 41 54 42 55
REMARK SMILES IDX 53 57 71 58 44 59 31 60 32 61 37 62 33 63 34 64 36 65 38 66
REMARK SMILES IDX 35 67 57 68 58 69 63 70 59 71 60 72 62 73 64 74 61 75 45 76
REMARK SMILES IDX 46 77 51 78 47 79 48 80 50 81 52 82 49 83
REMARK H PARENT 7 13 69 45 43 56
REMARK Flexibility Score: inf
ROOT
ATOM      1  C   UNL A   1      34.946  20.206  25.045  1.00  0.00     0.274 C 
ENDROOT
BRANCH   1   2
ATOM      2  O   UNL A   1      33.901  20.865  25.798  1.00  0.00    -0.462 OA
BRANCH   2   3
ATOM      3  C   UNL A   1      32.619  20.664  25.370  1.00  0.00     0.311 C 
ATOM      4  O   UNL A   1      32.149  19.576  25.070  1.00  0.00    -0.252 OA
BRANCH   3   5
ATOM      5  C   UNL A   1      31.873  21.991  25.259  1.00  0.00     0.123 C 
ATOM      6  N   UNL A   1      33.072  23.782  24.193  1.00  0.00    -0.321 N 
ATOM      7  C   UNL A   1      33.515  23.701  25.576  1.00  0.00     0.122 C 
ATOM      8  C   UNL A   1      32.041  22.768  23.930  1.00  0.00     0.098 C 
ATOM      9  C   UNL A   1      32.386  22.989  26.302  1.00  0.00     0.039 C 
ATOM     10  C   UNL A   1      32.351  21.877  22.744  1.00  0.00     0.032 C 
BRANCH   6  11
ATOM     11  C   UNL A   1      33.715  24.647  23.355  1.00  0.00     0.318 C 
ATOM     12  N   UNL A   1      33.249  25.894  23.118  1.00  0.00    -0.331 N 
ATOM     13  H   UNL A   1      33.235  26.172  22.174  1.00  0.00     0.165 HD
ATOM     14  O   UNL A   1      34.736  24.314  22.750  1.00  0.00    -0.249 OA
BRANCH  12  15
ATOM     15  C   UNL A   1      32.766  26.880  24.072  1.00  0.00     0.112 C 
ATOM     16  C   UNL A   1      33.744  28.060  24.127  1.00  0.00     0.036 C 
BRANCH  15  17
ATOM     17  C   UNL A   1      31.357  27.309  23.677  1.00  0.00    -0.012 A 
ATOM     18  C   UNL A   1      29.015  29.809  22.005  1.00  0.00     0.056 C 
ATOM     19  C   UNL A   1      29.707  28.684  22.692  1.00  0.00     0.002 A 
ATOM     20  C   UNL A   1      31.055  28.421  22.800  1.00  0.00     0.021 A 
ATOM     21  S   UNL A   1      28.779  27.513  23.500  1.00  0.00    -0.146 S 
ATOM     22  C   UNL A   1      30.170  26.749  24.144  1.00  0.00     0.007 A 
ATOM     23  C   UNL A   1      29.933  25.624  25.096  1.00  0.00     0.057 C 
ENDBRANCH  15  17
ENDBRANCH  12  15
ENDBRANCH   6  11
ENDBRANCH   3   5
ENDBRANCH   2   3
ENDBRANCH   1   2
BRANCH   1  24
ATOM     24  C   UNL A   1      36.030  21.197  24.611  1.00  0.00     0.275 C 
BRANCH  24  25
ATOM     25  O   UNL A   1      36.749  21.633  25.774  1.00  0.00    -0.458 OA
BRANCH  25  26
ATOM     26  C   UNL A   1      38.088  21.413  25.774  1.00  0.00     0.338 C 
ATOM     27  O   UNL A   1      38.660  20.468  25.257  1.00  0.00    -0.246 OA
BRANCH  26  28
ATOM     28  C   UNL A   1      38.793  22.576  26.383  1.00  0.00     0.060 A 
ATOM     29  C   UNL A   1      38.364  23.882  26.138  1.00  0.00     0.016 A 
ATOM     30  C   UNL A   1      39.993  22.374  27.071  1.00  0.00     0.016 A 
ATOM     31  C   UNL A   1      39.182  24.960  26.465  1.00  0.00     0.010 A 
ATOM     32  C   UNL A   1      40.751  23.472  27.508  1.00  0.00     0.010 A 
ATOM     33  C   UNL A   1      40.372  24.785  27.185  1.00  0.00    -0.014 A 
BRANCH  33  34
ATOM     34  C   UNL A   1      41.181  25.966  27.610  1.00  0.00     0.031 A 
ATOM     35  C   UNL A   1      40.596  27.059  28.470  1.00  0.00     0.074 A 
ATOM     36  C   UNL A   1      42.475  26.069  27.235  1.00  0.00     0.049 A 
ATOM     37  N   UNL A   1      41.096  28.235  28.766  1.00  0.00    -0.248 NA
ATOM     38  C   UNL A   1      39.278  26.808  29.076  1.00  0.00     0.031 C 
ATOM     39  C   UNL A   1      43.219  25.074  26.461  1.00  0.00     0.029 A 
ATOM     40  N   UNL A   1      43.399  27.065  27.458  1.00  0.00    -0.354 N 
ATOM     41  C   UNL A   1      40.156  28.866  29.570  1.00  0.00     0.074 A 
ATOM     42  C   UNL A   1      39.043  27.950  29.710  1.00  0.00     0.031 C 
ATOM     43  C   UNL A   1      44.486  25.481  26.316  1.00  0.00     0.029 A 
ATOM     44  C   UNL A   1      44.615  26.823  26.868  1.00  0.00     0.049 A 
ATOM     45  H   UNL A   1      43.206  27.871  27.988  1.00  0.00     0.167 HD
ATOM     46  C   UNL A   1      40.215  30.095  30.137  1.00  0.00     0.037 A 
ATOM     47  C   UNL A   1      45.698  27.605  26.707  1.00  0.00     0.037 A 
ATOM     48  C   UNL A   1      41.324  31.010  30.017  1.00  0.00     0.049 A 
ATOM     49  C   UNL A   1      45.679  29.013  27.211  1.00  0.00     0.074 A 
ATOM     50  C   UNL A   1      41.464  32.273  30.569  1.00  0.00     0.029 A 
ATOM     51  N   UNL A   1      42.484  30.764  29.299  1.00  0.00    -0.354 N 
ATOM     52  N   UNL A   1      44.751  29.629  27.897  1.00  0.00    -0.248 NA
ATOM     53  C   UNL A   1      46.843  29.847  26.883  1.00  0.00     0.031 C 
ATOM     54  C   UNL A   1      42.683  32.811  30.144  1.00  0.00     0.029 A 
ATOM     55  C   UNL A   1      43.325  31.866  29.365  1.00  0.00     0.049 A 
ATOM     56  H   UNL A   1      42.681  29.930  28.813  1.00  0.00     0.167 HD
ATOM     57  C   UNL A   1      45.213  30.923  28.081  1.00  0.00     0.074 A 
ATOM     58  C   UNL A   1      46.516  30.999  27.453  1.00  0.00     0.031 C 
ATOM     59  C   UNL A   1      44.605  31.954  28.714  1.00  0.00     0.037 A 
BRANCH  46  60
ATOM     60  C   UNL A   1      39.031  30.563  30.931  1.00  0.00     0.057 A 
ATOM     61  C   UNL A   1      38.920  30.324  32.304  1.00  0.00     0.134 A 
ATOM     62  C   UNL A   1      38.051  31.365  30.329  1.00  0.00     0.134 A 
ATOM     63  F   UNL A   1      39.814  29.549  32.936  1.00  0.00    -0.206 F 
ATOM     64  C   UNL A   1      37.882  30.879  33.057  1.00  0.00     0.040 A 
ATOM     65  C   UNL A   1      37.016  31.933  31.074  1.00  0.00     0.040 A 
ATOM     66  F   UNL A   1      38.105  31.637  29.017  1.00  0.00    -0.206 F 
ATOM     67  C   UNL A   1      36.932  31.695  32.443  1.00  0.00     0.006 A 
ENDBRANCH  46  60
BRANCH  47  68
ATOM     68  C   UNL A   1      46.854  27.086  25.936  1.00  0.00     0.057 A 
ATOM     69  C   UNL A   1      46.985  27.331  24.567  1.00  0.00     0.134 A 
ATOM     70  C   UNL A   1      47.879  26.368  26.569  1.00  0.00     0.134 A 
ATOM     71  F   UNL A   1      46.021  27.985  23.902  1.00  0.00    -0.206 F 
ATOM     72  C   UNL A   1      48.104  26.896  23.855  1.00  0.00     0.040 A 
ATOM     73  C   UNL A   1      49.015  25.954  25.876  1.00  0.00     0.040 A 
ATOM     74  F   UNL A   1      47.807  26.097  27.880  1.00  0.00    -0.206 F 
ATOM     75  C   UNL A   1      49.129  26.218  24.513  1.00  0.00     0.006 A 
ENDBRANCH  47  68
BRANCH  59  76
ATOM     76  C   UNL A   1      45.350  33.254  28.758  1.00  0.00     0.057 A 
ATOM     77  C   UNL A   1      45.155  34.243  27.785  1.00  0.00     0.134 A 
ATOM     78  C   UNL A   1      46.278  33.516  29.772  1.00  0.00     0.134 A 
ATOM     79  F   UNL A   1      44.293  34.045  26.777  1.00  0.00    -0.206 F 
ATOM     80  C   UNL A   1      45.877  35.438  27.806  1.00  0.00     0.040 A 
ATOM     81  C   UNL A   1      46.990  34.716  29.816  1.00  0.00     0.040 A 
ATOM     82  F   UNL A   1      46.508  32.612  30.736  1.00  0.00    -0.206 F 
ATOM     83  C   UNL A   1      46.796  35.677  28.826  1.00  0.00     0.006 A 
ENDBRANCH  59  76
ENDBRANCH  33  34
ENDBRANCH  26  28
ENDBRANCH  25  26
ENDBRANCH  24  25
ENDBRANCH   1  24
TORSDOF 14
ENDMDL
