MODEL 1
REMARK VINA RESULT:     -10.3      0.000      0.000
REMARK SMILES C[C@@H](CC(=O)OCCOC(=O)c1ccc(-c2c3nc(c(-c4c(F)cccc4F)c4ccc([nH]4)c(-c4c(F)cccc4F)c4nc(c(-c5c(F)cccc5F)c5ccc2[nH]5)C=C4)C=C3)cc1)NC(=O)N[C@H]1CCOC1
REMARK SMILES IDX 7 1 6 2 4 3 5 4 3 5 2 6 1 7 66 8 67 9 68 11 69 12 70 14
REMARK SMILES IDX 71 15 74 16 72 17 73 18 8 19 9 20 10 21 11 22 12 23 13 24
REMARK SMILES IDX 65 25 14 26 64 27 15 28 16 29 17 30 58 31 18 32 63 33 57 34
REMARK SMILES IDX 59 35 19 36 62 37 56 38 55 39 20 41 46 42 29 43 45 44 30 45
REMARK SMILES IDX 33 46 44 47 60 48 31 49 32 50 43 52 61 53 34 54 21 55 22 56
REMARK SMILES IDX 27 57 23 58 24 59 26 60 28 61 25 62 47 63 48 64 53 65 49 66
REMARK SMILES IDX 50 67 52 68 54 69 51 70 35 71 36 72 41 73 37 74 38 75 40 76
REMARK SMILES IDX 42 77 39 78
REMARK H PARENT 66 10 69 13 59 40 33 51
REMARK Flexibility Score: inf
ROOT
ATOM      1  C   UNL A   1      31.968  30.928  26.347  1.00  0.00     0.274 C 
ENDROOT
BRANCH   1   2
ATOM      2  O   UNL A   1      31.488  29.833  27.155  1.00  0.00    -0.462 OA
BRANCH   2   3
ATOM      3  C   UNL A   1      32.242  28.708  27.139  1.00  0.00     0.307 C 
ATOM      4  O   UNL A   1      33.426  28.663  27.451  1.00  0.00    -0.252 OA
BRANCH   3   5
ATOM      5  C   UNL A   1      31.522  27.508  26.576  1.00  0.00     0.147 C 
BRANCH   5   6
ATOM      6  C   UNL A   1      30.974  27.534  25.145  1.00  0.00     0.091 C 
ATOM      7  C   UNL A   1      30.407  26.206  24.658  1.00  0.00     0.031 C 
BRANCH   6   8
ATOM      8  N   UNL A   1      31.907  28.070  24.156  1.00  0.00    -0.335 N 
ATOM      9  C   UNL A   1      31.835  28.884  23.096  1.00  0.00     0.315 C 
ATOM     10  H   UNL A   1      32.825  27.750  24.310  1.00  0.00     0.165 HD
ATOM     11  O   UNL A   1      32.824  28.993  22.368  1.00  0.00    -0.249 OA
ATOM     12  N   UNL A   1      30.762  29.613  22.771  1.00  0.00    -0.333 N 
ATOM     13  H   UNL A   1      30.848  30.068  21.902  1.00  0.00     0.165 HD
BRANCH  12  14
ATOM     14  C   UNL A   1      29.503  29.871  23.429  1.00  0.00     0.112 C 
ATOM     15  C   UNL A   1      29.027  31.296  23.242  1.00  0.00     0.056 C 
ATOM     16  C   UNL A   1      28.312  29.101  22.868  1.00  0.00     0.185 C 
ATOM     17  C   UNL A   1      27.572  31.174  23.625  1.00  0.00     0.162 C 
ATOM     18  O   UNL A   1      27.142  29.874  23.191  1.00  0.00    -0.379 OA
ENDBRANCH  12  14
ENDBRANCH   6   8
ENDBRANCH   5   6
ENDBRANCH   3   5
ENDBRANCH   2   3
ENDBRANCH   1   2
BRANCH   1  19
ATOM     19  C   UNL A   1      31.613  32.301  26.931  1.00  0.00     0.275 C 
BRANCH  19  20
ATOM     20  O   UNL A   1      32.670  33.266  26.758  1.00  0.00    -0.458 OA
BRANCH  20  21
ATOM     21  C   UNL A   1      33.081  33.851  27.901  1.00  0.00     0.338 C 
ATOM     22  O   UNL A   1      32.472  34.711  28.533  1.00  0.00    -0.246 OA
BRANCH  21  23
ATOM     23  C   UNL A   1      34.301  33.217  28.419  1.00  0.00     0.060 A 
ATOM     24  C   UNL A   1      34.177  31.975  29.049  1.00  0.00     0.016 A 
ATOM     25  C   UNL A   1      35.535  33.869  28.385  1.00  0.00     0.016 A 
ATOM     26  C   UNL A   1      35.274  31.391  29.672  1.00  0.00     0.010 A 
ATOM     27  C   UNL A   1      36.642  33.273  29.000  1.00  0.00     0.010 A 
ATOM     28  C   UNL A   1      36.514  32.038  29.660  1.00  0.00    -0.014 A 
BRANCH  28  29
ATOM     29  C   UNL A   1      37.656  31.419  30.373  1.00  0.00     0.031 A 
ATOM     30  C   UNL A   1      38.558  30.452  29.663  1.00  0.00     0.074 A 
ATOM     31  C   UNL A   1      37.911  31.768  31.647  1.00  0.00     0.049 A 
ATOM     32  N   UNL A   1      39.580  29.781  30.130  1.00  0.00    -0.248 NA
ATOM     33  C   UNL A   1      38.274  30.208  28.241  1.00  0.00     0.031 C 
ATOM     34  C   UNL A   1      37.136  32.731  32.431  1.00  0.00     0.029 A 
ATOM     35  N   UNL A   1      38.901  31.358  32.504  1.00  0.00    -0.354 N 
ATOM     36  C   UNL A   1      40.049  29.019  29.068  1.00  0.00     0.074 A 
ATOM     37  C   UNL A   1      39.191  29.300  27.936  1.00  0.00     0.031 C 
ATOM     38  C   UNL A   1      37.687  32.845  33.650  1.00  0.00     0.029 A 
ATOM     39  C   UNL A   1      38.825  31.937  33.746  1.00  0.00     0.049 A 
ATOM     40  H   UNL A   1      39.599  30.710  32.252  1.00  0.00     0.167 HD
ATOM     41  C   UNL A   1      41.102  28.167  29.040  1.00  0.00     0.037 A 
ATOM     42  C   UNL A   1      39.579  31.743  34.845  1.00  0.00     0.037 A 
ATOM     43  C   UNL A   1      41.970  27.904  30.159  1.00  0.00     0.049 A 
ATOM     44  C   UNL A   1      40.719  30.766  34.796  1.00  0.00     0.074 A 
ATOM     45  C   UNL A   1      43.066  27.061  30.221  1.00  0.00     0.029 A 
ATOM     46  N   UNL A   1      41.843  28.487  31.410  1.00  0.00    -0.354 N 
ATOM     47  N   UNL A   1      41.142  30.038  33.791  1.00  0.00    -0.248 NA
ATOM     48  C   UNL A   1      41.483  30.580  36.038  1.00  0.00     0.031 C 
ATOM     49  C   UNL A   1      43.585  27.113  31.520  1.00  0.00     0.029 A 
ATOM     50  C   UNL A   1      42.834  28.014  32.255  1.00  0.00     0.049 A 
ATOM     51  H   UNL A   1      41.152  29.143  31.661  1.00  0.00     0.167 HD
ATOM     52  C   UNL A   1      42.228  29.321  34.273  1.00  0.00     0.074 A 
ATOM     53  C   UNL A   1      42.411  29.714  35.654  1.00  0.00     0.031 C 
ATOM     54  C   UNL A   1      43.004  28.416  33.628  1.00  0.00     0.037 A 
BRANCH  41  55
ATOM     55  C   UNL A   1      41.358  27.433  27.758  1.00  0.00     0.057 A 
ATOM     56  C   UNL A   1      42.209  27.946  26.770  1.00  0.00     0.134 A 
ATOM     57  C   UNL A   1      40.772  26.184  27.524  1.00  0.00     0.134 A 
ATOM     58  F   UNL A   1      42.791  29.144  26.929  1.00  0.00    -0.206 F 
ATOM     59  C   UNL A   1      42.451  27.249  25.586  1.00  0.00     0.040 A 
ATOM     60  C   UNL A   1      41.023  25.467  26.353  1.00  0.00     0.040 A 
ATOM     61  F   UNL A   1      39.952  25.635  28.433  1.00  0.00    -0.206 F 
ATOM     62  C   UNL A   1      41.862  26.002  25.377  1.00  0.00     0.006 A 
ENDBRANCH  41  55
BRANCH  42  63
ATOM     63  C   UNL A   1      39.271  32.484  36.091  1.00  0.00     0.057 A 
ATOM     64  C   UNL A   1      38.394  31.959  37.046  1.00  0.00     0.134 A 
ATOM     65  C   UNL A   1      39.836  33.738  36.349  1.00  0.00     0.134 A 
ATOM     66  F   UNL A   1      37.805  30.772  36.841  1.00  0.00    -0.206 F 
ATOM     67  C   UNL A   1      38.083  32.658  38.212  1.00  0.00     0.040 A 
ATOM     68  C   UNL A   1      39.551  34.439  37.522  1.00  0.00     0.040 A 
ATOM     69  F   UNL A   1      40.684  34.293  35.471  1.00  0.00    -0.206 F 
ATOM     70  C   UNL A   1      38.667  33.901  38.454  1.00  0.00     0.006 A 
ENDBRANCH  42  63
BRANCH  54  71
ATOM     71  C   UNL A   1      44.133  27.812  34.407  1.00  0.00     0.057 A 
ATOM     72  C   UNL A   1      45.389  28.428  34.478  1.00  0.00     0.134 A 
ATOM     73  C   UNL A   1      43.958  26.611  35.106  1.00  0.00     0.134 A 
ATOM     74  F   UNL A   1      45.624  29.573  33.819  1.00  0.00    -0.206 F 
ATOM     75  C   UNL A   1      46.440  27.858  35.199  1.00  0.00     0.040 A 
ATOM     76  C   UNL A   1      44.995  26.043  35.847  1.00  0.00     0.040 A 
ATOM     77  F   UNL A   1      42.778  25.975  35.081  1.00  0.00    -0.206 F 
ATOM     78  C   UNL A   1      46.242  26.663  35.890  1.00  0.00     0.006 A 
ENDBRANCH  54  71
ENDBRANCH  28  29
ENDBRANCH  21  23
ENDBRANCH  20  21
ENDBRANCH  19  20
ENDBRANCH   1  19
TORSDOF 14
ENDMDL
MODEL 2
REMARK VINA RESULT:     -10.2      5.436      9.383
REMARK SMILES C[C@@H](CC(=O)OCCOC(=O)c1ccc(-c2c3nc(c(-c4c(F)cccc4F)c4ccc([nH]4)c(-c4c(F)cccc4F)c4nc(c(-c5c(F)cccc5F)c5ccc2[nH]5)C=C4)C=C3)cc1)NC(=O)N[C@H]1CCOC1
REMARK SMILES IDX 7 1 6 2 4 3 5 4 3 5 2 6 1 7 66 8 67 9 68 11 69 12 70 14
REMARK SMILES IDX 71 15 74 16 72 17 73 18 8 19 9 20 10 21 11 22 12 23 13 24
REMARK SMILES IDX 65 25 14 26 64 27 15 28 16 29 17 30 58 31 18 32 63 33 57 34
REMARK SMILES IDX 59 35 19 36 62 37 56 38 55 39 20 41 46 42 29 43 45 44 30 45
REMARK SMILES IDX 33 46 44 47 60 48 31 49 32 50 43 52 61 53 34 54 21 55 22 56
REMARK SMILES IDX 27 57 23 58 24 59 26 60 28 61 25 62 47 63 48 64 53 65 49 66
REMARK SMILES IDX 50 67 52 68 54 69 51 70 35 71 36 72 41 73 37 74 38 75 40 76
REMARK SMILES IDX 42 77 39 78
REMARK H PARENT 66 10 69 13 59 40 33 51
REMARK Flexibility Score: inf
ROOT
ATOM      1  C   UNL A   1      38.484  21.194  25.479  1.00  0.00     0.274 C 
ENDROOT
BRANCH   1   2
ATOM      2  O   UNL A   1      37.383  21.441  24.579  1.00  0.00    -0.462 OA
BRANCH   2   3
ATOM      3  C   UNL A   1      36.956  22.724  24.503  1.00  0.00     0.307 C 
ATOM      4  O   UNL A   1      37.447  23.657  25.130  1.00  0.00    -0.252 OA
BRANCH   3   5
ATOM      5  C   UNL A   1      35.719  22.899  23.658  1.00  0.00     0.147 C 
BRANCH   5   6
ATOM      6  C   UNL A   1      34.463  22.067  23.943  1.00  0.00     0.091 C 
ATOM      7  C   UNL A   1      33.191  22.594  23.290  1.00  0.00     0.031 C 
BRANCH   6   8
ATOM      8  N   UNL A   1      34.225  21.807  25.360  1.00  0.00    -0.335 N 
ATOM      9  C   UNL A   1      33.741  20.797  26.094  1.00  0.00     0.315 C 
ATOM     10  H   UNL A   1      34.487  22.573  25.921  1.00  0.00     0.165 HD
ATOM     11  O   UNL A   1      33.523  20.990  27.292  1.00  0.00    -0.249 OA
ATOM     12  N   UNL A   1      33.491  19.571  25.624  1.00  0.00    -0.333 N 
ATOM     13  H   UNL A   1      33.038  18.988  26.275  1.00  0.00     0.165 HD
BRANCH  12  14
ATOM     14  C   UNL A   1      33.746  18.923  24.359  1.00  0.00     0.112 C 
ATOM     15  C   UNL A   1      34.284  17.517  24.519  1.00  0.00     0.056 C 
ATOM     16  C   UNL A   1      32.506  18.655  23.509  1.00  0.00     0.185 C 
ATOM     17  C   UNL A   1      34.049  16.952  23.138  1.00  0.00     0.162 C 
ATOM     18  O   UNL A   1      32.835  17.546  22.653  1.00  0.00    -0.379 OA
ENDBRANCH  12  14
ENDBRANCH   6   8
ENDBRANCH   5   6
ENDBRANCH   3   5
ENDBRANCH   2   3
ENDBRANCH   1   2
BRANCH   1  19
ATOM     19  C   UNL A   1      39.179  19.852  25.216  1.00  0.00     0.275 C 
BRANCH  19  20
ATOM     20  O   UNL A   1      40.072  19.473  26.283  1.00  0.00    -0.458 OA
BRANCH  20  21
ATOM     21  C   UNL A   1      41.378  19.671  26.012  1.00  0.00     0.338 C 
ATOM     22  O   UNL A   1      42.088  18.955  25.311  1.00  0.00    -0.246 OA
BRANCH  21  23
ATOM     23  C   UNL A   1      41.842  20.965  26.530  1.00  0.00     0.060 A 
ATOM     24  C   UNL A   1      41.703  21.210  27.900  1.00  0.00     0.016 A 
ATOM     25  C   UNL A   1      42.312  21.967  25.680  1.00  0.00     0.016 A 
ATOM     26  C   UNL A   1      42.002  22.462  28.423  1.00  0.00     0.010 A 
ATOM     27  C   UNL A   1      42.627  23.224  26.211  1.00  0.00     0.010 A 
ATOM     28  C   UNL A   1      42.460  23.483  27.583  1.00  0.00    -0.014 A 
BRANCH  28  29
ATOM     29  C   UNL A   1      42.725  24.823  28.156  1.00  0.00     0.031 A 
ATOM     30  C   UNL A   1      44.120  25.217  28.547  1.00  0.00     0.074 A 
ATOM     31  C   UNL A   1      41.717  25.706  28.276  1.00  0.00     0.049 A 
ATOM     32  N   UNL A   1      44.541  26.326  29.099  1.00  0.00    -0.248 NA
ATOM     33  C   UNL A   1      45.181  24.233  28.283  1.00  0.00     0.031 C 
ATOM     34  C   UNL A   1      40.327  25.459  27.889  1.00  0.00     0.029 A 
ATOM     35  N   UNL A   1      41.709  26.993  28.751  1.00  0.00    -0.354 N 
ATOM     36  C   UNL A   1      45.910  26.169  29.269  1.00  0.00     0.074 A 
ATOM     37  C   UNL A   1      46.247  24.850  28.773  1.00  0.00     0.031 C 
ATOM     38  C   UNL A   1      39.604  26.563  28.132  1.00  0.00     0.029 A 
ATOM     39  C   UNL A   1      40.467  27.578  28.727  1.00  0.00     0.049 A 
ATOM     40  H   UNL A   1      42.516  27.452  29.079  1.00  0.00     0.167 HD
ATOM     41  C   UNL A   1      46.803  27.046  29.786  1.00  0.00     0.037 A 
ATOM     42  C   UNL A   1      40.068  28.790  29.155  1.00  0.00     0.037 A 
ATOM     43  C   UNL A   1      46.472  28.366  30.257  1.00  0.00     0.049 A 
ATOM     44  C   UNL A   1      41.073  29.730  29.756  1.00  0.00     0.074 A 
ATOM     45  C   UNL A   1      47.313  29.328  30.791  1.00  0.00     0.029 A 
ATOM     46  N   UNL A   1      45.199  28.913  30.244  1.00  0.00    -0.354 N 
ATOM     47  N   UNL A   1      42.362  29.563  29.928  1.00  0.00    -0.248 NA
ATOM     48  C   UNL A   1      40.566  31.026  30.229  1.00  0.00     0.031 C 
ATOM     49  C   UNL A   1      46.541  30.446  31.128  1.00  0.00     0.029 A 
ATOM     50  C   UNL A   1      45.228  30.194  30.771  1.00  0.00     0.049 A 
ATOM     51  H   UNL A   1      44.392  28.458  29.908  1.00  0.00     0.167 HD
ATOM     52  C   UNL A   1      42.822  30.735  30.512  1.00  0.00     0.074 A 
ATOM     53  C   UNL A   1      41.679  31.612  30.650  1.00  0.00     0.031 C 
ATOM     54  C   UNL A   1      44.080  31.055  30.901  1.00  0.00     0.037 A 
BRANCH  41  55
ATOM     55  C   UNL A   1      48.228  26.593  29.892  1.00  0.00     0.057 A 
ATOM     56  C   UNL A   1      48.696  25.879  31.003  1.00  0.00     0.134 A 
ATOM     57  C   UNL A   1      49.134  26.847  28.856  1.00  0.00     0.134 A 
ATOM     58  F   UNL A   1      47.880  25.615  32.035  1.00  0.00    -0.206 F 
ATOM     59  C   UNL A   1      50.021  25.450  31.087  1.00  0.00     0.040 A 
ATOM     60  C   UNL A   1      50.457  26.405  28.918  1.00  0.00     0.040 A 
ATOM     61  F   UNL A   1      48.747  27.521  27.762  1.00  0.00    -0.206 F 
ATOM     62  C   UNL A   1      50.905  25.707  30.039  1.00  0.00     0.006 A 
ENDBRANCH  41  55
BRANCH  42  63
ATOM     63  C   UNL A   1      38.643  29.180  29.039  1.00  0.00     0.057 A 
ATOM     64  C   UNL A   1      38.117  29.649  27.830  1.00  0.00     0.134 A 
ATOM     65  C   UNL A   1      37.777  29.103  30.136  1.00  0.00     0.134 A 
ATOM     66  F   UNL A   1      38.906  29.766  26.752  1.00  0.00    -0.206 F 
ATOM     67  C   UNL A   1      36.782  30.036  27.718  1.00  0.00     0.040 A 
ATOM     68  C   UNL A   1      36.433  29.466  30.032  1.00  0.00     0.040 A 
ATOM     69  F   UNL A   1      38.223  28.661  31.321  1.00  0.00    -0.206 F 
ATOM     70  C   UNL A   1      35.935  29.940  28.821  1.00  0.00     0.006 A 
ENDBRANCH  42  63
BRANCH  54  71
ATOM     71  C   UNL A   1      44.283  32.419  31.489  1.00  0.00     0.057 A 
ATOM     72  C   UNL A   1      44.198  32.645  32.868  1.00  0.00     0.134 A 
ATOM     73  C   UNL A   1      44.584  33.514  30.669  1.00  0.00     0.134 A 
ATOM     74  F   UNL A   1      43.899  31.640  33.706  1.00  0.00    -0.206 F 
ATOM     75  C   UNL A   1      44.381  33.919  33.410  1.00  0.00     0.040 A 
ATOM     76  C   UNL A   1      44.789  34.787  31.201  1.00  0.00     0.040 A 
ATOM     77  F   UNL A   1      44.684  33.361  29.340  1.00  0.00    -0.206 F 
ATOM     78  C   UNL A   1      44.682  34.994  32.574  1.00  0.00     0.006 A 
ENDBRANCH  54  71
ENDBRANCH  28  29
ENDBRANCH  21  23
ENDBRANCH  20  21
ENDBRANCH  19  20
ENDBRANCH   1  19
TORSDOF 14
ENDMDL
MODEL 3
REMARK VINA RESULT:     -10.2      5.917      9.546
REMARK SMILES C[C@@H](CC(=O)OCCOC(=O)c1ccc(-c2c3nc(c(-c4c(F)cccc4F)c4ccc([nH]4)c(-c4c(F)cccc4F)c4nc(c(-c5c(F)cccc5F)c5ccc2[nH]5)C=C4)C=C3)cc1)NC(=O)N[C@H]1CCOC1
REMARK SMILES IDX 7 1 6 2 4 3 5 4 3 5 2 6 1 7 66 8 67 9 68 11 69 12 70 14
REMARK SMILES IDX 71 15 74 16 72 17 73 18 8 19 9 20 10 21 11 22 12 23 13 24
REMARK SMILES IDX 65 25 14 26 64 27 15 28 16 29 17 30 58 31 18 32 63 33 57 34
REMARK SMILES IDX 59 35 19 36 62 37 56 38 55 39 20 41 46 42 29 43 45 44 30 45
REMARK SMILES IDX 33 46 44 47 60 48 31 49 32 50 43 52 61 53 34 54 21 55 22 56
REMARK SMILES IDX 27 57 23 58 24 59 26 60 28 61 25 62 47 63 48 64 53 65 49 66
REMARK SMILES IDX 50 67 52 68 54 69 51 70 35 71 36 72 41 73 37 74 38 75 40 76
REMARK SMILES IDX 42 77 39 78
REMARK H PARENT 66 10 69 13 59 40 33 51
REMARK Flexibility Score: inf
ROOT
ATOM      1  C   UNL A   1      38.785  20.349  25.225  1.00  0.00     0.274 C 
ENDROOT
BRANCH   1   2
ATOM      2  O   UNL A   1      38.725  21.624  25.899  1.00  0.00    -0.462 OA
BRANCH   2   3
ATOM      3  C   UNL A   1      37.718  22.447  25.522  1.00  0.00     0.307 C 
ATOM      4  O   UNL A   1      37.483  23.535  26.035  1.00  0.00    -0.252 OA
BRANCH   3   5
ATOM      5  C   UNL A   1      36.811  21.851  24.474  1.00  0.00     0.147 C 
BRANCH   5   6
ATOM      6  C   UNL A   1      35.288  21.917  24.639  1.00  0.00     0.091 C 
ATOM      7  C   UNL A   1      34.601  22.964  23.771  1.00  0.00     0.031 C 
BRANCH   6   8
ATOM      8  N   UNL A   1      34.841  22.046  26.024  1.00  0.00    -0.335 N 
ATOM      9  C   UNL A   1      33.941  21.446  26.813  1.00  0.00     0.315 C 
ATOM     10  H   UNL A   1      35.327  22.758  26.500  1.00  0.00     0.165 HD
ATOM     11  O   UNL A   1      33.707  21.937  27.919  1.00  0.00    -0.249 OA
ATOM     12  N   UNL A   1      33.280  20.328  26.495  1.00  0.00    -0.333 N 
ATOM     13  H   UNL A   1      32.580  20.091  27.145  1.00  0.00     0.165 HD
BRANCH  12  14
ATOM     14  C   UNL A   1      33.378  19.398  25.396  1.00  0.00     0.112 C 
ATOM     15  C   UNL A   1      32.862  18.019  25.749  1.00  0.00     0.056 C 
ATOM     16  C   UNL A   1      32.500  19.726  24.191  1.00  0.00     0.185 C 
ATOM     17  C   UNL A   1      32.677  17.413  24.378  1.00  0.00     0.162 C 
ATOM     18  O   UNL A   1      32.265  18.481  23.510  1.00  0.00    -0.379 OA
ENDBRANCH  12  14
ENDBRANCH   6   8
ENDBRANCH   5   6
ENDBRANCH   3   5
ENDBRANCH   2   3
ENDBRANCH   1   2
BRANCH   1  19
ATOM     19  C   UNL A   1      39.657  19.325  25.963  1.00  0.00     0.275 C 
BRANCH  19  20
ATOM     20  O   UNL A   1      40.969  19.194  25.382  1.00  0.00    -0.458 OA
BRANCH  20  21
ATOM     21  C   UNL A   1      41.983  19.387  26.251  1.00  0.00     0.338 C 
ATOM     22  O   UNL A   1      42.799  18.542  26.609  1.00  0.00    -0.246 OA
BRANCH  21  23
ATOM     23  C   UNL A   1      42.115  20.805  26.614  1.00  0.00     0.060 A 
ATOM     24  C   UNL A   1      42.170  21.744  25.579  1.00  0.00     0.016 A 
ATOM     25  C   UNL A   1      42.286  21.207  27.939  1.00  0.00     0.016 A 
ATOM     26  C   UNL A   1      42.426  23.081  25.857  1.00  0.00     0.010 A 
ATOM     27  C   UNL A   1      42.529  22.557  28.220  1.00  0.00     0.010 A 
ATOM     28  C   UNL A   1      42.614  23.499  27.179  1.00  0.00    -0.014 A 
BRANCH  28  29
ATOM     29  C   UNL A   1      42.934  24.921  27.446  1.00  0.00     0.031 A 
ATOM     30  C   UNL A   1      44.279  25.476  27.074  1.00  0.00     0.074 A 
ATOM     31  C   UNL A   1      41.996  25.726  27.976  1.00  0.00     0.049 A 
ATOM     32  N   UNL A   1      44.756  26.680  27.264  1.00  0.00    -0.248 NA
ATOM     33  C   UNL A   1      45.208  24.557  26.399  1.00  0.00     0.031 C 
ATOM     34  C   UNL A   1      40.638  25.316  28.337  1.00  0.00     0.029 A 
ATOM     35  N   UNL A   1      42.040  27.059  28.295  1.00  0.00    -0.354 N 
ATOM     36  C   UNL A   1      46.048  26.660  26.753  1.00  0.00     0.074 A 
ATOM     37  C   UNL A   1      46.284  25.319  26.258  1.00  0.00     0.031 C 
ATOM     38  C   UNL A   1      39.975  26.379  28.819  1.00  0.00     0.029 A 
ATOM     39  C   UNL A   1      40.871  27.532  28.837  1.00  0.00     0.049 A 
ATOM     40  H   UNL A   1      42.835  27.623  28.151  1.00  0.00     0.167 HD
ATOM     41  C   UNL A   1      46.950  27.668  26.699  1.00  0.00     0.037 A 
ATOM     42  C   UNL A   1      40.563  28.753  29.312  1.00  0.00     0.037 A 
ATOM     43  C   UNL A   1      46.707  29.008  27.171  1.00  0.00     0.049 A 
ATOM     44  C   UNL A   1      41.595  29.843  29.272  1.00  0.00     0.074 A 
ATOM     45  C   UNL A   1      47.561  30.097  27.151  1.00  0.00     0.029 A 
ATOM     46  N   UNL A   1      45.521  29.440  27.741  1.00  0.00    -0.354 N 
ATOM     47  N   UNL A   1      42.818  29.808  28.804  1.00  0.00    -0.248 NA
ATOM     48  C   UNL A   1      41.203  31.145  29.833  1.00  0.00     0.031 C 
ATOM     49  C   UNL A   1      46.899  31.183  27.736  1.00  0.00     0.029 A 
ATOM     50  C   UNL A   1      45.623  30.778  28.087  1.00  0.00     0.049 A 
ATOM     51  H   UNL A   1      44.722  28.881  27.878  1.00  0.00     0.167 HD
ATOM     52  C   UNL A   1      43.337  31.081  28.998  1.00  0.00     0.074 A 
ATOM     53  C   UNL A   1      42.290  31.871  29.611  1.00  0.00     0.031 C 
ATOM     54  C   UNL A   1      44.571  31.552  28.697  1.00  0.00     0.037 A 
BRANCH  41  55
ATOM     55  C   UNL A   1      48.300  27.352  26.130  1.00  0.00     0.057 A 
ATOM     56  C   UNL A   1      49.365  26.935  26.938  1.00  0.00     0.134 A 
ATOM     57  C   UNL A   1      48.527  27.436  24.750  1.00  0.00     0.134 A 
ATOM     58  F   UNL A   1      49.214  26.846  28.269  1.00  0.00    -0.206 F 
ATOM     59  C   UNL A   1      50.614  26.630  26.396  1.00  0.00     0.040 A 
ATOM     60  C   UNL A   1      49.766  27.114  24.194  1.00  0.00     0.040 A 
ATOM     61  F   UNL A   1      47.547  27.825  23.921  1.00  0.00    -0.206 F 
ATOM     62  C   UNL A   1      50.816  26.713  25.019  1.00  0.00     0.006 A 
ENDBRANCH  41  55
BRANCH  42  63
ATOM     63  C   UNL A   1      39.217  29.005  29.879  1.00  0.00     0.057 A 
ATOM     64  C   UNL A   1      38.170  29.472  29.077  1.00  0.00     0.134 A 
ATOM     65  C   UNL A   1      38.949  28.795  31.237  1.00  0.00     0.134 A 
ATOM     66  F   UNL A   1      38.375  29.713  27.774  1.00  0.00    -0.206 F 
ATOM     67  C   UNL A   1      36.906  29.731  29.606  1.00  0.00     0.040 A 
ATOM     68  C   UNL A   1      37.683  29.028  31.776  1.00  0.00     0.040 A 
ATOM     69  F   UNL A   1      39.912  28.348  32.056  1.00  0.00    -0.206 F 
ATOM     70  C   UNL A   1      36.659  29.504  30.959  1.00  0.00     0.006 A 
ENDBRANCH  42  63
BRANCH  54  71
ATOM     71  C   UNL A   1      44.842  32.994  29.005  1.00  0.00     0.057 A 
ATOM     72  C   UNL A   1      45.409  33.391  30.222  1.00  0.00     0.134 A 
ATOM     73  C   UNL A   1      44.547  33.992  28.069  1.00  0.00     0.134 A 
ATOM     74  F   UNL A   1      45.701  32.483  31.166  1.00  0.00    -0.206 F 
ATOM     75  C   UNL A   1      45.653  34.736  30.507  1.00  0.00     0.040 A 
ATOM     76  C   UNL A   1      44.805  35.337  28.334  1.00  0.00     0.040 A 
ATOM     77  F   UNL A   1      44.007  33.676  26.883  1.00  0.00    -0.206 F 
ATOM     78  C   UNL A   1      45.354  35.713  29.558  1.00  0.00     0.006 A 
ENDBRANCH  54  71
ENDBRANCH  28  29
ENDBRANCH  21  23
ENDBRANCH  20  21
ENDBRANCH  19  20
ENDBRANCH   1  19
TORSDOF 14
ENDMDL
