MODEL 1
REMARK VINA RESULT:     -11.7      0.000      0.000
REMARK SMILES COc1cccc(NC(=O)[C@@H]2[C@@H](C(=O)OCCOC(=O)c3ccc(-c4c5nc(c(-c6c(F)cccc6F)c6ccc([nH]6)c(-c6c(F)cccc6F)c6nc(c(-c7c(F)cccc7F)c7ccc4[nH]7)C=C6)C=C5)cc3)[C@H]3C=C[C@@H]2C3)c1
REMARK SMILES IDX 16 1 15 2 13 3 14 4 12 5 11 6 78 7 75 8 77 9 79 10 76 11
REMARK SMILES IDX 9 12 8 13 10 15 7 16 3 17 4 18 80 19 5 20 6 21 2 22 1 23
REMARK SMILES IDX 17 24 18 25 19 26 20 27 21 28 22 29 74 30 23 31 73 32 24 33
REMARK SMILES IDX 25 34 26 35 67 36 27 37 72 38 66 39 68 40 28 41 71 42 65 43
REMARK SMILES IDX 64 44 29 46 55 47 38 48 54 49 39 50 42 51 53 52 69 53 40 54
REMARK SMILES IDX 41 55 52 57 70 58 43 59 30 60 31 61 36 62 32 63 33 64 35 65
REMARK SMILES IDX 37 66 34 67 56 68 57 69 62 70 58 71 59 72 61 73 63 74 60 75
REMARK SMILES IDX 44 76 45 77 50 78 46 79 47 80 49 81 51 82 48 83
REMARK H PARENT 8 14 68 45 42 56
REMARK Flexibility Score: inf
ROOT
ATOM      1  C   UNL A   1      33.674  27.913  24.619  1.00  0.00     0.274 C 
ENDROOT
BRANCH   1   2
ATOM      2  O   UNL A   1      33.521  27.126  25.824  1.00  0.00    -0.462 OA
BRANCH   2   3
ATOM      3  C   UNL A   1      33.103  25.846  25.661  1.00  0.00     0.310 C 
ATOM      4  O   UNL A   1      32.134  25.352  26.232  1.00  0.00    -0.252 OA
BRANCH   3   5
ATOM      5  C   UNL A   1      33.900  25.060  24.637  1.00  0.00     0.119 C 
ATOM      6  C   UNL A   1      33.246  23.792  23.959  1.00  0.00     0.100 C 
ATOM      7  C   UNL A   1      34.264  22.706  24.333  1.00  0.00     0.025 C 
ATOM      8  C   UNL A   1      35.191  24.487  25.296  1.00  0.00     0.027 C 
ATOM      9  C   UNL A   1      34.218  22.468  25.817  1.00  0.00    -0.027 C 
ATOM     10  C   UNL A   1      35.604  23.459  24.253  1.00  0.00     0.017 C 
ATOM     11  C   UNL A   1      34.833  23.506  26.384  1.00  0.00    -0.027 C 
BRANCH   6  12
ATOM     12  C   UNL A   1      32.960  24.131  22.484  1.00  0.00     0.228 C 
ATOM     13  N   UNL A   1      31.888  24.827  22.004  1.00  0.00    -0.326 N 
ATOM     14  H   UNL A   1      31.672  24.609  21.069  1.00  0.00     0.169 HD
ATOM     15  O   UNL A   1      33.653  23.561  21.626  1.00  0.00    -0.274 OA
BRANCH  13  16
ATOM     16  C   UNL A   1      31.030  25.787  22.560  1.00  0.00     0.044 A 
ATOM     17  C   UNL A   1      30.212  28.068  22.529  1.00  0.00     0.120 A 
ATOM     18  C   UNL A   1      29.154  27.694  23.356  1.00  0.00     0.046 A 
ATOM     19  C   UNL A   1      31.153  27.113  22.129  1.00  0.00     0.072 A 
ATOM     20  C   UNL A   1      29.107  26.409  23.887  1.00  0.00     0.006 A 
ATOM     21  C   UNL A   1      30.083  25.476  23.531  1.00  0.00     0.026 A 
BRANCH  17  22
ATOM     22  O   UNL A   1      30.197  29.376  22.130  1.00  0.00    -0.497 OA
ATOM     23  C   UNL A   1      29.528  30.277  23.004  1.00  0.00     0.278 C 
ENDBRANCH  17  22
ENDBRANCH  13  16
ENDBRANCH   6  12
ENDBRANCH   3   5
ENDBRANCH   2   3
ENDBRANCH   1   2
BRANCH   1  24
ATOM     24  C   UNL A   1      32.999  29.277  24.784  1.00  0.00     0.275 C 
BRANCH  24  25
ATOM     25  O   UNL A   1      32.607  29.437  26.155  1.00  0.00    -0.458 OA
BRANCH  25  26
ATOM     26  C   UNL A   1      32.841  30.652  26.704  1.00  0.00     0.338 C 
ATOM     27  O   UNL A   1      32.095  31.622  26.650  1.00  0.00    -0.246 OA
BRANCH  26  28
ATOM     28  C   UNL A   1      34.097  30.618  27.502  1.00  0.00     0.060 A 
ATOM     29  C   UNL A   1      34.911  31.750  27.628  1.00  0.00     0.016 A 
ATOM     30  C   UNL A   1      34.563  29.391  27.986  1.00  0.00     0.016 A 
ATOM     31  C   UNL A   1      36.209  31.632  28.131  1.00  0.00     0.010 A 
ATOM     32  C   UNL A   1      35.820  29.303  28.602  1.00  0.00     0.010 A 
ATOM     33  C   UNL A   1      36.667  30.423  28.674  1.00  0.00    -0.014 A 
BRANCH  33  34
ATOM     34  C   UNL A   1      37.983  30.326  29.374  1.00  0.00     0.031 A 
ATOM     35  C   UNL A   1      39.100  29.478  28.822  1.00  0.00     0.074 A 
ATOM     36  C   UNL A   1      38.160  30.940  30.562  1.00  0.00     0.049 A 
ATOM     37  N   UNL A   1      40.149  28.988  29.437  1.00  0.00    -0.248 NA
ATOM     38  C   UNL A   1      39.025  29.129  27.395  1.00  0.00     0.031 C 
ATOM     39  C   UNL A   1      37.206  31.842  31.210  1.00  0.00     0.029 A 
ATOM     40  N   UNL A   1      39.203  30.873  31.456  1.00  0.00    -0.354 N 
ATOM     41  C   UNL A   1      40.822  28.220  28.494  1.00  0.00     0.074 A 
ATOM     42  C   UNL A   1      40.075  28.326  27.257  1.00  0.00     0.031 C 
ATOM     43  C   UNL A   1      37.706  32.253  32.380  1.00  0.00     0.029 A 
ATOM     44  C   UNL A   1      38.957  31.549  32.627  1.00  0.00     0.049 A 
ATOM     45  H   UNL A   1      40.042  30.389  31.275  1.00  0.00     0.167 HD
ATOM     46  C   UNL A   1      41.950  27.486  28.656  1.00  0.00     0.037 A 
ATOM     47  C   UNL A   1      39.602  31.546  33.807  1.00  0.00     0.037 A 
ATOM     48  C   UNL A   1      42.720  27.431  29.873  1.00  0.00     0.049 A 
ATOM     49  C   UNL A   1      40.804  30.674  33.990  1.00  0.00     0.074 A 
ATOM     50  C   UNL A   1      43.890  26.731  30.126  1.00  0.00     0.029 A 
ATOM     51  N   UNL A   1      42.408  28.112  31.039  1.00  0.00    -0.354 N 
ATOM     52  N   UNL A   1      41.382  29.878  33.125  1.00  0.00    -0.248 NA
ATOM     53  C   UNL A   1      41.425  30.677  35.320  1.00  0.00     0.031 C 
ATOM     54  C   UNL A   1      44.267  26.965  31.453  1.00  0.00     0.029 A 
ATOM     55  C   UNL A   1      43.354  27.841  32.015  1.00  0.00     0.049 A 
ATOM     56  H   UNL A   1      41.629  28.704  31.156  1.00  0.00     0.167 HD
ATOM     57  C   UNL A   1      42.441  29.292  33.802  1.00  0.00     0.074 A 
ATOM     58  C   UNL A   1      42.433  29.832  35.146  1.00  0.00     0.031 C 
ATOM     59  C   UNL A   1      43.338  28.384  33.347  1.00  0.00     0.037 A 
BRANCH  46  60
ATOM     60  C   UNL A   1      42.417  26.644  27.502  1.00  0.00     0.057 A 
ATOM     61  C   UNL A   1      41.986  25.326  27.317  1.00  0.00     0.134 A 
ATOM     62  C   UNL A   1      43.244  27.198  26.515  1.00  0.00     0.134 A 
ATOM     63  F   UNL A   1      41.197  24.734  28.226  1.00  0.00    -0.206 F 
ATOM     64  C   UNL A   1      42.369  24.584  26.196  1.00  0.00     0.040 A 
ATOM     65  C   UNL A   1      43.617  26.475  25.381  1.00  0.00     0.040 A 
ATOM     66  F   UNL A   1      43.684  28.461  26.624  1.00  0.00    -0.206 F 
ATOM     67  C   UNL A   1      43.181  25.162  25.220  1.00  0.00     0.006 A 
ENDBRANCH  46  60
BRANCH  47  68
ATOM     68  C   UNL A   1      39.057  32.344  34.933  1.00  0.00     0.057 A 
ATOM     69  C   UNL A   1      38.250  31.755  35.909  1.00  0.00     0.134 A 
ATOM     70  C   UNL A   1      39.371  33.701  35.081  1.00  0.00     0.134 A 
ATOM     71  F   UNL A   1      37.899  30.464  35.807  1.00  0.00    -0.206 F 
ATOM     72  C   UNL A   1      37.779  32.485  37.001  1.00  0.00     0.040 A 
ATOM     73  C   UNL A   1      38.930  34.437  36.181  1.00  0.00     0.040 A 
ATOM     74  F   UNL A   1      40.147  34.321  34.179  1.00  0.00    -0.206 F 
ATOM     75  C   UNL A   1      38.129  33.827  37.144  1.00  0.00     0.006 A 
ENDBRANCH  47  68
BRANCH  59  76
ATOM     76  C   UNL A   1      44.406  27.950  34.302  1.00  0.00     0.057 A 
ATOM     77  C   UNL A   1      45.614  28.648  34.422  1.00  0.00     0.134 A 
ATOM     78  C   UNL A   1      44.215  26.834  35.124  1.00  0.00     0.134 A 
ATOM     79  F   UNL A   1      45.862  29.715  33.647  1.00  0.00    -0.206 F 
ATOM     80  C   UNL A   1      46.603  28.239  35.318  1.00  0.00     0.040 A 
ATOM     81  C   UNL A   1      45.189  26.426  36.037  1.00  0.00     0.040 A 
ATOM     82  F   UNL A   1      43.078  26.125  35.057  1.00  0.00    -0.206 F 
ATOM     83  C   UNL A   1      46.389  27.128  36.132  1.00  0.00     0.006 A 
ENDBRANCH  59  76
ENDBRANCH  33  34
ENDBRANCH  26  28
ENDBRANCH  25  26
ENDBRANCH  24  25
ENDBRANCH   1  24
TORSDOF 14
ENDMDL
MODEL 2
REMARK VINA RESULT:     -11.6      1.310      2.353
REMARK SMILES COc1cccc(NC(=O)[C@@H]2[C@@H](C(=O)OCCOC(=O)c3ccc(-c4c5nc(c(-c6c(F)cccc6F)c6ccc([nH]6)c(-c6c(F)cccc6F)c6nc(c(-c7c(F)cccc7F)c7ccc4[nH]7)C=C6)C=C5)cc3)[C@H]3C=C[C@@H]2C3)c1
REMARK SMILES IDX 16 1 15 2 13 3 14 4 12 5 11 6 78 7 75 8 77 9 79 10 76 11
REMARK SMILES IDX 9 12 8 13 10 15 7 16 3 17 4 18 80 19 5 20 6 21 2 22 1 23
REMARK SMILES IDX 17 24 18 25 19 26 20 27 21 28 22 29 74 30 23 31 73 32 24 33
REMARK SMILES IDX 25 34 26 35 67 36 27 37 72 38 66 39 68 40 28 41 71 42 65 43
REMARK SMILES IDX 64 44 29 46 55 47 38 48 54 49 39 50 42 51 53 52 69 53 40 54
REMARK SMILES IDX 41 55 52 57 70 58 43 59 30 60 31 61 36 62 32 63 33 64 35 65
REMARK SMILES IDX 37 66 34 67 56 68 57 69 62 70 58 71 59 72 61 73 63 74 60 75
REMARK SMILES IDX 44 76 45 77 50 78 46 79 47 80 49 81 51 82 48 83
REMARK H PARENT 8 14 68 45 42 56
REMARK Flexibility Score: inf
ROOT
ATOM      1  C   UNL A   1      31.744  28.163  26.858  1.00  0.00     0.274 C 
ENDROOT
BRANCH   1   2
ATOM      2  O   UNL A   1      31.673  26.964  26.051  1.00  0.00    -0.462 OA
BRANCH   2   3
ATOM      3  C   UNL A   1      32.855  26.440  25.641  1.00  0.00     0.310 C 
ATOM      4  O   UNL A   1      33.682  25.920  26.387  1.00  0.00    -0.252 OA
BRANCH   3   5
ATOM      5  C   UNL A   1      33.061  26.477  24.139  1.00  0.00     0.119 C 
ATOM      6  C   UNL A   1      31.859  26.903  23.206  1.00  0.00     0.100 C 
ATOM      7  C   UNL A   1      31.740  25.667  22.306  1.00  0.00     0.025 C 
ATOM      8  C   UNL A   1      33.431  25.056  23.618  1.00  0.00     0.027 C 
ATOM      9  C   UNL A   1      31.254  24.500  23.122  1.00  0.00    -0.027 C 
ATOM     10  C   UNL A   1      33.206  25.239  22.124  1.00  0.00     0.017 C 
ATOM     11  C   UNL A   1      32.292  24.098  23.856  1.00  0.00    -0.027 C 
BRANCH   6  12
ATOM     12  C   UNL A   1      32.183  28.287  22.609  1.00  0.00     0.228 C 
ATOM     13  N   UNL A   1      31.279  29.229  22.211  1.00  0.00    -0.326 N 
ATOM     14  H   UNL A   1      31.634  29.840  21.524  1.00  0.00     0.169 HD
ATOM     15  O   UNL A   1      33.359  28.498  22.273  1.00  0.00    -0.274 OA
BRANCH  13  16
ATOM     16  C   UNL A   1      29.955  29.515  22.573  1.00  0.00     0.044 A 
ATOM     17  C   UNL A   1      28.257  31.198  22.974  1.00  0.00     0.120 A 
ATOM     18  C   UNL A   1      27.279  30.205  22.964  1.00  0.00     0.046 A 
ATOM     19  C   UNL A   1      29.599  30.854  22.778  1.00  0.00     0.072 A 
ATOM     20  C   UNL A   1      27.648  28.865  22.890  1.00  0.00     0.006 A 
ATOM     21  C   UNL A   1      28.995  28.525  22.754  1.00  0.00     0.026 A 
BRANCH  17  22
ATOM     22  O   UNL A   1      27.785  32.471  23.129  1.00  0.00    -0.497 OA
ATOM     23  C   UNL A   1      28.770  33.497  23.122  1.00  0.00     0.278 C 
ENDBRANCH  17  22
ENDBRANCH  13  16
ENDBRANCH   6  12
ENDBRANCH   3   5
ENDBRANCH   2   3
ENDBRANCH   1   2
BRANCH   1  24
ATOM     24  C   UNL A   1      31.583  29.407  25.981  1.00  0.00     0.275 C 
BRANCH  24  25
ATOM     25  O   UNL A   1      32.851  30.071  25.882  1.00  0.00    -0.458 OA
BRANCH  25  26
ATOM     26  C   UNL A   1      33.109  31.011  26.820  1.00  0.00     0.338 C 
ATOM     27  O   UNL A   1      32.329  31.871  27.212  1.00  0.00    -0.246 OA
BRANCH  26  28
ATOM     28  C   UNL A   1      34.456  30.785  27.413  1.00  0.00     0.060 A 
ATOM     29  C   UNL A   1      34.869  29.510  27.816  1.00  0.00     0.016 A 
ATOM     30  C   UNL A   1      35.251  31.890  27.736  1.00  0.00     0.016 A 
ATOM     31  C   UNL A   1      36.002  29.358  28.619  1.00  0.00     0.010 A 
ATOM     32  C   UNL A   1      36.452  31.716  28.438  1.00  0.00     0.010 A 
ATOM     33  C   UNL A   1      36.841  30.447  28.900  1.00  0.00    -0.014 A 
BRANCH  33  34
ATOM     34  C   UNL A   1      38.145  30.271  29.606  1.00  0.00     0.031 A 
ATOM     35  C   UNL A   1      39.239  29.415  29.023  1.00  0.00     0.074 A 
ATOM     36  C   UNL A   1      38.329  30.817  30.826  1.00  0.00     0.049 A 
ATOM     37  N   UNL A   1      40.264  28.859  29.622  1.00  0.00    -0.248 NA
ATOM     38  C   UNL A   1      39.169  29.142  27.579  1.00  0.00     0.031 C 
ATOM     39  C   UNL A   1      37.397  31.716  31.511  1.00  0.00     0.029 A 
ATOM     40  N   UNL A   1      39.359  30.670  31.726  1.00  0.00    -0.354 N 
ATOM     41  C   UNL A   1      40.922  28.118  28.647  1.00  0.00     0.074 A 
ATOM     42  C   UNL A   1      40.193  28.312  27.411  1.00  0.00     0.031 C 
ATOM     43  C   UNL A   1      37.898  32.051  32.705  1.00  0.00     0.029 A 
ATOM     44  C   UNL A   1      39.122  31.294  32.927  1.00  0.00     0.049 A 
ATOM     45  H   UNL A   1      40.183  30.168  31.529  1.00  0.00     0.167 HD
ATOM     46  C   UNL A   1      42.024  27.339  28.782  1.00  0.00     0.037 A 
ATOM     47  C   UNL A   1      39.753  31.208  34.112  1.00  0.00     0.037 A 
ATOM     48  C   UNL A   1      42.778  27.196  30.003  1.00  0.00     0.049 A 
ATOM     49  C   UNL A   1      40.924  30.289  34.261  1.00  0.00     0.074 A 
ATOM     50  C   UNL A   1      43.920  26.445  30.230  1.00  0.00     0.029 A 
ATOM     51  N   UNL A   1      42.475  27.828  31.199  1.00  0.00    -0.354 N 
ATOM     52  N   UNL A   1      41.484  29.519  33.363  1.00  0.00    -0.248 NA
ATOM     53  C   UNL A   1      41.529  30.202  35.596  1.00  0.00     0.031 C 
ATOM     54  C   UNL A   1      44.290  26.599  31.571  1.00  0.00     0.029 A 
ATOM     55  C   UNL A   1      43.400  27.475  32.169  1.00  0.00     0.049 A 
ATOM     56  H   UNL A   1      41.715  28.438  31.338  1.00  0.00     0.167 HD
ATOM     57  C   UNL A   1      42.516  28.863  34.019  1.00  0.00     0.074 A 
ATOM     58  C   UNL A   1      42.510  29.334  35.388  1.00  0.00     0.031 C 
ATOM     59  C   UNL A   1      43.387  27.950  33.527  1.00  0.00     0.037 A 
BRANCH  46  60
ATOM     60  C   UNL A   1      42.476  26.541  27.592  1.00  0.00     0.057 A 
ATOM     61  C   UNL A   1      43.387  27.044  26.657  1.00  0.00     0.134 A 
ATOM     62  C   UNL A   1      42.054  25.213  27.433  1.00  0.00     0.134 A 
ATOM     63  F   UNL A   1      43.826  28.309  26.748  1.00  0.00    -0.206 F 
ATOM     64  C   UNL A   1      43.855  26.259  25.600  1.00  0.00     0.040 A 
ATOM     65  C   UNL A   1      42.530  24.413  26.394  1.00  0.00     0.040 A 
ATOM     66  F   UNL A   1      41.191  24.664  28.301  1.00  0.00    -0.206 F 
ATOM     67  C   UNL A   1      43.433  24.937  25.471  1.00  0.00     0.006 A 
ENDBRANCH  46  60
BRANCH  47  68
ATOM     68  C   UNL A   1      39.222  31.966  35.272  1.00  0.00     0.057 A 
ATOM     69  C   UNL A   1      39.527  33.318  35.450  1.00  0.00     0.134 A 
ATOM     70  C   UNL A   1      38.358  31.368  36.198  1.00  0.00     0.134 A 
ATOM     71  F   UNL A   1      40.366  33.937  34.606  1.00  0.00    -0.206 F 
ATOM     72  C   UNL A   1      38.988  34.053  36.506  1.00  0.00     0.040 A 
ATOM     73  C   UNL A   1      37.790  32.096  37.243  1.00  0.00     0.040 A 
ATOM     74  F   UNL A   1      38.022  30.074  36.075  1.00  0.00    -0.206 F 
ATOM     75  C   UNL A   1      38.106  33.443  37.399  1.00  0.00     0.006 A 
ENDBRANCH  47  68
BRANCH  59  76
ATOM     76  C   UNL A   1      44.430  27.432  34.468  1.00  0.00     0.057 A 
ATOM     77  C   UNL A   1      45.644  28.102  34.662  1.00  0.00     0.134 A 
ATOM     78  C   UNL A   1      44.207  26.262  35.203  1.00  0.00     0.134 A 
ATOM     79  F   UNL A   1      45.922  29.218  33.973  1.00  0.00    -0.206 F 
ATOM     80  C   UNL A   1      46.608  27.615  35.545  1.00  0.00     0.040 A 
ATOM     81  C   UNL A   1      45.156  25.776  36.102  1.00  0.00     0.040 A 
ATOM     82  F   UNL A   1      43.062  25.577  35.062  1.00  0.00    -0.206 F 
ATOM     83  C   UNL A   1      46.363  26.451  36.272  1.00  0.00     0.006 A 
ENDBRANCH  59  76
ENDBRANCH  33  34
ENDBRANCH  26  28
ENDBRANCH  25  26
ENDBRANCH  24  25
ENDBRANCH   1  24
TORSDOF 14
ENDMDL
MODEL 3
REMARK VINA RESULT:     -11.5      3.809      8.191
REMARK SMILES COc1cccc(NC(=O)[C@@H]2[C@@H](C(=O)OCCOC(=O)c3ccc(-c4c5nc(c(-c6c(F)cccc6F)c6ccc([nH]6)c(-c6c(F)cccc6F)c6nc(c(-c7c(F)cccc7F)c7ccc4[nH]7)C=C6)C=C5)cc3)[C@H]3C=C[C@@H]2C3)c1
REMARK SMILES IDX 16 1 15 2 13 3 14 4 12 5 11 6 78 7 75 8 77 9 79 10 76 11
REMARK SMILES IDX 9 12 8 13 10 15 7 16 3 17 4 18 80 19 5 20 6 21 2 22 1 23
REMARK SMILES IDX 17 24 18 25 19 26 20 27 21 28 22 29 74 30 23 31 73 32 24 33
REMARK SMILES IDX 25 34 26 35 67 36 27 37 72 38 66 39 68 40 28 41 71 42 65 43
REMARK SMILES IDX 64 44 29 46 55 47 38 48 54 49 39 50 42 51 53 52 69 53 40 54
REMARK SMILES IDX 41 55 52 57 70 58 43 59 30 60 31 61 36 62 32 63 33 64 35 65
REMARK SMILES IDX 37 66 34 67 56 68 57 69 62 70 58 71 59 72 61 73 63 74 60 75
REMARK SMILES IDX 44 76 45 77 50 78 46 79 47 80 49 81 51 82 48 83
REMARK H PARENT 8 14 68 45 42 56
REMARK Flexibility Score: inf
ROOT
ATOM      1  C   UNL A   1      35.246  20.372  25.057  1.00  0.00     0.274 C 
ENDROOT
BRANCH   1   2
ATOM      2  O   UNL A   1      34.774  21.330  26.033  1.00  0.00    -0.462 OA
BRANCH   2   3
ATOM      3  C   UNL A   1      33.596  21.945  25.758  1.00  0.00     0.310 C 
ATOM      4  O   UNL A   1      32.573  21.363  25.409  1.00  0.00    -0.252 OA
BRANCH   3   5
ATOM      5  C   UNL A   1      33.612  23.444  25.988  1.00  0.00     0.119 C 
ATOM      6  C   UNL A   1      32.517  24.343  25.289  1.00  0.00     0.100 C 
ATOM      7  C   UNL A   1      33.401  25.311  24.493  1.00  0.00     0.025 C 
ATOM      8  C   UNL A   1      34.952  24.046  25.469  1.00  0.00     0.027 C 
ATOM      9  C   UNL A   1      34.101  24.558  23.394  1.00  0.00    -0.027 C 
ATOM     10  C   UNL A   1      34.599  25.526  25.435  1.00  0.00     0.017 C 
ATOM     11  C   UNL A   1      35.071  23.855  23.979  1.00  0.00    -0.027 C 
BRANCH   6  12
ATOM     12  C   UNL A   1      31.558  24.864  26.378  1.00  0.00     0.228 C 
ATOM     13  N   UNL A   1      31.241  26.169  26.622  1.00  0.00    -0.326 N 
ATOM     14  H   UNL A   1      30.955  26.330  27.550  1.00  0.00     0.169 HD
ATOM     15  O   UNL A   1      31.187  24.053  27.241  1.00  0.00    -0.274 OA
BRANCH  13  16
ATOM     16  C   UNL A   1      31.233  27.327  25.832  1.00  0.00     0.044 A 
ATOM     17  C   UNL A   1      30.406  28.451  23.849  1.00  0.00     0.120 A 
ATOM     18  C   UNL A   1      30.877  29.664  24.348  1.00  0.00     0.046 A 
ATOM     19  C   UNL A   1      30.583  27.278  24.592  1.00  0.00     0.072 A 
ATOM     20  C   UNL A   1      31.636  29.690  25.514  1.00  0.00     0.006 A 
ATOM     21  C   UNL A   1      31.859  28.506  26.221  1.00  0.00     0.026 A 
BRANCH  17  22
ATOM     22  O   UNL A   1      29.742  28.536  22.658  1.00  0.00    -0.497 OA
ATOM     23  C   UNL A   1      29.761  29.815  22.035  1.00  0.00     0.278 C 
ENDBRANCH  17  22
ENDBRANCH  13  16
ENDBRANCH   6  12
ENDBRANCH   3   5
ENDBRANCH   2   3
ENDBRANCH   1   2
BRANCH   1  24
ATOM     24  C   UNL A   1      36.706  20.654  24.695  1.00  0.00     0.275 C 
BRANCH  24  25
ATOM     25  O   UNL A   1      37.309  21.407  25.756  1.00  0.00    -0.458 OA
BRANCH  25  26
ATOM     26  C   UNL A   1      38.635  21.211  25.949  1.00  0.00     0.338 C 
ATOM     27  O   UNL A   1      39.278  20.235  25.588  1.00  0.00    -0.246 OA
BRANCH  26  28
ATOM     28  C   UNL A   1      39.244  22.420  26.569  1.00  0.00     0.060 A 
ATOM     29  C   UNL A   1      38.831  23.710  26.211  1.00  0.00     0.016 A 
ATOM     30  C   UNL A   1      40.368  22.271  27.389  1.00  0.00     0.016 A 
ATOM     31  C   UNL A   1      39.593  24.820  26.580  1.00  0.00     0.010 A 
ATOM     32  C   UNL A   1      41.057  23.399  27.857  1.00  0.00     0.010 A 
ATOM     33  C   UNL A   1      40.686  24.692  27.450  1.00  0.00    -0.014 A 
BRANCH  33  34
ATOM     34  C   UNL A   1      41.400  25.886  27.993  1.00  0.00     0.031 A 
ATOM     35  C   UNL A   1      40.672  26.936  28.791  1.00  0.00     0.074 A 
ATOM     36  C   UNL A   1      42.704  26.079  27.703  1.00  0.00     0.049 A 
ATOM     37  N   UNL A   1      41.013  28.179  29.031  1.00  0.00    -0.248 NA
ATOM     38  C   UNL A   1      39.388  26.541  29.391  1.00  0.00     0.031 C 
ATOM     39  C   UNL A   1      43.572  25.138  26.992  1.00  0.00     0.029 A 
ATOM     40  N   UNL A   1      43.525  27.155  27.949  1.00  0.00    -0.354 N 
ATOM     41  C   UNL A   1      39.961  28.733  29.750  1.00  0.00     0.074 A 
ATOM     42  C   UNL A   1      38.976  27.686  29.927  1.00  0.00     0.031 C 
ATOM     43  C   UNL A   1      44.795  25.663  26.872  1.00  0.00     0.029 A 
ATOM     44  C   UNL A   1      44.770  27.027  27.382  1.00  0.00     0.049 A 
ATOM     45  H   UNL A   1      43.247  27.939  28.478  1.00  0.00     0.167 HD
ATOM     46  C   UNL A   1      39.829  30.004  30.205  1.00  0.00     0.037 A 
ATOM     47  C   UNL A   1      45.759  27.921  27.201  1.00  0.00     0.037 A 
ATOM     48  C   UNL A   1      40.837  31.026  30.075  1.00  0.00     0.049 A 
ATOM     49  C   UNL A   1      45.567  29.336  27.645  1.00  0.00     0.074 A 
ATOM     50  C   UNL A   1      40.802  32.337  30.523  1.00  0.00     0.029 A 
ATOM     51  N   UNL A   1      42.068  30.850  29.464  1.00  0.00    -0.354 N 
ATOM     52  N   UNL A   1      44.535  29.879  28.239  1.00  0.00    -0.248 NA
ATOM     53  C   UNL A   1      46.665  30.270  27.366  1.00  0.00     0.031 C 
ATOM     54  C   UNL A   1      41.999  32.962  30.156  1.00  0.00     0.029 A 
ATOM     55  C   UNL A   1      42.795  32.029  29.513  1.00  0.00     0.049 A 
ATOM     56  H   UNL A   1      42.382  30.010  29.056  1.00  0.00     0.167 HD
ATOM     57  C   UNL A   1      44.860  31.215  28.416  1.00  0.00     0.074 A 
ATOM     58  C   UNL A   1      46.191  31.400  27.875  1.00  0.00     0.031 C 
ATOM     59  C   UNL A   1      44.118  32.201  28.974  1.00  0.00     0.037 A 
BRANCH  46  60
ATOM     60  C   UNL A   1      38.533  30.389  30.860  1.00  0.00     0.057 A 
ATOM     61  C   UNL A   1      38.329  30.273  32.239  1.00  0.00     0.134 A 
ATOM     62  C   UNL A   1      37.505  30.969  30.102  1.00  0.00     0.134 A 
ATOM     63  F   UNL A   1      39.269  29.722  33.022  1.00  0.00    -0.206 F 
ATOM     64  C   UNL A   1      37.145  30.709  32.841  1.00  0.00     0.040 A 
ATOM     65  C   UNL A   1      36.327  31.428  30.693  1.00  0.00     0.040 A 
ATOM     66  F   UNL A   1      37.641  31.122  28.776  1.00  0.00    -0.206 F 
ATOM     67  C   UNL A   1      36.144  31.296  32.068  1.00  0.00     0.006 A 
ENDBRANCH  46  60
BRANCH  47  68
ATOM     68  C   UNL A   1      46.991  27.502  26.486  1.00  0.00     0.057 A 
ATOM     69  C   UNL A   1      47.079  27.585  25.095  1.00  0.00     0.134 A 
ATOM     70  C   UNL A   1      48.121  27.057  27.184  1.00  0.00     0.134 A 
ATOM     71  F   UNL A   1      46.020  27.983  24.373  1.00  0.00    -0.206 F 
ATOM     72  C   UNL A   1      48.251  27.246  24.419  1.00  0.00     0.040 A 
ATOM     73  C   UNL A   1      49.308  26.742  26.525  1.00  0.00     0.040 A 
ATOM     74  F   UNL A   1      48.099  26.964  28.523  1.00  0.00    -0.206 F 
ATOM     75  C   UNL A   1      49.374  26.835  25.136  1.00  0.00     0.006 A 
ENDBRANCH  47  68
BRANCH  59  76
ATOM     76  C   UNL A   1      44.748  33.557  29.062  1.00  0.00     0.057 A 
ATOM     77  C   UNL A   1      44.557  34.523  28.067  1.00  0.00     0.134 A 
ATOM     78  C   UNL A   1      45.537  33.904  30.165  1.00  0.00     0.134 A 
ATOM     79  F   UNL A   1      43.826  34.242  26.978  1.00  0.00    -0.206 F 
ATOM     80  C   UNL A   1      45.144  35.786  28.160  1.00  0.00     0.040 A 
ATOM     81  C   UNL A   1      46.114  35.170  30.277  1.00  0.00     0.040 A 
ATOM     82  F   UNL A   1      45.756  33.022  31.152  1.00  0.00    -0.206 F 
ATOM     83  C   UNL A   1      45.921  36.113  29.270  1.00  0.00     0.006 A 
ENDBRANCH  59  76
ENDBRANCH  33  34
ENDBRANCH  26  28
ENDBRANCH  25  26
ENDBRANCH  24  25
ENDBRANCH   1  24
TORSDOF 14
ENDMDL
