MODEL 1
REMARK VINA RESULT:     -11.2      0.000      0.000
REMARK SMILES O=C(OCCOC(=O)[C@@H]1C=C[C@H](NC(=O)[C@@H]2Cc3ccccc3O2)C1)c1ccc(-c2c3nc(c(-c4c(F)cccc4F)c4ccc([nH]4)c(-c4c(F)cccc4F)c4nc(c(-c5c(F)cccc5F)c5ccc2[nH]5)C=C4)C=C3)cc1
REMARK SMILES IDX 4 1 3 2 2 3 1 4 26 5 27 6 79 7 28 8 78 9 29 10 30 11 31 12
REMARK SMILES IDX 72 13 32 14 77 15 71 16 73 17 33 18 76 19 70 20 69 21 34 23
REMARK SMILES IDX 60 24 43 25 59 26 44 27 47 28 58 29 74 30 45 31 46 32 57 34
REMARK SMILES IDX 75 35 48 36 35 37 36 38 41 39 37 40 38 41 40 42 42 43 39 44
REMARK SMILES IDX 61 45 62 46 67 47 63 48 64 49 66 50 68 51 65 52 49 53 50 54
REMARK SMILES IDX 55 55 51 56 52 57 54 58 56 59 53 60 5 61 6 62 7 63 8 64 9 65
REMARK SMILES IDX 10 66 25 67 11 68 12 69 13 70 14 71 15 73 16 74 17 75 24 76
REMARK SMILES IDX 18 77 23 78 19 79 22 80 20 81 21 82
REMARK H PARENT 73 22 47 33 13 72
REMARK Flexibility Score: inf
ROOT
ATOM      1  C   UNL A   1      43.971  18.256  25.740  1.00  0.00     0.275 C 
ENDROOT
BRANCH   1   2
ATOM      2  O   UNL A   1      43.823  19.176  24.624  1.00  0.00    -0.458 OA
BRANCH   2   3
ATOM      3  C   UNL A   1      44.940  19.739  24.069  1.00  0.00     0.338 C 
ATOM      4  O   UNL A   1      45.709  19.154  23.313  1.00  0.00    -0.246 OA
BRANCH   3   5
ATOM      5  C   UNL A   1      45.202  21.097  24.650  1.00  0.00     0.060 A 
ATOM      6  C   UNL A   1      45.014  22.170  23.812  1.00  0.00     0.016 A 
ATOM      7  C   UNL A   1      45.615  21.406  25.951  1.00  0.00     0.016 A 
ATOM      8  C   UNL A   1      45.127  23.493  24.250  1.00  0.00     0.010 A 
ATOM      9  C   UNL A   1      45.773  22.775  26.383  1.00  0.00     0.010 A 
ATOM     10  C   UNL A   1      45.513  23.852  25.522  1.00  0.00    -0.014 A 
BRANCH  10  11
ATOM     11  C   UNL A   1      45.719  25.346  25.635  1.00  0.00     0.031 A 
ATOM     12  C   UNL A   1      44.606  26.178  26.246  1.00  0.00     0.074 A 
ATOM     13  C   UNL A   1      46.961  25.885  25.726  1.00  0.00     0.049 A 
ATOM     14  N   UNL A   1      44.656  27.349  26.838  1.00  0.00    -0.248 NA
ATOM     15  C   UNL A   1      43.277  25.557  26.257  1.00  0.00     0.031 C 
ATOM     16  C   UNL A   1      48.211  25.181  25.468  1.00  0.00     0.029 A 
ATOM     17  N   UNL A   1      47.375  27.127  26.176  1.00  0.00    -0.354 N 
ATOM     18  C   UNL A   1      43.382  27.573  27.345  1.00  0.00     0.074 A 
ATOM     19  C   UNL A   1      42.587  26.411  27.000  1.00  0.00     0.031 C 
ATOM     20  C   UNL A   1      49.244  25.963  25.831  1.00  0.00     0.029 A 
ATOM     21  C   UNL A   1      48.744  27.272  26.256  1.00  0.00     0.049 A 
ATOM     22  H   UNL A   1      46.747  27.844  26.419  1.00  0.00     0.167 HD
ATOM     23  C   UNL A   1      42.886  28.655  27.996  1.00  0.00     0.037 A 
ATOM     24  C   UNL A   1      49.518  28.333  26.591  1.00  0.00     0.037 A 
ATOM     25  C   UNL A   1      43.579  29.895  28.225  1.00  0.00     0.049 A 
ATOM     26  C   UNL A   1      48.885  29.651  26.968  1.00  0.00     0.074 A 
ATOM     27  C   UNL A   1      43.065  31.094  28.695  1.00  0.00     0.029 A 
ATOM     28  N   UNL A   1      44.915  30.119  27.958  1.00  0.00    -0.354 N 
ATOM     29  N   UNL A   1      47.653  29.905  27.327  1.00  0.00    -0.248 NA
ATOM     30  C   UNL A   1      49.751  30.844  26.937  1.00  0.00     0.031 C 
ATOM     31  C   UNL A   1      44.068  32.068  28.617  1.00  0.00     0.029 A 
ATOM     32  C   UNL A   1      45.224  31.456  28.170  1.00  0.00     0.049 A 
ATOM     33  H   UNL A   1      45.555  29.432  27.662  1.00  0.00     0.167 HD
ATOM     34  C   UNL A   1      47.597  31.276  27.566  1.00  0.00     0.074 A 
ATOM     35  C   UNL A   1      48.925  31.799  27.343  1.00  0.00     0.031 C 
ATOM     36  C   UNL A   1      46.526  32.024  27.929  1.00  0.00     0.037 A 
BRANCH  23  37
ATOM     37  C   UNL A   1      41.437  28.601  28.367  1.00  0.00     0.057 A 
ATOM     38  C   UNL A   1      40.418  28.885  27.452  1.00  0.00     0.134 A 
ATOM     39  C   UNL A   1      41.069  28.237  29.668  1.00  0.00     0.134 A 
ATOM     40  F   UNL A   1      40.711  29.251  26.194  1.00  0.00    -0.206 F 
ATOM     41  C   UNL A   1      39.075  28.812  27.825  1.00  0.00     0.040 A 
ATOM     42  C   UNL A   1      39.733  28.149  30.048  1.00  0.00     0.040 A 
ATOM     43  F   UNL A   1      42.008  27.957  30.585  1.00  0.00    -0.206 F 
ATOM     44  C   UNL A   1      38.731  28.439  29.124  1.00  0.00     0.006 A 
ENDBRANCH  23  37
BRANCH  24  45
ATOM     45  C   UNL A   1      51.006  28.261  26.468  1.00  0.00     0.057 A 
ATOM     46  C   UNL A   1      51.658  28.378  25.233  1.00  0.00     0.134 A 
ATOM     47  C   UNL A   1      51.806  27.969  27.582  1.00  0.00     0.134 A 
ATOM     48  F   UNL A   1      50.954  28.590  24.111  1.00  0.00    -0.206 F 
ATOM     49  C   UNL A   1      53.043  28.218  25.116  1.00  0.00     0.040 A 
ATOM     50  C   UNL A   1      53.192  27.846  27.487  1.00  0.00     0.040 A 
ATOM     51  F   UNL A   1      51.247  27.790  28.789  1.00  0.00    -0.206 F 
ATOM     52  C   UNL A   1      53.815  27.965  26.248  1.00  0.00     0.006 A 
ENDBRANCH  24  45
BRANCH  36  53
ATOM     53  C   UNL A   1      46.720  33.507  28.094  1.00  0.00     0.057 A 
ATOM     54  C   UNL A   1      46.492  34.402  27.038  1.00  0.00     0.134 A 
ATOM     55  C   UNL A   1      47.120  34.056  29.319  1.00  0.00     0.134 A 
ATOM     56  F   UNL A   1      46.111  33.949  25.834  1.00  0.00    -0.206 F 
ATOM     57  C   UNL A   1      46.686  35.779  27.186  1.00  0.00     0.040 A 
ATOM     58  C   UNL A   1      47.294  35.433  29.486  1.00  0.00     0.040 A 
ATOM     59  F   UNL A   1      47.344  33.266  30.380  1.00  0.00    -0.206 F 
ATOM     60  C   UNL A   1      47.086  36.298  28.414  1.00  0.00     0.006 A 
ENDBRANCH  36  53
ENDBRANCH  10  11
ENDBRANCH   3   5
ENDBRANCH   2   3
ENDBRANCH   1   2
BRANCH   1  61
ATOM     61  C   UNL A   1      42.622  18.069  26.472  1.00  0.00     0.274 C 
BRANCH  61  62
ATOM     62  O   UNL A   1      42.463  19.061  27.499  1.00  0.00    -0.462 OA
BRANCH  62  63
ATOM     63  C   UNL A   1      41.580  20.072  27.258  1.00  0.00     0.312 C 
ATOM     64  O   UNL A   1      40.365  19.940  27.190  1.00  0.00    -0.252 OA
BRANCH  63  65
ATOM     65  C   UNL A   1      42.300  21.420  27.134  1.00  0.00     0.124 C 
ATOM     66  C   UNL A   1      42.188  22.322  28.313  1.00  0.00    -0.014 C 
ATOM     67  C   UNL A   1      41.641  22.292  26.075  1.00  0.00     0.048 C 
ATOM     68  C   UNL A   1      41.261  23.278  28.130  1.00  0.00    -0.006 C 
ATOM     69  C   UNL A   1      40.605  23.224  26.775  1.00  0.00     0.106 C 
BRANCH  69  70
ATOM     70  N   UNL A   1      39.196  22.713  26.842  1.00  0.00    -0.347 N 
ATOM     71  C   UNL A   1      38.144  23.129  26.031  1.00  0.00     0.261 C 
ATOM     72  H   UNL A   1      38.999  22.023  27.516  1.00  0.00     0.164 HD
ATOM     73  O   UNL A   1      37.623  24.215  26.321  1.00  0.00    -0.271 OA
BRANCH  71  74
ATOM     74  C   UNL A   1      37.362  22.157  24.955  1.00  0.00     0.266 C 
ATOM     75  C   UNL A   1      36.608  22.953  23.867  1.00  0.00     0.095 C 
ATOM     76  O   UNL A   1      36.563  20.985  25.232  1.00  0.00    -0.480 OA
ATOM     77  C   UNL A   1      35.255  22.341  23.929  1.00  0.00    -0.002 A 
ATOM     78  C   UNL A   1      35.320  21.191  24.682  1.00  0.00     0.123 A 
ATOM     79  C   UNL A   1      34.048  22.747  23.378  1.00  0.00     0.008 A 
ATOM     80  C   UNL A   1      34.190  20.425  24.946  1.00  0.00     0.047 A 
ATOM     81  C   UNL A   1      32.890  22.012  23.664  1.00  0.00     0.001 A 
ATOM     82  C   UNL A   1      32.956  20.860  24.457  1.00  0.00     0.004 A 
ENDBRANCH  71  74
ENDBRANCH  69  70
ENDBRANCH  63  65
ENDBRANCH  62  63
ENDBRANCH  61  62
ENDBRANCH   1  61
TORSDOF 13
ENDMDL
MODEL 2
REMARK VINA RESULT:     -11.0      6.389      9.166
REMARK SMILES O=C(OCCOC(=O)[C@@H]1C=C[C@H](NC(=O)[C@@H]2Cc3ccccc3O2)C1)c1ccc(-c2c3nc(c(-c4c(F)cccc4F)c4ccc([nH]4)c(-c4c(F)cccc4F)c4nc(c(-c5c(F)cccc5F)c5ccc2[nH]5)C=C4)C=C3)cc1
REMARK SMILES IDX 4 1 3 2 2 3 1 4 26 5 27 6 79 7 28 8 78 9 29 10 30 11 31 12
REMARK SMILES IDX 72 13 32 14 77 15 71 16 73 17 33 18 76 19 70 20 69 21 34 23
REMARK SMILES IDX 60 24 43 25 59 26 44 27 47 28 58 29 74 30 45 31 46 32 57 34
REMARK SMILES IDX 75 35 48 36 35 37 36 38 41 39 37 40 38 41 40 42 42 43 39 44
REMARK SMILES IDX 61 45 62 46 67 47 63 48 64 49 66 50 68 51 65 52 49 53 50 54
REMARK SMILES IDX 55 55 51 56 52 57 54 58 56 59 53 60 5 61 6 62 7 63 8 64 9 65
REMARK SMILES IDX 10 66 25 67 11 68 12 69 13 70 14 71 15 73 16 74 17 75 24 76
REMARK SMILES IDX 18 77 23 78 19 79 22 80 20 81 21 82
REMARK H PARENT 73 22 47 33 13 72
REMARK Flexibility Score: inf
ROOT
ATOM      1  C   UNL A   1      37.476  23.231  25.834  1.00  0.00     0.275 C 
ENDROOT
BRANCH   1   2
ATOM      2  O   UNL A   1      38.270  24.404  26.161  1.00  0.00    -0.458 OA
BRANCH   2   3
ATOM      3  C   UNL A   1      39.556  24.241  26.598  1.00  0.00     0.338 C 
ATOM      4  O   UNL A   1      40.179  23.185  26.543  1.00  0.00    -0.246 OA
BRANCH   3   5
ATOM      5  C   UNL A   1      40.037  25.464  27.320  1.00  0.00     0.060 A 
ATOM      6  C   UNL A   1      39.458  25.725  28.539  1.00  0.00     0.016 A 
ATOM      7  C   UNL A   1      41.012  26.378  26.902  1.00  0.00     0.016 A 
ATOM      8  C   UNL A   1      39.881  26.774  29.361  1.00  0.00     0.010 A 
ATOM      9  C   UNL A   1      41.410  27.486  27.738  1.00  0.00     0.010 A 
ATOM     10  C   UNL A   1      40.845  27.690  29.006  1.00  0.00    -0.014 A 
BRANCH  10  11
ATOM     11  C   UNL A   1      40.949  28.805  30.022  1.00  0.00     0.031 A 
ATOM     12  C   UNL A   1      39.878  29.881  30.016  1.00  0.00     0.074 A 
ATOM     13  C   UNL A   1      41.583  28.626  31.207  1.00  0.00     0.049 A 
ATOM     14  N   UNL A   1      39.479  30.679  30.980  1.00  0.00    -0.248 NA
ATOM     15  C   UNL A   1      39.107  30.008  28.775  1.00  0.00     0.031 C 
ATOM     16  C   UNL A   1      42.442  27.498  31.548  1.00  0.00     0.029 A 
ATOM     17  N   UNL A   1      41.505  29.343  32.391  1.00  0.00    -0.354 N 
ATOM     18  C   UNL A   1      38.372  31.354  30.480  1.00  0.00     0.074 A 
ATOM     19  C   UNL A   1      38.159  30.862  29.133  1.00  0.00     0.031 C 
ATOM     20  C   UNL A   1      42.748  27.552  32.857  1.00  0.00     0.029 A 
ATOM     21  C   UNL A   1      42.195  28.776  33.441  1.00  0.00     0.049 A 
ATOM     22  H   UNL A   1      41.000  30.183  32.474  1.00  0.00     0.167 HD
ATOM     23  C   UNL A   1      37.619  32.327  31.051  1.00  0.00     0.037 A 
ATOM     24  C   UNL A   1      42.400  29.196  34.713  1.00  0.00     0.037 A 
ATOM     25  C   UNL A   1      37.878  32.963  32.315  1.00  0.00     0.049 A 
ATOM     26  C   UNL A   1      41.815  30.505  35.189  1.00  0.00     0.074 A 
ATOM     27  C   UNL A   1      37.274  34.090  32.852  1.00  0.00     0.029 A 
ATOM     28  N   UNL A   1      38.845  32.569  33.220  1.00  0.00    -0.354 N 
ATOM     29  N   UNL A   1      40.856  31.223  34.663  1.00  0.00    -0.248 NA
ATOM     30  C   UNL A   1      42.383  31.086  36.420  1.00  0.00     0.031 C 
ATOM     31  C   UNL A   1      37.944  34.434  34.032  1.00  0.00     0.029 A 
ATOM     32  C   UNL A   1      38.914  33.478  34.268  1.00  0.00     0.049 A 
ATOM     33  H   UNL A   1      39.402  31.762  33.135  1.00  0.00     0.167 HD
ATOM     34  C   UNL A   1      40.705  32.330  35.494  1.00  0.00     0.074 A 
ATOM     35  C   UNL A   1      41.647  32.178  36.578  1.00  0.00     0.031 C 
ATOM     36  C   UNL A   1      39.859  33.381  35.350  1.00  0.00     0.037 A 
BRANCH  23  37
ATOM     37  C   UNL A   1      36.514  32.891  30.214  1.00  0.00     0.057 A 
ATOM     38  C   UNL A   1      36.746  33.818  29.193  1.00  0.00     0.134 A 
ATOM     39  C   UNL A   1      35.197  32.471  30.435  1.00  0.00     0.134 A 
ATOM     40  F   UNL A   1      37.987  34.265  28.944  1.00  0.00    -0.206 F 
ATOM     41  C   UNL A   1      35.696  34.315  28.420  1.00  0.00     0.040 A 
ATOM     42  C   UNL A   1      34.143  32.951  29.662  1.00  0.00     0.040 A 
ATOM     43  F   UNL A   1      34.920  31.586  31.404  1.00  0.00    -0.206 F 
ATOM     44  C   UNL A   1      34.391  33.877  28.651  1.00  0.00     0.006 A 
ENDBRANCH  23  37
BRANCH  24  45
ATOM     45  C   UNL A   1      43.312  28.444  35.628  1.00  0.00     0.057 A 
ATOM     46  C   UNL A   1      44.703  28.606  35.593  1.00  0.00     0.134 A 
ATOM     47  C   UNL A   1      42.810  27.462  36.495  1.00  0.00     0.134 A 
ATOM     48  F   UNL A   1      45.263  29.478  34.741  1.00  0.00    -0.206 F 
ATOM     49  C   UNL A   1      45.553  27.831  36.389  1.00  0.00     0.040 A 
ATOM     50  C   UNL A   1      43.643  26.710  37.323  1.00  0.00     0.040 A 
ATOM     51  F   UNL A   1      41.492  27.212  36.546  1.00  0.00    -0.206 F 
ATOM     52  C   UNL A   1      45.022  26.890  37.267  1.00  0.00     0.006 A 
ENDBRANCH  24  45
BRANCH  36  53
ATOM     53  C   UNL A   1      39.913  34.479  36.377  1.00  0.00     0.057 A 
ATOM     54  C   UNL A   1      39.180  34.409  37.571  1.00  0.00     0.134 A 
ATOM     55  C   UNL A   1      40.717  35.612  36.189  1.00  0.00     0.134 A 
ATOM     56  F   UNL A   1      38.385  33.356  37.819  1.00  0.00    -0.206 F 
ATOM     57  C   UNL A   1      39.218  35.435  38.519  1.00  0.00     0.040 A 
ATOM     58  C   UNL A   1      40.781  36.633  37.141  1.00  0.00     0.040 A 
ATOM     59  F   UNL A   1      41.458  35.745  35.079  1.00  0.00    -0.206 F 
ATOM     60  C   UNL A   1      40.023  36.551  38.306  1.00  0.00     0.006 A 
ENDBRANCH  36  53
ENDBRANCH  10  11
ENDBRANCH   3   5
ENDBRANCH   2   3
ENDBRANCH   1   2
BRANCH   1  61
ATOM     61  C   UNL A   1      36.892  23.352  24.408  1.00  0.00     0.274 C 
BRANCH  61  62
ATOM     62  O   UNL A   1      35.501  23.711  24.460  1.00  0.00    -0.462 OA
BRANCH  62  63
ATOM     63  C   UNL A   1      34.623  22.900  23.802  1.00  0.00     0.312 C 
ATOM     64  O   UNL A   1      34.151  23.129  22.696  1.00  0.00    -0.252 OA
BRANCH  63  65
ATOM     65  C   UNL A   1      34.338  21.626  24.605  1.00  0.00     0.124 C 
ATOM     66  C   UNL A   1      33.271  20.744  24.058  1.00  0.00    -0.014 C 
ATOM     67  C   UNL A   1      33.727  21.963  25.959  1.00  0.00     0.048 C 
ATOM     68  C   UNL A   1      32.102  20.906  24.701  1.00  0.00    -0.006 C 
ATOM     69  C   UNL A   1      32.174  21.899  25.832  1.00  0.00     0.106 C 
BRANCH  69  70
ATOM     70  N   UNL A   1      31.485  23.190  25.504  1.00  0.00    -0.347 N 
ATOM     71  C   UNL A   1      31.728  24.417  26.116  1.00  0.00     0.261 C 
ATOM     72  H   UNL A   1      30.803  23.169  24.793  1.00  0.00     0.164 HD
ATOM     73  O   UNL A   1      31.220  24.583  27.234  1.00  0.00    -0.271 OA
BRANCH  71  74
ATOM     74  C   UNL A   1      32.347  25.733  25.342  1.00  0.00     0.266 C 
ATOM     75  C   UNL A   1      33.679  26.217  25.957  1.00  0.00     0.095 C 
ATOM     76  O   UNL A   1      31.647  26.916  24.899  1.00  0.00    -0.480 OA
ATOM     77  C   UNL A   1      33.410  27.665  26.155  1.00  0.00    -0.002 A 
ATOM     78  C   UNL A   1      32.262  28.002  25.477  1.00  0.00     0.123 A 
ATOM     79  C   UNL A   1      34.105  28.628  26.873  1.00  0.00     0.008 A 
ATOM     80  C   UNL A   1      31.741  29.292  25.515  1.00  0.00     0.047 A 
ATOM     81  C   UNL A   1      33.577  29.924  26.958  1.00  0.00     0.001 A 
ATOM     82  C   UNL A   1      32.391  30.253  26.291  1.00  0.00     0.004 A 
ENDBRANCH  71  74
ENDBRANCH  69  70
ENDBRANCH  63  65
ENDBRANCH  62  63
ENDBRANCH  61  62
ENDBRANCH   1  61
TORSDOF 13
ENDMDL
MODEL 3
REMARK VINA RESULT:     -11.0      6.461      8.983
REMARK SMILES O=C(OCCOC(=O)[C@@H]1C=C[C@H](NC(=O)[C@@H]2Cc3ccccc3O2)C1)c1ccc(-c2c3nc(c(-c4c(F)cccc4F)c4ccc([nH]4)c(-c4c(F)cccc4F)c4nc(c(-c5c(F)cccc5F)c5ccc2[nH]5)C=C4)C=C3)cc1
REMARK SMILES IDX 4 1 3 2 2 3 1 4 26 5 27 6 79 7 28 8 78 9 29 10 30 11 31 12
REMARK SMILES IDX 72 13 32 14 77 15 71 16 73 17 33 18 76 19 70 20 69 21 34 23
REMARK SMILES IDX 60 24 43 25 59 26 44 27 47 28 58 29 74 30 45 31 46 32 57 34
REMARK SMILES IDX 75 35 48 36 35 37 36 38 41 39 37 40 38 41 40 42 42 43 39 44
REMARK SMILES IDX 61 45 62 46 67 47 63 48 64 49 66 50 68 51 65 52 49 53 50 54
REMARK SMILES IDX 55 55 51 56 52 57 54 58 56 59 53 60 5 61 6 62 7 63 8 64 9 65
REMARK SMILES IDX 10 66 25 67 11 68 12 69 13 70 14 71 15 73 16 74 17 75 24 76
REMARK SMILES IDX 18 77 23 78 19 79 22 80 20 81 21 82
REMARK H PARENT 73 22 47 33 13 72
REMARK Flexibility Score: inf
ROOT
ATOM      1  C   UNL A   1      37.462  22.983  25.748  1.00  0.00     0.275 C 
ENDROOT
BRANCH   1   2
ATOM      2  O   UNL A   1      38.147  24.185  26.195  1.00  0.00    -0.458 OA
BRANCH   2   3
ATOM      3  C   UNL A   1      39.478  24.122  26.503  1.00  0.00     0.338 C 
ATOM      4  O   UNL A   1      40.175  23.120  26.368  1.00  0.00    -0.246 OA
BRANCH   3   5
ATOM      5  C   UNL A   1      39.929  25.373  27.198  1.00  0.00     0.060 A 
ATOM      6  C   UNL A   1      39.456  25.571  28.472  1.00  0.00     0.016 A 
ATOM      7  C   UNL A   1      40.780  26.367  26.704  1.00  0.00     0.016 A 
ATOM      8  C   UNL A   1      39.872  26.641  29.270  1.00  0.00     0.010 A 
ATOM      9  C   UNL A   1      41.170  27.495  27.518  1.00  0.00     0.010 A 
ATOM     10  C   UNL A   1      40.719  27.637  28.839  1.00  0.00    -0.014 A 
BRANCH  10  11
ATOM     11  C   UNL A   1      40.834  28.745  29.862  1.00  0.00     0.031 A 
ATOM     12  C   UNL A   1      39.766  29.824  29.871  1.00  0.00     0.074 A 
ATOM     13  C   UNL A   1      41.477  28.557  31.041  1.00  0.00     0.049 A 
ATOM     14  N   UNL A   1      39.375  30.616  30.844  1.00  0.00    -0.248 NA
ATOM     15  C   UNL A   1      38.984  29.961  28.638  1.00  0.00     0.031 C 
ATOM     16  C   UNL A   1      42.336  27.425  31.367  1.00  0.00     0.029 A 
ATOM     17  N   UNL A   1      41.410  29.266  32.230  1.00  0.00    -0.354 N 
ATOM     18  C   UNL A   1      38.266  31.297  30.358  1.00  0.00     0.074 A 
ATOM     19  C   UNL A   1      38.041  30.815  29.009  1.00  0.00     0.031 C 
ATOM     20  C   UNL A   1      42.653  27.469  32.674  1.00  0.00     0.029 A 
ATOM     21  C   UNL A   1      42.107  28.690  33.271  1.00  0.00     0.049 A 
ATOM     22  H   UNL A   1      40.908  30.107  32.322  1.00  0.00     0.167 HD
ATOM     23  C   UNL A   1      37.521  32.267  30.941  1.00  0.00     0.037 A 
ATOM     24  C   UNL A   1      42.323  29.102  34.544  1.00  0.00     0.037 A 
ATOM     25  C   UNL A   1      37.791  32.895  32.208  1.00  0.00     0.049 A 
ATOM     26  C   UNL A   1      41.745  30.408  35.033  1.00  0.00     0.074 A 
ATOM     27  C   UNL A   1      37.194  34.020  32.757  1.00  0.00     0.029 A 
ATOM     28  N   UNL A   1      38.764  32.492  33.101  1.00  0.00    -0.354 N 
ATOM     29  N   UNL A   1      40.783  31.132  34.519  1.00  0.00    -0.248 NA
ATOM     30  C   UNL A   1      42.324  30.980  36.263  1.00  0.00     0.031 C 
ATOM     31  C   UNL A   1      37.874  34.354  33.933  1.00  0.00     0.029 A 
ATOM     32  C   UNL A   1      38.844  33.394  34.155  1.00  0.00     0.049 A 
ATOM     33  H   UNL A   1      39.319  31.685  33.007  1.00  0.00     0.167 HD
ATOM     34  C   UNL A   1      40.642  32.234  35.359  1.00  0.00     0.074 A 
ATOM     35  C   UNL A   1      41.592  32.072  36.435  1.00  0.00     0.031 C 
ATOM     36  C   UNL A   1      39.798  33.287  35.229  1.00  0.00     0.037 A 
BRANCH  23  37
ATOM     37  C   UNL A   1      36.410  32.840  30.117  1.00  0.00     0.057 A 
ATOM     38  C   UNL A   1      36.641  33.738  29.070  1.00  0.00     0.134 A 
ATOM     39  C   UNL A   1      35.088  32.457  30.377  1.00  0.00     0.134 A 
ATOM     40  F   UNL A   1      37.885  34.149  28.783  1.00  0.00    -0.206 F 
ATOM     41  C   UNL A   1      35.584  34.243  28.310  1.00  0.00     0.040 A 
ATOM     42  C   UNL A   1      34.028  32.945  29.617  1.00  0.00     0.040 A 
ATOM     43  F   UNL A   1      34.813  31.601  31.371  1.00  0.00    -0.206 F 
ATOM     44  C   UNL A   1      34.275  33.843  28.581  1.00  0.00     0.006 A 
ENDBRANCH  23  37
BRANCH  24  45
ATOM     45  C   UNL A   1      43.240  28.341  35.446  1.00  0.00     0.057 A 
ATOM     46  C   UNL A   1      44.628  28.540  35.438  1.00  0.00     0.134 A 
ATOM     47  C   UNL A   1      42.752  27.318  36.271  1.00  0.00     0.134 A 
ATOM     48  F   UNL A   1      45.177  29.454  34.625  1.00  0.00    -0.206 F 
ATOM     49  C   UNL A   1      45.486  27.759  36.220  1.00  0.00     0.040 A 
ATOM     50  C   UNL A   1      43.592  26.559  37.086  1.00  0.00     0.040 A 
ATOM     51  F   UNL A   1      41.440  27.033  36.293  1.00  0.00    -0.206 F 
ATOM     52  C   UNL A   1      44.966  26.774  37.057  1.00  0.00     0.006 A 
ENDBRANCH  24  45
BRANCH  36  53
ATOM     53  C   UNL A   1      39.862  34.379  36.262  1.00  0.00     0.057 A 
ATOM     54  C   UNL A   1      39.092  34.331  37.434  1.00  0.00     0.134 A 
ATOM     55  C   UNL A   1      40.713  35.481  36.104  1.00  0.00     0.134 A 
ATOM     56  F   UNL A   1      38.251  33.309  37.652  1.00  0.00    -0.206 F 
ATOM     57  C   UNL A   1      39.140  35.352  38.388  1.00  0.00     0.040 A 
ATOM     58  C   UNL A   1      40.788  36.495  37.063  1.00  0.00     0.040 A 
ATOM     59  F   UNL A   1      41.492  35.590  35.018  1.00  0.00    -0.206 F 
ATOM     60  C   UNL A   1      39.993  36.437  38.205  1.00  0.00     0.006 A 
ENDBRANCH  36  53
ENDBRANCH  10  11
ENDBRANCH   3   5
ENDBRANCH   2   3
ENDBRANCH   1   2
BRANCH   1  61
ATOM     61  C   UNL A   1      35.955  23.061  26.083  1.00  0.00     0.274 C 
BRANCH  61  62
ATOM     62  O   UNL A   1      35.440  24.371  25.796  1.00  0.00    -0.462 OA
BRANCH  62  63
ATOM     63  C   UNL A   1      34.145  24.454  25.375  1.00  0.00     0.312 C 
ATOM     64  O   UNL A   1      33.184  23.981  25.968  1.00  0.00    -0.252 OA
BRANCH  63  65
ATOM     65  C   UNL A   1      34.034  25.268  24.081  1.00  0.00     0.124 C 
ATOM     66  C   UNL A   1      32.794  26.079  23.933  1.00  0.00    -0.014 C 
ATOM     67  C   UNL A   1      33.890  24.351  22.874  1.00  0.00     0.048 C 
ATOM     68  C   UNL A   1      31.891  25.479  23.137  1.00  0.00    -0.006 C 
ATOM     69  C   UNL A   1      32.372  24.171  22.565  1.00  0.00     0.106 C 
BRANCH  69  70
ATOM     70  N   UNL A   1      31.704  22.989  23.202  1.00  0.00    -0.347 N 
ATOM     71  C   UNL A   1      32.154  21.673  23.138  1.00  0.00     0.261 C 
ATOM     72  H   UNL A   1      30.878  23.158  23.710  1.00  0.00     0.164 HD
ATOM     73  O   UNL A   1      31.927  21.066  22.083  1.00  0.00    -0.271 OA
BRANCH  71  74
ATOM     74  C   UNL A   1      32.656  20.801  24.443  1.00  0.00     0.266 C 
ATOM     75  C   UNL A   1      34.155  20.431  24.374  1.00  0.00     0.095 C 
ATOM     76  O   UNL A   1      31.990  19.688  25.080  1.00  0.00    -0.480 OA
ATOM     77  C   UNL A   1      34.116  18.967  24.626  1.00  0.00    -0.002 A 
ATOM     78  C   UNL A   1      32.862  18.626  25.078  1.00  0.00     0.123 A 
ATOM     79  C   UNL A   1      35.093  17.994  24.475  1.00  0.00     0.008 A 
ATOM     80  C   UNL A   1      32.520  17.307  25.359  1.00  0.00     0.047 A 
ATOM     81  C   UNL A   1      34.758  16.654  24.713  1.00  0.00     0.001 A 
ATOM     82  C   UNL A   1      33.471  16.308  25.143  1.00  0.00     0.004 A 
ENDBRANCH  71  74
ENDBRANCH  69  70
ENDBRANCH  63  65
ENDBRANCH  62  63
ENDBRANCH  61  62
ENDBRANCH   1  61
TORSDOF 13
ENDMDL
