MODEL 1
REMARK VINA RESULT:     -12.0      0.000      0.000
REMARK SMILES O=C(OCCOC(=O)[C@H]1CCCN(C(=O)c2cc(Br)ccc2Cl)C1)c1ccc(-c2c3nc(c(-c4c(F)cccc4F)c4ccc([nH]4)c(-c4c(F)cccc4F)c4nc(c(-c5c(F)cccc5F)c5ccc2[nH]5)C=C4)C=C3)cc1
REMARK SMILES IDX 4 1 3 2 2 3 1 4 25 5 26 6 78 7 27 8 77 9 28 10 29 11 30 12
REMARK SMILES IDX 71 13 31 14 76 15 70 16 72 17 32 18 75 19 69 20 68 21 33 23
REMARK SMILES IDX 59 24 42 25 58 26 43 27 46 28 57 29 73 30 44 31 45 32 56 34
REMARK SMILES IDX 74 35 47 36 34 37 35 38 40 39 36 40 37 41 39 42 41 43 38 44
REMARK SMILES IDX 60 45 61 46 66 47 62 48 63 49 65 50 67 51 64 52 48 53 49 54
REMARK SMILES IDX 54 55 50 56 51 57 53 58 55 59 52 60 5 61 6 62 7 63 8 64 9 65
REMARK SMILES IDX 10 66 24 67 11 68 13 69 12 70 14 71 15 72 16 73 17 74 22 75
REMARK SMILES IDX 18 76 21 77 23 78 19 79 20 80
REMARK H PARENT 72 22 46 33
REMARK Flexibility Score: inf
ROOT
ATOM      1  C   UNL A   1      43.508  21.414  25.392  1.00  0.00     0.275 C 
ENDROOT
BRANCH   1   2
ATOM      2  O   UNL A   1      43.190  22.661  24.753  1.00  0.00    -0.458 OA
BRANCH   2   3
ATOM      3  C   UNL A   1      43.630  23.912  25.022  1.00  0.00     0.338 C 
ATOM      4  O   UNL A   1      44.666  24.290  24.478  1.00  0.00    -0.246 OA
BRANCH   3   5
ATOM      5  C   UNL A   1      43.016  24.828  26.042  1.00  0.00     0.060 A 
ATOM      6  C   UNL A   1      41.917  24.568  26.871  1.00  0.00     0.016 A 
ATOM      7  C   UNL A   1      43.659  26.069  26.194  1.00  0.00     0.016 A 
ATOM      8  C   UNL A   1      41.540  25.455  27.897  1.00  0.00     0.010 A 
ATOM      9  C   UNL A   1      43.309  26.939  27.229  1.00  0.00     0.010 A 
ATOM     10  C   UNL A   1      42.254  26.633  28.106  1.00  0.00    -0.014 A 
BRANCH  10  11
ATOM     11  C   UNL A   1      41.857  27.656  29.109  1.00  0.00     0.031 A 
ATOM     12  C   UNL A   1      42.472  27.536  30.472  1.00  0.00     0.074 A 
ATOM     13  C   UNL A   1      40.900  28.578  28.882  1.00  0.00     0.049 A 
ATOM     14  N   UNL A   1      42.128  28.102  31.596  1.00  0.00    -0.248 NA
ATOM     15  C   UNL A   1      43.612  26.607  30.577  1.00  0.00     0.031 C 
ATOM     16  C   UNL A   1      40.240  28.847  27.607  1.00  0.00     0.029 A 
ATOM     17  N   UNL A   1      40.257  29.418  29.764  1.00  0.00    -0.354 N 
ATOM     18  C   UNL A   1      43.024  27.610  32.533  1.00  0.00     0.074 A 
ATOM     19  C   UNL A   1      43.819  26.595  31.880  1.00  0.00     0.031 C 
ATOM     20  C   UNL A   1      39.218  29.701  27.806  1.00  0.00     0.029 A 
ATOM     21  C   UNL A   1      39.157  30.043  29.223  1.00  0.00     0.049 A 
ATOM     22  H   UNL A   1      40.556  29.557  30.691  1.00  0.00     0.167 HD
ATOM     23  C   UNL A   1      43.229  28.020  33.806  1.00  0.00     0.037 A 
ATOM     24  C   UNL A   1      38.193  30.776  29.815  1.00  0.00     0.037 A 
ATOM     25  C   UNL A   1      42.446  29.031  34.450  1.00  0.00     0.049 A 
ATOM     26  C   UNL A   1      38.303  31.085  31.283  1.00  0.00     0.074 A 
ATOM     27  C   UNL A   1      42.603  29.584  35.706  1.00  0.00     0.029 A 
ATOM     28  N   UNL A   1      41.335  29.632  33.876  1.00  0.00    -0.354 N 
ATOM     29  N   UNL A   1      39.205  30.682  32.144  1.00  0.00    -0.248 NA
ATOM     30  C   UNL A   1      37.283  31.979  31.854  1.00  0.00     0.031 C 
ATOM     31  C   UNL A   1      41.562  30.498  35.906  1.00  0.00     0.029 A 
ATOM     32  C   UNL A   1      40.782  30.538  34.759  1.00  0.00     0.049 A 
ATOM     33  H   UNL A   1      40.992  29.440  32.973  1.00  0.00     0.167 HD
ATOM     34  C   UNL A   1      38.915  31.340  33.332  1.00  0.00     0.074 A 
ATOM     35  C   UNL A   1      37.716  32.120  33.100  1.00  0.00     0.031 C 
ATOM     36  C   UNL A   1      39.610  31.334  34.495  1.00  0.00     0.037 A 
BRANCH  23  37
ATOM     37  C   UNL A   1      44.376  27.374  34.521  1.00  0.00     0.057 A 
ATOM     38  C   UNL A   1      44.180  26.238  35.325  1.00  0.00     0.134 A 
ATOM     39  C   UNL A   1      45.648  27.952  34.512  1.00  0.00     0.134 A 
ATOM     40  F   UNL A   1      42.974  25.656  35.395  1.00  0.00    -0.206 F 
ATOM     41  C   UNL A   1      45.190  25.748  36.151  1.00  0.00     0.040 A 
ATOM     42  C   UNL A   1      46.676  27.447  35.312  1.00  0.00     0.040 A 
ATOM     43  F   UNL A   1      45.901  29.036  33.766  1.00  0.00    -0.206 F 
ATOM     44  C   UNL A   1      46.442  26.356  36.149  1.00  0.00     0.006 A 
ENDBRANCH  23  37
BRANCH  24  45
ATOM     45  C   UNL A   1      37.024  31.271  29.047  1.00  0.00     0.057 A 
ATOM     46  C   UNL A   1      36.954  32.591  28.588  1.00  0.00     0.134 A 
ATOM     47  C   UNL A   1      35.909  30.452  28.834  1.00  0.00     0.134 A 
ATOM     48  F   UNL A   1      37.979  33.430  28.792  1.00  0.00    -0.206 F 
ATOM     49  C   UNL A   1      35.810  33.085  27.956  1.00  0.00     0.040 A 
ATOM     50  C   UNL A   1      34.760  30.936  28.206  1.00  0.00     0.040 A 
ATOM     51  F   UNL A   1      35.913  29.182  29.264  1.00  0.00    -0.206 F 
ATOM     52  C   UNL A   1      34.707  32.256  27.764  1.00  0.00     0.006 A 
ENDBRANCH  24  45
BRANCH  36  53
ATOM     53  C   UNL A   1      39.176  32.280  35.570  1.00  0.00     0.057 A 
ATOM     54  C   UNL A   1      38.340  31.891  36.619  1.00  0.00     0.134 A 
ATOM     55  C   UNL A   1      39.701  33.580  35.599  1.00  0.00     0.134 A 
ATOM     56  F   UNL A   1      37.791  30.667  36.634  1.00  0.00    -0.206 F 
ATOM     57  C   UNL A   1      38.047  32.761  37.670  1.00  0.00     0.040 A 
ATOM     58  C   UNL A   1      39.435  34.450  36.653  1.00  0.00     0.040 A 
ATOM     59  F   UNL A   1      40.512  34.008  34.618  1.00  0.00    -0.206 F 
ATOM     60  C   UNL A   1      38.608  34.038  37.696  1.00  0.00     0.006 A 
ENDBRANCH  36  53
ENDBRANCH  10  11
ENDBRANCH   3   5
ENDBRANCH   2   3
ENDBRANCH   1   2
BRANCH   1  61
ATOM     61  C   UNL A   1      42.358  20.823  26.213  1.00  0.00     0.274 C 
BRANCH  61  62
ATOM     62  O   UNL A   1      41.096  21.433  25.896  1.00  0.00    -0.462 OA
BRANCH  62  63
ATOM     63  C   UNL A   1      40.002  20.615  25.886  1.00  0.00     0.310 C 
ATOM     64  O   UNL A   1      40.053  19.404  25.716  1.00  0.00    -0.252 OA
BRANCH  63  65
ATOM     65  C   UNL A   1      38.699  21.375  26.137  1.00  0.00     0.119 C 
ATOM     66  C   UNL A   1      38.893  22.890  26.037  1.00  0.00     0.019 C 
ATOM     67  C   UNL A   1      37.616  20.892  25.167  1.00  0.00     0.135 C 
ATOM     68  C   UNL A   1      37.610  23.708  25.972  1.00  0.00     0.022 C 
ATOM     69  N   UNL A   1      36.444  21.774  25.188  1.00  0.00    -0.338 N 
ATOM     70  C   UNL A   1      36.725  23.168  24.870  1.00  0.00     0.120 C 
BRANCH  69  71
ATOM     71  C   UNL A   1      35.238  21.342  25.728  1.00  0.00     0.255 C 
ATOM     72  O   UNL A   1      34.867  21.573  26.875  1.00  0.00    -0.269 OA
BRANCH  71  73
ATOM     73  C   UNL A   1      34.331  20.586  24.843  1.00  0.00     0.059 A 
ATOM     74  C   UNL A   1      34.505  19.199  24.747  1.00  0.00     0.031 A 
ATOM     75  C   UNL A   1      33.273  21.221  24.181  1.00  0.00     0.053 A 
ATOM     76  C   UNL A   1      33.587  18.449  24.014  1.00  0.00     0.018 A 
ATOM     77  C   UNL A   1      32.361  20.455  23.454  1.00  0.00     0.022 A 
ATOM     78  Cl  UNL A   1      33.028  22.929  24.261  1.00  0.00    -0.083 Cl
ATOM     79  Br  UNL A   1      33.784  16.574  23.897  1.00  0.00    -0.051 Br
ATOM     80  C   UNL A   1      32.511  19.068  23.377  1.00  0.00     0.017 A 
ENDBRANCH  71  73
ENDBRANCH  69  71
ENDBRANCH  63  65
ENDBRANCH  62  63
ENDBRANCH  61  62
ENDBRANCH   1  61
TORSDOF 13
ENDMDL
MODEL 2
REMARK VINA RESULT:     -11.6      4.619      9.121
REMARK SMILES O=C(OCCOC(=O)[C@H]1CCCN(C(=O)c2cc(Br)ccc2Cl)C1)c1ccc(-c2c3nc(c(-c4c(F)cccc4F)c4ccc([nH]4)c(-c4c(F)cccc4F)c4nc(c(-c5c(F)cccc5F)c5ccc2[nH]5)C=C4)C=C3)cc1
REMARK SMILES IDX 4 1 3 2 2 3 1 4 25 5 26 6 78 7 27 8 77 9 28 10 29 11 30 12
REMARK SMILES IDX 71 13 31 14 76 15 70 16 72 17 32 18 75 19 69 20 68 21 33 23
REMARK SMILES IDX 59 24 42 25 58 26 43 27 46 28 57 29 73 30 44 31 45 32 56 34
REMARK SMILES IDX 74 35 47 36 34 37 35 38 40 39 36 40 37 41 39 42 41 43 38 44
REMARK SMILES IDX 60 45 61 46 66 47 62 48 63 49 65 50 67 51 64 52 48 53 49 54
REMARK SMILES IDX 54 55 50 56 51 57 53 58 55 59 52 60 5 61 6 62 7 63 8 64 9 65
REMARK SMILES IDX 10 66 24 67 11 68 13 69 12 70 14 71 15 72 16 73 17 74 22 75
REMARK SMILES IDX 18 76 21 77 23 78 19 79 20 80
REMARK H PARENT 72 22 46 33
REMARK Flexibility Score: inf
ROOT
ATOM      1  C   UNL A   1      31.548  32.111  26.886  1.00  0.00     0.275 C 
ENDROOT
BRANCH   1   2
ATOM      2  O   UNL A   1      32.348  33.302  26.953  1.00  0.00    -0.458 OA
BRANCH   2   3
ATOM      3  C   UNL A   1      32.997  33.855  28.003  1.00  0.00     0.338 C 
ATOM      4  O   UNL A   1      32.511  34.860  28.520  1.00  0.00    -0.246 OA
BRANCH   3   5
ATOM      5  C   UNL A   1      34.342  33.409  28.502  1.00  0.00     0.060 A 
ATOM      6  C   UNL A   1      35.601  33.858  28.080  1.00  0.00     0.016 A 
ATOM      7  C   UNL A   1      34.310  32.462  29.541  1.00  0.00     0.016 A 
ATOM      8  C   UNL A   1      36.781  33.472  28.743  1.00  0.00     0.010 A 
ATOM      9  C   UNL A   1      35.475  32.100  30.221  1.00  0.00     0.010 A 
ATOM     10  C   UNL A   1      36.725  32.615  29.839  1.00  0.00    -0.014 A 
BRANCH  10  11
ATOM     11  C   UNL A   1      37.937  32.097  30.527  1.00  0.00     0.031 A 
ATOM     12  C   UNL A   1      38.626  30.928  29.887  1.00  0.00     0.074 A 
ATOM     13  C   UNL A   1      38.347  32.540  31.732  1.00  0.00     0.049 A 
ATOM     14  N   UNL A   1      39.521  30.115  30.376  1.00  0.00    -0.248 NA
ATOM     15  C   UNL A   1      38.206  30.618  28.508  1.00  0.00     0.031 C 
ATOM     16  C   UNL A   1      37.811  33.686  32.462  1.00  0.00     0.029 A 
ATOM     17  N   UNL A   1      39.280  32.013  32.597  1.00  0.00    -0.354 N 
ATOM     18  C   UNL A   1      39.780  29.212  29.357  1.00  0.00     0.074 A 
ATOM     19  C   UNL A   1      38.846  29.485  28.289  1.00  0.00     0.031 C 
ATOM     20  C   UNL A   1      38.339  33.712  33.700  1.00  0.00     0.029 A 
ATOM     21  C   UNL A   1      39.256  32.588  33.847  1.00  0.00     0.049 A 
ATOM     22  H   UNL A   1      39.902  31.293  32.345  1.00  0.00     0.167 HD
ATOM     23  C   UNL A   1      40.763  28.286  29.275  1.00  0.00     0.037 A 
ATOM     24  C   UNL A   1      39.877  32.221  34.986  1.00  0.00     0.037 A 
ATOM     25  C   UNL A   1      41.693  28.021  30.331  1.00  0.00     0.049 A 
ATOM     26  C   UNL A   1      40.837  31.063  34.959  1.00  0.00     0.074 A 
ATOM     27  C   UNL A   1      42.776  27.163  30.340  1.00  0.00     0.029 A 
ATOM     28  N   UNL A   1      41.631  28.613  31.584  1.00  0.00    -0.354 N 
ATOM     29  N   UNL A   1      41.139  30.267  33.964  1.00  0.00    -0.248 NA
ATOM     30  C   UNL A   1      41.568  30.776  36.203  1.00  0.00     0.031 C 
ATOM     31  C   UNL A   1      43.350  27.210  31.616  1.00  0.00     0.029 A 
ATOM     32  C   UNL A   1      42.645  28.126  32.384  1.00  0.00     0.049 A 
ATOM     33  H   UNL A   1      40.963  29.281  31.861  1.00  0.00     0.167 HD
ATOM     34  C   UNL A   1      42.155  29.444  34.431  1.00  0.00     0.074 A 
ATOM     35  C   UNL A   1      42.375  29.795  35.819  1.00  0.00     0.031 C 
ATOM     36  C   UNL A   1      42.872  28.515  33.753  1.00  0.00     0.037 A 
BRANCH  23  37
ATOM     37  C   UNL A   1      40.861  27.554  27.972  1.00  0.00     0.057 A 
ATOM     38  C   UNL A   1      40.257  26.297  27.800  1.00  0.00     0.134 A 
ATOM     39  C   UNL A   1      41.658  28.039  26.931  1.00  0.00     0.134 A 
ATOM     40  F   UNL A   1      39.503  25.768  28.775  1.00  0.00    -0.206 F 
ATOM     41  C   UNL A   1      40.506  25.518  26.672  1.00  0.00     0.040 A 
ATOM     42  C   UNL A   1      41.886  27.280  25.782  1.00  0.00     0.040 A 
ATOM     43  F   UNL A   1      42.261  29.232  27.031  1.00  0.00    -0.206 F 
ATOM     44  C   UNL A   1      41.326  26.008  25.660  1.00  0.00     0.006 A 
ENDBRANCH  23  37
BRANCH  24  45
ATOM     45  C   UNL A   1      39.621  32.932  36.263  1.00  0.00     0.057 A 
ATOM     46  C   UNL A   1      38.593  32.539  37.127  1.00  0.00     0.134 A 
ATOM     47  C   UNL A   1      40.347  34.080  36.601  1.00  0.00     0.134 A 
ATOM     48  F   UNL A   1      37.844  31.467  36.838  1.00  0.00    -0.206 F 
ATOM     49  C   UNL A   1      38.286  33.271  38.277  1.00  0.00     0.040 A 
ATOM     50  C   UNL A   1      40.047  34.821  37.746  1.00  0.00     0.040 A 
ATOM     51  F   UNL A   1      41.335  34.513  35.804  1.00  0.00    -0.206 F 
ATOM     52  C   UNL A   1      39.014  34.418  38.589  1.00  0.00     0.006 A 
ENDBRANCH  24  45
BRANCH  36  53
ATOM     53  C   UNL A   1      44.041  27.893  34.451  1.00  0.00     0.057 A 
ATOM     54  C   UNL A   1      45.292  28.511  34.513  1.00  0.00     0.134 A 
ATOM     55  C   UNL A   1      43.864  26.698  35.161  1.00  0.00     0.134 A 
ATOM     56  F   UNL A   1      45.526  29.645  33.835  1.00  0.00    -0.206 F 
ATOM     57  C   UNL A   1      46.330  27.965  35.269  1.00  0.00     0.040 A 
ATOM     58  C   UNL A   1      44.886  26.154  35.938  1.00  0.00     0.040 A 
ATOM     59  F   UNL A   1      42.683  26.061  35.139  1.00  0.00    -0.206 F 
ATOM     60  C   UNL A   1      46.123  26.792  35.996  1.00  0.00     0.006 A 
ENDBRANCH  36  53
ENDBRANCH  10  11
ENDBRANCH   3   5
ENDBRANCH   2   3
ENDBRANCH   1   2
BRANCH   1  61
ATOM     61  C   UNL A   1      32.329  30.819  27.145  1.00  0.00     0.274 C 
BRANCH  61  62
ATOM     62  O   UNL A   1      33.175  30.466  26.038  1.00  0.00    -0.462 OA
BRANCH  62  63
ATOM     63  C   UNL A   1      33.757  29.231  26.078  1.00  0.00     0.310 C 
ATOM     64  O   UNL A   1      34.527  28.864  26.956  1.00  0.00    -0.252 OA
BRANCH  63  65
ATOM     65  C   UNL A   1      33.324  28.340  24.913  1.00  0.00     0.119 C 
ATOM     66  C   UNL A   1      33.982  26.959  24.974  1.00  0.00     0.019 C 
ATOM     67  C   UNL A   1      31.797  28.222  24.884  1.00  0.00     0.135 C 
ATOM     68  C   UNL A   1      33.389  25.912  24.041  1.00  0.00     0.022 C 
ATOM     69  N   UNL A   1      31.358  27.169  23.961  1.00  0.00    -0.338 N 
ATOM     70  C   UNL A   1      31.892  25.845  24.249  1.00  0.00     0.120 C 
BRANCH  69  71
ATOM     71  C   UNL A   1      30.707  27.488  22.775  1.00  0.00     0.255 C 
ATOM     72  O   UNL A   1      31.035  27.073  21.668  1.00  0.00    -0.269 OA
BRANCH  71  73
ATOM     73  C   UNL A   1      29.519  28.359  22.867  1.00  0.00     0.059 A 
ATOM     74  C   UNL A   1      29.617  29.667  22.376  1.00  0.00     0.031 A 
ATOM     75  C   UNL A   1      28.301  27.868  23.353  1.00  0.00     0.053 A 
ATOM     76  C   UNL A   1      28.476  30.467  22.340  1.00  0.00     0.018 A 
ATOM     77  C   UNL A   1      27.167  28.681  23.308  1.00  0.00     0.022 A 
ATOM     78  Cl  UNL A   1      28.136  26.267  23.980  1.00  0.00    -0.083 Cl
ATOM     79  Br  UNL A   1      28.580  32.224  21.654  1.00  0.00    -0.051 Br
ATOM     80  C   UNL A   1      27.251  29.977  22.794  1.00  0.00     0.017 A 
ENDBRANCH  71  73
ENDBRANCH  69  71
ENDBRANCH  63  65
ENDBRANCH  62  63
ENDBRANCH  61  62
ENDBRANCH   1  61
TORSDOF 13
ENDMDL
MODEL 3
REMARK VINA RESULT:     -11.5      5.821     11.392
REMARK SMILES O=C(OCCOC(=O)[C@H]1CCCN(C(=O)c2cc(Br)ccc2Cl)C1)c1ccc(-c2c3nc(c(-c4c(F)cccc4F)c4ccc([nH]4)c(-c4c(F)cccc4F)c4nc(c(-c5c(F)cccc5F)c5ccc2[nH]5)C=C4)C=C3)cc1
REMARK SMILES IDX 4 1 3 2 2 3 1 4 25 5 26 6 78 7 27 8 77 9 28 10 29 11 30 12
REMARK SMILES IDX 71 13 31 14 76 15 70 16 72 17 32 18 75 19 69 20 68 21 33 23
REMARK SMILES IDX 59 24 42 25 58 26 43 27 46 28 57 29 73 30 44 31 45 32 56 34
REMARK SMILES IDX 74 35 47 36 34 37 35 38 40 39 36 40 37 41 39 42 41 43 38 44
REMARK SMILES IDX 60 45 61 46 66 47 62 48 63 49 65 50 67 51 64 52 48 53 49 54
REMARK SMILES IDX 54 55 50 56 51 57 53 58 55 59 52 60 5 61 6 62 7 63 8 64 9 65
REMARK SMILES IDX 10 66 24 67 11 68 13 69 12 70 14 71 15 72 16 73 17 74 22 75
REMARK SMILES IDX 18 76 21 77 23 78 19 79 20 80
REMARK H PARENT 72 22 46 33
REMARK Flexibility Score: inf
ROOT
ATOM      1  C   UNL A   1      34.659  33.231  27.954  1.00  0.00     0.275 C 
ENDROOT
BRANCH   1   2
ATOM      2  O   UNL A   1      34.210  31.881  28.156  1.00  0.00    -0.458 OA
BRANCH   2   3
ATOM      3  C   UNL A   1      34.790  30.710  27.804  1.00  0.00     0.338 C 
ATOM      4  O   UNL A   1      34.163  29.954  27.063  1.00  0.00    -0.246 OA
BRANCH   3   5
ATOM      5  C   UNL A   1      36.091  30.204  28.359  1.00  0.00     0.060 A 
ATOM      6  C   UNL A   1      36.321  29.648  29.624  1.00  0.00     0.016 A 
ATOM      7  C   UNL A   1      37.182  30.268  27.474  1.00  0.00     0.016 A 
ATOM      8  C   UNL A   1      37.558  29.067  29.961  1.00  0.00     0.010 A 
ATOM      9  C   UNL A   1      38.402  29.666  27.792  1.00  0.00     0.010 A 
ATOM     10  C   UNL A   1      38.598  29.042  29.036  1.00  0.00    -0.014 A 
BRANCH  10  11
ATOM     11  C   UNL A   1      39.956  28.527  29.354  1.00  0.00     0.031 A 
ATOM     12  C   UNL A   1      40.939  29.517  29.906  1.00  0.00     0.074 A 
ATOM     13  C   UNL A   1      40.360  27.276  29.054  1.00  0.00     0.049 A 
ATOM     14  N   UNL A   1      42.235  29.430  30.025  1.00  0.00    -0.248 NA
ATOM     15  C   UNL A   1      40.369  30.804  30.344  1.00  0.00     0.031 C 
ATOM     16  C   UNL A   1      39.519  26.191  28.555  1.00  0.00     0.029 A 
ATOM     17  N   UNL A   1      41.624  26.731  29.059  1.00  0.00    -0.354 N 
ATOM     18  C   UNL A   1      42.627  30.644  30.569  1.00  0.00     0.074 A 
ATOM     19  C   UNL A   1      41.460  31.495  30.613  1.00  0.00     0.031 C 
ATOM     20  C   UNL A   1      40.298  25.153  28.198  1.00  0.00     0.029 A 
ATOM     21  C   UNL A   1      41.693  25.499  28.450  1.00  0.00     0.049 A 
ATOM     22  H   UNL A   1      42.404  27.181  29.457  1.00  0.00     0.167 HD
ATOM     23  C   UNL A   1      43.834  30.998  31.068  1.00  0.00     0.037 A 
ATOM     24  C   UNL A   1      42.763  24.756  28.105  1.00  0.00     0.037 A 
ATOM     25  C   UNL A   1      44.987  30.151  31.031  1.00  0.00     0.049 A 
ATOM     26  C   UNL A   1      44.139  25.231  28.485  1.00  0.00     0.074 A 
ATOM     27  C   UNL A   1      46.242  30.367  31.569  1.00  0.00     0.029 A 
ATOM     28  N   UNL A   1      45.021  28.917  30.398  1.00  0.00    -0.354 N 
ATOM     29  N   UNL A   1      44.492  26.345  29.077  1.00  0.00    -0.248 NA
ATOM     30  C   UNL A   1      45.262  24.330  28.181  1.00  0.00     0.031 C 
ATOM     31  C   UNL A   1      47.048  29.274  31.229  1.00  0.00     0.029 A 
ATOM     32  C   UNL A   1      46.282  28.365  30.513  1.00  0.00     0.049 A 
ATOM     33  H   UNL A   1      44.260  28.498  29.936  1.00  0.00     0.167 HD
ATOM     34  C   UNL A   1      45.859  26.242  29.297  1.00  0.00     0.074 A 
ATOM     35  C   UNL A   1      46.284  24.984  28.718  1.00  0.00     0.031 C 
ATOM     36  C   UNL A   1      46.677  27.093  29.962  1.00  0.00     0.037 A 
BRANCH  23  37
ATOM     37  C   UNL A   1      43.899  32.347  31.717  1.00  0.00     0.057 A 
ATOM     38  C   UNL A   1      43.520  32.523  33.059  1.00  0.00     0.134 A 
ATOM     39  C   UNL A   1      44.218  33.488  30.977  1.00  0.00     0.134 A 
ATOM     40  F   UNL A   1      43.177  31.467  33.812  1.00  0.00    -0.206 F 
ATOM     41  C   UNL A   1      43.382  33.793  33.615  1.00  0.00     0.040 A 
ATOM     42  C   UNL A   1      44.116  34.763  31.536  1.00  0.00     0.040 A 
ATOM     43  F   UNL A   1      44.589  33.388  29.693  1.00  0.00    -0.206 F 
ATOM     44  C   UNL A   1      43.678  34.919  32.851  1.00  0.00     0.006 A 
ENDBRANCH  23  37
BRANCH  24  45
ATOM     45  C   UNL A   1      42.607  23.489  27.350  1.00  0.00     0.057 A 
ATOM     46  C   UNL A   1      42.331  22.279  27.997  1.00  0.00     0.134 A 
ATOM     47  C   UNL A   1      42.822  23.449  25.968  1.00  0.00     0.134 A 
ATOM     48  F   UNL A   1      42.149  22.252  29.324  1.00  0.00    -0.206 F 
ATOM     49  C   UNL A   1      42.287  21.070  27.298  1.00  0.00     0.040 A 
ATOM     50  C   UNL A   1      42.783  22.246  25.259  1.00  0.00     0.040 A 
ATOM     51  F   UNL A   1      43.104  24.574  25.296  1.00  0.00    -0.206 F 
ATOM     52  C   UNL A   1      42.515  21.051  25.923  1.00  0.00     0.006 A 
ENDBRANCH  24  45
BRANCH  36  53
ATOM     53  C   UNL A   1      48.084  26.652  30.213  1.00  0.00     0.057 A 
ATOM     54  C   UNL A   1      49.149  27.043  29.399  1.00  0.00     0.134 A 
ATOM     55  C   UNL A   1      48.378  25.903  31.362  1.00  0.00     0.134 A 
ATOM     56  F   UNL A   1      48.926  27.742  28.275  1.00  0.00    -0.206 F 
ATOM     57  C   UNL A   1      50.466  26.714  29.724  1.00  0.00     0.040 A 
ATOM     58  C   UNL A   1      49.690  25.587  31.709  1.00  0.00     0.040 A 
ATOM     59  F   UNL A   1      47.395  25.501  32.182  1.00  0.00    -0.206 F 
ATOM     60  C   UNL A   1      50.739  25.998  30.890  1.00  0.00     0.006 A 
ENDBRANCH  36  53
ENDBRANCH  10  11
ENDBRANCH   3   5
ENDBRANCH   2   3
ENDBRANCH   1   2
BRANCH   1  61
ATOM     61  C   UNL A   1      33.579  34.290  28.190  1.00  0.00     0.274 C 
BRANCH  61  62
ATOM     62  O   UNL A   1      33.055  34.241  29.528  1.00  0.00    -0.462 OA
BRANCH  62  63
ATOM     63  C   UNL A   1      33.405  35.263  30.364  1.00  0.00     0.310 C 
ATOM     64  O   UNL A   1      32.924  36.387  30.311  1.00  0.00    -0.252 OA
BRANCH  63  65
ATOM     65  C   UNL A   1      34.451  34.844  31.398  1.00  0.00     0.119 C 
ATOM     66  C   UNL A   1      34.349  35.671  32.682  1.00  0.00     0.019 C 
ATOM     67  C   UNL A   1      34.324  33.346  31.694  1.00  0.00     0.135 C 
ATOM     68  C   UNL A   1      35.138  35.133  33.868  1.00  0.00     0.022 C 
ATOM     69  N   UNL A   1      35.118  32.962  32.867  1.00  0.00    -0.338 N 
ATOM     70  C   UNL A   1      34.783  33.679  34.090  1.00  0.00     0.120 C 
BRANCH  69  71
ATOM     71  C   UNL A   1      36.257  32.177  32.729  1.00  0.00     0.255 C 
ATOM     72  O   UNL A   1      36.257  30.950  32.702  1.00  0.00    -0.269 OA
BRANCH  71  73
ATOM     73  C   UNL A   1      37.547  32.876  32.569  1.00  0.00     0.059 A 
ATOM     74  C   UNL A   1      37.882  33.364  31.300  1.00  0.00     0.031 A 
ATOM     75  C   UNL A   1      38.377  33.120  33.670  1.00  0.00     0.053 A 
ATOM     76  C   UNL A   1      39.035  34.132  31.149  1.00  0.00     0.018 A 
ATOM     77  C   UNL A   1      39.527  33.894  33.504  1.00  0.00     0.022 A 
ATOM     78  Cl  UNL A   1      38.011  32.527  35.250  1.00  0.00    -0.083 Cl
ATOM     79  Br  UNL A   1      39.490  34.826  29.452  1.00  0.00    -0.051 Br
ATOM     80  C   UNL A   1      39.853  34.408  32.246  1.00  0.00     0.017 A 
ENDBRANCH  71  73
ENDBRANCH  69  71
ENDBRANCH  63  65
ENDBRANCH  62  63
ENDBRANCH  61  62
ENDBRANCH   1  61
TORSDOF 13
ENDMDL
