MODEL 1
REMARK VINA RESULT:     -12.0      0.000      0.000
REMARK SMILES COc1ccc(CCN2C(=O)C[C@@H](C(=O)OCCOC(=O)c3ccc(-c4c5nc(c(-c6c(F)cccc6F)c6ccc([nH]6)c(-c6c(F)cccc6F)c6nc(c(-c7c(F)cccc7F)c7ccc4[nH]7)C=C6)C=C5)cc3)S/C2=[NH+]\c2ccc(F)cc2)cc1OC
REMARK SMILES IDX 17 1 16 2 14 3 15 4 13 5 9 6 10 7 77 8 11 9 12 10 76 11
REMARK SMILES IDX 78 12 8 14 7 15 6 16 3 17 4 18 87 19 5 20 86 21 2 22 1 23
REMARK SMILES IDX 88 24 89 25 79 26 80 27 85 28 81 29 84 30 82 31 83 32 18 33
REMARK SMILES IDX 19 34 20 35 21 36 22 37 23 38 75 39 24 40 74 41 25 42 26 43
REMARK SMILES IDX 27 44 68 45 28 46 73 47 67 48 69 49 29 50 72 51 66 52 65 53
REMARK SMILES IDX 30 55 56 56 39 57 55 58 40 59 43 60 54 61 70 62 41 63 42 64
REMARK SMILES IDX 53 66 71 67 44 68 31 69 32 70 37 71 33 72 34 73 36 74 38 75
REMARK SMILES IDX 35 76 57 77 58 78 63 79 59 80 60 81 62 82 64 83 61 84 45 85
REMARK SMILES IDX 46 86 51 87 47 88 48 89 50 90 52 91 49 92
REMARK H PARENT 78 13 69 54 43 65
REMARK Flexibility Score: inf
ROOT
ATOM      1  C   UNL A   1      31.749  31.829  26.873  1.00  0.00     0.274 C 
ENDROOT
BRANCH   1   2
ATOM      2  O   UNL A   1      32.923  31.082  26.507  1.00  0.00    -0.461 OA
BRANCH   2   3
ATOM      3  C   UNL A   1      32.945  29.767  26.859  1.00  0.00     0.320 C 
ATOM      4  O   UNL A   1      33.772  29.257  27.607  1.00  0.00    -0.251 OA
BRANCH   3   5
ATOM      5  C   UNL A   1      31.812  28.975  26.228  1.00  0.00     0.180 C 
ATOM      6  N   UNL A   1      30.584  26.880  24.584  1.00  0.00    -0.191 N 
ATOM      7  C   UNL A   1      30.868  26.635  25.929  1.00  0.00     0.311 C 
ATOM      8  C   UNL A   1      30.458  28.168  24.097  1.00  0.00     0.319 C 
ATOM      9  O   UNL A   1      30.397  25.672  26.540  1.00  0.00    -0.247 OA
ATOM     10  C   UNL A   1      31.863  27.531  26.636  1.00  0.00     0.155 C 
ATOM     11  S   UNL A   1      31.874  29.105  24.430  1.00  0.00    -0.022 SA
ATOM     12  N   UNL A   1      29.397  28.565  23.470  1.00  0.00    -0.235 N 
ATOM     13  H   UNL A   1      28.652  27.922  23.436  1.00  0.00     0.313 HD
BRANCH   6  14
ATOM     14  C   UNL A   1      30.342  25.663  23.790  1.00  0.00     0.251 C 
BRANCH  14  15
ATOM     15  C   UNL A   1      31.444  24.929  23.008  1.00  0.00     0.082 C 
BRANCH  15  16
ATOM     16  C   UNL A   1      32.548  24.255  23.794  1.00  0.00    -0.040 A 
ATOM     17  C   UNL A   1      34.748  23.114  25.189  1.00  0.00     0.160 A 
ATOM     18  C   UNL A   1      34.745  24.456  24.839  1.00  0.00     0.051 A 
ATOM     19  C   UNL A   1      33.648  22.321  24.816  1.00  0.00     0.160 A 
ATOM     20  C   UNL A   1      33.695  24.976  24.093  1.00  0.00     0.008 A 
ATOM     21  C   UNL A   1      32.534  22.907  24.168  1.00  0.00     0.054 A 
BRANCH  17  22
ATOM     22  O   UNL A   1      35.780  22.561  25.899  1.00  0.00    -0.493 OA
ATOM     23  C   UNL A   1      37.087  22.811  25.381  1.00  0.00     0.278 C 
ENDBRANCH  17  22
BRANCH  19  24
ATOM     24  O   UNL A   1      33.535  20.965  25.006  1.00  0.00    -0.493 OA
ATOM     25  C   UNL A   1      32.548  20.313  24.204  1.00  0.00     0.278 C 
ENDBRANCH  19  24
ENDBRANCH  15  16
ENDBRANCH  14  15
ENDBRANCH   6  14
BRANCH  12  26
ATOM     26  C   UNL A   1      29.172  29.811  22.823  1.00  0.00     0.125 A 
ATOM     27  C   UNL A   1      28.888  30.910  23.650  1.00  0.00     0.055 A 
ATOM     28  C   UNL A   1      28.959  29.990  21.443  1.00  0.00     0.055 A 
ATOM     29  C   UNL A   1      28.386  32.114  23.130  1.00  0.00     0.043 A 
ATOM     30  C   UNL A   1      28.468  31.191  20.914  1.00  0.00     0.043 A 
ATOM     31  C   UNL A   1      28.170  32.238  21.766  1.00  0.00     0.123 A 
ATOM     32  F   UNL A   1      27.639  33.363  21.271  1.00  0.00    -0.207 F 
ENDBRANCH  12  26
ENDBRANCH   3   5
ENDBRANCH   2   3
ENDBRANCH   1   2
BRANCH   1  33
ATOM     33  C   UNL A   1      32.073  33.325  26.826  1.00  0.00     0.275 C 
BRANCH  33  34
ATOM     34  O   UNL A   1      32.276  33.813  28.168  1.00  0.00    -0.458 OA
BRANCH  34  35
ATOM     35  C   UNL A   1      33.352  34.612  28.358  1.00  0.00     0.338 C 
ATOM     36  O   UNL A   1      33.443  35.811  28.171  1.00  0.00    -0.246 OA
BRANCH  35  37
ATOM     37  C   UNL A   1      34.461  33.780  28.849  1.00  0.00     0.060 A 
ATOM     38  C   UNL A   1      34.193  32.536  29.423  1.00  0.00     0.016 A 
ATOM     39  C   UNL A   1      35.766  34.268  28.797  1.00  0.00     0.016 A 
ATOM     40  C   UNL A   1      35.227  31.770  29.954  1.00  0.00     0.010 A 
ATOM     41  C   UNL A   1      36.807  33.491  29.310  1.00  0.00     0.010 A 
ATOM     42  C   UNL A   1      36.543  32.243  29.902  1.00  0.00    -0.014 A 
BRANCH  42  43
ATOM     43  C   UNL A   1      37.639  31.461  30.521  1.00  0.00     0.031 A 
ATOM     44  C   UNL A   1      37.979  31.677  31.966  1.00  0.00     0.074 A 
ATOM     45  C   UNL A   1      38.324  30.562  29.790  1.00  0.00     0.049 A 
ATOM     46  N   UNL A   1      38.970  31.185  32.664  1.00  0.00    -0.248 NA
ATOM     47  C   UNL A   1      37.086  32.566  32.725  1.00  0.00     0.031 C 
ATOM     48  C   UNL A   1      38.058  30.231  28.391  1.00  0.00     0.029 A 
ATOM     49  N   UNL A   1      39.391  29.769  30.127  1.00  0.00    -0.354 N 
ATOM     50  C   UNL A   1      38.839  31.726  33.936  1.00  0.00     0.074 A 
ATOM     51  C   UNL A   1      37.678  32.591  33.910  1.00  0.00     0.031 C 
ATOM     52  C   UNL A   1      38.941  29.302  27.987  1.00  0.00     0.029 A 
ATOM     53  C   UNL A   1      39.861  29.010  29.084  1.00  0.00     0.049 A 
ATOM     54  H   UNL A   1      39.783  29.746  31.030  1.00  0.00     0.167 HD
ATOM     55  C   UNL A   1      39.617  31.518  35.025  1.00  0.00     0.037 A 
ATOM     56  C   UNL A   1      40.930  28.194  29.012  1.00  0.00     0.037 A 
ATOM     57  C   UNL A   1      40.758  30.642  35.053  1.00  0.00     0.049 A 
ATOM     58  C   UNL A   1      41.806  28.018  30.221  1.00  0.00     0.074 A 
ATOM     59  C   UNL A   1      41.600  30.354  36.114  1.00  0.00     0.029 A 
ATOM     60  N   UNL A   1      41.215  29.906  33.970  1.00  0.00    -0.354 N 
ATOM     61  N   UNL A   1      41.682  28.545  31.415  1.00  0.00    -0.248 NA
ATOM     62  C   UNL A   1      42.975  27.140  30.070  1.00  0.00     0.031 C 
ATOM     63  C   UNL A   1      42.587  29.469  35.663  1.00  0.00     0.029 A 
ATOM     64  C   UNL A   1      42.337  29.177  34.332  1.00  0.00     0.049 A 
ATOM     65  H   UNL A   1      40.804  29.903  33.075  1.00  0.00     0.167 HD
ATOM     66  C   UNL A   1      42.743  28.049  32.162  1.00  0.00     0.074 A 
ATOM     67  C   UNL A   1      43.493  27.168  31.290  1.00  0.00     0.031 C 
ATOM     68  C   UNL A   1      43.068  28.302  33.453  1.00  0.00     0.037 A 
BRANCH  55  69
ATOM     69  C   UNL A   1      39.273  32.278  36.270  1.00  0.00     0.057 A 
ATOM     70  C   UNL A   1      39.848  33.520  36.563  1.00  0.00     0.134 A 
ATOM     71  C   UNL A   1      38.331  31.769  37.174  1.00  0.00     0.134 A 
ATOM     72  F   UNL A   1      40.767  34.054  35.745  1.00  0.00    -0.206 F 
ATOM     73  C   UNL A   1      39.512  34.222  37.722  1.00  0.00     0.040 A 
ATOM     74  C   UNL A   1      37.971  32.471  38.324  1.00  0.00     0.040 A 
ATOM     75  F   UNL A   1      37.741  30.585  36.948  1.00  0.00    -0.206 F 
ATOM     76  C   UNL A   1      38.566  33.700  38.604  1.00  0.00     0.006 A 
ENDBRANCH  55  69
BRANCH  56  77
ATOM     77  C   UNL A   1      41.247  27.497  27.741  1.00  0.00     0.057 A 
ATOM     78  C   UNL A   1      42.006  28.120  26.744  1.00  0.00     0.134 A 
ATOM     79  C   UNL A   1      40.791  26.197  27.489  1.00  0.00     0.134 A 
ATOM     80  F   UNL A   1      42.448  29.374  26.919  1.00  0.00    -0.206 F 
ATOM     81  C   UNL A   1      42.291  27.481  25.537  1.00  0.00     0.040 A 
ATOM     82  C   UNL A   1      41.089  25.537  26.296  1.00  0.00     0.040 A 
ATOM     83  F   UNL A   1      40.059  25.547  28.405  1.00  0.00    -0.206 F 
ATOM     84  C   UNL A   1      41.837  26.183  25.313  1.00  0.00     0.006 A 
ENDBRANCH  56  77
BRANCH  68  85
ATOM     85  C   UNL A   1      44.269  27.595  34.006  1.00  0.00     0.057 A 
ATOM     86  C   UNL A   1      44.175  26.319  34.575  1.00  0.00     0.134 A 
ATOM     87  C   UNL A   1      45.538  28.184  33.938  1.00  0.00     0.134 A 
ATOM     88  F   UNL A   1      42.985  25.708  34.681  1.00  0.00    -0.206 F 
ATOM     89  C   UNL A   1      45.299  25.661  35.074  1.00  0.00     0.040 A 
ATOM     90  C   UNL A   1      46.672  27.526  34.415  1.00  0.00     0.040 A 
ATOM     91  F   UNL A   1      45.695  29.402  33.400  1.00  0.00    -0.206 F 
ATOM     92  C   UNL A   1      46.553  26.262  34.989  1.00  0.00     0.006 A 
ENDBRANCH  68  85
ENDBRANCH  42  43
ENDBRANCH  35  37
ENDBRANCH  34  35
ENDBRANCH  33  34
ENDBRANCH   1  33
TORSDOF 17
ENDMDL
MODEL 2
REMARK VINA RESULT:     -12.0      0.819      6.073
REMARK SMILES COc1ccc(CCN2C(=O)C[C@@H](C(=O)OCCOC(=O)c3ccc(-c4c5nc(c(-c6c(F)cccc6F)c6ccc([nH]6)c(-c6c(F)cccc6F)c6nc(c(-c7c(F)cccc7F)c7ccc4[nH]7)C=C6)C=C5)cc3)S/C2=[NH+]\c2ccc(F)cc2)cc1OC
REMARK SMILES IDX 17 1 16 2 14 3 15 4 13 5 9 6 10 7 77 8 11 9 12 10 76 11
REMARK SMILES IDX 78 12 8 14 7 15 6 16 3 17 4 18 87 19 5 20 86 21 2 22 1 23
REMARK SMILES IDX 88 24 89 25 79 26 80 27 85 28 81 29 84 30 82 31 83 32 18 33
REMARK SMILES IDX 19 34 20 35 21 36 22 37 23 38 75 39 24 40 74 41 25 42 26 43
REMARK SMILES IDX 27 44 68 45 28 46 73 47 67 48 69 49 29 50 72 51 66 52 65 53
REMARK SMILES IDX 30 55 56 56 39 57 55 58 40 59 43 60 54 61 70 62 41 63 42 64
REMARK SMILES IDX 53 66 71 67 44 68 31 69 32 70 37 71 33 72 34 73 36 74 38 75
REMARK SMILES IDX 35 76 57 77 58 78 63 79 59 80 60 81 62 82 64 83 61 84 45 85
REMARK SMILES IDX 46 86 51 87 47 88 48 89 50 90 52 91 49 92
REMARK H PARENT 78 13 69 54 43 65
REMARK Flexibility Score: inf
ROOT
ATOM      1  C   UNL A   1      31.827  31.421  26.904  1.00  0.00     0.274 C 
ENDROOT
BRANCH   1   2
ATOM      2  O   UNL A   1      33.203  31.006  26.830  1.00  0.00    -0.461 OA
BRANCH   2   3
ATOM      3  C   UNL A   1      33.440  29.666  26.842  1.00  0.00     0.320 C 
ATOM      4  O   UNL A   1      34.459  29.139  27.274  1.00  0.00    -0.251 OA
BRANCH   3   5
ATOM      5  C   UNL A   1      32.284  28.864  26.266  1.00  0.00     0.180 C 
ATOM      6  N   UNL A   1      30.997  26.765  24.673  1.00  0.00    -0.191 N 
ATOM      7  C   UNL A   1      31.354  26.515  26.000  1.00  0.00     0.311 C 
ATOM      8  C   UNL A   1      30.830  28.055  24.203  1.00  0.00     0.319 C 
ATOM      9  O   UNL A   1      30.926  25.543  26.628  1.00  0.00    -0.247 OA
ATOM     10  C   UNL A   1      32.374  27.418  26.660  1.00  0.00     0.155 C 
ATOM     11  S   UNL A   1      32.251  29.006  24.468  1.00  0.00    -0.022 SA
ATOM     12  N   UNL A   1      29.734  28.442  23.635  1.00  0.00    -0.235 N 
ATOM     13  H   UNL A   1      28.995  27.791  23.635  1.00  0.00     0.313 HD
BRANCH   6  14
ATOM     14  C   UNL A   1      30.729  25.550  23.885  1.00  0.00     0.251 C 
BRANCH  14  15
ATOM     15  C   UNL A   1      31.800  24.827  23.051  1.00  0.00     0.082 C 
BRANCH  15  16
ATOM     16  C   UNL A   1      32.394  23.551  23.609  1.00  0.00    -0.040 A 
ATOM     17  C   UNL A   1      33.349  21.061  24.595  1.00  0.00     0.160 A 
ATOM     18  C   UNL A   1      32.515  21.116  23.489  1.00  0.00     0.051 A 
ATOM     19  C   UNL A   1      33.693  22.264  25.236  1.00  0.00     0.160 A 
ATOM     20  C   UNL A   1      31.999  22.335  23.068  1.00  0.00     0.008 A 
ATOM     21  C   UNL A   1      33.257  23.503  24.708  1.00  0.00     0.054 A 
BRANCH  17  22
ATOM     22  O   UNL A   1      33.853  19.873  25.055  1.00  0.00    -0.493 OA
ATOM     23  C   UNL A   1      33.475  18.715  24.310  1.00  0.00     0.278 C 
ENDBRANCH  17  22
BRANCH  19  24
ATOM     24  O   UNL A   1      34.433  22.377  26.389  1.00  0.00    -0.493 OA
ATOM     25  C   UNL A   1      33.677  22.447  27.599  1.00  0.00     0.278 C 
ENDBRANCH  19  24
ENDBRANCH  15  16
ENDBRANCH  14  15
ENDBRANCH   6  14
BRANCH  12  26
ATOM     26  C   UNL A   1      29.461  29.690  23.009  1.00  0.00     0.125 A 
ATOM     27  C   UNL A   1      29.093  30.752  23.852  1.00  0.00     0.055 A 
ATOM     28  C   UNL A   1      29.278  29.890  21.628  1.00  0.00     0.055 A 
ATOM     29  C   UNL A   1      28.543  31.939  23.344  1.00  0.00     0.043 A 
ATOM     30  C   UNL A   1      28.739  31.075  21.110  1.00  0.00     0.043 A 
ATOM     31  C   UNL A   1      28.360  32.084  21.977  1.00  0.00     0.123 A 
ATOM     32  F   UNL A   1      27.783  33.191  21.491  1.00  0.00    -0.207 F 
ENDBRANCH  12  26
ENDBRANCH   3   5
ENDBRANCH   2   3
ENDBRANCH   1   2
BRANCH   1  33
ATOM     33  C   UNL A   1      31.762  32.950  26.866  1.00  0.00     0.275 C 
BRANCH  33  34
ATOM     34  O   UNL A   1      33.073  33.491  27.129  1.00  0.00    -0.458 OA
BRANCH  34  35
ATOM     35  C   UNL A   1      33.211  34.194  28.278  1.00  0.00     0.338 C 
ATOM     36  O   UNL A   1      32.530  35.116  28.684  1.00  0.00    -0.246 OA
BRANCH  35  37
ATOM     37  C   UNL A   1      34.369  33.655  29.009  1.00  0.00     0.060 A 
ATOM     38  C   UNL A   1      35.626  34.238  28.844  1.00  0.00     0.016 A 
ATOM     39  C   UNL A   1      34.213  32.525  29.810  1.00  0.00     0.016 A 
ATOM     40  C   UNL A   1      36.741  33.693  29.475  1.00  0.00     0.010 A 
ATOM     41  C   UNL A   1      35.328  31.991  30.462  1.00  0.00     0.010 A 
ATOM     42  C   UNL A   1      36.600  32.564  30.289  1.00  0.00    -0.014 A 
BRANCH  42  43
ATOM     43  C   UNL A   1      37.792  31.944  30.913  1.00  0.00     0.031 A 
ATOM     44  C   UNL A   1      38.565  30.901  30.160  1.00  0.00     0.074 A 
ATOM     45  C   UNL A   1      38.179  32.315  32.147  1.00  0.00     0.049 A 
ATOM     46  N   UNL A   1      39.560  30.156  30.568  1.00  0.00    -0.248 NA
ATOM     47  C   UNL A   1      38.162  30.665  28.766  1.00  0.00     0.031 C 
ATOM     48  C   UNL A   1      37.536  33.348  32.960  1.00  0.00     0.029 A 
ATOM     49  N   UNL A   1      39.203  31.856  32.935  1.00  0.00    -0.354 N 
ATOM     50  C   UNL A   1      39.885  29.342  29.491  1.00  0.00     0.074 A 
ATOM     51  C   UNL A   1      38.974  29.678  28.416  1.00  0.00     0.031 C 
ATOM     52  C   UNL A   1      38.183  33.443  34.135  1.00  0.00     0.029 A 
ATOM     53  C   UNL A   1      39.251  32.447  34.173  1.00  0.00     0.049 A 
ATOM     54  H   UNL A   1      39.843  31.167  32.641  1.00  0.00     0.167 HD
ATOM     55  C   UNL A   1      40.856  28.401  29.408  1.00  0.00     0.037 A 
ATOM     56  C   UNL A   1      40.047  32.194  35.229  1.00  0.00     0.037 A 
ATOM     57  C   UNL A   1      41.773  28.084  30.471  1.00  0.00     0.049 A 
ATOM     58  C   UNL A   1      41.084  31.112  35.129  1.00  0.00     0.074 A 
ATOM     59  C   UNL A   1      42.800  27.157  30.477  1.00  0.00     0.029 A 
ATOM     60  N   UNL A   1      41.775  28.691  31.718  1.00  0.00    -0.354 N 
ATOM     61  N   UNL A   1      41.375  30.337  34.112  1.00  0.00    -0.248 NA
ATOM     62  C   UNL A   1      41.900  30.861  36.326  1.00  0.00     0.031 C 
ATOM     63  C   UNL A   1      43.404  27.179  31.740  1.00  0.00     0.029 A 
ATOM     64  C   UNL A   1      42.777  28.147  32.507  1.00  0.00     0.049 A 
ATOM     65  H   UNL A   1      41.157  29.403  32.002  1.00  0.00     0.167 HD
ATOM     66  C   UNL A   1      42.416  29.523  34.537  1.00  0.00     0.074 A 
ATOM     67  C   UNL A   1      42.716  29.906  35.902  1.00  0.00     0.031 C 
ATOM     68  C   UNL A   1      43.064  28.544  33.861  1.00  0.00     0.037 A 
BRANCH  55  69
ATOM     69  C   UNL A   1      40.954  27.627  28.129  1.00  0.00     0.057 A 
ATOM     70  C   UNL A   1      41.762  28.049  27.067  1.00  0.00     0.134 A 
ATOM     71  C   UNL A   1      40.248  26.427  27.970  1.00  0.00     0.134 A 
ATOM     72  F   UNL A   1      42.451  29.197  27.152  1.00  0.00    -0.206 F 
ATOM     73  C   UNL A   1      41.852  27.315  25.884  1.00  0.00     0.040 A 
ATOM     74  C   UNL A   1      40.347  25.673  26.800  1.00  0.00     0.040 A 
ATOM     75  F   UNL A   1      39.459  25.966  28.951  1.00  0.00    -0.206 F 
ATOM     76  C   UNL A   1      41.148  26.119  25.750  1.00  0.00     0.006 A 
ENDBRANCH  55  69
BRANCH  56  77
ATOM     77  C   UNL A   1      39.879  32.965  36.486  1.00  0.00     0.057 A 
ATOM     78  C   UNL A   1      38.920  32.600  37.437  1.00  0.00     0.134 A 
ATOM     79  C   UNL A   1      40.666  34.090  36.761  1.00  0.00     0.134 A 
ATOM     80  F   UNL A   1      38.120  31.547  37.216  1.00  0.00    -0.206 F 
ATOM     81  C   UNL A   1      38.740  33.332  38.611  1.00  0.00     0.040 A 
ATOM     82  C   UNL A   1      40.513  34.818  37.942  1.00  0.00     0.040 A 
ATOM     83  F   UNL A   1      41.602  34.492  35.889  1.00  0.00    -0.206 F 
ATOM     84  C   UNL A   1      39.543  34.441  38.869  1.00  0.00     0.006 A 
ENDBRANCH  56  77
BRANCH  68  85
ATOM     85  C   UNL A   1      44.180  27.842  34.576  1.00  0.00     0.057 A 
ATOM     86  C   UNL A   1      45.490  28.334  34.558  1.00  0.00     0.134 A 
ATOM     87  C   UNL A   1      43.932  26.680  35.318  1.00  0.00     0.134 A 
ATOM     88  F   UNL A   1      45.794  29.435  33.855  1.00  0.00    -0.206 F 
ATOM     89  C   UNL A   1      46.520  27.684  35.240  1.00  0.00     0.040 A 
ATOM     90  C   UNL A   1      44.950  26.033  36.020  1.00  0.00     0.040 A 
ATOM     91  F   UNL A   1      42.696  26.162  35.379  1.00  0.00    -0.206 F 
ATOM     92  C   UNL A   1      46.249  26.533  35.978  1.00  0.00     0.006 A 
ENDBRANCH  68  85
ENDBRANCH  42  43
ENDBRANCH  35  37
ENDBRANCH  34  35
ENDBRANCH  33  34
ENDBRANCH   1  33
TORSDOF 17
ENDMDL
MODEL 3
REMARK VINA RESULT:     -11.6      4.143      6.251
REMARK SMILES COc1ccc(CCN2C(=O)C[C@@H](C(=O)OCCOC(=O)c3ccc(-c4c5nc(c(-c6c(F)cccc6F)c6ccc([nH]6)c(-c6c(F)cccc6F)c6nc(c(-c7c(F)cccc7F)c7ccc4[nH]7)C=C6)C=C5)cc3)S/C2=[NH+]\c2ccc(F)cc2)cc1OC
REMARK SMILES IDX 17 1 16 2 14 3 15 4 13 5 9 6 10 7 77 8 11 9 12 10 76 11
REMARK SMILES IDX 78 12 8 14 7 15 6 16 3 17 4 18 87 19 5 20 86 21 2 22 1 23
REMARK SMILES IDX 88 24 89 25 79 26 80 27 85 28 81 29 84 30 82 31 83 32 18 33
REMARK SMILES IDX 19 34 20 35 21 36 22 37 23 38 75 39 24 40 74 41 25 42 26 43
REMARK SMILES IDX 27 44 68 45 28 46 73 47 67 48 69 49 29 50 72 51 66 52 65 53
REMARK SMILES IDX 30 55 56 56 39 57 55 58 40 59 43 60 54 61 70 62 41 63 42 64
REMARK SMILES IDX 53 66 71 67 44 68 31 69 32 70 37 71 33 72 34 73 36 74 38 75
REMARK SMILES IDX 35 76 57 77 58 78 63 79 59 80 60 81 62 82 64 83 61 84 45 85
REMARK SMILES IDX 46 86 51 87 47 88 48 89 50 90 52 91 49 92
REMARK H PARENT 78 13 69 54 43 65
REMARK Flexibility Score: inf
ROOT
ATOM      1  C   UNL A   1      34.129  32.149  27.640  1.00  0.00     0.274 C 
ENDROOT
BRANCH   1   2
ATOM      2  O   UNL A   1      33.183  31.067  27.565  1.00  0.00    -0.461 OA
BRANCH   2   3
ATOM      3  C   UNL A   1      33.610  29.922  26.967  1.00  0.00     0.320 C 
ATOM      4  O   UNL A   1      34.782  29.571  26.881  1.00  0.00    -0.251 OA
BRANCH   3   5
ATOM      5  C   UNL A   1      32.464  29.093  26.411  1.00  0.00     0.180 C 
ATOM      6  N   UNL A   1      31.201  26.939  24.872  1.00  0.00    -0.191 N 
ATOM      7  C   UNL A   1      31.560  26.727  26.205  1.00  0.00     0.311 C 
ATOM      8  C   UNL A   1      31.019  28.215  24.369  1.00  0.00     0.319 C 
ATOM      9  O   UNL A   1      31.144  25.766  26.857  1.00  0.00    -0.247 OA
ATOM     10  C   UNL A   1      32.569  27.658  26.842  1.00  0.00     0.155 C 
ATOM     11  S   UNL A   1      32.429  29.189  24.610  1.00  0.00    -0.022 SA
ATOM     12  N   UNL A   1      29.919  28.575  23.792  1.00  0.00    -0.235 N 
ATOM     13  H   UNL A   1      29.187  27.916  23.809  1.00  0.00     0.313 HD
BRANCH   6  14
ATOM     14  C   UNL A   1      30.946  25.702  24.114  1.00  0.00     0.251 C 
BRANCH  14  15
ATOM     15  C   UNL A   1      31.989  25.039  23.199  1.00  0.00     0.082 C 
BRANCH  15  16
ATOM     16  C   UNL A   1      33.056  24.178  23.841  1.00  0.00    -0.040 A 
ATOM     17  C   UNL A   1      35.194  22.682  24.970  1.00  0.00     0.160 A 
ATOM     18  C   UNL A   1      35.314  24.047  24.758  1.00  0.00     0.051 A 
ATOM     19  C   UNL A   1      33.998  22.047  24.590  1.00  0.00     0.160 A 
ATOM     20  C   UNL A   1      34.287  24.746  24.137  1.00  0.00     0.008 A 
ATOM     21  C   UNL A   1      32.920  22.807  24.077  1.00  0.00     0.054 A 
BRANCH  17  22
ATOM     22  O   UNL A   1      36.198  21.955  25.553  1.00  0.00    -0.493 OA
ATOM     23  C   UNL A   1      37.429  22.653  25.747  1.00  0.00     0.278 C 
ENDBRANCH  17  22
BRANCH  19  24
ATOM     24  O   UNL A   1      33.752  20.696  24.648  1.00  0.00    -0.493 OA
ATOM     25  C   UNL A   1      32.538  20.265  24.032  1.00  0.00     0.278 C 
ENDBRANCH  19  24
ENDBRANCH  15  16
ENDBRANCH  14  15
ENDBRANCH   6  14
BRANCH  12  26
ATOM     26  C   UNL A   1      29.631  29.804  23.135  1.00  0.00     0.125 A 
ATOM     27  C   UNL A   1      29.244  30.880  23.950  1.00  0.00     0.055 A 
ATOM     28  C   UNL A   1      29.453  29.969  21.748  1.00  0.00     0.055 A 
ATOM     29  C   UNL A   1      28.680  32.047  23.411  1.00  0.00     0.043 A 
ATOM     30  C   UNL A   1      28.900  31.133  21.200  1.00  0.00     0.043 A 
ATOM     31  C   UNL A   1      28.503  32.157  22.040  1.00  0.00     0.123 A 
ATOM     32  F   UNL A   1      27.913  33.244  21.525  1.00  0.00    -0.207 F 
ENDBRANCH  12  26
ENDBRANCH   3   5
ENDBRANCH   2   3
ENDBRANCH   1   2
BRANCH   1  33
ATOM     33  C   UNL A   1      34.552  32.344  29.098  1.00  0.00     0.275 C 
BRANCH  33  34
ATOM     34  O   UNL A   1      35.940  31.984  29.246  1.00  0.00    -0.458 OA
BRANCH  34  35
ATOM     35  C   UNL A   1      36.221  31.056  30.192  1.00  0.00     0.338 C 
ATOM     36  O   UNL A   1      35.556  30.742  31.160  1.00  0.00    -0.246 OA
BRANCH  35  37
ATOM     37  C   UNL A   1      37.519  30.447  29.864  1.00  0.00     0.060 A 
ATOM     38  C   UNL A   1      38.405  30.108  30.888  1.00  0.00     0.016 A 
ATOM     39  C   UNL A   1      37.882  30.272  28.529  1.00  0.00     0.016 A 
ATOM     40  C   UNL A   1      39.664  29.596  30.587  1.00  0.00     0.010 A 
ATOM     41  C   UNL A   1      39.137  29.738  28.227  1.00  0.00     0.010 A 
ATOM     42  C   UNL A   1      40.040  29.407  29.253  1.00  0.00    -0.014 A 
BRANCH  42  43
ATOM     43  C   UNL A   1      41.400  28.921  28.925  1.00  0.00     0.031 A 
ATOM     44  C   UNL A   1      42.555  29.879  28.944  1.00  0.00     0.074 A 
ATOM     45  C   UNL A   1      41.599  27.627  28.614  1.00  0.00     0.049 A 
ATOM     46  N   UNL A   1      43.796  29.686  28.578  1.00  0.00    -0.248 NA
ATOM     47  C   UNL A   1      42.273  31.236  29.437  1.00  0.00     0.031 C 
ATOM     48  C   UNL A   1      40.566  26.591  28.605  1.00  0.00     0.029 A 
ATOM     49  N   UNL A   1      42.740  26.967  28.236  1.00  0.00    -0.354 N 
ATOM     50  C   UNL A   1      44.438  30.901  28.768  1.00  0.00     0.074 A 
ATOM     51  C   UNL A   1      43.447  31.829  29.274  1.00  0.00     0.031 C 
ATOM     52  C   UNL A   1      41.122  25.424  28.239  1.00  0.00     0.029 A 
ATOM     53  C   UNL A   1      42.536  25.642  27.942  1.00  0.00     0.049 A 
ATOM     54  H   UNL A   1      43.622  27.402  28.181  1.00  0.00     0.167 HD
ATOM     55  C   UNL A   1      45.737  31.213  28.543  1.00  0.00     0.037 A 
ATOM     56  C   UNL A   1      43.386  24.715  27.460  1.00  0.00     0.037 A 
ATOM     57  C   UNL A   1      46.724  30.284  28.061  1.00  0.00     0.049 A 
ATOM     58  C   UNL A   1      44.810  25.099  27.173  1.00  0.00     0.074 A 
ATOM     59  C   UNL A   1      48.068  30.502  27.816  1.00  0.00     0.029 A 
ATOM     60  N   UNL A   1      46.473  28.955  27.754  1.00  0.00    -0.354 N 
ATOM     61  N   UNL A   1      45.405  26.255  27.343  1.00  0.00    -0.248 NA
ATOM     62  C   UNL A   1      45.681  24.052  26.618  1.00  0.00     0.031 C 
ATOM     63  C   UNL A   1      48.624  29.313  27.329  1.00  0.00     0.029 A 
ATOM     64  C   UNL A   1      47.634  28.345  27.307  1.00  0.00     0.049 A 
ATOM     65  H   UNL A   1      45.598  28.510  27.841  1.00  0.00     0.167 HD
ATOM     66  C   UNL A   1      46.720  26.071  26.936  1.00  0.00     0.074 A 
ATOM     67  C   UNL A   1      46.840  24.687  26.522  1.00  0.00     0.031 C 
ATOM     68  C   UNL A   1      47.736  26.966  26.904  1.00  0.00     0.037 A 
BRANCH  55  69
ATOM     69  C   UNL A   1      46.155  32.631  28.791  1.00  0.00     0.057 A 
ATOM     70  C   UNL A   1      46.658  33.050  30.028  1.00  0.00     0.134 A 
ATOM     71  C   UNL A   1      46.077  33.583  27.766  1.00  0.00     0.134 A 
ATOM     72  F   UNL A   1      46.744  32.189  31.053  1.00  0.00    -0.206 F 
ATOM     73  C   UNL A   1      47.053  34.371  30.244  1.00  0.00     0.040 A 
ATOM     74  C   UNL A   1      46.489  34.902  27.964  1.00  0.00     0.040 A 
ATOM     75  F   UNL A   1      45.607  33.245  26.556  1.00  0.00    -0.206 F 
ATOM     76  C   UNL A   1      46.974  35.300  29.207  1.00  0.00     0.006 A 
ENDBRANCH  55  69
BRANCH  56  77
ATOM     77  C   UNL A   1      42.907  23.336  27.196  1.00  0.00     0.057 A 
ATOM     78  C   UNL A   1      42.703  22.428  28.241  1.00  0.00     0.134 A 
ATOM     79  C   UNL A   1      42.654  22.889  25.893  1.00  0.00     0.134 A 
ATOM     80  F   UNL A   1      42.953  22.791  29.507  1.00  0.00    -0.206 F 
ATOM     81  C   UNL A   1      42.274  21.122  28.001  1.00  0.00     0.040 A 
ATOM     82  C   UNL A   1      42.203  21.593  25.640  1.00  0.00     0.040 A 
ATOM     83  F   UNL A   1      42.833  23.711  24.849  1.00  0.00    -0.206 F 
ATOM     84  C   UNL A   1      42.017  20.703  26.697  1.00  0.00     0.006 A 
ENDBRANCH  56  77
BRANCH  68  85
ATOM     85  C   UNL A   1      49.071  26.469  26.435  1.00  0.00     0.057 A 
ATOM     86  C   UNL A   1      49.517  26.681  25.125  1.00  0.00     0.134 A 
ATOM     87  C   UNL A   1      49.933  25.801  27.315  1.00  0.00     0.134 A 
ATOM     88  F   UNL A   1      48.733  27.303  24.232  1.00  0.00    -0.206 F 
ATOM     89  C   UNL A   1      50.767  26.229  24.701  1.00  0.00     0.040 A 
ATOM     90  C   UNL A   1      51.193  25.364  26.907  1.00  0.00     0.040 A 
ATOM     91  F   UNL A   1      49.566  25.573  28.585  1.00  0.00    -0.206 F 
ATOM     92  C   UNL A   1      51.611  25.574  25.595  1.00  0.00     0.006 A 
ENDBRANCH  68  85
ENDBRANCH  42  43
ENDBRANCH  35  37
ENDBRANCH  34  35
ENDBRANCH  33  34
ENDBRANCH   1  33
TORSDOF 17
ENDMDL
