MODEL 1
REMARK VINA RESULT:     -13.3      0.000      0.000
REMARK SMILES COc1ccc(-c2[nH]nc3nc(-c4ccc(C(F)(F)F)cc4)cc(C(=O)OCCOC(=O)c4ccc(-c5c6nc(c(-c7c(F)cccc7F)c7ccc([nH]7)c(-c7c(F)cccc7F)c7nc(c(-c8c(F)cccc8F)c8ccc5[nH]8)C=C7)C=C6)cc4)c23)cc1
REMARK SMILES IDX 28 1 27 2 25 3 26 4 24 5 7 6 8 7 87 8 9 9 10 11 11 12 23 13
REMARK SMILES IDX 12 14 6 15 3 16 4 17 89 18 5 19 88 20 2 21 1 22 13 23 14 24
REMARK SMILES IDX 22 25 15 26 21 27 16 28 17 29 18 30 19 31 20 32 29 33 30 34
REMARK SMILES IDX 31 35 32 36 33 37 34 38 86 39 35 40 85 41 36 42 37 43 38 44
REMARK SMILES IDX 79 45 39 46 84 47 78 48 80 49 40 50 83 51 77 52 76 53 41 55
REMARK SMILES IDX 67 56 50 57 66 58 51 59 54 60 65 61 81 62 52 63 53 64 64 66
REMARK SMILES IDX 82 67 55 68 42 69 43 70 48 71 44 72 45 73 47 74 49 75 46 76
REMARK SMILES IDX 68 77 69 78 74 79 70 80 71 81 73 82 75 83 72 84 56 85 57 86
REMARK SMILES IDX 62 87 58 88 59 89 61 90 63 91 60 92
REMARK H PARENT 8 10 80 54 54 65
REMARK Flexibility Score: inf
ROOT
ATOM      1  C   UNL A   1      33.802  28.306  27.161  1.00  0.00     0.275 C 
ENDROOT
BRANCH   1   2
ATOM      2  O   UNL A   1      33.485  27.765  25.874  1.00  0.00    -0.458 OA
BRANCH   2   3
ATOM      3  C   UNL A   1      32.849  26.562  25.872  1.00  0.00     0.339 C 
ATOM      4  O   UNL A   1      31.853  26.290  26.514  1.00  0.00    -0.246 OA
BRANCH   3   5
ATOM      5  C   UNL A   1      33.564  25.654  24.962  1.00  0.00     0.075 A 
ATOM      6  C   UNL A   1      32.094  25.594  22.900  1.00  0.00     0.075 A 
ATOM      7  N   UNL A   1      32.206  24.813  21.774  1.00  0.00    -0.275 N 
ATOM      8  C   UNL A   1      33.161  25.208  23.697  1.00  0.00     0.061 A 
ATOM      9  N   UNL A   1      33.279  24.011  21.742  1.00  0.00    -0.154 NA
ATOM     10  H   UNL A   1      31.546  24.841  21.043  1.00  0.00     0.190 HD
ATOM     11  C   UNL A   1      33.889  24.252  22.902  1.00  0.00     0.182 A 
ATOM     12  N   UNL A   1      35.054  23.688  23.309  1.00  0.00    -0.226 NA
ATOM     13  C   UNL A   1      34.783  25.059  25.341  1.00  0.00     0.045 A 
ATOM     14  C   UNL A   1      35.460  24.112  24.538  1.00  0.00     0.074 A 
BRANCH   6  15
ATOM     15  C   UNL A   1      31.105  26.662  22.949  1.00  0.00     0.001 A 
ATOM     16  C   UNL A   1      29.085  28.629  23.009  1.00  0.00     0.118 A 
ATOM     17  C   UNL A   1      30.362  28.928  22.525  1.00  0.00     0.047 A 
ATOM     18  C   UNL A   1      28.845  27.361  23.525  1.00  0.00     0.047 A 
ATOM     19  C   UNL A   1      31.372  27.956  22.497  1.00  0.00     0.014 A 
ATOM     20  C   UNL A   1      29.851  26.390  23.499  1.00  0.00     0.014 A 
BRANCH  16  21
ATOM     21  O   UNL A   1      28.174  29.644  22.915  1.00  0.00    -0.497 OA
ATOM     22  C   UNL A   1      28.045  30.287  21.654  1.00  0.00     0.278 C 
ENDBRANCH  16  21
ENDBRANCH   6  15
BRANCH  14  23
ATOM     23  C   UNL A   1      36.663  23.445  25.078  1.00  0.00     0.000 A 
ATOM     24  C   UNL A   1      37.536  24.086  25.969  1.00  0.00     0.011 A 
ATOM     25  C   UNL A   1      36.962  22.120  24.707  1.00  0.00     0.011 A 
ATOM     26  C   UNL A   1      38.662  23.424  26.476  1.00  0.00     0.014 A 
ATOM     27  C   UNL A   1      38.084  21.457  25.206  1.00  0.00     0.014 A 
ATOM     28  C   UNL A   1      38.949  22.103  26.097  1.00  0.00     0.056 A 
BRANCH  28  29
ATOM     29  C   UNL A   1      40.174  21.399  26.627  1.00  0.00     0.416 C 
ATOM     30  F   UNL A   1      41.282  21.632  25.871  1.00  0.00    -0.166 F 
ATOM     31  F   UNL A   1      40.495  21.787  27.893  1.00  0.00    -0.166 F 
ATOM     32  F   UNL A   1      40.040  20.042  26.680  1.00  0.00    -0.166 F 
ENDBRANCH  28  29
ENDBRANCH  14  23
ENDBRANCH   3   5
ENDBRANCH   2   3
ENDBRANCH   1   2
BRANCH   1  33
ATOM     33  C   UNL A   1      34.424  29.677  26.976  1.00  0.00     0.275 C 
BRANCH  33  34
ATOM     34  O   UNL A   1      35.834  29.612  27.158  1.00  0.00    -0.458 OA
BRANCH  34  35
ATOM     35  C   UNL A   1      36.289  29.710  28.431  1.00  0.00     0.338 C 
ATOM     36  O   UNL A   1      35.755  30.231  29.381  1.00  0.00    -0.246 OA
BRANCH  35  37
ATOM     37  C   UNL A   1      37.654  29.152  28.412  1.00  0.00     0.060 A 
ATOM     38  C   UNL A   1      38.136  28.418  29.500  1.00  0.00     0.016 A 
ATOM     39  C   UNL A   1      38.462  29.421  27.297  1.00  0.00     0.016 A 
ATOM     40  C   UNL A   1      39.446  27.956  29.465  1.00  0.00     0.010 A 
ATOM     41  C   UNL A   1      39.749  28.956  27.257  1.00  0.00     0.010 A 
ATOM     42  C   UNL A   1      40.245  28.264  28.357  1.00  0.00    -0.014 A 
BRANCH  42  43
ATOM     43  C   UNL A   1      41.634  27.861  28.316  1.00  0.00     0.031 A 
ATOM     44  C   UNL A   1      41.940  26.604  27.584  1.00  0.00     0.074 A 
ATOM     45  C   UNL A   1      42.599  28.715  28.708  1.00  0.00     0.049 A 
ATOM     46  N   UNL A   1      42.465  25.519  28.044  1.00  0.00    -0.248 NA
ATOM     47  C   UNL A   1      41.548  26.513  26.171  1.00  0.00     0.031 C 
ATOM     48  C   UNL A   1      42.474  30.114  29.134  1.00  0.00     0.029 A 
ATOM     49  N   UNL A   1      43.938  28.516  28.708  1.00  0.00    -0.354 N 
ATOM     50  C   UNL A   1      42.639  24.668  26.952  1.00  0.00     0.074 A 
ATOM     51  C   UNL A   1      41.937  25.277  25.853  1.00  0.00     0.031 C 
ATOM     52  C   UNL A   1      43.698  30.688  29.150  1.00  0.00     0.029 A 
ATOM     53  C   UNL A   1      44.692  29.663  28.891  1.00  0.00     0.049 A 
ATOM     54  H   UNL A   1      44.343  27.626  28.588  1.00  0.00     0.167 HD
ATOM     55  C   UNL A   1      43.521  23.629  26.999  1.00  0.00     0.037 A 
ATOM     56  C   UNL A   1      46.039  29.754  28.799  1.00  0.00     0.037 A 
ATOM     57  C   UNL A   1      43.868  23.314  28.363  1.00  0.00     0.049 A 
ATOM     58  C   UNL A   1      46.583  28.379  28.967  1.00  0.00     0.074 A 
ATOM     59  C   UNL A   1      43.147  22.927  29.476  1.00  0.00     0.029 A 
ATOM     60  N   UNL A   1      45.075  23.759  28.846  1.00  0.00    -0.354 N 
ATOM     61  N   UNL A   1      46.502  27.705  30.081  1.00  0.00    -0.248 NA
ATOM     62  C   UNL A   1      46.773  27.579  27.766  1.00  0.00     0.031 C 
ATOM     63  C   UNL A   1      43.728  23.662  30.552  1.00  0.00     0.029 A 
ATOM     64  C   UNL A   1      44.811  24.379  30.041  1.00  0.00     0.049 A 
ATOM     65  H   UNL A   1      45.955  23.654  28.419  1.00  0.00     0.167 HD
ATOM     66  C   UNL A   1      46.206  26.405  29.692  1.00  0.00     0.074 A 
ATOM     67  C   UNL A   1      46.464  26.372  28.252  1.00  0.00     0.031 C 
ATOM     68  C   UNL A   1      45.508  25.556  30.505  1.00  0.00     0.037 A 
BRANCH  55  69
ATOM     69  C   UNL A   1      44.346  23.128  25.836  1.00  0.00     0.057 A 
ATOM     70  C   UNL A   1      44.466  21.739  25.633  1.00  0.00     0.134 A 
ATOM     71  C   UNL A   1      45.263  23.915  25.113  1.00  0.00     0.134 A 
ATOM     72  F   UNL A   1      43.644  20.877  26.252  1.00  0.00    -0.206 F 
ATOM     73  C   UNL A   1      45.490  21.174  24.864  1.00  0.00     0.040 A 
ATOM     74  C   UNL A   1      46.262  23.362  24.304  1.00  0.00     0.040 A 
ATOM     75  F   UNL A   1      45.311  25.248  25.225  1.00  0.00    -0.206 F 
ATOM     76  C   UNL A   1      46.404  21.987  24.208  1.00  0.00     0.006 A 
ENDBRANCH  55  69
BRANCH  56  77
ATOM     77  C   UNL A   1      46.832  30.882  28.270  1.00  0.00     0.057 A 
ATOM     78  C   UNL A   1      46.696  31.311  26.944  1.00  0.00     0.134 A 
ATOM     79  C   UNL A   1      47.554  31.736  29.126  1.00  0.00     0.134 A 
ATOM     80  F   UNL A   1      45.989  30.585  26.066  1.00  0.00    -0.206 F 
ATOM     81  C   UNL A   1      47.229  32.528  26.497  1.00  0.00     0.040 A 
ATOM     82  C   UNL A   1      48.097  32.949  28.691  1.00  0.00     0.040 A 
ATOM     83  F   UNL A   1      47.683  31.463  30.432  1.00  0.00    -0.206 F 
ATOM     84  C   UNL A   1      47.923  33.356  27.375  1.00  0.00     0.006 A 
ENDBRANCH  56  77
BRANCH  68  85
ATOM     85  C   UNL A   1      45.219  25.991  31.917  1.00  0.00     0.057 A 
ATOM     86  C   UNL A   1      44.042  26.646  32.313  1.00  0.00     0.134 A 
ATOM     87  C   UNL A   1      46.073  25.571  32.941  1.00  0.00     0.134 A 
ATOM     88  F   UNL A   1      43.106  26.991  31.423  1.00  0.00    -0.206 F 
ATOM     89  C   UNL A   1      43.749  26.906  33.656  1.00  0.00     0.040 A 
ATOM     90  C   UNL A   1      45.779  25.794  34.290  1.00  0.00     0.040 A 
ATOM     91  F   UNL A   1      47.187  24.881  32.651  1.00  0.00    -0.206 F 
ATOM     92  C   UNL A   1      44.617  26.473  34.650  1.00  0.00     0.006 A 
ENDBRANCH  68  85
ENDBRANCH  42  43
ENDBRANCH  35  37
ENDBRANCH  34  35
ENDBRANCH  33  34
ENDBRANCH   1  33
TORSDOF 15
ENDMDL
MODEL 2
REMARK VINA RESULT:     -12.8      4.827      9.370
REMARK SMILES COc1ccc(-c2[nH]nc3nc(-c4ccc(C(F)(F)F)cc4)cc(C(=O)OCCOC(=O)c4ccc(-c5c6nc(c(-c7c(F)cccc7F)c7ccc([nH]7)c(-c7c(F)cccc7F)c7nc(c(-c8c(F)cccc8F)c8ccc5[nH]8)C=C7)C=C6)cc4)c23)cc1
REMARK SMILES IDX 28 1 27 2 25 3 26 4 24 5 7 6 8 7 87 8 9 9 10 11 11 12 23 13
REMARK SMILES IDX 12 14 6 15 3 16 4 17 89 18 5 19 88 20 2 21 1 22 13 23 14 24
REMARK SMILES IDX 22 25 15 26 21 27 16 28 17 29 18 30 19 31 20 32 29 33 30 34
REMARK SMILES IDX 31 35 32 36 33 37 34 38 86 39 35 40 85 41 36 42 37 43 38 44
REMARK SMILES IDX 79 45 39 46 84 47 78 48 80 49 40 50 83 51 77 52 76 53 41 55
REMARK SMILES IDX 67 56 50 57 66 58 51 59 54 60 65 61 81 62 52 63 53 64 64 66
REMARK SMILES IDX 82 67 55 68 42 69 43 70 48 71 44 72 45 73 47 74 49 75 46 76
REMARK SMILES IDX 68 77 69 78 74 79 70 80 71 81 73 82 75 83 72 84 56 85 57 86
REMARK SMILES IDX 62 87 58 88 59 89 61 90 63 91 60 92
REMARK H PARENT 8 10 80 54 54 65
REMARK Flexibility Score: inf
ROOT
ATOM      1  C   UNL A   1      36.839  23.607  24.844  1.00  0.00     0.275 C 
ENDROOT
BRANCH   1   2
ATOM      2  O   UNL A   1      35.568  23.953  25.406  1.00  0.00    -0.458 OA
BRANCH   2   3
ATOM      3  C   UNL A   1      34.632  24.406  24.529  1.00  0.00     0.339 C 
ATOM      4  O   UNL A   1      34.638  24.214  23.328  1.00  0.00    -0.246 OA
BRANCH   3   5
ATOM      5  C   UNL A   1      33.614  25.160  25.277  1.00  0.00     0.075 A 
ATOM      6  C   UNL A   1      31.583  23.647  25.215  1.00  0.00     0.075 A 
ATOM      7  N   UNL A   1      30.302  23.891  25.649  1.00  0.00    -0.275 N 
ATOM      8  C   UNL A   1      32.273  24.816  25.494  1.00  0.00     0.061 A 
ATOM      9  N   UNL A   1      30.119  25.079  26.242  1.00  0.00    -0.154 NA
ATOM     10  H   UNL A   1      29.572  23.240  25.535  1.00  0.00     0.190 HD
ATOM     11  C   UNL A   1      31.319  25.654  26.175  1.00  0.00     0.182 A 
ATOM     12  N   UNL A   1      31.636  26.873  26.681  1.00  0.00    -0.226 NA
ATOM     13  C   UNL A   1      33.906  26.421  25.831  1.00  0.00     0.045 A 
ATOM     14  C   UNL A   1      32.937  27.221  26.478  1.00  0.00     0.074 A 
BRANCH   6  15
ATOM     15  C   UNL A   1      31.957  22.312  24.766  1.00  0.00     0.001 A 
ATOM     16  C   UNL A   1      32.571  19.737  23.795  1.00  0.00     0.118 A 
ATOM     17  C   UNL A   1      32.673  20.031  25.158  1.00  0.00     0.047 A 
ATOM     18  C   UNL A   1      32.225  20.755  22.914  1.00  0.00     0.047 A 
ATOM     19  C   UNL A   1      32.374  21.312  25.646  1.00  0.00     0.014 A 
ATOM     20  C   UNL A   1      31.928  22.031  23.398  1.00  0.00     0.014 A 
BRANCH  16  21
ATOM     21  O   UNL A   1      32.822  18.434  23.461  1.00  0.00    -0.497 OA
ATOM     22  C   UNL A   1      33.202  17.556  24.511  1.00  0.00     0.278 C 
ENDBRANCH  16  21
ENDBRANCH   6  15
BRANCH  14  23
ATOM     23  C   UNL A   1      33.306  28.586  26.909  1.00  0.00     0.000 A 
ATOM     24  C   UNL A   1      34.596  28.903  27.357  1.00  0.00     0.011 A 
ATOM     25  C   UNL A   1      32.351  29.620  26.874  1.00  0.00     0.011 A 
ATOM     26  C   UNL A   1      34.922  30.210  27.747  1.00  0.00     0.014 A 
ATOM     27  C   UNL A   1      32.669  30.921  27.264  1.00  0.00     0.014 A 
ATOM     28  C   UNL A   1      33.960  31.232  27.707  1.00  0.00     0.056 A 
BRANCH  28  29
ATOM     29  C   UNL A   1      34.307  32.633  28.148  1.00  0.00     0.416 C 
ATOM     30  F   UNL A   1      33.460  33.568  27.639  1.00  0.00    -0.166 F 
ATOM     31  F   UNL A   1      34.264  32.783  29.501  1.00  0.00    -0.166 F 
ATOM     32  F   UNL A   1      35.559  33.025  27.773  1.00  0.00    -0.166 F 
ENDBRANCH  28  29
ENDBRANCH  14  23
ENDBRANCH   3   5
ENDBRANCH   2   3
ENDBRANCH   1   2
BRANCH   1  33
ATOM     33  C   UNL A   1      37.849  23.471  25.968  1.00  0.00     0.275 C 
BRANCH  33  34
ATOM     34  O   UNL A   1      38.240  24.754  26.443  1.00  0.00    -0.458 OA
BRANCH  34  35
ATOM     35  C   UNL A   1      39.556  24.926  26.723  1.00  0.00     0.338 C 
ATOM     36  O   UNL A   1      40.486  24.219  26.418  1.00  0.00    -0.246 OA
BRANCH  35  37
ATOM     37  C   UNL A   1      39.627  26.109  27.600  1.00  0.00     0.060 A 
ATOM     38  C   UNL A   1      40.091  27.332  27.106  1.00  0.00     0.016 A 
ATOM     39  C   UNL A   1      39.262  25.957  28.945  1.00  0.00     0.016 A 
ATOM     40  C   UNL A   1      40.194  28.408  27.978  1.00  0.00     0.010 A 
ATOM     41  C   UNL A   1      39.352  27.019  29.803  1.00  0.00     0.010 A 
ATOM     42  C   UNL A   1      39.856  28.225  29.324  1.00  0.00    -0.014 A 
BRANCH  42  43
ATOM     43  C   UNL A   1      40.016  29.302  30.277  1.00  0.00     0.031 A 
ATOM     44  C   UNL A   1      38.815  30.134  30.549  1.00  0.00     0.074 A 
ATOM     45  C   UNL A   1      41.123  29.370  31.042  1.00  0.00     0.049 A 
ATOM     46  N   UNL A   1      38.658  31.399  30.349  1.00  0.00    -0.248 NA
ATOM     47  C   UNL A   1      37.604  29.462  31.040  1.00  0.00     0.031 C 
ATOM     48  C   UNL A   1      42.244  28.426  31.129  1.00  0.00     0.029 A 
ATOM     49  N   UNL A   1      41.422  30.284  31.996  1.00  0.00    -0.354 N 
ATOM     50  C   UNL A   1      37.398  31.726  30.852  1.00  0.00     0.074 A 
ATOM     51  C   UNL A   1      36.744  30.477  31.141  1.00  0.00     0.031 C 
ATOM     52  C   UNL A   1      42.986  28.711  32.222  1.00  0.00     0.029 A 
ATOM     53  C   UNL A   1      42.486  29.940  32.811  1.00  0.00     0.049 A 
ATOM     54  H   UNL A   1      40.921  31.125  32.101  1.00  0.00     0.167 HD
ATOM     55  C   UNL A   1      37.079  33.012  31.176  1.00  0.00     0.037 A 
ATOM     56  C   UNL A   1      42.896  30.612  33.912  1.00  0.00     0.037 A 
ATOM     57  C   UNL A   1      37.993  33.938  30.556  1.00  0.00     0.049 A 
ATOM     58  C   UNL A   1      42.355  31.993  33.808  1.00  0.00     0.074 A 
ATOM     59  C   UNL A   1      38.347  34.214  29.248  1.00  0.00     0.029 A 
ATOM     60  N   UNL A   1      38.994  34.478  31.326  1.00  0.00    -0.354 N 
ATOM     61  N   UNL A   1      42.736  32.848  32.898  1.00  0.00    -0.248 NA
ATOM     62  C   UNL A   1      41.052  32.254  34.401  1.00  0.00     0.031 C 
ATOM     63  C   UNL A   1      39.761  34.399  29.292  1.00  0.00     0.029 A 
ATOM     64  C   UNL A   1      40.161  34.307  30.626  1.00  0.00     0.049 A 
ATOM     65  H   UNL A   1      38.893  34.905  32.208  1.00  0.00     0.167 HD
ATOM     66  C   UNL A   1      41.571  33.491  32.502  1.00  0.00     0.074 A 
ATOM     67  C   UNL A   1      40.579  33.140  33.518  1.00  0.00     0.031 C 
ATOM     68  C   UNL A   1      41.432  34.010  31.244  1.00  0.00     0.037 A 
BRANCH  55  69
ATOM     69  C   UNL A   1      36.183  33.430  32.319  1.00  0.00     0.057 A 
ATOM     70  C   UNL A   1      35.248  34.463  32.112  1.00  0.00     0.134 A 
ATOM     71  C   UNL A   1      36.405  33.092  33.669  1.00  0.00     0.134 A 
ATOM     72  F   UNL A   1      34.935  34.872  30.872  1.00  0.00    -0.206 F 
ATOM     73  C   UNL A   1      34.670  35.181  33.165  1.00  0.00     0.040 A 
ATOM     74  C   UNL A   1      35.796  33.773  34.729  1.00  0.00     0.040 A 
ATOM     75  F   UNL A   1      37.292  32.162  34.040  1.00  0.00    -0.206 F 
ATOM     76  C   UNL A   1      34.956  34.847  34.481  1.00  0.00     0.006 A 
ENDBRANCH  55  69
BRANCH  56  77
ATOM     77  C   UNL A   1      43.442  30.044  35.163  1.00  0.00     0.057 A 
ATOM     78  C   UNL A   1      42.784  29.012  35.844  1.00  0.00     0.134 A 
ATOM     79  C   UNL A   1      44.757  30.323  35.581  1.00  0.00     0.134 A 
ATOM     80  F   UNL A   1      41.544  28.648  35.488  1.00  0.00    -0.206 F 
ATOM     81  C   UNL A   1      43.403  28.285  36.869  1.00  0.00     0.040 A 
ATOM     82  C   UNL A   1      45.384  29.609  36.607  1.00  0.00     0.040 A 
ATOM     83  F   UNL A   1      45.507  31.238  34.951  1.00  0.00    -0.206 F 
ATOM     84  C   UNL A   1      44.712  28.575  37.246  1.00  0.00     0.006 A 
ENDBRANCH  56  77
BRANCH  68  85
ATOM     85  C   UNL A   1      42.637  34.039  30.343  1.00  0.00     0.057 A 
ATOM     86  C   UNL A   1      42.974  33.011  29.448  1.00  0.00     0.134 A 
ATOM     87  C   UNL A   1      43.378  35.221  30.242  1.00  0.00     0.134 A 
ATOM     88  F   UNL A   1      42.260  31.883  29.385  1.00  0.00    -0.206 F 
ATOM     89  C   UNL A   1      44.020  33.138  28.528  1.00  0.00     0.040 A 
ATOM     90  C   UNL A   1      44.404  35.374  29.306  1.00  0.00     0.040 A 
ATOM     91  F   UNL A   1      43.076  36.274  31.018  1.00  0.00    -0.206 F 
ATOM     92  C   UNL A   1      44.735  34.326  28.450  1.00  0.00     0.006 A 
ENDBRANCH  68  85
ENDBRANCH  42  43
ENDBRANCH  35  37
ENDBRANCH  34  35
ENDBRANCH  33  34
ENDBRANCH   1  33
TORSDOF 15
ENDMDL
MODEL 3
REMARK VINA RESULT:     -12.5      1.924      5.684
REMARK SMILES COc1ccc(-c2[nH]nc3nc(-c4ccc(C(F)(F)F)cc4)cc(C(=O)OCCOC(=O)c4ccc(-c5c6nc(c(-c7c(F)cccc7F)c7ccc([nH]7)c(-c7c(F)cccc7F)c7nc(c(-c8c(F)cccc8F)c8ccc5[nH]8)C=C7)C=C6)cc4)c23)cc1
REMARK SMILES IDX 28 1 27 2 25 3 26 4 24 5 7 6 8 7 87 8 9 9 10 11 11 12 23 13
REMARK SMILES IDX 12 14 6 15 3 16 4 17 89 18 5 19 88 20 2 21 1 22 13 23 14 24
REMARK SMILES IDX 22 25 15 26 21 27 16 28 17 29 18 30 19 31 20 32 29 33 30 34
REMARK SMILES IDX 31 35 32 36 33 37 34 38 86 39 35 40 85 41 36 42 37 43 38 44
REMARK SMILES IDX 79 45 39 46 84 47 78 48 80 49 40 50 83 51 77 52 76 53 41 55
REMARK SMILES IDX 67 56 50 57 66 58 51 59 54 60 65 61 81 62 52 63 53 64 64 66
REMARK SMILES IDX 82 67 55 68 42 69 43 70 48 71 44 72 45 73 47 74 49 75 46 76
REMARK SMILES IDX 68 77 69 78 74 79 70 80 71 81 73 82 75 83 72 84 56 85 57 86
REMARK SMILES IDX 62 87 58 88 59 89 61 90 63 91 60 92
REMARK H PARENT 8 10 80 54 54 65
REMARK Flexibility Score: inf
ROOT
ATOM      1  C   UNL A   1      32.712  28.858  25.862  1.00  0.00     0.275 C 
ENDROOT
BRANCH   1   2
ATOM      2  O   UNL A   1      33.507  27.678  26.020  1.00  0.00    -0.458 OA
BRANCH   2   3
ATOM      3  C   UNL A   1      32.839  26.495  25.947  1.00  0.00     0.339 C 
ATOM      4  O   UNL A   1      31.818  26.222  26.548  1.00  0.00    -0.246 OA
BRANCH   3   5
ATOM      5  C   UNL A   1      33.557  25.607  25.020  1.00  0.00     0.075 A 
ATOM      6  C   UNL A   1      32.091  25.589  22.954  1.00  0.00     0.075 A 
ATOM      7  N   UNL A   1      32.205  24.833  21.811  1.00  0.00    -0.275 N 
ATOM      8  C   UNL A   1      33.157  25.187  23.743  1.00  0.00     0.061 A 
ATOM      9  N   UNL A   1      33.280  24.033  21.764  1.00  0.00    -0.154 NA
ATOM     10  H   UNL A   1      31.547  24.876  21.080  1.00  0.00     0.190 HD
ATOM     11  C   UNL A   1      33.887  24.250  22.930  1.00  0.00     0.182 A 
ATOM     12  N   UNL A   1      35.052  23.678  23.327  1.00  0.00    -0.226 NA
ATOM     13  C   UNL A   1      34.776  25.006  25.387  1.00  0.00     0.045 A 
ATOM     14  C   UNL A   1      35.455  24.076  24.566  1.00  0.00     0.074 A 
BRANCH   6  15
ATOM     15  C   UNL A   1      31.100  26.655  23.023  1.00  0.00     0.001 A 
ATOM     16  C   UNL A   1      29.078  28.618  23.126  1.00  0.00     0.118 A 
ATOM     17  C   UNL A   1      30.348  28.924  22.628  1.00  0.00     0.047 A 
ATOM     18  C   UNL A   1      28.846  27.345  23.634  1.00  0.00     0.047 A 
ATOM     19  C   UNL A   1      31.359  27.953  22.579  1.00  0.00     0.014 A 
ATOM     20  C   UNL A   1      29.853  26.377  23.587  1.00  0.00     0.014 A 
BRANCH  16  21
ATOM     21  O   UNL A   1      28.163  29.632  23.052  1.00  0.00    -0.497 OA
ATOM     22  C   UNL A   1      28.643  30.954  23.259  1.00  0.00     0.278 C 
ENDBRANCH  16  21
ENDBRANCH   6  15
BRANCH  14  23
ATOM     23  C   UNL A   1      36.658  23.399  25.093  1.00  0.00     0.000 A 
ATOM     24  C   UNL A   1      36.985  22.080  24.745  1.00  0.00     0.011 A 
ATOM     25  C   UNL A   1      37.523  24.078  25.972  1.00  0.00     0.011 A 
ATOM     26  C   UNL A   1      38.140  21.467  25.250  1.00  0.00     0.014 A 
ATOM     27  C   UNL A   1      38.672  23.471  26.481  1.00  0.00     0.014 A 
ATOM     28  C   UNL A   1      38.994  22.156  26.126  1.00  0.00     0.056 A 
BRANCH  28  29
ATOM     29  C   UNL A   1      40.225  21.486  26.685  1.00  0.00     0.416 C 
ATOM     30  F   UNL A   1      40.144  20.128  26.653  1.00  0.00    -0.166 F 
ATOM     31  F   UNL A   1      41.356  21.811  25.999  1.00  0.00    -0.166 F 
ATOM     32  F   UNL A   1      40.476  21.811  27.986  1.00  0.00    -0.166 F 
ENDBRANCH  28  29
ENDBRANCH  14  23
ENDBRANCH   3   5
ENDBRANCH   2   3
ENDBRANCH   1   2
BRANCH   1  33
ATOM     33  C   UNL A   1      32.946  29.769  27.052  1.00  0.00     0.275 C 
BRANCH  33  34
ATOM     34  O   UNL A   1      34.145  30.518  26.876  1.00  0.00    -0.458 OA
BRANCH  34  35
ATOM     35  C   UNL A   1      34.606  31.192  27.958  1.00  0.00     0.338 C 
ATOM     36  O   UNL A   1      34.079  32.097  28.559  1.00  0.00    -0.246 OA
BRANCH  35  37
ATOM     37  C   UNL A   1      35.968  30.680  28.197  1.00  0.00     0.060 A 
ATOM     38  C   UNL A   1      36.303  29.366  27.855  1.00  0.00     0.016 A 
ATOM     39  C   UNL A   1      36.894  31.531  28.817  1.00  0.00     0.016 A 
ATOM     40  C   UNL A   1      37.580  28.905  28.146  1.00  0.00     0.010 A 
ATOM     41  C   UNL A   1      38.157  31.082  29.094  1.00  0.00     0.010 A 
ATOM     42  C   UNL A   1      38.478  29.762  28.795  1.00  0.00    -0.014 A 
BRANCH  42  43
ATOM     43  C   UNL A   1      39.794  29.296  29.178  1.00  0.00     0.031 A 
ATOM     44  C   UNL A   1      39.993  28.976  30.616  1.00  0.00     0.074 A 
ATOM     45  C   UNL A   1      40.690  28.946  28.235  1.00  0.00     0.049 A 
ATOM     46  N   UNL A   1      40.815  29.520  31.449  1.00  0.00    -0.248 NA
ATOM     47  C   UNL A   1      39.117  27.969  31.228  1.00  0.00     0.031 C 
ATOM     48  C   UNL A   1      40.519  28.885  26.778  1.00  0.00     0.029 A 
ATOM     49  N   UNL A   1      41.944  28.468  28.413  1.00  0.00    -0.354 N 
ATOM     50  C   UNL A   1      40.695  28.811  32.645  1.00  0.00     0.074 A 
ATOM     51  C   UNL A   1      39.544  27.959  32.492  1.00  0.00     0.031 C 
ATOM     52  C   UNL A   1      41.553  28.204  26.234  1.00  0.00     0.029 A 
ATOM     53  C   UNL A   1      42.522  27.927  27.278  1.00  0.00     0.049 A 
ATOM     54  H   UNL A   1      42.407  28.501  29.282  1.00  0.00     0.167 HD
ATOM     55  C   UNL A   1      41.680  28.843  33.587  1.00  0.00     0.037 A 
ATOM     56  C   UNL A   1      43.703  27.269  27.222  1.00  0.00     0.037 A 
ATOM     57  C   UNL A   1      42.560  29.964  33.370  1.00  0.00     0.049 A 
ATOM     58  C   UNL A   1      44.477  27.654  28.432  1.00  0.00     0.074 A 
ATOM     59  C   UNL A   1      42.381  31.334  33.317  1.00  0.00     0.029 A 
ATOM     60  N   UNL A   1      43.774  29.731  32.771  1.00  0.00    -0.354 N 
ATOM     61  N   UNL A   1      44.929  28.861  28.643  1.00  0.00    -0.248 NA
ATOM     62  C   UNL A   1      44.323  26.830  29.622  1.00  0.00     0.031 C 
ATOM     63  C   UNL A   1      43.203  31.760  32.232  1.00  0.00     0.029 A 
ATOM     64  C   UNL A   1      43.887  30.642  31.752  1.00  0.00     0.049 A 
ATOM     65  H   UNL A   1      44.434  29.045  33.024  1.00  0.00     0.167 HD
ATOM     66  C   UNL A   1      44.714  29.092  29.995  1.00  0.00     0.074 A 
ATOM     67  C   UNL A   1      44.412  27.777  30.562  1.00  0.00     0.031 C 
ATOM     68  C   UNL A   1      44.515  30.353  30.484  1.00  0.00     0.037 A 
BRANCH  55  69
ATOM     69  C   UNL A   1      42.073  27.690  34.482  1.00  0.00     0.057 A 
ATOM     70  C   UNL A   1      41.899  27.817  35.874  1.00  0.00     0.134 A 
ATOM     71  C   UNL A   1      42.887  26.613  34.080  1.00  0.00     0.134 A 
ATOM     72  F   UNL A   1      41.136  28.794  36.389  1.00  0.00    -0.206 F 
ATOM     73  C   UNL A   1      42.574  27.008  36.796  1.00  0.00     0.040 A 
ATOM     74  C   UNL A   1      43.529  25.769  34.993  1.00  0.00     0.040 A 
ATOM     75  F   UNL A   1      43.186  26.377  32.798  1.00  0.00    -0.206 F 
ATOM     76  C   UNL A   1      43.407  25.989  36.356  1.00  0.00     0.006 A 
ENDBRANCH  55  69
BRANCH  56  77
ATOM     77  C   UNL A   1      44.052  26.115  26.368  1.00  0.00     0.057 A 
ATOM     78  C   UNL A   1      45.224  26.101  25.602  1.00  0.00     0.134 A 
ATOM     79  C   UNL A   1      43.373  24.886  26.482  1.00  0.00     0.134 A 
ATOM     80  F   UNL A   1      45.961  27.214  25.470  1.00  0.00    -0.206 F 
ATOM     81  C   UNL A   1      45.706  24.931  25.000  1.00  0.00     0.040 A 
ATOM     82  C   UNL A   1      43.839  23.713  25.882  1.00  0.00     0.040 A 
ATOM     83  F   UNL A   1      42.282  24.766  27.252  1.00  0.00    -0.206 F 
ATOM     84  C   UNL A   1      45.019  23.729  25.149  1.00  0.00     0.006 A 
ENDBRANCH  56  77
BRANCH  68  85
ATOM     85  C   UNL A   1      44.716  31.521  29.555  1.00  0.00     0.057 A 
ATOM     86  C   UNL A   1      43.687  32.119  28.809  1.00  0.00     0.134 A 
ATOM     87  C   UNL A   1      45.949  32.180  29.555  1.00  0.00     0.134 A 
ATOM     88  F   UNL A   1      42.442  31.632  28.829  1.00  0.00    -0.206 F 
ATOM     89  C   UNL A   1      43.886  33.289  28.069  1.00  0.00     0.040 A 
ATOM     90  C   UNL A   1      46.154  33.368  28.847  1.00  0.00     0.040 A 
ATOM     91  F   UNL A   1      46.966  31.709  30.295  1.00  0.00    -0.206 F 
ATOM     92  C   UNL A   1      45.123  33.921  28.092  1.00  0.00     0.006 A 
ENDBRANCH  68  85
ENDBRANCH  42  43
ENDBRANCH  35  37
ENDBRANCH  34  35
ENDBRANCH  33  34
ENDBRANCH   1  33
TORSDOF 15
ENDMDL
