MODEL 1
REMARK VINA RESULT:     -11.7      0.000      0.000
REMARK SMILES O=C(CCCN1C(=O)/C(=C\c2ccc(O)c(O)c2)SC1=S)OCCOC(=O)c1ccc(-c2c3nc(c(-c4c(F)cccc4F)c4ccc([nH]4)c(-c4c(F)cccc4F)c4nc(c(-c5c(F)cccc5F)c5ccc2[nH]5)C=C4)C=C3)cc1
REMARK SMILES IDX 22 1 2 2 1 3 3 4 4 5 5 6 6 7 7 8 20 9 8 10 9 11 19 12 21 13
REMARK SMILES IDX 10 14 11 15 12 16 18 17 13 18 16 19 14 20 17 21 15 23 23 25
REMARK SMILES IDX 24 26 25 27 26 28 27 29 28 30 29 31 81 32 30 33 80 34 31 35
REMARK SMILES IDX 32 36 33 37 74 38 34 39 79 40 73 41 75 42 35 43 78 44 72 45
REMARK SMILES IDX 71 46 36 48 62 49 45 50 61 51 46 52 49 53 60 54 76 55 47 56
REMARK SMILES IDX 48 57 59 59 77 60 50 61 37 62 38 63 43 64 39 65 40 66 42 67
REMARK SMILES IDX 44 68 41 69 63 70 64 71 69 72 65 73 66 74 68 75 70 76 67 77
REMARK SMILES IDX 51 78 52 79 57 80 53 81 54 82 56 83 58 84 55 85
REMARK H PARENT 17 22 15 24 75 47 49 58
REMARK Flexibility Score: inf
ROOT
ATOM      1  O   UNL A   1      40.848  21.452  25.556  1.00  0.00    -0.462 OA
ENDROOT
BRANCH   1   2
ATOM      2  C   UNL A   1      39.844  21.849  26.382  1.00  0.00     0.305 C 
ATOM      3  O   UNL A   1      40.020  22.249  27.528  1.00  0.00    -0.252 OA
BRANCH   2   4
ATOM      4  C   UNL A   1      38.458  21.539  25.835  1.00  0.00     0.124 C 
BRANCH   4   5
ATOM      5  C   UNL A   1      37.557  22.646  25.254  1.00  0.00     0.034 C 
BRANCH   5   6
ATOM      6  C   UNL A   1      36.110  22.691  25.775  1.00  0.00     0.128 C 
BRANCH   6   7
ATOM      7  N   UNL A   1      35.019  22.407  24.839  1.00  0.00    -0.293 N 
ATOM      8  C   UNL A   1      34.627  21.087  24.674  1.00  0.00     0.266 C 
ATOM      9  C   UNL A   1      34.147  23.358  24.335  1.00  0.00     0.148 C 
ATOM     10  O   UNL A   1      35.275  20.115  25.031  1.00  0.00    -0.268 OA
ATOM     11  C   UNL A   1      33.240  21.048  24.114  1.00  0.00     0.081 C 
ATOM     12  S   UNL A   1      32.802  22.594  23.522  1.00  0.00    -0.054 SA
ATOM     13  S   UNL A   1      34.156  25.014  24.465  1.00  0.00    -0.052 S 
ATOM     14  C   UNL A   1      32.365  20.038  24.097  1.00  0.00     0.029 C 
BRANCH  14  15
ATOM     15  C   UNL A   1      32.723  18.671  24.426  1.00  0.00    -0.020 A 
ATOM     16  C   UNL A   1      32.606  18.138  25.716  1.00  0.00     0.012 A 
ATOM     17  C   UNL A   1      33.291  17.923  23.393  1.00  0.00     0.058 A 
ATOM     18  C   UNL A   1      33.103  16.861  25.983  1.00  0.00     0.051 A 
ATOM     19  C   UNL A   1      33.786  16.665  23.670  1.00  0.00     0.157 A 
ATOM     20  C   UNL A   1      33.705  16.138  24.956  1.00  0.00     0.157 A 
BRANCH  19  21
ATOM     21  O   UNL A   1      34.387  15.964  22.666  1.00  0.00    -0.504 OA
ATOM     22  H   UNL A   1      34.037  15.138  22.398  1.00  0.00     0.293 HD
ENDBRANCH  19  21
BRANCH  20  23
ATOM     23  O   UNL A   1      34.253  14.904  25.164  1.00  0.00    -0.504 OA
ATOM     24  H   UNL A   1      34.428  14.340  24.436  1.00  0.00     0.293 HD
ENDBRANCH  20  23
ENDBRANCH  14  15
ENDBRANCH   6   7
ENDBRANCH   5   6
ENDBRANCH   4   5
ENDBRANCH   2   4
ENDBRANCH   1   2
BRANCH   1  25
ATOM     25  C   UNL A   1      42.090  21.177  26.237  1.00  0.00     0.274 C 
BRANCH  25  26
ATOM     26  C   UNL A   1      43.267  21.900  25.550  1.00  0.00     0.275 C 
BRANCH  26  27
ATOM     27  O   UNL A   1      42.835  23.185  25.044  1.00  0.00    -0.458 OA
BRANCH  27  28
ATOM     28  C   UNL A   1      43.659  24.247  25.144  1.00  0.00     0.338 C 
ATOM     29  O   UNL A   1      44.674  24.456  24.505  1.00  0.00    -0.246 OA
BRANCH  28  30
ATOM     30  C   UNL A   1      43.086  25.177  26.148  1.00  0.00     0.060 A 
ATOM     31  C   UNL A   1      43.519  26.503  26.168  1.00  0.00     0.016 A 
ATOM     32  C   UNL A   1      42.143  24.746  27.088  1.00  0.00     0.016 A 
ATOM     33  C   UNL A   1      43.054  27.378  27.162  1.00  0.00     0.010 A 
ATOM     34  C   UNL A   1      41.646  25.632  28.054  1.00  0.00     0.010 A 
ATOM     35  C   UNL A   1      42.135  26.946  28.132  1.00  0.00    -0.014 A 
BRANCH  35  36
ATOM     36  C   UNL A   1      41.799  27.821  29.294  1.00  0.00     0.031 A 
ATOM     37  C   UNL A   1      40.597  28.731  29.220  1.00  0.00     0.074 A 
ATOM     38  C   UNL A   1      42.524  27.794  30.429  1.00  0.00     0.049 A 
ATOM     39  N   UNL A   1      40.060  29.477  30.155  1.00  0.00    -0.248 NA
ATOM     40  C   UNL A   1      39.911  28.818  27.922  1.00  0.00     0.031 C 
ATOM     41  C   UNL A   1      43.728  26.996  30.647  1.00  0.00     0.029 A 
ATOM     42  N   UNL A   1      42.343  28.461  31.620  1.00  0.00    -0.354 N 
ATOM     43  C   UNL A   1      38.964  30.097  29.567  1.00  0.00     0.074 A 
ATOM     44  C   UNL A   1      38.953  29.696  28.177  1.00  0.00     0.031 C 
ATOM     45  C   UNL A   1      44.170  27.206  31.901  1.00  0.00     0.029 A 
ATOM     46  C   UNL A   1      43.283  28.156  32.574  1.00  0.00     0.049 A 
ATOM     47  H   UNL A   1      41.608  29.097  31.774  1.00  0.00     0.167 HD
ATOM     48  C   UNL A   1      38.031  30.902  30.131  1.00  0.00     0.037 A 
ATOM     49  C   UNL A   1      43.413  28.582  33.847  1.00  0.00     0.037 A 
ATOM     50  C   UNL A   1      38.030  31.322  31.507  1.00  0.00     0.049 A 
ATOM     51  C   UNL A   1      42.393  29.522  34.440  1.00  0.00     0.074 A 
ATOM     52  C   UNL A   1      37.099  32.105  32.169  1.00  0.00     0.029 A 
ATOM     53  N   UNL A   1      39.017  31.013  32.428  1.00  0.00    -0.354 N 
ATOM     54  N   UNL A   1      41.308  30.018  33.897  1.00  0.00    -0.248 NA
ATOM     55  C   UNL A   1      42.611  29.948  35.832  1.00  0.00     0.031 C 
ATOM     56  C   UNL A   1      37.548  32.310  33.478  1.00  0.00     0.029 A 
ATOM     57  C   UNL A   1      38.732  31.611  33.645  1.00  0.00     0.049 A 
ATOM     58  H   UNL A   1      39.804  30.450  32.245  1.00  0.00     0.167 HD
ATOM     59  C   UNL A   1      40.700  30.781  34.888  1.00  0.00     0.074 A 
ATOM     60  C   UNL A   1      41.530  30.676  36.069  1.00  0.00     0.031 C 
ATOM     61  C   UNL A   1      39.553  31.500  34.824  1.00  0.00     0.037 A 
BRANCH  48  62
ATOM     62  C   UNL A   1      36.911  31.377  29.250  1.00  0.00     0.057 A 
ATOM     63  C   UNL A   1      35.818  30.554  28.948  1.00  0.00     0.134 A 
ATOM     64  C   UNL A   1      36.902  32.679  28.736  1.00  0.00     0.134 A 
ATOM     65  F   UNL A   1      35.770  29.292  29.403  1.00  0.00    -0.206 F 
ATOM     66  C   UNL A   1      34.767  30.999  28.144  1.00  0.00     0.040 A 
ATOM     67  C   UNL A   1      35.844  33.146  27.953  1.00  0.00     0.040 A 
ATOM     68  F   UNL A   1      37.912  33.522  28.996  1.00  0.00    -0.206 F 
ATOM     69  C   UNL A   1      34.777  32.302  27.649  1.00  0.00     0.006 A 
ENDBRANCH  48  62
BRANCH  49  70
ATOM     70  C   UNL A   1      44.544  28.100  34.682  1.00  0.00     0.057 A 
ATOM     71  C   UNL A   1      44.403  26.988  35.522  1.00  0.00     0.134 A 
ATOM     72  C   UNL A   1      45.776  28.765  34.694  1.00  0.00     0.134 A 
ATOM     73  F   UNL A   1      43.238  26.326  35.576  1.00  0.00    -0.206 F 
ATOM     74  C   UNL A   1      45.440  26.566  36.358  1.00  0.00     0.040 A 
ATOM     75  C   UNL A   1      46.828  28.340  35.507  1.00  0.00     0.040 A 
ATOM     76  F   UNL A   1      45.972  29.839  33.916  1.00  0.00    -0.206 F 
ATOM     77  C   UNL A   1      46.659  27.241  36.348  1.00  0.00     0.006 A 
ENDBRANCH  49  70
BRANCH  61  78
ATOM     78  C   UNL A   1      39.096  32.206  36.069  1.00  0.00     0.057 A 
ATOM     79  C   UNL A   1      39.504  33.510  36.375  1.00  0.00     0.134 A 
ATOM     80  C   UNL A   1      38.195  31.590  36.949  1.00  0.00     0.134 A 
ATOM     81  F   UNL A   1      40.372  34.155  35.582  1.00  0.00    -0.206 F 
ATOM     82  C   UNL A   1      39.049  34.169  37.520  1.00  0.00     0.040 A 
ATOM     83  C   UNL A   1      37.713  32.248  38.083  1.00  0.00     0.040 A 
ATOM     84  F   UNL A   1      37.755  30.345  36.712  1.00  0.00    -0.206 F 
ATOM     85  C   UNL A   1      38.145  33.539  38.374  1.00  0.00     0.006 A 
ENDBRANCH  61  78
ENDBRANCH  35  36
ENDBRANCH  28  30
ENDBRANCH  27  28
ENDBRANCH  26  27
ENDBRANCH  25  26
ENDBRANCH   1  25
TORSDOF 17
ENDMDL
MODEL 2
REMARK VINA RESULT:     -11.7      4.661      9.265
REMARK SMILES O=C(CCCN1C(=O)/C(=C\c2ccc(O)c(O)c2)SC1=S)OCCOC(=O)c1ccc(-c2c3nc(c(-c4c(F)cccc4F)c4ccc([nH]4)c(-c4c(F)cccc4F)c4nc(c(-c5c(F)cccc5F)c5ccc2[nH]5)C=C4)C=C3)cc1
REMARK SMILES IDX 22 1 2 2 1 3 3 4 4 5 5 6 6 7 7 8 20 9 8 10 9 11 19 12 21 13
REMARK SMILES IDX 10 14 11 15 12 16 18 17 13 18 16 19 14 20 17 21 15 23 23 25
REMARK SMILES IDX 24 26 25 27 26 28 27 29 28 30 29 31 81 32 30 33 80 34 31 35
REMARK SMILES IDX 32 36 33 37 74 38 34 39 79 40 73 41 75 42 35 43 78 44 72 45
REMARK SMILES IDX 71 46 36 48 62 49 45 50 61 51 46 52 49 53 60 54 76 55 47 56
REMARK SMILES IDX 48 57 59 59 77 60 50 61 37 62 38 63 43 64 39 65 40 66 42 67
REMARK SMILES IDX 44 68 41 69 63 70 64 71 69 72 65 73 66 74 68 75 70 76 67 77
REMARK SMILES IDX 51 78 52 79 57 80 53 81 54 82 56 83 58 84 55 85
REMARK H PARENT 17 22 15 24 75 47 49 58
REMARK Flexibility Score: inf
ROOT
ATOM      1  O   UNL A   1      32.426  30.403  26.923  1.00  0.00    -0.462 OA
ENDROOT
BRANCH   1   2
ATOM      2  C   UNL A   1      33.170  29.628  26.090  1.00  0.00     0.305 C 
ATOM      3  O   UNL A   1      33.103  29.679  24.867  1.00  0.00    -0.252 OA
BRANCH   2   4
ATOM      4  C   UNL A   1      33.935  28.529  26.816  1.00  0.00     0.124 C 
BRANCH   4   5
ATOM      5  C   UNL A   1      34.198  27.163  26.155  1.00  0.00     0.034 C 
BRANCH   5   6
ATOM      6  C   UNL A   1      32.998  26.205  26.068  1.00  0.00     0.128 C 
BRANCH   6   7
ATOM      7  N   UNL A   1      32.367  25.988  24.763  1.00  0.00    -0.293 N 
ATOM      8  C   UNL A   1      31.276  26.774  24.426  1.00  0.00     0.266 C 
ATOM      9  C   UNL A   1      32.943  25.283  23.719  1.00  0.00     0.148 C 
ATOM     10  O   UNL A   1      30.627  27.445  25.214  1.00  0.00    -0.268 OA
ATOM     11  C   UNL A   1      31.104  26.773  22.940  1.00  0.00     0.081 C 
ATOM     12  S   UNL A   1      32.040  25.520  22.241  1.00  0.00    -0.054 SA
ATOM     13  S   UNL A   1      34.333  24.375  23.659  1.00  0.00    -0.052 S 
ATOM     14  C   UNL A   1      30.413  27.618  22.170  1.00  0.00     0.029 C 
BRANCH  14  15
ATOM     15  C   UNL A   1      29.473  28.589  22.699  1.00  0.00    -0.020 A 
ATOM     16  C   UNL A   1      28.124  28.298  22.936  1.00  0.00     0.012 A 
ATOM     17  C   UNL A   1      29.966  29.884  22.874  1.00  0.00     0.058 A 
ATOM     18  C   UNL A   1      27.252  29.322  23.310  1.00  0.00     0.051 A 
ATOM     19  C   UNL A   1      29.094  30.889  23.237  1.00  0.00     0.157 A 
ATOM     20  C   UNL A   1      27.745  30.618  23.444  1.00  0.00     0.157 A 
BRANCH  19  21
ATOM     21  O   UNL A   1      29.575  32.160  23.353  1.00  0.00    -0.504 OA
ATOM     22  H   UNL A   1      29.714  32.679  22.585  1.00  0.00     0.293 HD
ENDBRANCH  19  21
BRANCH  20  23
ATOM     23  O   UNL A   1      26.934  31.671  23.760  1.00  0.00    -0.504 OA
ATOM     24  H   UNL A   1      26.920  32.433  23.214  1.00  0.00     0.293 HD
ENDBRANCH  20  23
ENDBRANCH  14  15
ENDBRANCH   6   7
ENDBRANCH   5   6
ENDBRANCH   4   5
ENDBRANCH   2   4
ENDBRANCH   1   2
BRANCH   1  25
ATOM     25  C   UNL A   1      31.474  31.245  26.241  1.00  0.00     0.274 C 
BRANCH  25  26
ATOM     26  C   UNL A   1      31.410  32.643  26.891  1.00  0.00     0.275 C 
BRANCH  26  27
ATOM     27  O   UNL A   1      32.722  33.252  26.893  1.00  0.00    -0.458 OA
BRANCH  27  28
ATOM     28  C   UNL A   1      33.193  33.808  28.026  1.00  0.00     0.338 C 
ATOM     29  O   UNL A   1      32.678  34.696  28.683  1.00  0.00    -0.246 OA
BRANCH  28  30
ATOM     30  C   UNL A   1      34.449  33.108  28.392  1.00  0.00     0.060 A 
ATOM     31  C   UNL A   1      34.379  31.810  28.896  1.00  0.00     0.016 A 
ATOM     32  C   UNL A   1      35.695  33.733  28.267  1.00  0.00     0.016 A 
ATOM     33  C   UNL A   1      35.546  31.161  29.327  1.00  0.00     0.010 A 
ATOM     34  C   UNL A   1      36.866  33.068  28.657  1.00  0.00     0.010 A 
ATOM     35  C   UNL A   1      36.798  31.792  29.239  1.00  0.00    -0.014 A 
BRANCH  35  36
ATOM     36  C   UNL A   1      37.999  31.176  29.876  1.00  0.00     0.031 A 
ATOM     37  C   UNL A   1      38.333  31.501  31.312  1.00  0.00     0.074 A 
ATOM     38  C   UNL A   1      38.780  30.303  29.211  1.00  0.00     0.049 A 
ATOM     39  N   UNL A   1      39.254  30.984  32.089  1.00  0.00    -0.248 NA
ATOM     40  C   UNL A   1      37.528  32.550  31.958  1.00  0.00     0.031 C 
ATOM     41  C   UNL A   1      38.611  29.909  27.814  1.00  0.00     0.029 A 
ATOM     42  N   UNL A   1      39.875  29.583  29.632  1.00  0.00    -0.354 N 
ATOM     43  C   UNL A   1      39.121  31.624  33.316  1.00  0.00     0.074 A 
ATOM     44  C   UNL A   1      38.078  32.615  33.160  1.00  0.00     0.031 C 
ATOM     45  C   UNL A   1      39.557  29.007  27.497  1.00  0.00     0.029 A 
ATOM     46  C   UNL A   1      40.403  28.761  28.666  1.00  0.00     0.049 A 
ATOM     47  H   UNL A   1      40.246  29.651  30.541  1.00  0.00     0.167 HD
ATOM     48  C   UNL A   1      39.778  31.393  34.478  1.00  0.00     0.037 A 
ATOM     49  C   UNL A   1      41.440  27.901  28.716  1.00  0.00     0.037 A 
ATOM     50  C   UNL A   1      40.826  30.421  34.651  1.00  0.00     0.049 A 
ATOM     51  C   UNL A   1      42.196  27.697  30.005  1.00  0.00     0.074 A 
ATOM     52  C   UNL A   1      41.517  30.095  35.806  1.00  0.00     0.029 A 
ATOM     53  N   UNL A   1      41.347  29.632  33.639  1.00  0.00    -0.354 N 
ATOM     54  N   UNL A   1      41.991  28.239  31.181  1.00  0.00    -0.248 NA
ATOM     55  C   UNL A   1      43.321  26.749  29.974  1.00  0.00     0.031 C 
ATOM     56  C   UNL A   1      42.491  29.144  35.482  1.00  0.00     0.029 A 
ATOM     57  C   UNL A   1      42.370  28.841  34.136  1.00  0.00     0.049 A 
ATOM     58  H   UNL A   1      41.036  29.633  32.705  1.00  0.00     0.167 HD
ATOM     59  C   UNL A   1      42.932  27.672  32.033  1.00  0.00     0.074 A 
ATOM     60  C   UNL A   1      43.705  26.737  31.243  1.00  0.00     0.031 C 
ATOM     61  C   UNL A   1      43.134  27.903  33.353  1.00  0.00     0.037 A 
BRANCH  48  62
ATOM     62  C   UNL A   1      39.371  32.207  35.672  1.00  0.00     0.057 A 
ATOM     63  C   UNL A   1      39.893  33.488  35.896  1.00  0.00     0.134 A 
ATOM     64  C   UNL A   1      38.420  31.729  36.581  1.00  0.00     0.134 A 
ATOM     65  F   UNL A   1      40.814  34.002  35.066  1.00  0.00    -0.206 F 
ATOM     66  C   UNL A   1      39.503  34.255  36.995  1.00  0.00     0.040 A 
ATOM     67  C   UNL A   1      38.002  32.496  37.670  1.00  0.00     0.040 A 
ATOM     68  F   UNL A   1      37.873  30.515  36.419  1.00  0.00    -0.206 F 
ATOM     69  C   UNL A   1      38.550  33.760  37.883  1.00  0.00     0.006 A 
ENDBRANCH  48  62
BRANCH  49  70
ATOM     70  C   UNL A   1      41.822  27.123  27.508  1.00  0.00     0.057 A 
ATOM     71  C   UNL A   1      41.353  25.818  27.307  1.00  0.00     0.134 A 
ATOM     72  C   UNL A   1      42.698  27.648  26.551  1.00  0.00     0.134 A 
ATOM     73  F   UNL A   1      40.533  25.250  28.204  1.00  0.00    -0.206 F 
ATOM     74  C   UNL A   1      41.757  25.057  26.208  1.00  0.00     0.040 A 
ATOM     75  C   UNL A   1      43.091  26.907  25.435  1.00  0.00     0.040 A 
ATOM     76  F   UNL A   1      43.185  28.890  26.688  1.00  0.00    -0.206 F 
ATOM     77  C   UNL A   1      42.625  25.604  25.265  1.00  0.00     0.006 A 
ENDBRANCH  49  70
BRANCH  61  78
ATOM     78  C   UNL A   1      44.206  27.113  34.048  1.00  0.00     0.057 A 
ATOM     79  C   UNL A   1      43.953  25.859  34.617  1.00  0.00     0.134 A 
ATOM     80  C   UNL A   1      45.523  27.591  34.103  1.00  0.00     0.134 A 
ATOM     81  F   UNL A   1      42.714  25.346  34.608  1.00  0.00    -0.206 F 
ATOM     82  C   UNL A   1      44.964  25.118  35.234  1.00  0.00     0.040 A 
ATOM     83  C   UNL A   1      46.548  26.848  34.694  1.00  0.00     0.040 A 
ATOM     84  F   UNL A   1      45.839  28.780  33.569  1.00  0.00    -0.206 F 
ATOM     85  C   UNL A   1      46.268  25.610  35.267  1.00  0.00     0.006 A 
ENDBRANCH  61  78
ENDBRANCH  35  36
ENDBRANCH  28  30
ENDBRANCH  27  28
ENDBRANCH  26  27
ENDBRANCH  25  26
ENDBRANCH   1  25
TORSDOF 17
ENDMDL
MODEL 3
REMARK VINA RESULT:     -11.3      5.129      9.622
REMARK SMILES O=C(CCCN1C(=O)/C(=C\c2ccc(O)c(O)c2)SC1=S)OCCOC(=O)c1ccc(-c2c3nc(c(-c4c(F)cccc4F)c4ccc([nH]4)c(-c4c(F)cccc4F)c4nc(c(-c5c(F)cccc5F)c5ccc2[nH]5)C=C4)C=C3)cc1
REMARK SMILES IDX 22 1 2 2 1 3 3 4 4 5 5 6 6 7 7 8 20 9 8 10 9 11 19 12 21 13
REMARK SMILES IDX 10 14 11 15 12 16 18 17 13 18 16 19 14 20 17 21 15 23 23 25
REMARK SMILES IDX 24 26 25 27 26 28 27 29 28 30 29 31 81 32 30 33 80 34 31 35
REMARK SMILES IDX 32 36 33 37 74 38 34 39 79 40 73 41 75 42 35 43 78 44 72 45
REMARK SMILES IDX 71 46 36 48 62 49 45 50 61 51 46 52 49 53 60 54 76 55 47 56
REMARK SMILES IDX 48 57 59 59 77 60 50 61 37 62 38 63 43 64 39 65 40 66 42 67
REMARK SMILES IDX 44 68 41 69 63 70 64 71 69 72 65 73 66 74 68 75 70 76 67 77
REMARK SMILES IDX 51 78 52 79 57 80 53 81 54 82 56 83 58 84 55 85
REMARK H PARENT 17 22 15 24 75 47 49 58
REMARK Flexibility Score: inf
ROOT
ATOM      1  O   UNL A   1      32.635  30.425  25.803  1.00  0.00    -0.462 OA
ENDROOT
BRANCH   1   2
ATOM      2  C   UNL A   1      33.099  29.295  26.399  1.00  0.00     0.305 C 
ATOM      3  O   UNL A   1      32.998  29.065  27.599  1.00  0.00    -0.252 OA
BRANCH   2   4
ATOM      4  C   UNL A   1      33.958  28.439  25.478  1.00  0.00     0.124 C 
BRANCH   4   5
ATOM      5  C   UNL A   1      33.858  28.557  23.945  1.00  0.00     0.034 C 
BRANCH   5   6
ATOM      6  C   UNL A   1      33.010  27.489  23.233  1.00  0.00     0.128 C 
BRANCH   6   7
ATOM      7  N   UNL A   1      31.608  27.329  23.629  1.00  0.00    -0.293 N 
ATOM      8  C   UNL A   1      30.746  28.396  23.428  1.00  0.00     0.266 C 
ATOM      9  C   UNL A   1      31.002  26.114  23.903  1.00  0.00     0.148 C 
ATOM     10  O   UNL A   1      31.097  29.545  23.200  1.00  0.00    -0.268 OA
ATOM     11  C   UNL A   1      29.336  27.898  23.406  1.00  0.00     0.081 C 
ATOM     12  S   UNL A   1      29.268  26.300  24.017  1.00  0.00    -0.054 SA
ATOM     13  S   UNL A   1      31.645  24.588  24.042  1.00  0.00    -0.052 S 
ATOM     14  C   UNL A   1      28.238  28.495  22.934  1.00  0.00     0.029 C 
BRANCH  14  15
ATOM     15  C   UNL A   1      28.192  29.897  22.561  1.00  0.00    -0.020 A 
ATOM     16  C   UNL A   1      28.159  30.938  23.497  1.00  0.00     0.012 A 
ATOM     17  C   UNL A   1      28.084  30.162  21.194  1.00  0.00     0.058 A 
ATOM     18  C   UNL A   1      27.972  32.252  23.063  1.00  0.00     0.051 A 
ATOM     19  C   UNL A   1      27.893  31.463  20.777  1.00  0.00     0.157 A 
ATOM     20  C   UNL A   1      27.826  32.502  21.701  1.00  0.00     0.157 A 
BRANCH  19  21
ATOM     21  O   UNL A   1      27.735  31.705  19.444  1.00  0.00    -0.504 OA
ATOM     22  H   UNL A   1      27.311  31.070  18.901  1.00  0.00     0.293 HD
ENDBRANCH  19  21
BRANCH  20  23
ATOM     23  O   UNL A   1      27.592  33.758  21.218  1.00  0.00    -0.504 OA
ATOM     24  H   UNL A   1      28.238  34.184  20.689  1.00  0.00     0.293 HD
ENDBRANCH  20  23
ENDBRANCH  14  15
ENDBRANCH   6   7
ENDBRANCH   5   6
ENDBRANCH   4   5
ENDBRANCH   2   4
ENDBRANCH   1   2
BRANCH   1  25
ATOM     25  C   UNL A   1      31.685  31.159  26.602  1.00  0.00     0.274 C 
BRANCH  25  26
ATOM     26  C   UNL A   1      32.002  32.669  26.586  1.00  0.00     0.275 C 
BRANCH  26  27
ATOM     27  O   UNL A   1      32.100  33.172  27.939  1.00  0.00    -0.458 OA
BRANCH  27  28
ATOM     28  C   UNL A   1      33.037  34.092  28.237  1.00  0.00     0.338 C 
ATOM     29  O   UNL A   1      32.901  35.303  28.268  1.00  0.00    -0.246 OA
BRANCH  28  30
ATOM     30  C   UNL A   1      34.287  33.375  28.587  1.00  0.00     0.060 A 
ATOM     31  C   UNL A   1      34.204  32.090  29.123  1.00  0.00     0.016 A 
ATOM     32  C   UNL A   1      35.543  33.970  28.416  1.00  0.00     0.016 A 
ATOM     33  C   UNL A   1      35.368  31.426  29.539  1.00  0.00     0.010 A 
ATOM     34  C   UNL A   1      36.709  33.289  28.792  1.00  0.00     0.010 A 
ATOM     35  C   UNL A   1      36.630  32.028  29.406  1.00  0.00    -0.014 A 
BRANCH  35  36
ATOM     36  C   UNL A   1      37.833  31.402  30.027  1.00  0.00     0.031 A 
ATOM     37  C   UNL A   1      38.194  31.730  31.456  1.00  0.00     0.074 A 
ATOM     38  C   UNL A   1      38.594  30.516  29.353  1.00  0.00     0.049 A 
ATOM     39  N   UNL A   1      39.121  31.206  32.221  1.00  0.00    -0.248 NA
ATOM     40  C   UNL A   1      37.412  32.791  32.108  1.00  0.00     0.031 C 
ATOM     41  C   UNL A   1      38.398  30.118  27.961  1.00  0.00     0.029 A 
ATOM     42  N   UNL A   1      39.688  29.787  29.761  1.00  0.00    -0.354 N 
ATOM     43  C   UNL A   1      39.015  31.854  33.446  1.00  0.00     0.074 A 
ATOM     44  C   UNL A   1      37.981  32.856  33.302  1.00  0.00     0.031 C 
ATOM     45  C   UNL A   1      39.329  29.204  27.634  1.00  0.00     0.029 A 
ATOM     46  C   UNL A   1      40.191  28.954  28.790  1.00  0.00     0.049 A 
ATOM     47  H   UNL A   1      40.073  29.854  30.663  1.00  0.00     0.167 HD
ATOM     48  C   UNL A   1      39.688  31.620  34.599  1.00  0.00     0.037 A 
ATOM     49  C   UNL A   1      41.219  28.082  28.828  1.00  0.00     0.037 A 
ATOM     50  C   UNL A   1      40.727  30.638  34.760  1.00  0.00     0.049 A 
ATOM     51  C   UNL A   1      41.992  27.876  30.107  1.00  0.00     0.074 A 
ATOM     52  C   UNL A   1      41.433  30.309  35.905  1.00  0.00     0.029 A 
ATOM     53  N   UNL A   1      41.223  29.838  33.744  1.00  0.00    -0.354 N 
ATOM     54  N   UNL A   1      41.812  28.426  31.283  1.00  0.00    -0.248 NA
ATOM     55  C   UNL A   1      43.106  26.915  30.063  1.00  0.00     0.031 C 
ATOM     56  C   UNL A   1      42.391  29.346  35.570  1.00  0.00     0.029 A 
ATOM     57  C   UNL A   1      42.245  29.038  34.229  1.00  0.00     0.049 A 
ATOM     58  H   UNL A   1      40.897  29.838  32.814  1.00  0.00     0.167 HD
ATOM     59  C   UNL A   1      42.761  27.852  32.123  1.00  0.00     0.074 A 
ATOM     60  C   UNL A   1      43.510  26.905  31.325  1.00  0.00     0.031 C 
ATOM     61  C   UNL A   1      42.986  28.087  33.438  1.00  0.00     0.037 A 
BRANCH  48  62
ATOM     62  C   UNL A   1      39.310  32.445  35.795  1.00  0.00     0.057 A 
ATOM     63  C   UNL A   1      38.427  31.960  36.769  1.00  0.00     0.134 A 
ATOM     64  C   UNL A   1      39.863  33.716  35.999  1.00  0.00     0.134 A 
ATOM     65  F   UNL A   1      37.856  30.754  36.629  1.00  0.00    -0.206 F 
ATOM     66  C   UNL A   1      38.087  32.718  37.890  1.00  0.00     0.040 A 
ATOM     67  C   UNL A   1      39.552  34.473  37.130  1.00  0.00     0.040 A 
ATOM     68  F   UNL A   1      40.723  34.235  35.110  1.00  0.00    -0.206 F 
ATOM     69  C   UNL A   1      38.656  33.977  38.075  1.00  0.00     0.006 A 
ENDBRANCH  48  62
BRANCH  49  70
ATOM     70  C   UNL A   1      41.572  27.294  27.619  1.00  0.00     0.057 A 
ATOM     71  C   UNL A   1      42.423  27.816  26.636  1.00  0.00     0.134 A 
ATOM     72  C   UNL A   1      41.033  26.022  27.395  1.00  0.00     0.134 A 
ATOM     73  F   UNL A   1      42.948  29.042  26.780  1.00  0.00    -0.206 F 
ATOM     74  C   UNL A   1      42.710  27.110  25.466  1.00  0.00     0.040 A 
ATOM     75  C   UNL A   1      41.331  25.294  26.242  1.00  0.00     0.040 A 
ATOM     76  F   UNL A   1      40.209  25.468  28.296  1.00  0.00    -0.206 F 
ATOM     77  C   UNL A   1      42.166  25.842  25.269  1.00  0.00     0.006 A 
ENDBRANCH  49  70
BRANCH  61  78
ATOM     78  C   UNL A   1      44.060  27.289  34.120  1.00  0.00     0.057 A 
ATOM     79  C   UNL A   1      45.371  27.765  34.249  1.00  0.00     0.134 A 
ATOM     80  C   UNL A   1      43.767  26.048  34.701  1.00  0.00     0.134 A 
ATOM     81  F   UNL A   1      45.722  28.942  33.709  1.00  0.00    -0.206 F 
ATOM     82  C   UNL A   1      46.355  27.028  34.913  1.00  0.00     0.040 A 
ATOM     83  C   UNL A   1      44.735  25.313  35.389  1.00  0.00     0.040 A 
ATOM     84  F   UNL A   1      42.529  25.535  34.624  1.00  0.00    -0.206 F 
ATOM     85  C   UNL A   1      46.035  25.802  35.491  1.00  0.00     0.006 A 
ENDBRANCH  61  78
ENDBRANCH  35  36
ENDBRANCH  28  30
ENDBRANCH  27  28
ENDBRANCH  26  27
ENDBRANCH  25  26
ENDBRANCH   1  25
TORSDOF 17
ENDMDL
