MODEL 1
REMARK VINA RESULT:     -12.3      0.000      0.000
REMARK SMILES O=C(OCCOC(=O)c1cccc(S(=O)(=O)NC[C@@H]2COc3ccccc3O2)c1)c1ccc(-c2c3nc(c(-c4c(F)cccc4F)c4ccc([nH]4)c(-c4c(F)cccc4F)c4nc(c(-c5c(F)cccc5F)c5ccc2[nH]5)C=C4)C=C3)cc1
REMARK SMILES IDX 5 1 4 2 3 3 2 4 1 5 30 6 31 7 83 8 32 9 82 10 33 11 34 12
REMARK SMILES IDX 35 13 76 14 36 15 81 16 75 17 77 18 37 19 80 20 74 21 73 22
REMARK SMILES IDX 38 24 64 25 47 26 63 27 48 28 51 29 62 30 78 31 49 32 50 33
REMARK SMILES IDX 61 35 79 36 52 37 39 38 40 39 45 40 41 41 42 42 44 43 46 44
REMARK SMILES IDX 43 45 65 46 66 47 71 48 67 49 68 50 70 51 72 52 69 53 53 54
REMARK SMILES IDX 54 55 59 56 55 57 56 58 58 59 60 60 57 61 6 62 7 63 8 64
REMARK SMILES IDX 9 65 10 66 29 67 11 68 13 69 12 70 14 71 15 72 16 73 17 74
REMARK SMILES IDX 18 76 19 77 20 78 28 79 21 80 27 81 22 82 26 83 23 84 25 85
REMARK SMILES IDX 24 86
REMARK H PARENT 77 23 51 34 17 75
REMARK Flexibility Score: inf
ROOT
ATOM      1  C   UNL A   1      32.483  30.943  26.883  1.00  0.00     0.275 C 
ENDROOT
BRANCH   1   2
ATOM      2  C   UNL A   1      31.614  32.198  27.005  1.00  0.00     0.275 C 
BRANCH   2   3
ATOM      3  O   UNL A   1      32.323  33.451  27.049  1.00  0.00    -0.458 OA
BRANCH   3   4
ATOM      4  C   UNL A   1      32.932  34.052  28.099  1.00  0.00     0.338 C 
ATOM      5  O   UNL A   1      32.535  35.145  28.496  1.00  0.00    -0.246 OA
BRANCH   4   6
ATOM      6  C   UNL A   1      34.178  33.508  28.703  1.00  0.00     0.060 A 
ATOM      7  C   UNL A   1      35.459  33.704  28.185  1.00  0.00     0.016 A 
ATOM      8  C   UNL A   1      34.028  32.696  29.841  1.00  0.00     0.016 A 
ATOM      9  C   UNL A   1      36.577  33.177  28.836  1.00  0.00     0.010 A 
ATOM     10  C   UNL A   1      35.142  32.159  30.492  1.00  0.00     0.010 A 
ATOM     11  C   UNL A   1      36.426  32.396  29.985  1.00  0.00    -0.014 A 
BRANCH  11  12
ATOM     12  C   UNL A   1      37.602  31.695  30.544  1.00  0.00     0.031 A 
ATOM     13  C   UNL A   1      38.140  32.134  31.871  1.00  0.00     0.074 A 
ATOM     14  C   UNL A   1      38.137  30.626  29.930  1.00  0.00     0.049 A 
ATOM     15  N   UNL A   1      39.097  31.602  32.582  1.00  0.00    -0.248 NA
ATOM     16  C   UNL A   1      37.475  33.283  32.506  1.00  0.00     0.031 C 
ATOM     17  C   UNL A   1      37.634  30.020  28.702  1.00  0.00     0.029 A 
ATOM     18  N   UNL A   1      39.246  29.880  30.241  1.00  0.00    -0.354 N 
ATOM     19  C   UNL A   1      39.083  32.284  33.787  1.00  0.00     0.074 A 
ATOM     20  C   UNL A   1      38.098  33.338  33.673  1.00  0.00     0.031 C 
ATOM     21  C   UNL A   1      38.493  29.063  28.305  1.00  0.00     0.029 A 
ATOM     22  C   UNL A   1      39.601  29.002  29.247  1.00  0.00     0.049 A 
ATOM     23  H   UNL A   1      39.737  29.967  31.090  1.00  0.00     0.167 HD
ATOM     24  C   UNL A   1      39.786  32.009  34.910  1.00  0.00     0.037 A 
ATOM     25  C   UNL A   1      40.713  28.260  29.096  1.00  0.00     0.037 A 
ATOM     26  C   UNL A   1      40.807  31.001  34.995  1.00  0.00     0.049 A 
ATOM     27  C   UNL A   1      41.674  28.175  30.242  1.00  0.00     0.074 A 
ATOM     28  C   UNL A   1      41.579  30.638  36.083  1.00  0.00     0.029 A 
ATOM     29  N   UNL A   1      41.222  30.216  33.928  1.00  0.00    -0.354 N 
ATOM     30  N   UNL A   1      41.611  28.767  31.409  1.00  0.00    -0.248 NA
ATOM     31  C   UNL A   1      42.814  27.262  30.085  1.00  0.00     0.031 C 
ATOM     32  C   UNL A   1      42.495  29.666  35.660  1.00  0.00     0.029 A 
ATOM     33  C   UNL A   1      42.268  29.397  34.321  1.00  0.00     0.049 A 
ATOM     34  H   UNL A   1      40.831  30.238  33.025  1.00  0.00     0.167 HD
ATOM     35  C   UNL A   1      42.652  28.240  32.156  1.00  0.00     0.074 A 
ATOM     36  C   UNL A   1      43.357  27.311  31.294  1.00  0.00     0.031 C 
ATOM     37  C   UNL A   1      42.959  28.473  33.456  1.00  0.00     0.037 A 
BRANCH  24  38
ATOM     38  C   UNL A   1      39.441  32.818  36.119  1.00  0.00     0.057 A 
ATOM     39  C   UNL A   1      40.114  34.016  36.404  1.00  0.00     0.134 A 
ATOM     40  C   UNL A   1      38.471  32.386  37.027  1.00  0.00     0.134 A 
ATOM     41  F   UNL A   1      41.073  34.471  35.583  1.00  0.00    -0.206 F 
ATOM     42  C   UNL A   1      39.852  34.740  37.568  1.00  0.00     0.040 A 
ATOM     43  C   UNL A   1      38.188  33.110  38.185  1.00  0.00     0.040 A 
ATOM     44  F   UNL A   1      37.801  31.244  36.814  1.00  0.00    -0.206 F 
ATOM     45  C   UNL A   1      38.886  34.286  38.463  1.00  0.00     0.006 A 
ENDBRANCH  24  38
BRANCH  25  46
ATOM     46  C   UNL A   1      40.960  27.523  27.835  1.00  0.00     0.057 A 
ATOM     47  C   UNL A   1      40.496  26.218  27.647  1.00  0.00     0.134 A 
ATOM     48  C   UNL A   1      41.688  28.108  26.791  1.00  0.00     0.134 A 
ATOM     49  F   UNL A   1      39.816  25.599  28.623  1.00  0.00    -0.206 F 
ATOM     50  C   UNL A   1      40.749  25.516  26.466  1.00  0.00     0.040 A 
ATOM     51  C   UNL A   1      41.937  27.422  25.599  1.00  0.00     0.040 A 
ATOM     52  F   UNL A   1      42.188  29.344  26.919  1.00  0.00    -0.206 F 
ATOM     53  C   UNL A   1      41.469  26.121  25.436  1.00  0.00     0.006 A 
ENDBRANCH  25  46
BRANCH  37  54
ATOM     54  C   UNL A   1      44.066  27.654  34.043  1.00  0.00     0.057 A 
ATOM     55  C   UNL A   1      45.391  28.101  34.064  1.00  0.00     0.134 A 
ATOM     56  C   UNL A   1      43.792  26.400  34.603  1.00  0.00     0.134 A 
ATOM     57  F   UNL A   1      45.719  29.284  33.522  1.00  0.00    -0.206 F 
ATOM     58  C   UNL A   1      46.411  27.319  34.608  1.00  0.00     0.040 A 
ATOM     59  C   UNL A   1      44.799  25.620  35.171  1.00  0.00     0.040 A 
ATOM     60  F   UNL A   1      42.540  25.916  34.613  1.00  0.00    -0.206 F 
ATOM     61  C   UNL A   1      46.115  26.078  35.169  1.00  0.00     0.006 A 
ENDBRANCH  37  54
ENDBRANCH  11  12
ENDBRANCH   4   6
ENDBRANCH   3   4
ENDBRANCH   2   3
ENDBRANCH   1   2
BRANCH   1  62
ATOM     62  O   UNL A   1      31.747  29.709  26.934  1.00  0.00    -0.458 OA
BRANCH  62  63
ATOM     63  C   UNL A   1      31.762  29.014  25.767  1.00  0.00     0.338 C 
ATOM     64  O   UNL A   1      31.426  29.438  24.673  1.00  0.00    -0.246 OA
BRANCH  63  65
ATOM     65  C   UNL A   1      32.274  27.637  25.957  1.00  0.00     0.061 A 
ATOM     66  C   UNL A   1      33.607  27.388  25.623  1.00  0.00     0.016 A 
ATOM     67  C   UNL A   1      31.453  26.583  26.372  1.00  0.00     0.037 A 
ATOM     68  C   UNL A   1      34.112  26.090  25.690  1.00  0.00     0.002 A 
ATOM     69  C   UNL A   1      31.921  25.268  26.309  1.00  0.00     0.083 A 
ATOM     70  C   UNL A   1      33.264  25.028  26.001  1.00  0.00     0.022 A 
BRANCH  69  71
ATOM     71  S   UNL A   1      30.854  23.871  26.603  1.00  0.00     0.240 S 
ATOM     72  O   UNL A   1      31.583  22.964  27.475  1.00  0.00    -0.207 OA
ATOM     73  O   UNL A   1      29.571  24.378  26.971  1.00  0.00    -0.207 OA
BRANCH  71  74
ATOM     74  N   UNL A   1      30.726  23.017  25.163  1.00  0.00    -0.207 NA
ATOM     75  H   UNL A   1      29.748  22.735  25.099  1.00  0.00     0.141 HD
BRANCH  74  76
ATOM     76  C   UNL A   1      31.069  23.555  23.834  1.00  0.00     0.147 C 
BRANCH  76  77
ATOM     77  C   UNL A   1      32.013  22.560  23.121  1.00  0.00     0.226 C 
ATOM     78  C   UNL A   1      32.179  21.246  23.892  1.00  0.00     0.276 C 
ATOM     79  O   UNL A   1      33.260  23.200  22.799  1.00  0.00    -0.482 OA
ATOM     80  O   UNL A   1      33.015  21.408  25.033  1.00  0.00    -0.486 OA
ATOM     81  C   UNL A   1      34.337  22.726  23.499  1.00  0.00     0.161 A 
ATOM     82  C   UNL A   1      34.228  21.866  24.594  1.00  0.00     0.161 A 
ATOM     83  C   UNL A   1      35.595  23.125  23.060  1.00  0.00     0.050 A 
ATOM     84  C   UNL A   1      35.362  21.416  25.263  1.00  0.00     0.050 A 
ATOM     85  C   UNL A   1      36.739  22.649  23.706  1.00  0.00     0.004 A 
ATOM     86  C   UNL A   1      36.622  21.798  24.806  1.00  0.00     0.004 A 
ENDBRANCH  76  77
ENDBRANCH  74  76
ENDBRANCH  71  74
ENDBRANCH  69  71
ENDBRANCH  63  65
ENDBRANCH  62  63
ENDBRANCH   1  62
TORSDOF 15
ENDMDL
MODEL 2
REMARK VINA RESULT:     -12.1      4.191      9.424
REMARK SMILES O=C(OCCOC(=O)c1cccc(S(=O)(=O)NC[C@@H]2COc3ccccc3O2)c1)c1ccc(-c2c3nc(c(-c4c(F)cccc4F)c4ccc([nH]4)c(-c4c(F)cccc4F)c4nc(c(-c5c(F)cccc5F)c5ccc2[nH]5)C=C4)C=C3)cc1
REMARK SMILES IDX 5 1 4 2 3 3 2 4 1 5 30 6 31 7 83 8 32 9 82 10 33 11 34 12
REMARK SMILES IDX 35 13 76 14 36 15 81 16 75 17 77 18 37 19 80 20 74 21 73 22
REMARK SMILES IDX 38 24 64 25 47 26 63 27 48 28 51 29 62 30 78 31 49 32 50 33
REMARK SMILES IDX 61 35 79 36 52 37 39 38 40 39 45 40 41 41 42 42 44 43 46 44
REMARK SMILES IDX 43 45 65 46 66 47 71 48 67 49 68 50 70 51 72 52 69 53 53 54
REMARK SMILES IDX 54 55 59 56 55 57 56 58 58 59 60 60 57 61 6 62 7 63 8 64
REMARK SMILES IDX 9 65 10 66 29 67 11 68 13 69 12 70 14 71 15 72 16 73 17 74
REMARK SMILES IDX 18 76 19 77 20 78 28 79 21 80 27 81 22 82 26 83 23 84 25 85
REMARK SMILES IDX 24 86
REMARK H PARENT 77 23 51 34 17 75
REMARK Flexibility Score: inf
ROOT
ATOM      1  C   UNL A   1      37.776  20.972  24.993  1.00  0.00     0.275 C 
ENDROOT
BRANCH   1   2
ATOM      2  C   UNL A   1      38.373  19.564  24.918  1.00  0.00     0.275 C 
BRANCH   2   3
ATOM      3  O   UNL A   1      39.339  19.235  25.934  1.00  0.00    -0.458 OA
BRANCH   3   4
ATOM      4  C   UNL A   1      40.660  19.530  25.985  1.00  0.00     0.338 C 
ATOM      5  O   UNL A   1      41.492  18.671  25.705  1.00  0.00    -0.246 OA
BRANCH   4   6
ATOM      6  C   UNL A   1      41.157  20.824  26.524  1.00  0.00     0.060 A 
ATOM      7  C   UNL A   1      41.053  21.217  27.860  1.00  0.00     0.016 A 
ATOM      8  C   UNL A   1      41.717  21.723  25.599  1.00  0.00     0.016 A 
ATOM      9  C   UNL A   1      41.574  22.443  28.282  1.00  0.00     0.010 A 
ATOM     10  C   UNL A   1      42.233  22.953  26.014  1.00  0.00     0.010 A 
ATOM     11  C   UNL A   1      42.158  23.320  27.364  1.00  0.00    -0.014 A 
BRANCH  11  12
ATOM     12  C   UNL A   1      42.529  24.684  27.800  1.00  0.00     0.031 A 
ATOM     13  C   UNL A   1      43.974  24.997  28.037  1.00  0.00     0.074 A 
ATOM     14  C   UNL A   1      41.611  25.659  27.902  1.00  0.00     0.049 A 
ATOM     15  N   UNL A   1      44.525  26.144  28.330  1.00  0.00    -0.248 NA
ATOM     16  C   UNL A   1      44.928  23.890  27.861  1.00  0.00     0.031 C 
ATOM     17  C   UNL A   1      40.194  25.521  27.581  1.00  0.00     0.029 A 
ATOM     18  N   UNL A   1      41.730  26.955  28.339  1.00  0.00    -0.354 N 
ATOM     19  C   UNL A   1      45.890  25.922  28.275  1.00  0.00     0.074 A 
ATOM     20  C   UNL A   1      46.086  24.509  28.028  1.00  0.00     0.031 C 
ATOM     21  C   UNL A   1      39.556  26.652  27.933  1.00  0.00     0.029 A 
ATOM     22  C   UNL A   1      40.519  27.580  28.508  1.00  0.00     0.049 A 
ATOM     23  H   UNL A   1      42.596  27.390  28.515  1.00  0.00     0.167 HD
ATOM     24  C   UNL A   1      46.888  26.831  28.359  1.00  0.00     0.037 A 
ATOM     25  C   UNL A   1      40.219  28.753  29.094  1.00  0.00     0.037 A 
ATOM     26  C   UNL A   1      46.688  28.221  28.667  1.00  0.00     0.049 A 
ATOM     27  C   UNL A   1      41.342  29.669  29.474  1.00  0.00     0.074 A 
ATOM     28  C   UNL A   1      47.627  29.229  28.774  1.00  0.00     0.029 A 
ATOM     29  N   UNL A   1      45.455  28.789  28.953  1.00  0.00    -0.354 N 
ATOM     30  N   UNL A   1      42.632  29.478  29.348  1.00  0.00    -0.248 NA
ATOM     31  C   UNL A   1      40.972  30.988  30.001  1.00  0.00     0.031 C 
ATOM     32  C   UNL A   1      46.966  30.398  29.174  1.00  0.00     0.029 A 
ATOM     33  C   UNL A   1      45.612  30.126  29.277  1.00  0.00     0.049 A 
ATOM     34  H   UNL A   1      44.593  28.312  28.930  1.00  0.00     0.167 HD
ATOM     35  C   UNL A   1      43.227  30.678  29.700  1.00  0.00     0.074 A 
ATOM     36  C   UNL A   1      42.157  31.578  30.087  1.00  0.00     0.031 C 
ATOM     37  C   UNL A   1      44.540  31.013  29.656  1.00  0.00     0.037 A 
BRANCH  24  38
ATOM     38  C   UNL A   1      48.269  26.321  28.097  1.00  0.00     0.057 A 
ATOM     39  C   UNL A   1      48.810  26.330  26.803  1.00  0.00     0.134 A 
ATOM     40  C   UNL A   1      49.047  25.778  29.123  1.00  0.00     0.134 A 
ATOM     41  F   UNL A   1      48.102  26.816  25.772  1.00  0.00    -0.206 F 
ATOM     42  C   UNL A   1      50.068  25.790  26.535  1.00  0.00     0.040 A 
ATOM     43  C   UNL A   1      50.314  25.250  28.870  1.00  0.00     0.040 A 
ATOM     44  F   UNL A   1      48.580  25.733  30.380  1.00  0.00    -0.206 F 
ATOM     45  C   UNL A   1      50.824  25.247  27.572  1.00  0.00     0.006 A 
ENDBRANCH  24  38
BRANCH  25  46
ATOM     46  C   UNL A   1      38.808  29.137  29.329  1.00  0.00     0.057 A 
ATOM     47  C   UNL A   1      38.197  28.953  30.573  1.00  0.00     0.134 A 
ATOM     48  C   UNL A   1      38.030  29.684  28.301  1.00  0.00     0.134 A 
ATOM     49  F   UNL A   1      38.884  28.409  31.587  1.00  0.00    -0.206 F 
ATOM     50  C   UNL A   1      36.859  29.295  30.787  1.00  0.00     0.040 A 
ATOM     51  C   UNL A   1      36.695  30.043  28.505  1.00  0.00     0.040 A 
ATOM     52  F   UNL A   1      38.547  29.857  27.076  1.00  0.00    -0.206 F 
ATOM     53  C   UNL A   1      36.105  29.846  29.750  1.00  0.00     0.006 A 
ENDBRANCH  25  46
BRANCH  37  54
ATOM     54  C   UNL A   1      44.882  32.436  29.969  1.00  0.00     0.057 A 
ATOM     55  C   UNL A   1      44.834  33.443  28.999  1.00  0.00     0.134 A 
ATOM     56  C   UNL A   1      45.254  32.801  31.269  1.00  0.00     0.134 A 
ATOM     57  F   UNL A   1      44.506  33.151  27.731  1.00  0.00    -0.206 F 
ATOM     58  C   UNL A   1      45.165  34.763  29.307  1.00  0.00     0.040 A 
ATOM     59  C   UNL A   1      45.563  34.122  31.595  1.00  0.00     0.040 A 
ATOM     60  F   UNL A   1      45.318  31.881  32.244  1.00  0.00    -0.206 F 
ATOM     61  C   UNL A   1      45.524  35.106  30.610  1.00  0.00     0.006 A 
ENDBRANCH  37  54
ENDBRANCH  11  12
ENDBRANCH   4   6
ENDBRANCH   3   4
ENDBRANCH   2   3
ENDBRANCH   1   2
BRANCH   1  62
ATOM     62  O   UNL A   1      36.606  21.073  25.822  1.00  0.00    -0.458 OA
BRANCH  62  63
ATOM     63  C   UNL A   1      35.442  21.121  25.123  1.00  0.00     0.338 C 
ATOM     64  O   UNL A   1      34.804  20.162  24.721  1.00  0.00    -0.246 OA
BRANCH  63  65
ATOM     65  C   UNL A   1      34.989  22.516  24.909  1.00  0.00     0.061 A 
ATOM     66  C   UNL A   1      34.881  23.343  26.030  1.00  0.00     0.016 A 
ATOM     67  C   UNL A   1      34.594  22.991  23.654  1.00  0.00     0.037 A 
ATOM     68  C   UNL A   1      34.368  24.632  25.898  1.00  0.00     0.002 A 
ATOM     69  C   UNL A   1      33.956  24.230  23.547  1.00  0.00     0.083 A 
ATOM     70  C   UNL A   1      33.876  25.064  24.666  1.00  0.00     0.022 A 
BRANCH  69  71
ATOM     71  S   UNL A   1      33.227  24.786  22.019  1.00  0.00     0.240 S 
ATOM     72  O   UNL A   1      33.891  26.031  21.667  1.00  0.00    -0.207 OA
ATOM     73  O   UNL A   1      33.211  23.677  21.119  1.00  0.00    -0.207 OA
BRANCH  71  74
ATOM     74  N   UNL A   1      31.650  25.260  22.351  1.00  0.00    -0.207 NA
ATOM     75  H   UNL A   1      31.536  25.142  23.357  1.00  0.00     0.141 HD
BRANCH  74  76
ATOM     76  C   UNL A   1      31.090  26.588  22.043  1.00  0.00     0.147 C 
BRANCH  76  77
ATOM     77  C   UNL A   1      30.180  27.030  23.211  1.00  0.00     0.226 C 
ATOM     78  C   UNL A   1      29.876  28.532  23.188  1.00  0.00     0.276 C 
ATOM     79  O   UNL A   1      30.717  26.570  24.463  1.00  0.00    -0.482 OA
ATOM     80  O   UNL A   1      30.996  29.301  23.612  1.00  0.00    -0.486 OA
ATOM     81  C   UNL A   1      31.170  27.567  25.285  1.00  0.00     0.161 A 
ATOM     82  C   UNL A   1      31.321  28.894  24.878  1.00  0.00     0.161 A 
ATOM     83  C   UNL A   1      31.468  27.211  26.596  1.00  0.00     0.050 A 
ATOM     84  C   UNL A   1      31.784  29.862  25.763  1.00  0.00     0.050 A 
ATOM     85  C   UNL A   1      31.899  28.185  27.499  1.00  0.00     0.004 A 
ATOM     86  C   UNL A   1      32.058  29.509  27.082  1.00  0.00     0.004 A 
ENDBRANCH  76  77
ENDBRANCH  74  76
ENDBRANCH  71  74
ENDBRANCH  69  71
ENDBRANCH  63  65
ENDBRANCH  62  63
ENDBRANCH   1  62
TORSDOF 15
ENDMDL
MODEL 3
REMARK VINA RESULT:     -12.1      0.943      2.005
REMARK SMILES O=C(OCCOC(=O)c1cccc(S(=O)(=O)NC[C@@H]2COc3ccccc3O2)c1)c1ccc(-c2c3nc(c(-c4c(F)cccc4F)c4ccc([nH]4)c(-c4c(F)cccc4F)c4nc(c(-c5c(F)cccc5F)c5ccc2[nH]5)C=C4)C=C3)cc1
REMARK SMILES IDX 5 1 4 2 3 3 2 4 1 5 30 6 31 7 83 8 32 9 82 10 33 11 34 12
REMARK SMILES IDX 35 13 76 14 36 15 81 16 75 17 77 18 37 19 80 20 74 21 73 22
REMARK SMILES IDX 38 24 64 25 47 26 63 27 48 28 51 29 62 30 78 31 49 32 50 33
REMARK SMILES IDX 61 35 79 36 52 37 39 38 40 39 45 40 41 41 42 42 44 43 46 44
REMARK SMILES IDX 43 45 65 46 66 47 71 48 67 49 68 50 70 51 72 52 69 53 53 54
REMARK SMILES IDX 54 55 59 56 55 57 56 58 58 59 60 60 57 61 6 62 7 63 8 64
REMARK SMILES IDX 9 65 10 66 29 67 11 68 13 69 12 70 14 71 15 72 16 73 17 74
REMARK SMILES IDX 18 76 19 77 20 78 28 79 21 80 27 81 22 82 26 83 23 84 25 85
REMARK SMILES IDX 24 86
REMARK H PARENT 77 23 51 34 17 75
REMARK Flexibility Score: inf
ROOT
ATOM      1  C   UNL A   1      32.727  30.869  26.934  1.00  0.00     0.275 C 
ENDROOT
BRANCH   1   2
ATOM      2  C   UNL A   1      31.774  32.068  26.932  1.00  0.00     0.275 C 
BRANCH   2   3
ATOM      3  O   UNL A   1      32.394  33.364  27.020  1.00  0.00    -0.458 OA
BRANCH   3   4
ATOM      4  C   UNL A   1      33.001  33.951  28.079  1.00  0.00     0.338 C 
ATOM      5  O   UNL A   1      32.600  35.037  28.492  1.00  0.00    -0.246 OA
BRANCH   4   6
ATOM      6  C   UNL A   1      34.249  33.403  28.675  1.00  0.00     0.060 A 
ATOM      7  C   UNL A   1      35.514  33.504  28.093  1.00  0.00     0.016 A 
ATOM      8  C   UNL A   1      34.116  32.690  29.878  1.00  0.00     0.016 A 
ATOM      9  C   UNL A   1      36.637  32.981  28.739  1.00  0.00     0.010 A 
ATOM     10  C   UNL A   1      35.234  32.158  30.526  1.00  0.00     0.010 A 
ATOM     11  C   UNL A   1      36.504  32.299  29.952  1.00  0.00    -0.014 A 
BRANCH  11  12
ATOM     12  C   UNL A   1      37.674  31.594  30.518  1.00  0.00     0.031 A 
ATOM     13  C   UNL A   1      38.182  32.007  31.865  1.00  0.00     0.074 A 
ATOM     14  C   UNL A   1      38.229  30.544  29.891  1.00  0.00     0.049 A 
ATOM     15  N   UNL A   1      39.129  31.465  32.583  1.00  0.00    -0.248 NA
ATOM     16  C   UNL A   1      37.496  33.136  32.513  1.00  0.00     0.031 C 
ATOM     17  C   UNL A   1      37.755  29.962  28.639  1.00  0.00     0.029 A 
ATOM     18  N   UNL A   1      39.337  29.799  30.206  1.00  0.00    -0.354 N 
ATOM     19  C   UNL A   1      39.086  32.119  33.803  1.00  0.00     0.074 A 
ATOM     20  C   UNL A   1      38.095  33.168  33.694  1.00  0.00     0.031 C 
ATOM     21  C   UNL A   1      38.629  29.021  28.238  1.00  0.00     0.029 A 
ATOM     22  C   UNL A   1      39.719  28.946  29.200  1.00  0.00     0.049 A 
ATOM     23  H   UNL A   1      39.811  29.869  31.067  1.00  0.00     0.167 HD
ATOM     24  C   UNL A   1      39.768  31.824  34.932  1.00  0.00     0.037 A 
ATOM     25  C   UNL A   1      40.839  28.216  29.055  1.00  0.00     0.037 A 
ATOM     26  C   UNL A   1      40.795  30.821  35.015  1.00  0.00     0.049 A 
ATOM     27  C   UNL A   1      41.778  28.111  30.217  1.00  0.00     0.074 A 
ATOM     28  C   UNL A   1      41.548  30.438  36.109  1.00  0.00     0.029 A 
ATOM     29  N   UNL A   1      41.238  30.064  33.939  1.00  0.00    -0.354 N 
ATOM     30  N   UNL A   1      41.688  28.675  31.396  1.00  0.00    -0.248 NA
ATOM     31  C   UNL A   1      42.928  27.211  30.062  1.00  0.00     0.031 C 
ATOM     32  C   UNL A   1      42.480  29.483  35.684  1.00  0.00     0.029 A 
ATOM     33  C   UNL A   1      42.281  29.243  34.334  1.00  0.00     0.049 A 
ATOM     34  H   UNL A   1      40.864  30.104  33.029  1.00  0.00     0.167 HD
ATOM     35  C   UNL A   1      42.717  28.139  32.152  1.00  0.00     0.074 A 
ATOM     36  C   UNL A   1      43.447  27.235  31.282  1.00  0.00     0.031 C 
ATOM     37  C   UNL A   1      42.997  28.344  33.462  1.00  0.00     0.037 A 
BRANCH  24  38
ATOM     38  C   UNL A   1      39.393  32.602  36.153  1.00  0.00     0.057 A 
ATOM     39  C   UNL A   1      38.422  32.125  37.046  1.00  0.00     0.134 A 
ATOM     40  C   UNL A   1      39.964  33.850  36.419  1.00  0.00     0.134 A 
ATOM     41  F   UNL A   1      37.820  30.945  36.831  1.00  0.00    -0.206 F 
ATOM     42  C   UNL A   1      38.012  32.877  38.147  1.00  0.00     0.040 A 
ATOM     43  C   UNL A   1      39.574  34.603  37.526  1.00  0.00     0.040 A 
ATOM     44  F   UNL A   1      40.890  34.363  35.597  1.00  0.00    -0.206 F 
ATOM     45  C   UNL A   1      38.589  34.122  38.389  1.00  0.00     0.006 A 
ENDBRANCH  24  38
BRANCH  25  46
ATOM     46  C   UNL A   1      41.117  27.510  27.782  1.00  0.00     0.057 A 
ATOM     47  C   UNL A   1      41.785  28.139  26.728  1.00  0.00     0.134 A 
ATOM     48  C   UNL A   1      40.702  26.187  27.587  1.00  0.00     0.134 A 
ATOM     49  F   UNL A   1      42.183  29.414  26.848  1.00  0.00    -0.206 F 
ATOM     50  C   UNL A   1      42.028  27.480  25.520  1.00  0.00     0.040 A 
ATOM     51  C   UNL A   1      40.949  25.511  26.390  1.00  0.00     0.040 A 
ATOM     52  F   UNL A   1      40.029  25.537  28.547  1.00  0.00    -0.206 F 
ATOM     53  C   UNL A   1      41.611  26.159  25.351  1.00  0.00     0.006 A 
ENDBRANCH  25  46
BRANCH  37  54
ATOM     54  C   UNL A   1      44.098  27.520  34.052  1.00  0.00     0.057 A 
ATOM     55  C   UNL A   1      45.428  27.953  34.061  1.00  0.00     0.134 A 
ATOM     56  C   UNL A   1      43.813  26.276  34.628  1.00  0.00     0.134 A 
ATOM     57  F   UNL A   1      45.765  29.126  33.504  1.00  0.00    -0.206 F 
ATOM     58  C   UNL A   1      46.442  27.166  34.608  1.00  0.00     0.040 A 
ATOM     59  C   UNL A   1      44.815  25.491  35.199  1.00  0.00     0.040 A 
ATOM     60  F   UNL A   1      42.556  25.805  34.650  1.00  0.00    -0.206 F 
ATOM     61  C   UNL A   1      46.136  25.935  35.185  1.00  0.00     0.006 A 
ENDBRANCH  37  54
ENDBRANCH  11  12
ENDBRANCH   4   6
ENDBRANCH   3   4
ENDBRANCH   2   3
ENDBRANCH   1   2
BRANCH   1  62
ATOM     62  O   UNL A   1      32.340  29.807  26.047  1.00  0.00    -0.458 OA
BRANCH  62  63
ATOM     63  C   UNL A   1      32.714  28.573  26.473  1.00  0.00     0.338 C 
ATOM     64  O   UNL A   1      33.621  28.325  27.251  1.00  0.00    -0.246 OA
BRANCH  63  65
ATOM     65  C   UNL A   1      31.857  27.510  25.897  1.00  0.00     0.061 A 
ATOM     66  C   UNL A   1      30.950  27.877  24.899  1.00  0.00     0.016 A 
ATOM     67  C   UNL A   1      31.873  26.196  26.372  1.00  0.00     0.037 A 
ATOM     68  C   UNL A   1      30.054  26.938  24.391  1.00  0.00     0.002 A 
ATOM     69  C   UNL A   1      30.887  25.293  25.961  1.00  0.00     0.083 A 
ATOM     70  C   UNL A   1      30.001  25.657  24.943  1.00  0.00     0.022 A 
BRANCH  69  71
ATOM     71  S   UNL A   1      30.715  23.681  26.701  1.00  0.00     0.240 S 
ATOM     72  O   UNL A   1      31.950  23.419  27.423  1.00  0.00    -0.207 OA
ATOM     73  O   UNL A   1      29.450  23.642  27.362  1.00  0.00    -0.207 OA
BRANCH  71  74
ATOM     74  N   UNL A   1      30.734  22.548  25.462  1.00  0.00    -0.207 NA
ATOM     75  H   UNL A   1      30.769  23.089  24.598  1.00  0.00     0.141 HD
BRANCH  74  76
ATOM     76  C   UNL A   1      31.748  21.489  25.307  1.00  0.00     0.147 C 
BRANCH  76  77
ATOM     77  C   UNL A   1      32.550  21.751  24.013  1.00  0.00     0.226 C 
ATOM     78  C   UNL A   1      34.004  22.151  24.289  1.00  0.00     0.276 C 
ATOM     79  O   UNL A   1      31.848  22.681  23.171  1.00  0.00    -0.482 OA
ATOM     80  O   UNL A   1      34.100  23.490  24.762  1.00  0.00    -0.486 OA
ATOM     81  C   UNL A   1      32.462  23.896  23.033  1.00  0.00     0.161 A 
ATOM     82  C   UNL A   1      33.548  24.304  23.810  1.00  0.00     0.161 A 
ATOM     83  C   UNL A   1      31.967  24.741  22.045  1.00  0.00     0.050 A 
ATOM     84  C   UNL A   1      34.131  25.553  23.621  1.00  0.00     0.050 A 
ATOM     85  C   UNL A   1      32.571  25.981  21.826  1.00  0.00     0.004 A 
ATOM     86  C   UNL A   1      33.650  26.387  22.614  1.00  0.00     0.004 A 
ENDBRANCH  76  77
ENDBRANCH  74  76
ENDBRANCH  71  74
ENDBRANCH  69  71
ENDBRANCH  63  65
ENDBRANCH  62  63
ENDBRANCH   1  62
TORSDOF 15
ENDMDL
