MODEL 1
REMARK VINA RESULT:     -13.1      0.000      0.000
REMARK SMILES CCC(=O)N1CCC[C@](C[C@H]2CC(c3ccc(C)cc3)=NO2)(C(=O)OCCOC(=O)c2ccc(-c3c4nc(c(-c5c(F)cccc5F)c5ccc([nH]5)c(-c5c(F)cccc5F)c5nc(c(-c6c(F)cccc6F)c6ccc3[nH]6)C=C5)C=C4)cc2)C1
REMARK SMILES IDX 26 1 25 2 23 3 24 4 9 5 5 6 6 7 85 8 7 9 8 10 3 11 4 12 2 13
REMARK SMILES IDX 1 14 10 15 11 16 12 17 22 18 13 19 21 20 14 21 15 22 20 23
REMARK SMILES IDX 16 24 19 25 17 26 18 27 27 28 28 29 29 30 30 31 31 32 32 33
REMARK SMILES IDX 84 34 33 35 83 36 34 37 35 38 36 39 77 40 37 41 82 42 76 43
REMARK SMILES IDX 78 44 38 45 81 46 75 47 74 48 39 50 65 51 48 52 64 53 49 54
REMARK SMILES IDX 52 55 63 56 79 57 50 58 51 59 62 61 80 62 53 63 40 64 41 65
REMARK SMILES IDX 46 66 42 67 43 68 45 69 47 70 44 71 66 72 67 73 72 74 68 75
REMARK SMILES IDX 69 76 71 77 73 78 70 79 54 80 55 81 60 82 56 83 57 84 59 85
REMARK SMILES IDX 61 86 58 87
REMARK H PARENT 78 49 52 60
REMARK Flexibility Score: inf
ROOT
ATOM      1  C   UNL A   1      32.948  30.304  27.120  1.00  0.00     0.274 C 
ENDROOT
BRANCH   1   2
ATOM      2  O   UNL A   1      31.789  29.624  26.608  1.00  0.00    -0.462 OA
BRANCH   2   3
ATOM      3  C   UNL A   1      31.632  28.302  26.835  1.00  0.00     0.314 C 
ATOM      4  O   UNL A   1      31.416  27.843  27.950  1.00  0.00    -0.252 OA
BRANCH   3   5
ATOM      5  C   UNL A   1      31.546  27.427  25.540  1.00  0.00     0.089 C 
ATOM      6  N   UNL A   1      29.923  28.234  23.654  1.00  0.00    -0.342 N 
ATOM      7  C   UNL A   1      29.461  26.862  23.491  1.00  0.00     0.119 C 
ATOM      8  C   UNL A   1      31.190  28.416  24.378  1.00  0.00     0.138 C 
ATOM      9  C   UNL A   1      29.374  26.109  24.793  1.00  0.00     0.023 C 
ATOM     10  C   UNL A   1      30.609  26.197  25.675  1.00  0.00     0.022 C 
BRANCH   6  11
ATOM     11  C   UNL A   1      29.344  29.153  22.781  1.00  0.00     0.222 C 
ATOM     12  O   UNL A   1      29.979  29.564  21.795  1.00  0.00    -0.275 OA
BRANCH  11  13
ATOM     13  C   UNL A   1      27.965  29.787  22.965  1.00  0.00     0.097 C 
ATOM     14  C   UNL A   1      27.755  31.209  23.424  1.00  0.00     0.014 C 
ENDBRANCH  11  13
ENDBRANCH   6  11
BRANCH   5  15
ATOM     15  C   UNL A   1      33.058  26.951  25.527  1.00  0.00     0.069 C 
BRANCH  15  16
ATOM     16  C   UNL A   1      33.733  26.152  24.410  1.00  0.00     0.212 C 
ATOM     17  C   UNL A   1      34.231  24.760  24.711  1.00  0.00     0.108 C 
ATOM     18  O   UNL A   1      32.893  26.041  23.264  1.00  0.00    -0.392 OA
ATOM     19  C   UNL A   1      33.200  24.000  23.964  1.00  0.00     0.091 C 
ATOM     20  N   UNL A   1      32.491  24.697  23.138  1.00  0.00    -0.090 NA
BRANCH  19  21
ATOM     21  C   UNL A   1      33.060  22.544  24.096  1.00  0.00    -0.001 A 
ATOM     22  C   UNL A   1      33.424  21.881  25.268  1.00  0.00     0.010 A 
ATOM     23  C   UNL A   1      32.501  21.840  23.028  1.00  0.00     0.010 A 
ATOM     24  C   UNL A   1      33.196  20.509  25.382  1.00  0.00     0.004 A 
ATOM     25  C   UNL A   1      32.308  20.464  23.133  1.00  0.00     0.004 A 
ATOM     26  C   UNL A   1      32.632  19.793  24.318  1.00  0.00    -0.051 A 
ATOM     27  C   UNL A   1      32.419  18.312  24.422  1.00  0.00     0.044 C 
ENDBRANCH  19  21
ENDBRANCH  15  16
ENDBRANCH   5  15
ENDBRANCH   3   5
ENDBRANCH   2   3
ENDBRANCH   1   2
BRANCH   1  28
ATOM     28  C   UNL A   1      34.367  29.683  27.209  1.00  0.00     0.275 C 
BRANCH  28  29
ATOM     29  O   UNL A   1      35.564  30.461  27.453  1.00  0.00    -0.458 OA
BRANCH  29  30
ATOM     30  C   UNL A   1      36.359  30.446  28.547  1.00  0.00     0.338 C 
ATOM     31  O   UNL A   1      36.115  31.048  29.587  1.00  0.00    -0.246 OA
BRANCH  30  32
ATOM     32  C   UNL A   1      37.482  29.523  28.476  1.00  0.00     0.060 A 
ATOM     33  C   UNL A   1      38.341  29.629  27.380  1.00  0.00     0.016 A 
ATOM     34  C   UNL A   1      37.768  28.708  29.566  1.00  0.00     0.016 A 
ATOM     35  C   UNL A   1      39.581  29.024  27.443  1.00  0.00     0.010 A 
ATOM     36  C   UNL A   1      39.034  28.188  29.671  1.00  0.00     0.010 A 
ATOM     37  C   UNL A   1      39.944  28.368  28.621  1.00  0.00    -0.014 A 
BRANCH  37  38
ATOM     38  C   UNL A   1      41.120  27.525  28.691  1.00  0.00     0.031 A 
ATOM     39  C   UNL A   1      41.089  26.087  28.368  1.00  0.00     0.074 A 
ATOM     40  C   UNL A   1      42.214  28.225  29.061  1.00  0.00     0.049 A 
ATOM     41  N   UNL A   1      41.793  25.197  28.977  1.00  0.00    -0.248 NA
ATOM     42  C   UNL A   1      40.213  25.508  27.345  1.00  0.00     0.031 C 
ATOM     43  C   UNL A   1      43.603  27.832  29.102  1.00  0.00     0.029 A 
ATOM     44  N   UNL A   1      42.199  29.476  29.698  1.00  0.00    -0.354 N 
ATOM     45  C   UNL A   1      41.748  24.048  28.210  1.00  0.00     0.074 A 
ATOM     46  C   UNL A   1      40.641  24.237  27.303  1.00  0.00     0.031 C 
ATOM     47  C   UNL A   1      44.226  28.616  30.007  1.00  0.00     0.029 A 
ATOM     48  C   UNL A   1      43.202  29.429  30.658  1.00  0.00     0.049 A 
ATOM     49  H   UNL A   1      41.600  30.233  29.504  1.00  0.00     0.167 HD
ATOM     50  C   UNL A   1      42.793  23.170  28.254  1.00  0.00     0.037 A 
ATOM     51  C   UNL A   1      42.913  29.451  31.992  1.00  0.00     0.037 A 
ATOM     52  C   UNL A   1      43.824  23.680  29.145  1.00  0.00     0.049 A 
ATOM     53  C   UNL A   1      43.416  28.192  32.657  1.00  0.00     0.074 A 
ATOM     54  C   UNL A   1      44.902  24.506  28.869  1.00  0.00     0.029 A 
ATOM     55  N   UNL A   1      43.618  23.733  30.516  1.00  0.00    -0.354 N 
ATOM     56  N   UNL A   1      43.489  27.029  32.067  1.00  0.00    -0.248 NA
ATOM     57  C   UNL A   1      43.903  28.168  34.030  1.00  0.00     0.031 C 
ATOM     58  C   UNL A   1      45.302  25.120  30.074  1.00  0.00     0.029 A 
ATOM     59  C   UNL A   1      44.479  24.654  31.082  1.00  0.00     0.049 A 
ATOM     60  H   UNL A   1      42.957  23.196  31.010  1.00  0.00     0.167 HD
ATOM     61  C   UNL A   1      44.128  26.147  32.906  1.00  0.00     0.074 A 
ATOM     62  C   UNL A   1      44.337  26.901  34.129  1.00  0.00     0.031 C 
ATOM     63  C   UNL A   1      44.496  24.890  32.513  1.00  0.00     0.037 A 
BRANCH  50  64
ATOM     64  C   UNL A   1      43.059  22.113  27.205  1.00  0.00     0.057 A 
ATOM     65  C   UNL A   1      42.321  20.909  27.181  1.00  0.00     0.134 A 
ATOM     66  C   UNL A   1      44.044  22.213  26.209  1.00  0.00     0.134 A 
ATOM     67  F   UNL A   1      41.296  20.689  28.013  1.00  0.00    -0.206 F 
ATOM     68  C   UNL A   1      42.598  19.854  26.305  1.00  0.00     0.040 A 
ATOM     69  C   UNL A   1      44.345  21.153  25.333  1.00  0.00     0.040 A 
ATOM     70  F   UNL A   1      44.739  23.347  26.037  1.00  0.00    -0.206 F 
ATOM     71  C   UNL A   1      43.630  19.962  25.390  1.00  0.00     0.006 A 
ENDBRANCH  50  64
BRANCH  51  72
ATOM     72  C   UNL A   1      41.660  30.162  32.396  1.00  0.00     0.057 A 
ATOM     73  C   UNL A   1      40.522  29.422  32.777  1.00  0.00     0.134 A 
ATOM     74  C   UNL A   1      41.626  31.531  32.667  1.00  0.00     0.134 A 
ATOM     75  F   UNL A   1      40.466  28.103  32.534  1.00  0.00    -0.206 F 
ATOM     76  C   UNL A   1      39.464  29.989  33.496  1.00  0.00     0.040 A 
ATOM     77  C   UNL A   1      40.555  32.115  33.357  1.00  0.00     0.040 A 
ATOM     78  F   UNL A   1      42.668  32.315  32.361  1.00  0.00    -0.206 F 
ATOM     79  C   UNL A   1      39.490  31.341  33.811  1.00  0.00     0.006 A 
ENDBRANCH  51  72
BRANCH  63  80
ATOM     80  C   UNL A   1      45.083  23.812  33.388  1.00  0.00     0.057 A 
ATOM     81  C   UNL A   1      46.400  23.813  33.859  1.00  0.00     0.134 A 
ATOM     82  C   UNL A   1      44.264  22.775  33.899  1.00  0.00     0.134 A 
ATOM     83  F   UNL A   1      47.247  24.809  33.569  1.00  0.00    -0.206 F 
ATOM     84  C   UNL A   1      46.892  22.810  34.703  1.00  0.00     0.040 A 
ATOM     85  C   UNL A   1      44.728  21.807  34.789  1.00  0.00     0.040 A 
ATOM     86  F   UNL A   1      42.967  22.663  33.576  1.00  0.00    -0.206 F 
ATOM     87  C   UNL A   1      46.055  21.808  35.178  1.00  0.00     0.006 A 
ENDBRANCH  63  80
ENDBRANCH  37  38
ENDBRANCH  30  32
ENDBRANCH  29  30
ENDBRANCH  28  29
ENDBRANCH   1  28
TORSDOF 16
ENDMDL
MODEL 2
REMARK VINA RESULT:     -13.0      1.833      3.269
REMARK SMILES CCC(=O)N1CCC[C@](C[C@H]2CC(c3ccc(C)cc3)=NO2)(C(=O)OCCOC(=O)c2ccc(-c3c4nc(c(-c5c(F)cccc5F)c5ccc([nH]5)c(-c5c(F)cccc5F)c5nc(c(-c6c(F)cccc6F)c6ccc3[nH]6)C=C5)C=C4)cc2)C1
REMARK SMILES IDX 26 1 25 2 23 3 24 4 9 5 5 6 6 7 85 8 7 9 8 10 3 11 4 12 2 13
REMARK SMILES IDX 1 14 10 15 11 16 12 17 22 18 13 19 21 20 14 21 15 22 20 23
REMARK SMILES IDX 16 24 19 25 17 26 18 27 27 28 28 29 29 30 30 31 31 32 32 33
REMARK SMILES IDX 84 34 33 35 83 36 34 37 35 38 36 39 77 40 37 41 82 42 76 43
REMARK SMILES IDX 78 44 38 45 81 46 75 47 74 48 39 50 65 51 48 52 64 53 49 54
REMARK SMILES IDX 52 55 63 56 79 57 50 58 51 59 62 61 80 62 53 63 40 64 41 65
REMARK SMILES IDX 46 66 42 67 43 68 45 69 47 70 44 71 66 72 67 73 72 74 68 75
REMARK SMILES IDX 69 76 71 77 73 78 70 79 54 80 55 81 60 82 56 83 57 84 59 85
REMARK SMILES IDX 61 86 58 87
REMARK H PARENT 78 49 52 60
REMARK Flexibility Score: inf
ROOT
ATOM      1  C   UNL A   1      33.404  28.852  26.884  1.00  0.00     0.274 C 
ENDROOT
BRANCH   1   2
ATOM      2  O   UNL A   1      33.782  27.527  26.473  1.00  0.00    -0.462 OA
BRANCH   2   3
ATOM      3  C   UNL A   1      33.645  27.162  25.179  1.00  0.00     0.314 C 
ATOM      4  O   UNL A   1      33.921  27.909  24.248  1.00  0.00    -0.252 OA
BRANCH   3   5
ATOM      5  C   UNL A   1      33.300  25.651  24.965  1.00  0.00     0.089 C 
ATOM      6  N   UNL A   1      35.290  23.954  24.977  1.00  0.00    -0.342 N 
ATOM      7  C   UNL A   1      34.707  23.292  23.818  1.00  0.00     0.119 C 
ATOM      8  C   UNL A   1      34.402  24.847  25.735  1.00  0.00     0.138 C 
ATOM      9  C   UNL A   1      34.063  24.251  22.851  1.00  0.00     0.023 C 
ATOM     10  C   UNL A   1      33.110  25.257  23.475  1.00  0.00     0.022 C 
BRANCH   6  11
ATOM     11  C   UNL A   1      36.461  23.370  25.456  1.00  0.00     0.222 C 
ATOM     12  O   UNL A   1      37.487  24.055  25.599  1.00  0.00    -0.275 OA
BRANCH  11  13
ATOM     13  C   UNL A   1      36.634  21.884  25.772  1.00  0.00     0.097 C 
ATOM     14  C   UNL A   1      37.030  20.853  24.745  1.00  0.00     0.014 C 
ENDBRANCH  11  13
ENDBRANCH   6  11
BRANCH   5  15
ATOM     15  C   UNL A   1      31.896  25.667  25.700  1.00  0.00     0.069 C 
BRANCH  15  16
ATOM     16  C   UNL A   1      31.057  24.436  26.049  1.00  0.00     0.212 C 
ATOM     17  C   UNL A   1      30.974  23.306  25.052  1.00  0.00     0.108 C 
ATOM     18  O   UNL A   1      31.468  23.855  27.284  1.00  0.00    -0.392 OA
ATOM     19  C   UNL A   1      31.822  22.326  25.770  1.00  0.00     0.091 C 
ATOM     20  N   UNL A   1      32.062  22.607  27.010  1.00  0.00    -0.090 NA
BRANCH  19  21
ATOM     21  C   UNL A   1      32.283  21.084  25.137  1.00  0.00    -0.001 A 
ATOM     22  C   UNL A   1      32.909  20.080  25.876  1.00  0.00     0.010 A 
ATOM     23  C   UNL A   1      32.031  20.909  23.776  1.00  0.00     0.010 A 
ATOM     24  C   UNL A   1      33.256  18.880  25.252  1.00  0.00     0.004 A 
ATOM     25  C   UNL A   1      32.411  19.724  23.149  1.00  0.00     0.004 A 
ATOM     26  C   UNL A   1      33.005  18.693  23.886  1.00  0.00    -0.051 A 
ATOM     27  C   UNL A   1      33.409  17.420  23.204  1.00  0.00     0.044 C 
ENDBRANCH  19  21
ENDBRANCH  15  16
ENDBRANCH   5  15
ENDBRANCH   3   5
ENDBRANCH   2   3
ENDBRANCH   1   2
BRANCH   1  28
ATOM     28  C   UNL A   1      34.402  29.999  27.194  1.00  0.00     0.275 C 
BRANCH  28  29
ATOM     29  O   UNL A   1      35.246  30.026  28.371  1.00  0.00    -0.458 OA
BRANCH  29  30
ATOM     30  C   UNL A   1      36.484  30.555  28.496  1.00  0.00     0.338 C 
ATOM     31  O   UNL A   1      36.710  31.726  28.781  1.00  0.00    -0.246 OA
BRANCH  30  32
ATOM     32  C   UNL A   1      37.573  29.591  28.422  1.00  0.00     0.060 A 
ATOM     33  C   UNL A   1      38.445  29.679  27.334  1.00  0.00     0.016 A 
ATOM     34  C   UNL A   1      37.819  28.753  29.504  1.00  0.00     0.016 A 
ATOM     35  C   UNL A   1      39.660  29.027  27.400  1.00  0.00     0.010 A 
ATOM     36  C   UNL A   1      39.064  28.185  29.612  1.00  0.00     0.010 A 
ATOM     37  C   UNL A   1      39.989  28.343  28.572  1.00  0.00    -0.014 A 
BRANCH  37  38
ATOM     38  C   UNL A   1      41.132  27.457  28.641  1.00  0.00     0.031 A 
ATOM     39  C   UNL A   1      41.035  26.011  28.367  1.00  0.00     0.074 A 
ATOM     40  C   UNL A   1      42.262  28.124  28.960  1.00  0.00     0.049 A 
ATOM     41  N   UNL A   1      41.720  25.113  28.988  1.00  0.00    -0.248 NA
ATOM     42  C   UNL A   1      40.111  25.435  27.386  1.00  0.00     0.031 C 
ATOM     43  C   UNL A   1      43.635  27.676  28.980  1.00  0.00     0.029 A 
ATOM     44  N   UNL A   1      42.314  29.394  29.555  1.00  0.00    -0.354 N 
ATOM     45  C   UNL A   1      41.609  23.943  28.261  1.00  0.00     0.074 A 
ATOM     46  C   UNL A   1      40.487  24.147  27.377  1.00  0.00     0.031 C 
ATOM     47  C   UNL A   1      44.312  28.463  29.842  1.00  0.00     0.029 A 
ATOM     48  C   UNL A   1      43.339  29.338  30.490  1.00  0.00     0.049 A 
ATOM     49  H   UNL A   1      41.740  30.167  29.351  1.00  0.00     0.167 HD
ATOM     50  C   UNL A   1      42.620  23.025  28.309  1.00  0.00     0.037 A 
ATOM     51  C   UNL A   1      43.086  29.415  31.830  1.00  0.00     0.037 A 
ATOM     52  C   UNL A   1      43.693  23.522  29.156  1.00  0.00     0.049 A 
ATOM     53  C   UNL A   1      43.555  28.158  32.525  1.00  0.00     0.074 A 
ATOM     54  C   UNL A   1      44.795  24.294  28.826  1.00  0.00     0.029 A 
ATOM     55  N   UNL A   1      43.525  23.627  30.530  1.00  0.00    -0.354 N 
ATOM     56  N   UNL A   1      43.567  26.975  31.972  1.00  0.00    -0.248 NA
ATOM     57  C   UNL A   1      44.077  28.159  33.885  1.00  0.00     0.031 C 
ATOM     58  C   UNL A   1      45.251  24.930  30.000  1.00  0.00     0.029 A 
ATOM     59  C   UNL A   1      44.436  24.531  31.043  1.00  0.00     0.049 A 
ATOM     60  H   UNL A   1      42.857  23.134  31.058  1.00  0.00     0.167 HD
ATOM     61  C   UNL A   1      44.192  26.096  32.824  1.00  0.00     0.074 A 
ATOM     62  C   UNL A   1      44.464  26.879  34.016  1.00  0.00     0.031 C 
ATOM     63  C   UNL A   1      44.500  24.812  32.464  1.00  0.00     0.037 A 
BRANCH  50  64
ATOM     64  C   UNL A   1      42.816  21.925  27.290  1.00  0.00     0.057 A 
ATOM     65  C   UNL A   1      42.039  20.746  27.331  1.00  0.00     0.134 A 
ATOM     66  C   UNL A   1      43.769  21.959  26.259  1.00  0.00     0.134 A 
ATOM     67  F   UNL A   1      41.037  20.589  28.204  1.00  0.00    -0.206 F 
ATOM     68  C   UNL A   1      42.253  19.653  26.485  1.00  0.00     0.040 A 
ATOM     69  C   UNL A   1      44.006  20.860  25.411  1.00  0.00     0.040 A 
ATOM     70  F   UNL A   1      44.494  23.062  26.024  1.00  0.00    -0.206 F 
ATOM     71  C   UNL A   1      43.256  19.696  25.533  1.00  0.00     0.006 A 
ENDBRANCH  50  64
BRANCH  51  72
ATOM     72  C   UNL A   1      41.873  30.188  32.241  1.00  0.00     0.057 A 
ATOM     73  C   UNL A   1      41.860  31.593  32.127  1.00  0.00     0.134 A 
ATOM     74  C   UNL A   1      40.642  29.577  32.495  1.00  0.00     0.134 A 
ATOM     75  F   UNL A   1      43.003  32.259  31.903  1.00  0.00    -0.206 F 
ATOM     76  C   UNL A   1      40.674  32.337  32.141  1.00  0.00     0.040 A 
ATOM     77  C   UNL A   1      39.454  30.317  32.545  1.00  0.00     0.040 A 
ATOM     78  F   UNL A   1      40.549  28.245  32.599  1.00  0.00    -0.206 F 
ATOM     79  C   UNL A   1      39.459  31.693  32.327  1.00  0.00     0.006 A 
ENDBRANCH  51  72
BRANCH  63  80
ATOM     80  C   UNL A   1      45.067  23.741  33.360  1.00  0.00     0.057 A 
ATOM     81  C   UNL A   1      46.386  23.722  33.824  1.00  0.00     0.134 A 
ATOM     82  C   UNL A   1      44.227  22.734  33.897  1.00  0.00     0.134 A 
ATOM     83  F   UNL A   1      47.254  24.691  33.509  1.00  0.00    -0.206 F 
ATOM     84  C   UNL A   1      46.860  22.726  34.687  1.00  0.00     0.040 A 
ATOM     85  C   UNL A   1      44.673  21.776  34.806  1.00  0.00     0.040 A 
ATOM     86  F   UNL A   1      42.926  22.645  33.583  1.00  0.00    -0.206 F 
ATOM     87  C   UNL A   1      46.002  21.754  35.188  1.00  0.00     0.006 A 
ENDBRANCH  63  80
ENDBRANCH  37  38
ENDBRANCH  30  32
ENDBRANCH  29  30
ENDBRANCH  28  29
ENDBRANCH   1  28
TORSDOF 16
ENDMDL
MODEL 3
REMARK VINA RESULT:     -12.8      3.959      9.624
REMARK SMILES CCC(=O)N1CCC[C@](C[C@H]2CC(c3ccc(C)cc3)=NO2)(C(=O)OCCOC(=O)c2ccc(-c3c4nc(c(-c5c(F)cccc5F)c5ccc([nH]5)c(-c5c(F)cccc5F)c5nc(c(-c6c(F)cccc6F)c6ccc3[nH]6)C=C5)C=C4)cc2)C1
REMARK SMILES IDX 26 1 25 2 23 3 24 4 9 5 5 6 6 7 85 8 7 9 8 10 3 11 4 12 2 13
REMARK SMILES IDX 1 14 10 15 11 16 12 17 22 18 13 19 21 20 14 21 15 22 20 23
REMARK SMILES IDX 16 24 19 25 17 26 18 27 27 28 28 29 29 30 30 31 31 32 32 33
REMARK SMILES IDX 84 34 33 35 83 36 34 37 35 38 36 39 77 40 37 41 82 42 76 43
REMARK SMILES IDX 78 44 38 45 81 46 75 47 74 48 39 50 65 51 48 52 64 53 49 54
REMARK SMILES IDX 52 55 63 56 79 57 50 58 51 59 62 61 80 62 53 63 40 64 41 65
REMARK SMILES IDX 46 66 42 67 43 68 45 69 47 70 44 71 66 72 67 73 72 74 68 75
REMARK SMILES IDX 69 76 71 77 73 78 70 79 54 80 55 81 60 82 56 83 57 84 59 85
REMARK SMILES IDX 61 86 58 87
REMARK H PARENT 78 49 52 60
REMARK Flexibility Score: inf
ROOT
ATOM      1  C   UNL A   1      37.969  21.910  25.244  1.00  0.00     0.274 C 
ENDROOT
BRANCH   1   2
ATOM      2  O   UNL A   1      36.933  21.633  24.286  1.00  0.00    -0.462 OA
BRANCH   2   3
ATOM      3  C   UNL A   1      36.270  22.655  23.702  1.00  0.00     0.314 C 
ATOM      4  O   UNL A   1      36.763  23.345  22.818  1.00  0.00    -0.252 OA
BRANCH   3   5
ATOM      5  C   UNL A   1      34.759  22.759  24.099  1.00  0.00     0.089 C 
ATOM      6  N   UNL A   1      33.394  20.531  24.215  1.00  0.00    -0.342 N 
ATOM      7  C   UNL A   1      32.297  21.190  23.521  1.00  0.00     0.119 C 
ATOM      8  C   UNL A   1      34.411  21.409  24.813  1.00  0.00     0.138 C 
ATOM      9  C   UNL A   1      32.762  22.161  22.466  1.00  0.00     0.023 C 
ATOM     10  C   UNL A   1      33.827  23.147  22.920  1.00  0.00     0.022 C 
BRANCH   6  11
ATOM     11  C   UNL A   1      33.148  19.207  24.573  1.00  0.00     0.222 C 
ATOM     12  O   UNL A   1      32.220  18.933  25.352  1.00  0.00    -0.275 OA
BRANCH  11  13
ATOM     13  C   UNL A   1      33.992  18.010  24.135  1.00  0.00     0.097 C 
ATOM     14  C   UNL A   1      33.404  16.715  23.631  1.00  0.00     0.014 C 
ENDBRANCH  11  13
ENDBRANCH   6  11
BRANCH   5  15
ATOM     15  C   UNL A   1      34.905  23.985  25.094  1.00  0.00     0.069 C 
BRANCH  15  16
ATOM     16  C   UNL A   1      33.803  24.532  26.003  1.00  0.00     0.212 C 
ATOM     17  C   UNL A   1      33.193  25.874  25.679  1.00  0.00     0.108 C 
ATOM     18  O   UNL A   1      32.718  23.615  26.123  1.00  0.00    -0.392 OA
ATOM     19  C   UNL A   1      31.877  25.398  25.191  1.00  0.00     0.091 C 
ATOM     20  N   UNL A   1      31.598  24.166  25.470  1.00  0.00    -0.090 NA
BRANCH  19  21
ATOM     21  C   UNL A   1      30.928  26.291  24.515  1.00  0.00    -0.001 A 
ATOM     22  C   UNL A   1      29.613  25.898  24.263  1.00  0.00     0.010 A 
ATOM     23  C   UNL A   1      31.362  27.572  24.174  1.00  0.00     0.010 A 
ATOM     24  C   UNL A   1      28.720  26.808  23.695  1.00  0.00     0.004 A 
ATOM     25  C   UNL A   1      30.477  28.465  23.574  1.00  0.00     0.004 A 
ATOM     26  C   UNL A   1      29.145  28.098  23.351  1.00  0.00    -0.051 A 
ATOM     27  C   UNL A   1      28.198  29.066  22.706  1.00  0.00     0.044 C 
ENDBRANCH  19  21
ENDBRANCH  15  16
ENDBRANCH   5  15
ENDBRANCH   3   5
ENDBRANCH   2   3
ENDBRANCH   1   2
BRANCH   1  28
ATOM     28  C   UNL A   1      38.222  23.295  25.896  1.00  0.00     0.275 C 
BRANCH  28  29
ATOM     29  O   UNL A   1      39.211  23.521  26.929  1.00  0.00    -0.458 OA
BRANCH  29  30
ATOM     30  C   UNL A   1      40.238  24.402  26.921  1.00  0.00     0.338 C 
ATOM     31  O   UNL A   1      41.306  24.212  26.350  1.00  0.00    -0.246 OA
BRANCH  30  32
ATOM     32  C   UNL A   1      39.940  25.695  27.518  1.00  0.00     0.060 A 
ATOM     33  C   UNL A   1      39.365  25.706  28.791  1.00  0.00     0.016 A 
ATOM     34  C   UNL A   1      40.396  26.855  26.901  1.00  0.00     0.016 A 
ATOM     35  C   UNL A   1      39.385  26.877  29.522  1.00  0.00     0.010 A 
ATOM     36  C   UNL A   1      40.503  27.993  27.661  1.00  0.00     0.010 A 
ATOM     37  C   UNL A   1      40.020  27.995  28.976  1.00  0.00    -0.014 A 
BRANCH  37  38
ATOM     38  C   UNL A   1      39.892  29.309  29.570  1.00  0.00     0.031 A 
ATOM     39  C   UNL A   1      38.798  30.236  29.225  1.00  0.00     0.074 A 
ATOM     40  C   UNL A   1      40.871  29.547  30.470  1.00  0.00     0.049 A 
ATOM     41  N   UNL A   1      38.934  31.515  29.153  1.00  0.00    -0.248 NA
ATOM     42  C   UNL A   1      37.444  29.794  28.879  1.00  0.00     0.031 C 
ATOM     43  C   UNL A   1      41.038  30.640  31.398  1.00  0.00     0.029 A 
ATOM     44  N   UNL A   1      42.085  28.847  30.551  1.00  0.00    -0.354 N 
ATOM     45  C   UNL A   1      37.663  32.057  29.128  1.00  0.00     0.074 A 
ATOM     46  C   UNL A   1      36.785  30.960  28.802  1.00  0.00     0.031 C 
ATOM     47  C   UNL A   1      42.354  30.744  31.678  1.00  0.00     0.029 A 
ATOM     48  C   UNL A   1      43.060  29.800  30.815  1.00  0.00     0.049 A 
ATOM     49  H   UNL A   1      42.219  27.878  30.442  1.00  0.00     0.167 HD
ATOM     50  C   UNL A   1      37.461  33.315  29.621  1.00  0.00     0.037 A 
ATOM     51  C   UNL A   1      44.024  30.107  29.899  1.00  0.00     0.037 A 
ATOM     52  C   UNL A   1      38.714  33.847  30.134  1.00  0.00     0.049 A 
ATOM     53  C   UNL A   1      43.936  31.565  29.514  1.00  0.00     0.074 A 
ATOM     54  C   UNL A   1      39.265  33.748  31.402  1.00  0.00     0.029 A 
ATOM     55  N   UNL A   1      39.747  34.192  29.273  1.00  0.00    -0.354 N 
ATOM     56  N   UNL A   1      42.825  32.250  29.484  1.00  0.00    -0.248 NA
ATOM     57  C   UNL A   1      45.106  32.360  29.167  1.00  0.00     0.031 C 
ATOM     58  C   UNL A   1      40.655  33.961  31.292  1.00  0.00     0.029 A 
ATOM     59  C   UNL A   1      40.944  34.206  29.963  1.00  0.00     0.049 A 
ATOM     60  H   UNL A   1      39.641  34.394  28.315  1.00  0.00     0.167 HD
ATOM     61  C   UNL A   1      43.124  33.570  29.243  1.00  0.00     0.074 A 
ATOM     62  C   UNL A   1      44.560  33.578  29.023  1.00  0.00     0.031 C 
ATOM     63  C   UNL A   1      42.187  34.563  29.308  1.00  0.00     0.037 A 
BRANCH  50  64
ATOM     64  C   UNL A   1      36.109  33.864  30.018  1.00  0.00     0.057 A 
ATOM     65  C   UNL A   1      35.187  34.307  29.043  1.00  0.00     0.134 A 
ATOM     66  C   UNL A   1      35.665  34.002  31.343  1.00  0.00     0.134 A 
ATOM     67  F   UNL A   1      35.425  34.174  27.732  1.00  0.00    -0.206 F 
ATOM     68  C   UNL A   1      33.972  34.924  29.356  1.00  0.00     0.040 A 
ATOM     69  C   UNL A   1      34.452  34.635  31.674  1.00  0.00     0.040 A 
ATOM     70  F   UNL A   1      36.383  33.514  32.366  1.00  0.00    -0.206 F 
ATOM     71  C   UNL A   1      33.608  35.112  30.678  1.00  0.00     0.006 A 
ENDBRANCH  50  64
BRANCH  51  72
ATOM     72  C   UNL A   1      44.419  29.019  28.951  1.00  0.00     0.057 A 
ATOM     73  C   UNL A   1      43.981  29.058  27.611  1.00  0.00     0.134 A 
ATOM     74  C   UNL A   1      45.418  28.089  29.248  1.00  0.00     0.134 A 
ATOM     75  F   UNL A   1      43.011  29.910  27.246  1.00  0.00    -0.206 F 
ATOM     76  C   UNL A   1      44.587  28.302  26.601  1.00  0.00     0.040 A 
ATOM     77  C   UNL A   1      46.007  27.303  28.249  1.00  0.00     0.040 A 
ATOM     78  F   UNL A   1      45.914  27.991  30.488  1.00  0.00    -0.206 F 
ATOM     79  C   UNL A   1      45.625  27.436  26.916  1.00  0.00     0.006 A 
ENDBRANCH  51  72
BRANCH  63  80
ATOM     80  C   UNL A   1      42.388  36.011  28.941  1.00  0.00     0.057 A 
ATOM     81  C   UNL A   1      43.153  36.913  29.688  1.00  0.00     0.134 A 
ATOM     82  C   UNL A   1      41.900  36.516  27.711  1.00  0.00     0.134 A 
ATOM     83  F   UNL A   1      43.790  36.534  30.804  1.00  0.00    -0.206 F 
ATOM     84  C   UNL A   1      43.345  38.241  29.289  1.00  0.00     0.040 A 
ATOM     85  C   UNL A   1      42.138  37.819  27.273  1.00  0.00     0.040 A 
ATOM     86  F   UNL A   1      41.186  35.763  26.861  1.00  0.00    -0.206 F 
ATOM     87  C   UNL A   1      42.845  38.696  28.075  1.00  0.00     0.006 A 
ENDBRANCH  63  80
ENDBRANCH  37  38
ENDBRANCH  30  32
ENDBRANCH  29  30
ENDBRANCH  28  29
ENDBRANCH   1  28
TORSDOF 16
ENDMDL
