MODEL 1
REMARK VINA RESULT:     -10.1      0.000      0.000
REMARK SMILES C[C@H](C(=O)OCCOC(=O)c1ccc(-c2c3nc(c(-c4c(F)cccc4F)c4ccc([nH]4)c(-c4c(F)cccc4F)c4nc(c(-c5c(F)cccc5F)c5ccc2[nH]5)C=C4)C=C3)cc1)S(=O)(=O)NC1COC1
REMARK SMILES IDX 6 1 5 2 3 3 4 4 2 5 1 6 65 7 66 8 67 9 68 10 69 12 70 13
REMARK SMILES IDX 72 14 71 15 7 16 8 17 9 18 10 19 11 20 12 21 64 22 13 23
REMARK SMILES IDX 63 24 14 25 15 26 16 27 57 28 17 29 62 30 56 31 58 32 18 33
REMARK SMILES IDX 61 34 55 35 54 36 19 38 45 39 28 40 44 41 29 42 32 43 43 44
REMARK SMILES IDX 59 45 30 46 31 47 42 49 60 50 33 51 20 52 21 53 26 54 22 55
REMARK SMILES IDX 23 56 25 57 27 58 24 59 46 60 47 61 52 62 48 63 49 64 51 65
REMARK SMILES IDX 53 66 50 67 34 68 35 69 40 70 36 71 37 72 39 73 41 74 38 75
REMARK H PARENT 68 11 58 37 32 48
REMARK Flexibility Score: inf
ROOT
ATOM      1  C   UNL A   1      35.149  34.510  33.750  1.00  0.00     0.274 C 
ENDROOT
BRANCH   1   2
ATOM      2  O   UNL A   1      35.154  35.928  33.457  1.00  0.00    -0.461 OA
BRANCH   2   3
ATOM      3  C   UNL A   1      33.954  36.514  33.253  1.00  0.00     0.325 C 
ATOM      4  O   UNL A   1      33.629  37.555  33.826  1.00  0.00    -0.251 OA
BRANCH   3   5
ATOM      5  C   UNL A   1      32.963  35.737  32.430  1.00  0.00     0.230 C 
ATOM      6  C   UNL A   1      31.523  36.081  32.821  1.00  0.00     0.039 C 
BRANCH   5   7
ATOM      7  S   UNL A   1      33.183  35.788  30.656  1.00  0.00     0.225 S 
ATOM      8  O   UNL A   1      32.237  34.951  29.964  1.00  0.00    -0.212 OA
ATOM      9  O   UNL A   1      33.281  37.194  30.302  1.00  0.00    -0.212 OA
BRANCH   7  10
ATOM     10  N   UNL A   1      34.741  35.225  30.359  1.00  0.00    -0.207 NA
ATOM     11  H   UNL A   1      35.054  34.841  31.251  1.00  0.00     0.141 HD
BRANCH  10  12
ATOM     12  C   UNL A   1      35.159  34.207  29.328  1.00  0.00     0.121 C 
ATOM     13  C   UNL A   1      34.406  32.868  29.167  1.00  0.00     0.182 C 
ATOM     14  C   UNL A   1      34.730  34.409  27.864  1.00  0.00     0.182 C 
ATOM     15  O   UNL A   1      34.458  32.991  27.717  1.00  0.00    -0.378 OA
ENDBRANCH  10  12
ENDBRANCH   7  10
ENDBRANCH   5   7
ENDBRANCH   3   5
ENDBRANCH   2   3
ENDBRANCH   1   2
BRANCH   1  16
ATOM     16  C   UNL A   1      36.552  33.900  33.840  1.00  0.00     0.275 C 
BRANCH  16  17
ATOM     17  O   UNL A   1      36.513  32.462  33.970  1.00  0.00    -0.458 OA
BRANCH  17  18
ATOM     18  C   UNL A   1      36.304  31.840  32.792  1.00  0.00     0.338 C 
ATOM     19  O   UNL A   1      35.215  31.593  32.303  1.00  0.00    -0.246 OA
BRANCH  18  20
ATOM     20  C   UNL A   1      37.530  31.507  32.058  1.00  0.00     0.060 A 
ATOM     21  C   UNL A   1      37.562  31.691  30.677  1.00  0.00     0.016 A 
ATOM     22  C   UNL A   1      38.526  30.759  32.689  1.00  0.00     0.016 A 
ATOM     23  C   UNL A   1      38.567  31.098  29.916  1.00  0.00     0.010 A 
ATOM     24  C   UNL A   1      39.575  30.223  31.932  1.00  0.00     0.010 A 
ATOM     25  C   UNL A   1      39.600  30.380  30.538  1.00  0.00    -0.014 A 
BRANCH  25  26
ATOM     26  C   UNL A   1      40.742  29.896  29.724  1.00  0.00     0.031 A 
ATOM     27  C   UNL A   1      40.786  28.505  29.160  1.00  0.00     0.074 A 
ATOM     28  C   UNL A   1      41.756  30.749  29.481  1.00  0.00     0.049 A 
ATOM     29  N   UNL A   1      41.754  27.916  28.504  1.00  0.00    -0.248 NA
ATOM     30  C   UNL A   1      39.593  27.668  29.351  1.00  0.00     0.031 C 
ATOM     31  C   UNL A   1      41.817  32.136  29.948  1.00  0.00     0.029 A 
ATOM     32  N   UNL A   1      42.923  30.582  28.781  1.00  0.00    -0.354 N 
ATOM     33  C   UNL A   1      41.302  26.635  28.218  1.00  0.00     0.074 A 
ATOM     34  C   UNL A   1      39.967  26.530  28.776  1.00  0.00     0.031 C 
ATOM     35  C   UNL A   1      42.947  32.700  29.500  1.00  0.00     0.029 A 
ATOM     36  C   UNL A   1      43.721  31.698  28.780  1.00  0.00     0.049 A 
ATOM     37  H   UNL A   1      43.163  29.744  28.322  1.00  0.00     0.167 HD
ATOM     38  C   UNL A   1      41.943  25.641  27.557  1.00  0.00     0.037 A 
ATOM     39  C   UNL A   1      44.960  31.890  28.292  1.00  0.00     0.037 A 
ATOM     40  C   UNL A   1      43.266  25.751  26.994  1.00  0.00     0.049 A 
ATOM     41  C   UNL A   1      45.668  30.758  27.615  1.00  0.00     0.074 A 
ATOM     42  C   UNL A   1      43.992  24.795  26.301  1.00  0.00     0.029 A 
ATOM     43  N   UNL A   1      44.063  26.883  27.059  1.00  0.00    -0.354 N 
ATOM     44  N   UNL A   1      45.239  29.542  27.383  1.00  0.00    -0.248 NA
ATOM     45  C   UNL A   1      47.036  31.018  27.149  1.00  0.00     0.031 C 
ATOM     46  C   UNL A   1      45.240  25.339  25.976  1.00  0.00     0.029 A 
ATOM     47  C   UNL A   1      45.279  26.644  26.436  1.00  0.00     0.049 A 
ATOM     48  H   UNL A   1      43.805  27.733  27.485  1.00  0.00     0.167 HD
ATOM     49  C   UNL A   1      46.283  28.889  26.747  1.00  0.00     0.074 A 
ATOM     50  C   UNL A   1      47.358  29.852  26.609  1.00  0.00     0.031 C 
ATOM     51  C   UNL A   1      46.346  27.605  26.321  1.00  0.00     0.037 A 
BRANCH  38  52
ATOM     52  C   UNL A   1      41.237  24.324  27.422  1.00  0.00     0.057 A 
ATOM     53  C   UNL A   1      40.199  24.133  26.503  1.00  0.00     0.134 A 
ATOM     54  C   UNL A   1      41.653  23.215  28.170  1.00  0.00     0.134 A 
ATOM     55  F   UNL A   1      39.750  25.158  25.762  1.00  0.00    -0.206 F 
ATOM     56  C   UNL A   1      39.593  22.885  26.337  1.00  0.00     0.040 A 
ATOM     57  C   UNL A   1      41.066  21.960  28.002  1.00  0.00     0.040 A 
ATOM     58  F   UNL A   1      42.648  23.331  29.062  1.00  0.00    -0.206 F 
ATOM     59  C   UNL A   1      40.032  21.792  27.083  1.00  0.00     0.006 A 
ENDBRANCH  38  52
BRANCH  39  60
ATOM     60  C   UNL A   1      45.614  33.206  28.474  1.00  0.00     0.057 A 
ATOM     61  C   UNL A   1      45.482  34.219  27.520  1.00  0.00     0.134 A 
ATOM     62  C   UNL A   1      46.345  33.495  29.634  1.00  0.00     0.134 A 
ATOM     63  F   UNL A   1      44.806  33.993  26.384  1.00  0.00    -0.206 F 
ATOM     64  C   UNL A   1      46.054  35.476  27.712  1.00  0.00     0.040 A 
ATOM     65  C   UNL A   1      46.903  34.753  29.849  1.00  0.00     0.040 A 
ATOM     66  F   UNL A   1      46.497  32.564  30.587  1.00  0.00    -0.206 F 
ATOM     67  C   UNL A   1      46.759  35.749  28.885  1.00  0.00     0.006 A 
ENDBRANCH  39  60
BRANCH  51  68
ATOM     68  C   UNL A   1      47.622  27.176  25.664  1.00  0.00     0.057 A 
ATOM     69  C   UNL A   1      47.823  27.333  24.287  1.00  0.00     0.134 A 
ATOM     70  C   UNL A   1      48.656  26.602  26.413  1.00  0.00     0.134 A 
ATOM     71  F   UNL A   1      46.861  27.859  23.515  1.00  0.00    -0.206 F 
ATOM     72  C   UNL A   1      49.005  26.915  23.673  1.00  0.00     0.040 A 
ATOM     73  C   UNL A   1      49.849  26.196  25.813  1.00  0.00     0.040 A 
ATOM     74  F   UNL A   1      48.524  26.427  27.736  1.00  0.00    -0.206 F 
ATOM     75  C   UNL A   1      50.022  26.347  24.438  1.00  0.00     0.006 A 
ENDBRANCH  51  68
ENDBRANCH  25  26
ENDBRANCH  18  20
ENDBRANCH  17  18
ENDBRANCH  16  17
ENDBRANCH   1  16
TORSDOF 14
ENDMDL
MODEL 2
REMARK VINA RESULT:     -10.1      1.548      2.884
REMARK SMILES C[C@H](C(=O)OCCOC(=O)c1ccc(-c2c3nc(c(-c4c(F)cccc4F)c4ccc([nH]4)c(-c4c(F)cccc4F)c4nc(c(-c5c(F)cccc5F)c5ccc2[nH]5)C=C4)C=C3)cc1)S(=O)(=O)NC1COC1
REMARK SMILES IDX 6 1 5 2 3 3 4 4 2 5 1 6 65 7 66 8 67 9 68 10 69 12 70 13
REMARK SMILES IDX 72 14 71 15 7 16 8 17 9 18 10 19 11 20 12 21 64 22 13 23
REMARK SMILES IDX 63 24 14 25 15 26 16 27 57 28 17 29 62 30 56 31 58 32 18 33
REMARK SMILES IDX 61 34 55 35 54 36 19 38 45 39 28 40 44 41 29 42 32 43 43 44
REMARK SMILES IDX 59 45 30 46 31 47 42 49 60 50 33 51 20 52 21 53 26 54 22 55
REMARK SMILES IDX 23 56 25 57 27 58 24 59 46 60 47 61 52 62 48 63 49 64 51 65
REMARK SMILES IDX 53 66 50 67 34 68 35 69 40 70 36 71 37 72 39 73 41 74 38 75
REMARK H PARENT 68 11 58 37 32 48
REMARK Flexibility Score: inf
ROOT
ATOM      1  C   UNL A   1      34.446  33.816  29.863  1.00  0.00     0.274 C 
ENDROOT
BRANCH   1   2
ATOM      2  O   UNL A   1      33.566  34.401  30.852  1.00  0.00    -0.461 OA
BRANCH   2   3
ATOM      3  C   UNL A   1      32.991  35.582  30.539  1.00  0.00     0.325 C 
ATOM      4  O   UNL A   1      32.985  36.022  29.388  1.00  0.00    -0.251 OA
BRANCH   3   5
ATOM      5  C   UNL A   1      32.519  36.421  31.694  1.00  0.00     0.230 C 
ATOM      6  C   UNL A   1      31.463  35.685  32.523  1.00  0.00     0.039 C 
BRANCH   5   7
ATOM      7  S   UNL A   1      33.787  37.128  32.739  1.00  0.00     0.225 S 
ATOM      8  O   UNL A   1      34.278  38.383  32.229  1.00  0.00    -0.212 OA
ATOM      9  O   UNL A   1      33.274  37.064  34.096  1.00  0.00    -0.212 OA
BRANCH   7  10
ATOM     10  N   UNL A   1      35.047  36.013  32.769  1.00  0.00    -0.207 NA
ATOM     11  H   UNL A   1      35.896  36.578  32.756  1.00  0.00     0.141 HD
BRANCH  10  12
ATOM     12  C   UNL A   1      35.299  34.954  33.813  1.00  0.00     0.121 C 
ATOM     13  C   UNL A   1      34.560  33.598  33.780  1.00  0.00     0.182 C 
ATOM     14  C   UNL A   1      36.548  34.064  33.684  1.00  0.00     0.182 C 
ATOM     15  O   UNL A   1      35.795  32.896  34.102  1.00  0.00    -0.378 OA
ENDBRANCH  10  12
ENDBRANCH   7  10
ENDBRANCH   5   7
ENDBRANCH   3   5
ENDBRANCH   2   3
ENDBRANCH   1   2
BRANCH   1  16
ATOM     16  C   UNL A   1      34.808  32.355  30.154  1.00  0.00     0.275 C 
BRANCH  16  17
ATOM     17  O   UNL A   1      36.231  32.168  30.310  1.00  0.00    -0.458 OA
BRANCH  17  18
ATOM     18  C   UNL A   1      36.539  31.002  30.914  1.00  0.00     0.338 C 
ATOM     19  O   UNL A   1      35.888  30.465  31.793  1.00  0.00    -0.246 OA
BRANCH  18  20
ATOM     20  C   UNL A   1      37.739  30.346  30.384  1.00  0.00     0.060 A 
ATOM     21  C   UNL A   1      38.726  29.922  31.272  1.00  0.00     0.016 A 
ATOM     22  C   UNL A   1      38.009  30.410  29.015  1.00  0.00     0.016 A 
ATOM     23  C   UNL A   1      39.996  29.595  30.802  1.00  0.00     0.010 A 
ATOM     24  C   UNL A   1      39.263  30.013  28.536  1.00  0.00     0.010 A 
ATOM     25  C   UNL A   1      40.270  29.611  29.426  1.00  0.00    -0.014 A 
BRANCH  25  26
ATOM     26  C   UNL A   1      41.578  29.107  28.939  1.00  0.00     0.031 A 
ATOM     27  C   UNL A   1      41.774  27.681  28.512  1.00  0.00     0.074 A 
ATOM     28  C   UNL A   1      42.608  29.973  28.870  1.00  0.00     0.049 A 
ATOM     29  N   UNL A   1      42.877  27.078  28.145  1.00  0.00    -0.248 NA
ATOM     30  C   UNL A   1      40.583  26.820  28.487  1.00  0.00     0.031 C 
ATOM     31  C   UNL A   1      42.537  31.392  29.227  1.00  0.00     0.029 A 
ATOM     32  N   UNL A   1      43.907  29.795  28.473  1.00  0.00    -0.354 N 
ATOM     33  C   UNL A   1      42.524  25.765  27.865  1.00  0.00     0.074 A 
ATOM     34  C   UNL A   1      41.099  25.657  28.106  1.00  0.00     0.031 C 
ATOM     35  C   UNL A   1      43.730  31.960  29.009  1.00  0.00     0.029 A 
ATOM     36  C   UNL A   1      44.666  30.934  28.568  1.00  0.00     0.049 A 
ATOM     37  H   UNL A   1      44.261  28.935  28.150  1.00  0.00     0.167 HD
ATOM     38  C   UNL A   1      43.317  24.747  27.450  1.00  0.00     0.037 A 
ATOM     39  C   UNL A   1      45.982  31.132  28.366  1.00  0.00     0.037 A 
ATOM     40  C   UNL A   1      44.733  24.860  27.201  1.00  0.00     0.049 A 
ATOM     41  C   UNL A   1      46.845  29.977  27.962  1.00  0.00     0.074 A 
ATOM     42  C   UNL A   1      45.615  23.881  26.772  1.00  0.00     0.029 A 
ATOM     43  N   UNL A   1      45.475  26.020  27.359  1.00  0.00    -0.354 N 
ATOM     44  N   UNL A   1      46.501  28.734  27.734  1.00  0.00    -0.248 NA
ATOM     45  C   UNL A   1      48.280  30.249  27.806  1.00  0.00     0.031 C 
ATOM     46  C   UNL A   1      46.896  24.442  26.702  1.00  0.00     0.029 A 
ATOM     47  C   UNL A   1      46.806  25.778  27.053  1.00  0.00     0.049 A 
ATOM     48  H   UNL A   1      45.112  26.890  27.645  1.00  0.00     0.167 HD
ATOM     49  C   UNL A   1      47.675  28.071  27.409  1.00  0.00     0.074 A 
ATOM     50  C   UNL A   1      48.737  29.057  27.448  1.00  0.00     0.031 C 
ATOM     51  C   UNL A   1      47.856  26.762  27.113  1.00  0.00     0.037 A 
BRANCH  38  52
ATOM     52  C   UNL A   1      42.683  23.401  27.260  1.00  0.00     0.057 A 
ATOM     53  C   UNL A   1      42.428  22.877  25.987  1.00  0.00     0.134 A 
ATOM     54  C   UNL A   1      42.391  22.591  28.365  1.00  0.00     0.134 A 
ATOM     55  F   UNL A   1      42.678  23.607  24.890  1.00  0.00    -0.206 F 
ATOM     56  C   UNL A   1      41.899  21.596  25.820  1.00  0.00     0.040 A 
ATOM     57  C   UNL A   1      41.877  21.303  28.210  1.00  0.00     0.040 A 
ATOM     58  F   UNL A   1      42.620  23.033  29.611  1.00  0.00    -0.206 F 
ATOM     59  C   UNL A   1      41.629  20.801  26.933  1.00  0.00     0.006 A 
ENDBRANCH  38  52
BRANCH  39  60
ATOM     60  C   UNL A   1      46.554  32.479  28.590  1.00  0.00     0.057 A 
ATOM     61  C   UNL A   1      47.065  32.851  29.836  1.00  0.00     0.134 A 
ATOM     62  C   UNL A   1      46.648  33.407  27.544  1.00  0.00     0.134 A 
ATOM     63  F   UNL A   1      46.987  32.008  30.876  1.00  0.00    -0.206 F 
ATOM     64  C   UNL A   1      47.651  34.100  30.038  1.00  0.00     0.040 A 
ATOM     65  C   UNL A   1      47.251  34.650  27.725  1.00  0.00     0.040 A 
ATOM     66  F   UNL A   1      46.182  33.101  26.324  1.00  0.00    -0.206 F 
ATOM     67  C   UNL A   1      47.754  34.999  28.977  1.00  0.00     0.006 A 
ENDBRANCH  39  60
BRANCH  51  68
ATOM     68  C   UNL A   1      49.256  26.330  26.804  1.00  0.00     0.057 A 
ATOM     69  C   UNL A   1      50.096  25.811  27.798  1.00  0.00     0.134 A 
ATOM     70  C   UNL A   1      49.769  26.434  25.507  1.00  0.00     0.134 A 
ATOM     71  F   UNL A   1      49.667  25.705  29.064  1.00  0.00    -0.206 F 
ATOM     72  C   UNL A   1      51.407  25.427  27.513  1.00  0.00     0.040 A 
ATOM     73  C   UNL A   1      51.073  26.036  25.206  1.00  0.00     0.040 A 
ATOM     74  F   UNL A   1      49.013  26.922  24.512  1.00  0.00    -0.206 F 
ATOM     75  C   UNL A   1      51.897  25.537  26.213  1.00  0.00     0.006 A 
ENDBRANCH  51  68
ENDBRANCH  25  26
ENDBRANCH  18  20
ENDBRANCH  17  18
ENDBRANCH  16  17
ENDBRANCH   1  16
TORSDOF 14
ENDMDL
MODEL 3
REMARK VINA RESULT:     -10.0      0.983      2.370
REMARK SMILES C[C@H](C(=O)OCCOC(=O)c1ccc(-c2c3nc(c(-c4c(F)cccc4F)c4ccc([nH]4)c(-c4c(F)cccc4F)c4nc(c(-c5c(F)cccc5F)c5ccc2[nH]5)C=C4)C=C3)cc1)S(=O)(=O)NC1COC1
REMARK SMILES IDX 6 1 5 2 3 3 4 4 2 5 1 6 65 7 66 8 67 9 68 10 69 12 70 13
REMARK SMILES IDX 72 14 71 15 7 16 8 17 9 18 10 19 11 20 12 21 64 22 13 23
REMARK SMILES IDX 63 24 14 25 15 26 16 27 57 28 17 29 62 30 56 31 58 32 18 33
REMARK SMILES IDX 61 34 55 35 54 36 19 38 45 39 28 40 44 41 29 42 32 43 43 44
REMARK SMILES IDX 59 45 30 46 31 47 42 49 60 50 33 51 20 52 21 53 26 54 22 55
REMARK SMILES IDX 23 56 25 57 27 58 24 59 46 60 47 61 52 62 48 63 49 64 51 65
REMARK SMILES IDX 53 66 50 67 34 68 35 69 40 70 36 71 37 72 39 73 41 74 38 75
REMARK H PARENT 68 11 58 37 32 48
REMARK Flexibility Score: inf
ROOT
ATOM      1  C   UNL A   1      36.258  34.547  32.435  1.00  0.00     0.274 C 
ENDROOT
BRANCH   1   2
ATOM      2  O   UNL A   1      35.451  33.949  31.392  1.00  0.00    -0.461 OA
BRANCH   2   3
ATOM      3  C   UNL A   1      35.976  33.929  30.148  1.00  0.00     0.325 C 
ATOM      4  O   UNL A   1      37.156  34.208  29.931  1.00  0.00    -0.251 OA
BRANCH   3   5
ATOM      5  C   UNL A   1      35.005  33.726  29.018  1.00  0.00     0.230 C 
ATOM      6  C   UNL A   1      34.533  32.271  28.942  1.00  0.00     0.039 C 
BRANCH   5   7
ATOM      7  S   UNL A   1      33.625  34.861  28.937  1.00  0.00     0.225 S 
ATOM      8  O   UNL A   1      34.026  36.179  28.516  1.00  0.00    -0.212 OA
ATOM      9  O   UNL A   1      32.576  34.170  28.208  1.00  0.00    -0.212 OA
BRANCH   7  10
ATOM     10  N   UNL A   1      32.995  34.946  30.495  1.00  0.00    -0.207 NA
ATOM     11  H   UNL A   1      33.735  34.584  31.096  1.00  0.00     0.141 HD
BRANCH  10  12
ATOM     12  C   UNL A   1      32.484  36.175  31.204  1.00  0.00     0.121 C 
ATOM     13  C   UNL A   1      31.572  36.068  32.446  1.00  0.00     0.182 C 
ATOM     14  C   UNL A   1      33.415  36.912  32.183  1.00  0.00     0.182 C 
ATOM     15  O   UNL A   1      32.319  37.128  33.109  1.00  0.00    -0.378 OA
ENDBRANCH  10  12
ENDBRANCH   7  10
ENDBRANCH   5   7
ENDBRANCH   3   5
ENDBRANCH   2   3
ENDBRANCH   1   2
BRANCH   1  16
ATOM     16  C   UNL A   1      36.270  33.738  33.737  1.00  0.00     0.275 C 
BRANCH  16  17
ATOM     17  O   UNL A   1      36.249  32.315  33.494  1.00  0.00    -0.458 OA
BRANCH  17  18
ATOM     18  C   UNL A   1      37.313  31.681  34.027  1.00  0.00     0.338 C 
ATOM     19  O   UNL A   1      37.529  31.537  35.218  1.00  0.00    -0.246 OA
BRANCH  18  20
ATOM     20  C   UNL A   1      38.220  31.086  33.039  1.00  0.00     0.060 A 
ATOM     21  C   UNL A   1      39.425  30.536  33.473  1.00  0.00     0.016 A 
ATOM     22  C   UNL A   1      38.009  31.330  31.681  1.00  0.00     0.016 A 
ATOM     23  C   UNL A   1      40.437  30.260  32.557  1.00  0.00     0.010 A 
ATOM     24  C   UNL A   1      39.000  30.985  30.752  1.00  0.00     0.010 A 
ATOM     25  C   UNL A   1      40.225  30.456  31.184  1.00  0.00    -0.014 A 
BRANCH  25  26
ATOM     26  C   UNL A   1      41.257  30.005  30.217  1.00  0.00     0.031 A 
ATOM     27  C   UNL A   1      41.222  28.641  29.591  1.00  0.00     0.074 A 
ATOM     28  C   UNL A   1      42.241  30.866  29.890  1.00  0.00     0.049 A 
ATOM     29  N   UNL A   1      42.099  28.080  28.797  1.00  0.00    -0.248 NA
ATOM     30  C   UNL A   1      40.055  27.798  29.888  1.00  0.00     0.031 C 
ATOM     31  C   UNL A   1      42.369  32.231  30.406  1.00  0.00     0.029 A 
ATOM     32  N   UNL A   1      43.313  30.728  29.047  1.00  0.00    -0.354 N 
ATOM     33  C   UNL A   1      41.606  26.813  28.512  1.00  0.00     0.074 A 
ATOM     34  C   UNL A   1      40.348  26.686  29.223  1.00  0.00     0.031 C 
ATOM     35  C   UNL A   1      43.440  32.812  29.850  1.00  0.00     0.029 A 
ATOM     36  C   UNL A   1      44.113  31.841  28.998  1.00  0.00     0.049 A 
ATOM     37  H   UNL A   1      43.490  29.911  28.526  1.00  0.00     0.167 HD
ATOM     38  C   UNL A   1      42.155  25.848  27.735  1.00  0.00     0.037 A 
ATOM     39  C   UNL A   1      45.285  32.052  28.372  1.00  0.00     0.037 A 
ATOM     40  C   UNL A   1      43.401  25.980  27.021  1.00  0.00     0.049 A 
ATOM     41  C   UNL A   1      45.898  30.949  27.565  1.00  0.00     0.074 A 
ATOM     42  C   UNL A   1      44.030  25.054  26.204  1.00  0.00     0.029 A 
ATOM     43  N   UNL A   1      44.208  27.107  27.039  1.00  0.00    -0.354 N 
ATOM     44  N   UNL A   1      45.435  29.746  27.334  1.00  0.00    -0.248 NA
ATOM     45  C   UNL A   1      47.201  31.227  26.949  1.00  0.00     0.031 C 
ATOM     46  C   UNL A   1      45.234  25.610  25.754  1.00  0.00     0.029 A 
ATOM     47  C   UNL A   1      45.338  26.893  26.262  1.00  0.00     0.049 A 
ATOM     48  H   UNL A   1      44.010  27.937  27.529  1.00  0.00     0.167 HD
ATOM     49  C   UNL A   1      46.389  29.119  26.547  1.00  0.00     0.074 A 
ATOM     50  C   UNL A   1      47.447  30.085  26.323  1.00  0.00     0.031 C 
ATOM     51  C   UNL A   1      46.391  27.855  26.062  1.00  0.00     0.037 A 
BRANCH  38  52
ATOM     52  C   UNL A   1      41.428  24.540  27.629  1.00  0.00     0.057 A 
ATOM     53  C   UNL A   1      40.363  24.356  26.740  1.00  0.00     0.134 A 
ATOM     54  C   UNL A   1      41.848  23.431  28.374  1.00  0.00     0.134 A 
ATOM     55  F   UNL A   1      39.908  25.382  26.004  1.00  0.00    -0.206 F 
ATOM     56  C   UNL A   1      39.736  23.116  26.600  1.00  0.00     0.040 A 
ATOM     57  C   UNL A   1      41.241  22.183  28.232  1.00  0.00     0.040 A 
ATOM     58  F   UNL A   1      42.869  23.540  29.238  1.00  0.00    -0.206 F 
ATOM     59  C   UNL A   1      40.180  22.023  27.342  1.00  0.00     0.006 A 
ENDBRANCH  38  52
BRANCH  39  60
ATOM     60  C   UNL A   1      45.966  33.358  28.531  1.00  0.00     0.057 A 
ATOM     61  C   UNL A   1      45.715  34.417  27.656  1.00  0.00     0.134 A 
ATOM     62  C   UNL A   1      46.849  33.587  29.595  1.00  0.00     0.134 A 
ATOM     63  F   UNL A   1      44.892  34.249  26.611  1.00  0.00    -0.206 F 
ATOM     64  C   UNL A   1      46.316  35.663  27.832  1.00  0.00     0.040 A 
ATOM     65  C   UNL A   1      47.438  34.833  29.797  1.00  0.00     0.040 A 
ATOM     66  F   UNL A   1      47.120  32.608  30.471  1.00  0.00    -0.206 F 
ATOM     67  C   UNL A   1      47.173  35.876  28.912  1.00  0.00     0.006 A 
ENDBRANCH  39  60
BRANCH  51  68
ATOM     68  C   UNL A   1      47.574  27.454  25.237  1.00  0.00     0.057 A 
ATOM     69  C   UNL A   1      48.702  26.860  25.818  1.00  0.00     0.134 A 
ATOM     70  C   UNL A   1      47.588  27.662  23.853  1.00  0.00     0.134 A 
ATOM     71  F   UNL A   1      48.755  26.653  27.142  1.00  0.00    -0.206 F 
ATOM     72  C   UNL A   1      49.813  26.505  25.051  1.00  0.00     0.040 A 
ATOM     73  C   UNL A   1      48.685  27.294  23.073  1.00  0.00     0.040 A 
ATOM     74  F   UNL A   1      46.537  28.225  23.238  1.00  0.00    -0.206 F 
ATOM     75  C   UNL A   1      49.804  26.719  23.674  1.00  0.00     0.006 A 
ENDBRANCH  51  68
ENDBRANCH  25  26
ENDBRANCH  18  20
ENDBRANCH  17  18
ENDBRANCH  16  17
ENDBRANCH   1  16
TORSDOF 14
ENDMDL
