MODEL 1
REMARK VINA RESULT:     -11.5      0.000      0.000
REMARK SMILES O=Cc1cccc(-c2cc(F)ccc2C(=O)OCCOC(=O)c2ccc(-c3c4nc(c(-c5c(F)cccc5F)c5ccc([nH]5)c(-c5c(F)cccc5F)c5nc(c(-c6c(F)cccc6F)c6ccc3[nH]6)C=C5)C=C4)cc2)c1
REMARK SMILES IDX 18 1 17 2 15 3 16 4 14 5 8 6 9 7 10 8 13 9 11 10 12 11 7 12
REMARK SMILES IDX 3 13 4 14 77 15 5 16 6 17 2 18 1 19 19 20 20 21 21 22 22 23
REMARK SMILES IDX 23 24 24 25 76 26 25 27 75 28 26 29 27 30 28 31 69 32 29 33
REMARK SMILES IDX 74 34 68 35 70 36 30 37 73 38 67 39 66 40 31 42 57 43 40 44
REMARK SMILES IDX 56 45 41 46 44 47 55 48 71 49 42 50 43 51 54 53 72 54 45 55
REMARK SMILES IDX 32 56 33 57 38 58 34 59 35 60 37 61 39 62 36 63 58 64 59 65
REMARK SMILES IDX 64 66 60 67 61 68 63 69 65 70 62 71 46 72 47 73 52 74 48 75
REMARK SMILES IDX 49 76 51 77 53 78 50 79
REMARK H PARENT 70 41 44 52
REMARK Flexibility Score: inf
ROOT
ATOM      1  C   UNL A   1      31.795  28.272  26.723  1.00  0.00     0.275 C 
ENDROOT
BRANCH   1   2
ATOM      2  O   UNL A   1      32.602  27.239  26.123  1.00  0.00    -0.458 OA
BRANCH   2   3
ATOM      3  C   UNL A   1      32.096  25.982  26.119  1.00  0.00     0.338 C 
ATOM      4  O   UNL A   1      31.315  25.509  26.924  1.00  0.00    -0.246 OA
BRANCH   3   5
ATOM      5  C   UNL A   1      32.557  25.231  24.916  1.00  0.00     0.068 A 
ATOM      6  C   UNL A   1      31.912  25.318  23.659  1.00  0.00    -0.001 A 
ATOM      7  C   UNL A   1      32.432  24.550  22.601  1.00  0.00     0.048 A 
ATOM      8  C   UNL A   1      33.548  23.735  22.789  1.00  0.00     0.123 A 
ATOM      9  C   UNL A   1      33.709  24.438  25.073  1.00  0.00     0.019 A 
ATOM     10  F   UNL A   1      34.015  23.009  21.765  1.00  0.00    -0.207 F 
ATOM     11  C   UNL A   1      34.192  23.673  24.015  1.00  0.00     0.040 A 
BRANCH   6  12
ATOM     12  C   UNL A   1      30.730  26.171  23.434  1.00  0.00    -0.017 A 
ATOM     13  C   UNL A   1      29.774  28.323  22.820  1.00  0.00     0.015 A 
ATOM     14  C   UNL A   1      28.537  27.940  23.338  1.00  0.00     0.011 A 
ATOM     15  C   UNL A   1      30.854  27.435  22.831  1.00  0.00     0.020 A 
ATOM     16  C   UNL A   1      28.382  26.664  23.876  1.00  0.00     0.001 A 
ATOM     17  C   UNL A   1      29.471  25.790  23.929  1.00  0.00     0.009 A 
BRANCH  13  18
ATOM     18  C   UNL A   1      29.964  29.704  22.338  1.00  0.00     0.260 C 
ATOM     19  O   UNL A   1      29.540  30.078  21.251  1.00  0.00    -0.298 OA
ENDBRANCH  13  18
ENDBRANCH   6  12
ENDBRANCH   3   5
ENDBRANCH   2   3
ENDBRANCH   1   2
BRANCH   1  20
ATOM     20  C   UNL A   1      31.750  29.503  25.825  1.00  0.00     0.275 C 
BRANCH  20  21
ATOM     21  O   UNL A   1      33.025  30.162  25.857  1.00  0.00    -0.458 OA
BRANCH  21  22
ATOM     22  C   UNL A   1      33.174  31.075  26.840  1.00  0.00     0.338 C 
ATOM     23  O   UNL A   1      32.364  31.888  27.251  1.00  0.00    -0.246 OA
BRANCH  22  24
ATOM     24  C   UNL A   1      34.487  30.870  27.455  1.00  0.00     0.060 A 
ATOM     25  C   UNL A   1      34.865  29.566  27.770  1.00  0.00     0.016 A 
ATOM     26  C   UNL A   1      35.294  31.948  27.798  1.00  0.00     0.016 A 
ATOM     27  C   UNL A   1      36.029  29.329  28.489  1.00  0.00     0.010 A 
ATOM     28  C   UNL A   1      36.499  31.705  28.460  1.00  0.00     0.010 A 
ATOM     29  C   UNL A   1      36.866  30.396  28.833  1.00  0.00    -0.014 A 
BRANCH  29  30
ATOM     30  C   UNL A   1      38.102  30.165  29.622  1.00  0.00     0.031 A 
ATOM     31  C   UNL A   1      39.195  29.310  29.047  1.00  0.00     0.074 A 
ATOM     32  C   UNL A   1      38.241  30.702  30.849  1.00  0.00     0.049 A 
ATOM     33  N   UNL A   1      40.225  28.769  29.645  1.00  0.00    -0.248 NA
ATOM     34  C   UNL A   1      39.105  29.010  27.610  1.00  0.00     0.031 C 
ATOM     35  C   UNL A   1      37.289  31.606  31.496  1.00  0.00     0.029 A 
ATOM     36  N   UNL A   1      39.241  30.552  31.778  1.00  0.00    -0.354 N 
ATOM     37  C   UNL A   1      40.868  28.013  28.672  1.00  0.00     0.074 A 
ATOM     38  C   UNL A   1      40.118  28.171  27.445  1.00  0.00     0.031 C 
ATOM     39  C   UNL A   1      37.754  31.939  32.710  1.00  0.00     0.029 A 
ATOM     40  C   UNL A   1      38.988  31.203  32.961  1.00  0.00     0.049 A 
ATOM     41  H   UNL A   1      40.059  30.029  31.613  1.00  0.00     0.167 HD
ATOM     42  C   UNL A   1      41.979  27.251  28.803  1.00  0.00     0.037 A 
ATOM     43  C   UNL A   1      39.643  31.165  34.137  1.00  0.00     0.037 A 
ATOM     44  C   UNL A   1      42.745  27.146  30.017  1.00  0.00     0.049 A 
ATOM     45  C   UNL A   1      40.850  30.281  34.270  1.00  0.00     0.074 A 
ATOM     46  C   UNL A   1      43.895  26.413  30.253  1.00  0.00     0.029 A 
ATOM     47  N   UNL A   1      42.444  27.811  31.196  1.00  0.00    -0.354 N 
ATOM     48  N   UNL A   1      41.415  29.515  33.369  1.00  0.00    -0.248 NA
ATOM     49  C   UNL A   1      41.495  30.236  35.590  1.00  0.00     0.031 C 
ATOM     50  C   UNL A   1      44.271  26.610  31.585  1.00  0.00     0.029 A 
ATOM     51  C   UNL A   1      43.380  27.497  32.167  1.00  0.00     0.049 A 
ATOM     52  H   UNL A   1      41.679  28.417  31.324  1.00  0.00     0.167 HD
ATOM     53  C   UNL A   1      42.488  28.908  34.006  1.00  0.00     0.074 A 
ATOM     54  C   UNL A   1      42.504  29.406  35.367  1.00  0.00     0.031 C 
ATOM     55  C   UNL A   1      43.379  28.015  33.511  1.00  0.00     0.037 A 
BRANCH  42  56
ATOM     56  C   UNL A   1      42.408  26.441  27.615  1.00  0.00     0.057 A 
ATOM     57  C   UNL A   1      43.271  26.945  26.636  1.00  0.00     0.134 A 
ATOM     58  C   UNL A   1      41.966  25.119  27.468  1.00  0.00     0.134 A 
ATOM     59  F   UNL A   1      43.717  28.209  26.710  1.00  0.00    -0.206 F 
ATOM     60  C   UNL A   1      43.663  26.173  25.541  1.00  0.00     0.040 A 
ATOM     61  C   UNL A   1      42.370  24.329  26.391  1.00  0.00     0.040 A 
ATOM     62  F   UNL A   1      41.139  24.572  28.371  1.00  0.00    -0.206 F 
ATOM     63  C   UNL A   1      43.218  24.858  25.420  1.00  0.00     0.006 A 
ENDBRANCH  42  56
BRANCH  43  64
ATOM     64  C   UNL A   1      39.134  31.946  35.292  1.00  0.00     0.057 A 
ATOM     65  C   UNL A   1      39.470  33.294  35.455  1.00  0.00     0.134 A 
ATOM     66  C   UNL A   1      38.291  31.370  36.250  1.00  0.00     0.134 A 
ATOM     67  F   UNL A   1      40.292  33.896  34.583  1.00  0.00    -0.206 F 
ATOM     68  C   UNL A   1      38.988  34.041  36.533  1.00  0.00     0.040 A 
ATOM     69  C   UNL A   1      37.782  32.111  37.317  1.00  0.00     0.040 A 
ATOM     70  F   UNL A   1      37.933  30.081  36.150  1.00  0.00    -0.206 F 
ATOM     71  C   UNL A   1      38.134  33.451  37.462  1.00  0.00     0.006 A 
ENDBRANCH  43  64
BRANCH  55  72
ATOM     72  C   UNL A   1      44.464  27.551  34.434  1.00  0.00     0.057 A 
ATOM     73  C   UNL A   1      45.668  28.253  34.567  1.00  0.00     0.134 A 
ATOM     74  C   UNL A   1      44.281  26.414  35.231  1.00  0.00     0.134 A 
ATOM     75  F   UNL A   1      45.907  29.341  33.820  1.00  0.00    -0.206 F 
ATOM     76  C   UNL A   1      46.660  27.831  35.453  1.00  0.00     0.040 A 
ATOM     77  C   UNL A   1      45.257  25.995  36.135  1.00  0.00     0.040 A 
ATOM     78  F   UNL A   1      43.146  25.704  35.153  1.00  0.00    -0.206 F 
ATOM     79  C   UNL A   1      46.453  26.703  36.246  1.00  0.00     0.006 A 
ENDBRANCH  55  72
ENDBRANCH  29  30
ENDBRANCH  22  24
ENDBRANCH  21  22
ENDBRANCH  20  21
ENDBRANCH   1  20
TORSDOF 13
ENDMDL
MODEL 2
REMARK VINA RESULT:     -11.4      4.177      8.861
REMARK SMILES O=Cc1cccc(-c2cc(F)ccc2C(=O)OCCOC(=O)c2ccc(-c3c4nc(c(-c5c(F)cccc5F)c5ccc([nH]5)c(-c5c(F)cccc5F)c5nc(c(-c6c(F)cccc6F)c6ccc3[nH]6)C=C5)C=C4)cc2)c1
REMARK SMILES IDX 18 1 17 2 15 3 16 4 14 5 8 6 9 7 10 8 13 9 11 10 12 11 7 12
REMARK SMILES IDX 3 13 4 14 77 15 5 16 6 17 2 18 1 19 19 20 20 21 21 22 22 23
REMARK SMILES IDX 23 24 24 25 76 26 25 27 75 28 26 29 27 30 28 31 69 32 29 33
REMARK SMILES IDX 74 34 68 35 70 36 30 37 73 38 67 39 66 40 31 42 57 43 40 44
REMARK SMILES IDX 56 45 41 46 44 47 55 48 71 49 42 50 43 51 54 53 72 54 45 55
REMARK SMILES IDX 32 56 33 57 38 58 34 59 35 60 37 61 39 62 36 63 58 64 59 65
REMARK SMILES IDX 64 66 60 67 61 68 63 69 65 70 62 71 46 72 47 73 52 74 48 75
REMARK SMILES IDX 49 76 51 77 53 78 50 79
REMARK H PARENT 70 41 44 52
REMARK Flexibility Score: inf
ROOT
ATOM      1  C   UNL A   1      36.062  22.679  23.817  1.00  0.00     0.275 C 
ENDROOT
BRANCH   1   2
ATOM      2  O   UNL A   1      35.150  23.593  24.458  1.00  0.00    -0.458 OA
BRANCH   2   3
ATOM      3  C   UNL A   1      34.286  24.266  23.660  1.00  0.00     0.338 C 
ATOM      4  O   UNL A   1      34.417  24.489  22.471  1.00  0.00    -0.246 OA
BRANCH   3   5
ATOM      5  C   UNL A   1      33.059  24.649  24.416  1.00  0.00     0.068 A 
ATOM      6  C   UNL A   1      31.984  23.757  24.644  1.00  0.00    -0.001 A 
ATOM      7  C   UNL A   1      30.872  24.239  25.359  1.00  0.00     0.048 A 
ATOM      8  C   UNL A   1      30.837  25.552  25.828  1.00  0.00     0.123 A 
ATOM      9  C   UNL A   1      33.024  25.956  24.936  1.00  0.00     0.019 A 
ATOM     10  F   UNL A   1      29.762  25.985  26.497  1.00  0.00    -0.207 F 
ATOM     11  C   UNL A   1      31.903  26.415  25.624  1.00  0.00     0.040 A 
BRANCH   6  12
ATOM     12  C   UNL A   1      31.996  22.365  24.158  1.00  0.00    -0.017 A 
ATOM     13  C   UNL A   1      32.514  20.015  24.519  1.00  0.00     0.015 A 
ATOM     14  C   UNL A   1      32.374  19.757  23.155  1.00  0.00     0.011 A 
ATOM     15  C   UNL A   1      32.289  21.298  25.026  1.00  0.00     0.020 A 
ATOM     16  C   UNL A   1      32.014  20.792  22.294  1.00  0.00     0.001 A 
ATOM     17  C   UNL A   1      31.834  22.085  22.791  1.00  0.00     0.009 A 
BRANCH  13  18
ATOM     18  C   UNL A   1      32.985  18.942  25.416  1.00  0.00     0.260 C 
ATOM     19  O   UNL A   1      32.243  18.054  25.815  1.00  0.00    -0.298 OA
ENDBRANCH  13  18
ENDBRANCH   6  12
ENDBRANCH   3   5
ENDBRANCH   2   3
ENDBRANCH   1   2
BRANCH   1  20
ATOM     20  C   UNL A   1      36.162  21.381  24.611  1.00  0.00     0.275 C 
BRANCH  20  21
ATOM     21  O   UNL A   1      36.881  21.623  25.830  1.00  0.00    -0.458 OA
BRANCH  21  22
ATOM     22  C   UNL A   1      38.197  21.331  25.787  1.00  0.00     0.338 C 
ATOM     23  O   UNL A   1      38.747  20.376  25.267  1.00  0.00    -0.246 OA
BRANCH  22  24
ATOM     24  C   UNL A   1      38.930  22.444  26.397  1.00  0.00     0.060 A 
ATOM     25  C   UNL A   1      38.471  23.738  26.158  1.00  0.00     0.016 A 
ATOM     26  C   UNL A   1      40.099  22.224  27.117  1.00  0.00     0.016 A 
ATOM     27  C   UNL A   1      39.211  24.833  26.583  1.00  0.00     0.010 A 
ATOM     28  C   UNL A   1      40.806  23.324  27.605  1.00  0.00     0.010 A 
ATOM     29  C   UNL A   1      40.382  24.638  27.323  1.00  0.00    -0.014 A 
BRANCH  29  30
ATOM     30  C   UNL A   1      41.199  25.796  27.765  1.00  0.00     0.031 A 
ATOM     31  C   UNL A   1      40.571  26.855  28.626  1.00  0.00     0.074 A 
ATOM     32  C   UNL A   1      42.488  25.909  27.389  1.00  0.00     0.049 A 
ATOM     33  N   UNL A   1      41.004  28.056  28.909  1.00  0.00    -0.248 NA
ATOM     34  C   UNL A   1      39.274  26.521  29.234  1.00  0.00     0.031 C 
ATOM     35  C   UNL A   1      43.238  24.920  26.615  1.00  0.00     0.029 A 
ATOM     36  N   UNL A   1      43.391  26.920  27.603  1.00  0.00    -0.354 N 
ATOM     37  C   UNL A   1      40.004  28.644  29.673  1.00  0.00     0.074 A 
ATOM     38  C   UNL A   1      38.947  27.666  29.817  1.00  0.00     0.031 C 
ATOM     39  C   UNL A   1      44.489  25.366  26.427  1.00  0.00     0.029 A 
ATOM     40  C   UNL A   1      44.602  26.707  26.988  1.00  0.00     0.049 A 
ATOM     41  H   UNL A   1      43.192  27.718  28.143  1.00  0.00     0.167 HD
ATOM     42  C   UNL A   1      39.974  29.893  30.197  1.00  0.00     0.037 A 
ATOM     43  C   UNL A   1      45.662  27.524  26.841  1.00  0.00     0.037 A 
ATOM     44  C   UNL A   1      41.055  30.836  30.091  1.00  0.00     0.049 A 
ATOM     45  C   UNL A   1      45.591  28.918  27.395  1.00  0.00     0.074 A 
ATOM     46  C   UNL A   1      41.134  32.121  30.597  1.00  0.00     0.029 A 
ATOM     47  N   UNL A   1      42.258  30.584  29.447  1.00  0.00    -0.354 N 
ATOM     48  N   UNL A   1      44.617  29.494  28.057  1.00  0.00    -0.248 NA
ATOM     49  C   UNL A   1      46.754  29.785  27.160  1.00  0.00     0.031 C 
ATOM     50  C   UNL A   1      42.372  32.658  30.231  1.00  0.00     0.029 A 
ATOM     51  C   UNL A   1      43.081  31.694  29.533  1.00  0.00     0.049 A 
ATOM     52  H   UNL A   1      42.492  29.740  28.996  1.00  0.00     0.167 HD
ATOM     53  C   UNL A   1      45.052  30.783  28.330  1.00  0.00     0.074 A 
ATOM     54  C   UNL A   1      46.386  30.900  27.774  1.00  0.00     0.031 C 
ATOM     55  C   UNL A   1      44.407  31.782  28.979  1.00  0.00     0.037 A 
BRANCH  42  56
ATOM     56  C   UNL A   1      38.717  30.322  30.895  1.00  0.00     0.057 A 
ATOM     57  C   UNL A   1      38.498  30.085  32.256  1.00  0.00     0.134 A 
ATOM     58  C   UNL A   1      37.720  31.010  30.190  1.00  0.00     0.134 A 
ATOM     59  F   UNL A   1      39.406  29.417  32.985  1.00  0.00    -0.206 F 
ATOM     60  C   UNL A   1      37.324  30.499  32.889  1.00  0.00     0.040 A 
ATOM     61  C   UNL A   1      36.553  31.449  30.816  1.00  0.00     0.040 A 
ATOM     62  F   UNL A   1      37.867  31.272  28.883  1.00  0.00    -0.206 F 
ATOM     63  C   UNL A   1      36.350  31.189  32.170  1.00  0.00     0.006 A 
ENDBRANCH  42  56
BRANCH  43  64
ATOM     64  C   UNL A   1      46.854  27.059  26.090  1.00  0.00     0.057 A 
ATOM     65  C   UNL A   1      47.877  26.348  26.727  1.00  0.00     0.134 A 
ATOM     66  C   UNL A   1      46.994  27.300  24.717  1.00  0.00     0.134 A 
ATOM     67  F   UNL A   1      47.811  26.106  28.044  1.00  0.00    -0.206 F 
ATOM     68  C   UNL A   1      48.999  25.897  26.027  1.00  0.00     0.040 A 
ATOM     69  C   UNL A   1      48.096  26.832  24.001  1.00  0.00     0.040 A 
ATOM     70  F   UNL A   1      46.048  27.976  24.049  1.00  0.00    -0.206 F 
ATOM     71  C   UNL A   1      49.104  26.131  24.657  1.00  0.00     0.006 A 
ENDBRANCH  43  64
BRANCH  55  72
ATOM     72  C   UNL A   1      45.149  33.072  29.154  1.00  0.00     0.057 A 
ATOM     73  C   UNL A   1      46.003  33.288  30.242  1.00  0.00     0.134 A 
ATOM     74  C   UNL A   1      45.039  34.090  28.199  1.00  0.00     0.134 A 
ATOM     75  F   UNL A   1      46.138  32.356  31.197  1.00  0.00    -0.206 F 
ATOM     76  C   UNL A   1      46.714  34.481  30.380  1.00  0.00     0.040 A 
ATOM     77  C   UNL A   1      45.761  35.278  28.316  1.00  0.00     0.040 A 
ATOM     78  F   UNL A   1      44.242  33.938  27.131  1.00  0.00    -0.206 F 
ATOM     79  C   UNL A   1      46.600  35.477  29.411  1.00  0.00     0.006 A 
ENDBRANCH  55  72
ENDBRANCH  29  30
ENDBRANCH  22  24
ENDBRANCH  21  22
ENDBRANCH  20  21
ENDBRANCH   1  20
TORSDOF 13
ENDMDL
MODEL 3
REMARK VINA RESULT:     -11.3      1.555      2.879
REMARK SMILES O=Cc1cccc(-c2cc(F)ccc2C(=O)OCCOC(=O)c2ccc(-c3c4nc(c(-c5c(F)cccc5F)c5ccc([nH]5)c(-c5c(F)cccc5F)c5nc(c(-c6c(F)cccc6F)c6ccc3[nH]6)C=C5)C=C4)cc2)c1
REMARK SMILES IDX 18 1 17 2 15 3 16 4 14 5 8 6 9 7 10 8 13 9 11 10 12 11 7 12
REMARK SMILES IDX 3 13 4 14 77 15 5 16 6 17 2 18 1 19 19 20 20 21 21 22 22 23
REMARK SMILES IDX 23 24 24 25 76 26 25 27 75 28 26 29 27 30 28 31 69 32 29 33
REMARK SMILES IDX 74 34 68 35 70 36 30 37 73 38 67 39 66 40 31 42 57 43 40 44
REMARK SMILES IDX 56 45 41 46 44 47 55 48 71 49 42 50 43 51 54 53 72 54 45 55
REMARK SMILES IDX 32 56 33 57 38 58 34 59 35 60 37 61 39 62 36 63 58 64 59 65
REMARK SMILES IDX 64 66 60 67 61 68 63 69 65 70 62 71 46 72 47 73 52 74 48 75
REMARK SMILES IDX 49 76 51 77 53 78 50 79
REMARK H PARENT 70 41 44 52
REMARK Flexibility Score: inf
ROOT
ATOM      1  C   UNL A   1      33.063  29.323  24.923  1.00  0.00     0.275 C 
ENDROOT
BRANCH   1   2
ATOM      2  O   UNL A   1      32.479  28.046  24.598  1.00  0.00    -0.458 OA
BRANCH   2   3
ATOM      3  C   UNL A   1      31.983  27.893  23.346  1.00  0.00     0.338 C 
ATOM      4  O   UNL A   1      32.622  27.679  22.332  1.00  0.00    -0.246 OA
BRANCH   3   5
ATOM      5  C   UNL A   1      30.493  27.936  23.360  1.00  0.00     0.068 A 
ATOM      6  C   UNL A   1      29.696  26.871  23.843  1.00  0.00    -0.001 A 
ATOM      7  C   UNL A   1      28.297  27.022  23.791  1.00  0.00     0.048 A 
ATOM      8  C   UNL A   1      27.722  28.185  23.282  1.00  0.00     0.123 A 
ATOM      9  C   UNL A   1      29.894  29.120  22.892  1.00  0.00     0.019 A 
ATOM     10  F   UNL A   1      26.389  28.297  23.237  1.00  0.00    -0.207 F 
ATOM     11  C   UNL A   1      28.507  29.236  22.833  1.00  0.00     0.040 A 
BRANCH   6  12
ATOM     12  C   UNL A   1      30.279  25.629  24.385  1.00  0.00    -0.017 A 
ATOM     13  C   UNL A   1      31.225  23.416  24.024  1.00  0.00     0.015 A 
ATOM     14  C   UNL A   1      31.061  23.108  25.375  1.00  0.00     0.011 A 
ATOM     15  C   UNL A   1      30.874  24.679  23.537  1.00  0.00     0.020 A 
ATOM     16  C   UNL A   1      30.538  24.066  26.240  1.00  0.00     0.001 A 
ATOM     17  C   UNL A   1      30.144  25.313  25.747  1.00  0.00     0.009 A 
BRANCH  13  18
ATOM     18  C   UNL A   1      31.690  22.372  23.092  1.00  0.00     0.260 C 
ATOM     19  O   UNL A   1      32.694  22.513  22.405  1.00  0.00    -0.298 OA
ENDBRANCH  13  18
ENDBRANCH   6  12
ENDBRANCH   3   5
ENDBRANCH   2   3
ENDBRANCH   1   2
BRANCH   1  20
ATOM     20  C   UNL A   1      32.066  30.186  25.688  1.00  0.00     0.275 C 
BRANCH  20  21
ATOM     21  O   UNL A   1      32.540  30.386  27.028  1.00  0.00    -0.458 OA
BRANCH  21  22
ATOM     22  C   UNL A   1      33.152  31.568  27.250  1.00  0.00     0.338 C 
ATOM     23  O   UNL A   1      32.701  32.693  27.122  1.00  0.00    -0.246 OA
BRANCH  22  24
ATOM     24  C   UNL A   1      34.482  31.295  27.802  1.00  0.00     0.060 A 
ATOM     25  C   UNL A   1      34.772  29.989  28.192  1.00  0.00     0.016 A 
ATOM     26  C   UNL A   1      35.394  32.322  28.014  1.00  0.00     0.016 A 
ATOM     27  C   UNL A   1      35.957  29.704  28.858  1.00  0.00     0.010 A 
ATOM     28  C   UNL A   1      36.616  32.023  28.620  1.00  0.00     0.010 A 
ATOM     29  C   UNL A   1      36.898  30.717  29.070  1.00  0.00    -0.014 A 
BRANCH  29  30
ATOM     30  C   UNL A   1      38.159  30.437  29.801  1.00  0.00     0.031 A 
ATOM     31  C   UNL A   1      39.204  29.566  29.163  1.00  0.00     0.074 A 
ATOM     32  C   UNL A   1      38.364  30.943  31.032  1.00  0.00     0.049 A 
ATOM     33  N   UNL A   1      40.243  28.986  29.704  1.00  0.00    -0.248 NA
ATOM     34  C   UNL A   1      39.046  29.300  27.724  1.00  0.00     0.031 C 
ATOM     35  C   UNL A   1      37.464  31.857  31.737  1.00  0.00     0.029 A 
ATOM     36  N   UNL A   1      39.398  30.747  31.914  1.00  0.00    -0.354 N 
ATOM     37  C   UNL A   1      40.824  28.236  28.690  1.00  0.00     0.074 A 
ATOM     38  C   UNL A   1      40.028  28.440  27.500  1.00  0.00     0.031 C 
ATOM     39  C   UNL A   1      37.989  32.152  32.936  1.00  0.00     0.029 A 
ATOM     40  C   UNL A   1      39.212  31.379  33.120  1.00  0.00     0.049 A 
ATOM     41  H   UNL A   1      40.193  30.207  31.704  1.00  0.00     0.167 HD
ATOM     42  C   UNL A   1      41.920  27.442  28.758  1.00  0.00     0.037 A 
ATOM     43  C   UNL A   1      39.914  31.298  34.266  1.00  0.00     0.037 A 
ATOM     44  C   UNL A   1      42.732  27.291  29.936  1.00  0.00     0.049 A 
ATOM     45  C   UNL A   1      41.102  30.381  34.329  1.00  0.00     0.074 A 
ATOM     46  C   UNL A   1      43.871  26.523  30.108  1.00  0.00     0.029 A 
ATOM     47  N   UNL A   1      42.499  27.938  31.140  1.00  0.00    -0.354 N 
ATOM     48  N   UNL A   1      41.608  29.620  33.390  1.00  0.00    -0.248 NA
ATOM     49  C   UNL A   1      41.800  30.290  35.619  1.00  0.00     0.031 C 
ATOM     50  C   UNL A   1      44.308  26.682  31.426  1.00  0.00     0.029 A 
ATOM     51  C   UNL A   1      43.466  27.579  32.064  1.00  0.00     0.049 A 
ATOM     52  H   UNL A   1      41.756  28.561  31.313  1.00  0.00     0.167 HD
ATOM     53  C   UNL A   1      42.690  28.972  33.967  1.00  0.00     0.074 A 
ATOM     54  C   UNL A   1      42.777  29.440  35.336  1.00  0.00     0.031 C 
ATOM     55  C   UNL A   1      43.536  28.067  33.417  1.00  0.00     0.037 A 
BRANCH  42  56
ATOM     56  C   UNL A   1      42.276  26.647  27.536  1.00  0.00     0.057 A 
ATOM     57  C   UNL A   1      41.803  25.347  27.324  1.00  0.00     0.134 A 
ATOM     58  C   UNL A   1      43.087  27.210  26.541  1.00  0.00     0.134 A 
ATOM     59  F   UNL A   1      41.035  24.745  28.246  1.00  0.00    -0.206 F 
ATOM     60  C   UNL A   1      42.140  24.626  26.177  1.00  0.00     0.040 A 
ATOM     61  C   UNL A   1      43.412  26.509  25.379  1.00  0.00     0.040 A 
ATOM     62  F   UNL A   1      43.572  28.453  26.680  1.00  0.00    -0.206 F 
ATOM     63  C   UNL A   1      42.942  25.209  25.197  1.00  0.00     0.006 A 
ENDBRANCH  42  56
BRANCH  43  64
ATOM     64  C   UNL A   1      39.476  32.067  35.457  1.00  0.00     0.057 A 
ATOM     65  C   UNL A   1      39.974  33.349  35.712  1.00  0.00     0.134 A 
ATOM     66  C   UNL A   1      38.540  31.547  36.360  1.00  0.00     0.134 A 
ATOM     67  F   UNL A   1      40.890  33.892  34.897  1.00  0.00    -0.206 F 
ATOM     68  C   UNL A   1      39.560  34.085  36.825  1.00  0.00     0.040 A 
ATOM     69  C   UNL A   1      38.098  32.281  37.461  1.00  0.00     0.040 A 
ATOM     70  F   UNL A   1      38.025  30.323  36.170  1.00  0.00    -0.206 F 
ATOM     71  C   UNL A   1      38.612  33.553  37.698  1.00  0.00     0.006 A 
ENDBRANCH  43  64
BRANCH  55  72
ATOM     72  C   UNL A   1      44.646  27.555  34.283  1.00  0.00     0.057 A 
ATOM     73  C   UNL A   1      45.867  28.231  34.391  1.00  0.00     0.134 A 
ATOM     74  C   UNL A   1      44.471  26.398  35.051  1.00  0.00     0.134 A 
ATOM     75  F   UNL A   1      46.098  29.337  33.669  1.00  0.00    -0.206 F 
ATOM     76  C   UNL A   1      46.883  27.764  35.225  1.00  0.00     0.040 A 
ATOM     77  C   UNL A   1      45.473  25.933  35.905  1.00  0.00     0.040 A 
ATOM     78  F   UNL A   1      43.321  25.710  34.996  1.00  0.00    -0.206 F 
ATOM     79  C   UNL A   1      46.685  26.616  35.991  1.00  0.00     0.006 A 
ENDBRANCH  55  72
ENDBRANCH  29  30
ENDBRANCH  22  24
ENDBRANCH  21  22
ENDBRANCH  20  21
ENDBRANCH   1  20
TORSDOF 13
ENDMDL
