MODEL 1
REMARK VINA RESULT:     -11.8      0.000      0.000
REMARK SMILES Cc1ccc(OCCNC(=O)[C@H]2CC=CC[C@@H]2C(=O)OCCOC(=O)c2ccc(-c3c4nc(c(-c5c(F)cccc5F)c5ccc([nH]5)c(-c5c(F)cccc5F)c5nc(c(-c6c(F)cccc6F)c6ccc3[nH]6)C=C5)C=C4)cc2)cc1
REMARK SMILES IDX 20 1 18 2 19 3 17 4 12 5 13 6 14 7 16 8 15 9 10 10 9 11
REMARK SMILES IDX 11 13 8 14 7 15 6 16 5 17 1 18 2 19 3 20 81 21 4 22 80 23
REMARK SMILES IDX 21 24 22 25 23 26 24 27 25 28 26 29 27 30 79 31 28 32 78 33
REMARK SMILES IDX 29 34 30 35 31 36 72 37 32 38 77 39 71 40 73 41 33 42 76 43
REMARK SMILES IDX 70 44 69 45 34 47 60 48 43 49 59 50 44 51 47 52 58 53 74 54
REMARK SMILES IDX 45 55 46 56 57 58 75 59 48 60 35 61 36 62 41 63 37 64 38 65
REMARK SMILES IDX 40 66 42 67 39 68 61 69 62 70 67 71 63 72 64 73 66 74 68 75
REMARK SMILES IDX 65 76 49 77 50 78 55 79 51 80 52 81 54 82 56 83 53 84
REMARK H PARENT 9 12 73 46 47 57
REMARK Flexibility Score: inf
ROOT
ATOM      1  O   UNL A   1      32.091  29.205  26.913  1.00  0.00    -0.462 OA
ENDROOT
BRANCH   1   2
ATOM      2  C   UNL A   1      31.458  28.026  26.668  1.00  0.00     0.310 C 
ATOM      3  O   UNL A   1      31.105  27.253  27.553  1.00  0.00    -0.252 OA
BRANCH   2   4
ATOM      4  C   UNL A   1      31.452  27.641  25.201  1.00  0.00     0.115 C 
ATOM      5  C   UNL A   1      31.994  26.232  24.911  1.00  0.00     0.096 C 
ATOM      6  C   UNL A   1      33.298  26.201  24.083  1.00  0.00     0.041 C 
ATOM      7  C   UNL A   1      33.692  27.450  23.354  1.00  0.00    -0.030 C 
ATOM      8  C   UNL A   1      31.779  28.772  24.217  1.00  0.00     0.043 C 
ATOM      9  C   UNL A   1      33.019  28.601  23.417  1.00  0.00    -0.030 C 
BRANCH   5  10
ATOM     10  C   UNL A   1      30.829  25.431  24.317  1.00  0.00     0.224 C 
ATOM     11  N   UNL A   1      30.520  24.190  24.834  1.00  0.00    -0.352 N 
ATOM     12  H   UNL A   1      29.644  23.850  24.541  1.00  0.00     0.163 HD
ATOM     13  O   UNL A   1      30.118  25.878  23.419  1.00  0.00    -0.275 OA
BRANCH  11  14
ATOM     14  C   UNL A   1      31.236  23.271  25.735  1.00  0.00     0.157 C 
BRANCH  14  15
ATOM     15  C   UNL A   1      32.163  22.190  25.107  1.00  0.00     0.250 C 
BRANCH  15  16
ATOM     16  O   UNL A   1      32.983  22.626  24.024  1.00  0.00    -0.492 OA
BRANCH  16  17
ATOM     17  C   UNL A   1      34.306  22.308  24.103  1.00  0.00     0.119 A 
ATOM     18  C   UNL A   1      38.283  21.540  25.468  1.00  0.00     0.044 C 
ATOM     19  C   UNL A   1      36.919  21.740  24.886  1.00  0.00    -0.051 A 
ATOM     20  C   UNL A   1      35.881  20.857  25.200  1.00  0.00     0.007 A 
ATOM     21  C   UNL A   1      36.666  22.805  24.022  1.00  0.00     0.007 A 
ATOM     22  C   UNL A   1      34.576  21.147  24.813  1.00  0.00     0.046 A 
ATOM     23  C   UNL A   1      35.365  23.059  23.598  1.00  0.00     0.046 A 
ENDBRANCH  16  17
ENDBRANCH  15  16
ENDBRANCH  14  15
ENDBRANCH  11  14
ENDBRANCH   5  10
ENDBRANCH   2   4
ENDBRANCH   1   2
BRANCH   1  24
ATOM     24  C   UNL A   1      33.474  29.141  27.279  1.00  0.00     0.274 C 
BRANCH  24  25
ATOM     25  C   UNL A   1      34.127  30.532  27.304  1.00  0.00     0.275 C 
BRANCH  25  26
ATOM     26  O   UNL A   1      35.568  30.615  27.512  1.00  0.00    -0.458 OA
BRANCH  26  27
ATOM     27  C   UNL A   1      36.277  30.396  28.648  1.00  0.00     0.338 C 
ATOM     28  O   UNL A   1      35.925  30.818  29.740  1.00  0.00    -0.246 OA
BRANCH  27  29
ATOM     29  C   UNL A   1      37.453  29.530  28.532  1.00  0.00     0.060 A 
ATOM     30  C   UNL A   1      38.333  29.748  27.465  1.00  0.00     0.016 A 
ATOM     31  C   UNL A   1      37.754  28.640  29.559  1.00  0.00     0.016 A 
ATOM     32  C   UNL A   1      39.586  29.157  27.491  1.00  0.00     0.010 A 
ATOM     33  C   UNL A   1      39.039  28.160  29.655  1.00  0.00     0.010 A 
ATOM     34  C   UNL A   1      39.949  28.416  28.620  1.00  0.00    -0.014 A 
BRANCH  34  35
ATOM     35  C   UNL A   1      41.108  27.544  28.603  1.00  0.00     0.031 A 
ATOM     36  C   UNL A   1      41.023  26.099  28.344  1.00  0.00     0.074 A 
ATOM     37  C   UNL A   1      42.215  28.237  28.942  1.00  0.00     0.049 A 
ATOM     38  N   UNL A   1      41.711  25.221  28.991  1.00  0.00    -0.248 NA
ATOM     39  C   UNL A   1      40.111  25.494  27.366  1.00  0.00     0.031 C 
ATOM     40  C   UNL A   1      43.608  27.863  29.009  1.00  0.00     0.029 A 
ATOM     41  N   UNL A   1      42.166  29.496  29.574  1.00  0.00    -0.354 N 
ATOM     42  C   UNL A   1      41.592  24.038  28.291  1.00  0.00     0.074 A 
ATOM     43  C   UNL A   1      40.451  24.199  27.427  1.00  0.00     0.031 C 
ATOM     44  C   UNL A   1      44.203  28.676  29.909  1.00  0.00     0.029 A 
ATOM     45  C   UNL A   1      43.156  29.477  30.549  1.00  0.00     0.049 A 
ATOM     46  H   UNL A   1      41.554  30.239  29.367  1.00  0.00     0.167 HD
ATOM     47  C   UNL A   1      42.620  23.144  28.297  1.00  0.00     0.037 A 
ATOM     48  C   UNL A   1      42.763  29.412  31.857  1.00  0.00     0.037 A 
ATOM     49  C   UNL A   1      43.731  23.660  29.080  1.00  0.00     0.049 A 
ATOM     50  C   UNL A   1      43.246  28.145  32.524  1.00  0.00     0.074 A 
ATOM     51  C   UNL A   1      44.846  24.406  28.736  1.00  0.00     0.029 A 
ATOM     52  N   UNL A   1      43.569  23.819  30.442  1.00  0.00    -0.354 N 
ATOM     53  N   UNL A   1      43.529  27.042  31.887  1.00  0.00    -0.248 NA
ATOM     54  C   UNL A   1      43.392  28.011  33.970  1.00  0.00     0.031 C 
ATOM     55  C   UNL A   1      45.358  25.014  29.915  1.00  0.00     0.029 A 
ATOM     56  C   UNL A   1      44.548  24.637  30.968  1.00  0.00     0.049 A 
ATOM     57  H   UNL A   1      42.850  23.403  30.970  1.00  0.00     0.167 HD
ATOM     58  C   UNL A   1      43.993  26.113  32.778  1.00  0.00     0.074 A 
ATOM     59  C   UNL A   1      43.802  26.737  34.074  1.00  0.00     0.031 C 
ATOM     60  C   UNL A   1      44.523  24.917  32.389  1.00  0.00     0.037 A 
BRANCH  47  61
ATOM     61  C   UNL A   1      42.726  22.022  27.304  1.00  0.00     0.057 A 
ATOM     62  C   UNL A   1      41.879  20.900  27.378  1.00  0.00     0.134 A 
ATOM     63  C   UNL A   1      43.666  21.991  26.259  1.00  0.00     0.134 A 
ATOM     64  F   UNL A   1      40.915  20.807  28.301  1.00  0.00    -0.206 F 
ATOM     65  C   UNL A   1      41.998  19.799  26.525  1.00  0.00     0.040 A 
ATOM     66  C   UNL A   1      43.808  20.883  25.407  1.00  0.00     0.040 A 
ATOM     67  F   UNL A   1      44.478  23.037  26.034  1.00  0.00    -0.206 F 
ATOM     68  C   UNL A   1      42.977  19.777  25.545  1.00  0.00     0.006 A 
ENDBRANCH  47  61
BRANCH  48  69
ATOM     69  C   UNL A   1      41.491  30.126  32.242  1.00  0.00     0.057 A 
ATOM     70  C   UNL A   1      41.401  31.534  32.155  1.00  0.00     0.134 A 
ATOM     71  C   UNL A   1      40.299  29.466  32.566  1.00  0.00     0.134 A 
ATOM     72  F   UNL A   1      42.487  32.271  31.866  1.00  0.00    -0.206 F 
ATOM     73  C   UNL A   1      40.192  32.227  32.304  1.00  0.00     0.040 A 
ATOM     74  C   UNL A   1      39.086  30.151  32.746  1.00  0.00     0.040 A 
ATOM     75  F   UNL A   1      40.253  28.129  32.658  1.00  0.00    -0.206 F 
ATOM     76  C   UNL A   1      39.024  31.533  32.593  1.00  0.00     0.006 A 
ENDBRANCH  48  69
BRANCH  60  77
ATOM     77  C   UNL A   1      45.087  23.890  33.326  1.00  0.00     0.057 A 
ATOM     78  C   UNL A   1      44.328  22.847  33.868  1.00  0.00     0.134 A 
ATOM     79  C   UNL A   1      46.413  23.986  33.802  1.00  0.00     0.134 A 
ATOM     80  F   UNL A   1      43.016  22.736  33.615  1.00  0.00    -0.206 F 
ATOM     81  C   UNL A   1      44.882  21.894  34.728  1.00  0.00     0.040 A 
ATOM     82  C   UNL A   1      46.959  23.075  34.705  1.00  0.00     0.040 A 
ATOM     83  F   UNL A   1      47.247  24.958  33.411  1.00  0.00    -0.206 F 
ATOM     84  C   UNL A   1      46.202  22.005  35.148  1.00  0.00     0.006 A 
ENDBRANCH  60  77
ENDBRANCH  34  35
ENDBRANCH  27  29
ENDBRANCH  26  27
ENDBRANCH  25  26
ENDBRANCH  24  25
ENDBRANCH   1  24
TORSDOF 16
ENDMDL
MODEL 2
REMARK VINA RESULT:     -11.7      1.166      2.002
REMARK SMILES Cc1ccc(OCCNC(=O)[C@H]2CC=CC[C@@H]2C(=O)OCCOC(=O)c2ccc(-c3c4nc(c(-c5c(F)cccc5F)c5ccc([nH]5)c(-c5c(F)cccc5F)c5nc(c(-c6c(F)cccc6F)c6ccc3[nH]6)C=C5)C=C4)cc2)cc1
REMARK SMILES IDX 20 1 18 2 19 3 17 4 12 5 13 6 14 7 16 8 15 9 10 10 9 11
REMARK SMILES IDX 11 13 8 14 7 15 6 16 5 17 1 18 2 19 3 20 81 21 4 22 80 23
REMARK SMILES IDX 21 24 22 25 23 26 24 27 25 28 26 29 27 30 79 31 28 32 78 33
REMARK SMILES IDX 29 34 30 35 31 36 72 37 32 38 77 39 71 40 73 41 33 42 76 43
REMARK SMILES IDX 70 44 69 45 34 47 60 48 43 49 59 50 44 51 47 52 58 53 74 54
REMARK SMILES IDX 45 55 46 56 57 58 75 59 48 60 35 61 36 62 41 63 37 64 38 65
REMARK SMILES IDX 40 66 42 67 39 68 61 69 62 70 67 71 63 72 64 73 66 74 68 75
REMARK SMILES IDX 65 76 49 77 50 78 55 79 51 80 52 81 54 82 56 83 53 84
REMARK H PARENT 9 12 73 46 47 57
REMARK Flexibility Score: inf
ROOT
ATOM      1  O   UNL A   1      31.808  29.652  27.039  1.00  0.00    -0.462 OA
ENDROOT
BRANCH   1   2
ATOM      2  C   UNL A   1      31.642  28.308  27.171  1.00  0.00     0.310 C 
ATOM      3  O   UNL A   1      31.480  27.751  28.253  1.00  0.00    -0.252 OA
BRANCH   2   4
ATOM      4  C   UNL A   1      31.923  27.540  25.895  1.00  0.00     0.115 C 
ATOM      5  C   UNL A   1      30.679  27.258  25.036  1.00  0.00     0.096 C 
ATOM      6  C   UNL A   1      30.315  25.763  24.902  1.00  0.00     0.041 C 
ATOM      7  C   UNL A   1      31.357  24.753  25.279  1.00  0.00    -0.030 C 
ATOM      8  C   UNL A   1      33.008  26.461  25.995  1.00  0.00     0.043 C 
ATOM      9  C   UNL A   1      32.558  25.062  25.773  1.00  0.00    -0.030 C 
BRANCH   5  10
ATOM     10  C   UNL A   1      30.889  27.996  23.709  1.00  0.00     0.224 C 
ATOM     11  N   UNL A   1      31.192  27.279  22.570  1.00  0.00    -0.352 N 
ATOM     12  H   UNL A   1      31.100  27.802  21.741  1.00  0.00     0.163 HD
ATOM     13  O   UNL A   1      30.747  29.213  23.607  1.00  0.00    -0.275 OA
BRANCH  11  14
ATOM     14  C   UNL A   1      31.626  25.890  22.343  1.00  0.00     0.157 C 
BRANCH  14  15
ATOM     15  C   UNL A   1      33.134  25.621  22.062  1.00  0.00     0.250 C 
BRANCH  15  16
ATOM     16  O   UNL A   1      33.446  24.339  21.520  1.00  0.00    -0.492 OA
BRANCH  16  17
ATOM     17  C   UNL A   1      33.637  23.334  22.421  1.00  0.00     0.119 A 
ATOM     18  C   UNL A   1      33.366  20.715  25.787  1.00  0.00     0.044 C 
ATOM     19  C   UNL A   1      33.523  21.537  24.548  1.00  0.00    -0.051 A 
ATOM     20  C   UNL A   1      32.527  21.532  23.565  1.00  0.00     0.007 A 
ATOM     21  C   UNL A   1      34.663  22.317  24.354  1.00  0.00     0.007 A 
ATOM     22  C   UNL A   1      32.584  22.434  22.508  1.00  0.00     0.046 A 
ATOM     23  C   UNL A   1      34.734  23.181  23.266  1.00  0.00     0.046 A 
ENDBRANCH  16  17
ENDBRANCH  15  16
ENDBRANCH  14  15
ENDBRANCH  11  14
ENDBRANCH   5  10
ENDBRANCH   2   4
ENDBRANCH   1   2
BRANCH   1  24
ATOM     24  C   UNL A   1      33.007  30.104  26.400  1.00  0.00     0.274 C 
BRANCH  24  25
ATOM     25  C   UNL A   1      33.936  30.844  27.375  1.00  0.00     0.275 C 
BRANCH  25  26
ATOM     26  O   UNL A   1      35.188  30.201  27.759  1.00  0.00    -0.458 OA
BRANCH  26  27
ATOM     27  C   UNL A   1      36.093  30.591  28.691  1.00  0.00     0.338 C 
ATOM     28  O   UNL A   1      35.858  31.458  29.521  1.00  0.00    -0.246 OA
BRANCH  27  29
ATOM     29  C   UNL A   1      37.354  29.847  28.733  1.00  0.00     0.060 A 
ATOM     30  C   UNL A   1      37.545  28.924  29.768  1.00  0.00     0.016 A 
ATOM     31  C   UNL A   1      38.247  29.950  27.669  1.00  0.00     0.016 A 
ATOM     32  C   UNL A   1      38.577  28.004  29.672  1.00  0.00     0.010 A 
ATOM     33  C   UNL A   1      39.188  28.959  27.506  1.00  0.00     0.010 A 
ATOM     34  C   UNL A   1      39.352  27.993  28.508  1.00  0.00    -0.014 A 
BRANCH  34  35
ATOM     35  C   UNL A   1      40.608  27.270  28.451  1.00  0.00     0.031 A 
ATOM     36  C   UNL A   1      40.691  25.819  28.224  1.00  0.00     0.074 A 
ATOM     37  C   UNL A   1      41.635  28.102  28.721  1.00  0.00     0.049 A 
ATOM     38  N   UNL A   1      41.512  25.050  28.853  1.00  0.00    -0.248 NA
ATOM     39  C   UNL A   1      39.817  25.082  27.304  1.00  0.00     0.031 C 
ATOM     40  C   UNL A   1      43.066  27.904  28.726  1.00  0.00     0.029 A 
ATOM     41  N   UNL A   1      41.460  29.361  29.329  1.00  0.00    -0.354 N 
ATOM     42  C   UNL A   1      41.508  23.843  28.183  1.00  0.00     0.074 A 
ATOM     43  C   UNL A   1      40.317  23.840  27.374  1.00  0.00     0.031 C 
ATOM     44  C   UNL A   1      43.596  28.807  29.580  1.00  0.00     0.029 A 
ATOM     45  C   UNL A   1      42.489  29.488  30.254  1.00  0.00     0.049 A 
ATOM     46  H   UNL A   1      40.751  30.018  29.138  1.00  0.00     0.167 HD
ATOM     47  C   UNL A   1      42.638  23.083  28.155  1.00  0.00     0.037 A 
ATOM     48  C   UNL A   1      42.168  29.409  31.581  1.00  0.00     0.037 A 
ATOM     49  C   UNL A   1      43.712  23.751  28.872  1.00  0.00     0.049 A 
ATOM     50  C   UNL A   1      42.835  28.228  32.248  1.00  0.00     0.074 A 
ATOM     51  C   UNL A   1      44.709  24.620  28.459  1.00  0.00     0.029 A 
ATOM     52  N   UNL A   1      43.595  23.924  30.237  1.00  0.00    -0.354 N 
ATOM     53  N   UNL A   1      43.224  27.153  31.619  1.00  0.00    -0.248 NA
ATOM     54  C   UNL A   1      43.065  28.150  33.688  1.00  0.00     0.031 C 
ATOM     55  C   UNL A   1      45.195  25.315  29.599  1.00  0.00     0.029 A 
ATOM     56  C   UNL A   1      44.488  24.869  30.699  1.00  0.00     0.049 A 
ATOM     57  H   UNL A   1      42.958  23.436  30.808  1.00  0.00     0.167 HD
ATOM     58  C   UNL A   1      43.840  26.311  32.504  1.00  0.00     0.074 A 
ATOM     59  C   UNL A   1      43.634  26.939  33.796  1.00  0.00     0.031 C 
ATOM     60  C   UNL A   1      44.495  25.179  32.113  1.00  0.00     0.037 A 
BRANCH  47  61
ATOM     61  C   UNL A   1      42.836  21.958  27.180  1.00  0.00     0.057 A 
ATOM     62  C   UNL A   1      42.104  20.760  27.291  1.00  0.00     0.134 A 
ATOM     63  C   UNL A   1      43.756  21.998  26.119  1.00  0.00     0.134 A 
ATOM     64  F   UNL A   1      41.169  20.592  28.233  1.00  0.00    -0.206 F 
ATOM     65  C   UNL A   1      42.315  19.659  26.454  1.00  0.00     0.040 A 
ATOM     66  C   UNL A   1      43.991  20.893  25.283  1.00  0.00     0.040 A 
ATOM     67  F   UNL A   1      44.458  23.113  25.859  1.00  0.00    -0.206 F 
ATOM     68  C   UNL A   1      43.274  19.714  25.456  1.00  0.00     0.006 A 
ENDBRANCH  47  61
BRANCH  48  69
ATOM     69  C   UNL A   1      40.837  29.971  32.015  1.00  0.00     0.057 A 
ATOM     70  C   UNL A   1      39.852  29.133  32.583  1.00  0.00     0.134 A 
ATOM     71  C   UNL A   1      40.541  31.340  32.024  1.00  0.00     0.134 A 
ATOM     72  F   UNL A   1      40.024  27.801  32.614  1.00  0.00    -0.206 F 
ATOM     73  C   UNL A   1      38.687  29.630  33.185  1.00  0.00     0.040 A 
ATOM     74  C   UNL A   1      39.364  31.850  32.599  1.00  0.00     0.040 A 
ATOM     75  F   UNL A   1      41.407  32.238  31.532  1.00  0.00    -0.206 F 
ATOM     76  C   UNL A   1      38.444  30.998  33.202  1.00  0.00     0.006 A 
ENDBRANCH  48  69
BRANCH  60  77
ATOM     77  C   UNL A   1      45.226  24.254  33.041  1.00  0.00     0.057 A 
ATOM     78  C   UNL A   1      44.668  23.073  33.542  1.00  0.00     0.134 A 
ATOM     79  C   UNL A   1      46.500  24.586  33.550  1.00  0.00     0.134 A 
ATOM     80  F   UNL A   1      43.406  22.723  33.257  1.00  0.00    -0.206 F 
ATOM     81  C   UNL A   1      45.375  22.220  34.395  1.00  0.00     0.040 A 
ATOM     82  C   UNL A   1      47.192  23.772  34.445  1.00  0.00     0.040 A 
ATOM     83  F   UNL A   1      47.143  25.707  33.199  1.00  0.00    -0.206 F 
ATOM     84  C   UNL A   1      46.643  22.567  34.847  1.00  0.00     0.006 A 
ENDBRANCH  60  77
ENDBRANCH  34  35
ENDBRANCH  27  29
ENDBRANCH  26  27
ENDBRANCH  25  26
ENDBRANCH  24  25
ENDBRANCH   1  24
TORSDOF 16
ENDMDL
MODEL 3
REMARK VINA RESULT:     -11.4      3.784      8.896
REMARK SMILES Cc1ccc(OCCNC(=O)[C@H]2CC=CC[C@@H]2C(=O)OCCOC(=O)c2ccc(-c3c4nc(c(-c5c(F)cccc5F)c5ccc([nH]5)c(-c5c(F)cccc5F)c5nc(c(-c6c(F)cccc6F)c6ccc3[nH]6)C=C5)C=C4)cc2)cc1
REMARK SMILES IDX 20 1 18 2 19 3 17 4 12 5 13 6 14 7 16 8 15 9 10 10 9 11
REMARK SMILES IDX 11 13 8 14 7 15 6 16 5 17 1 18 2 19 3 20 81 21 4 22 80 23
REMARK SMILES IDX 21 24 22 25 23 26 24 27 25 28 26 29 27 30 79 31 28 32 78 33
REMARK SMILES IDX 29 34 30 35 31 36 72 37 32 38 77 39 71 40 73 41 33 42 76 43
REMARK SMILES IDX 70 44 69 45 34 47 60 48 43 49 59 50 44 51 47 52 58 53 74 54
REMARK SMILES IDX 45 55 46 56 57 58 75 59 48 60 35 61 36 62 41 63 37 64 38 65
REMARK SMILES IDX 40 66 42 67 39 68 61 69 62 70 67 71 63 72 64 73 66 74 68 75
REMARK SMILES IDX 65 76 49 77 50 78 55 79 51 80 52 81 54 82 56 83 53 84
REMARK H PARENT 9 12 73 46 47 57
REMARK Flexibility Score: inf
ROOT
ATOM      1  O   UNL A   1      35.836  24.435  24.860  1.00  0.00    -0.462 OA
ENDROOT
BRANCH   1   2
ATOM      2  C   UNL A   1      34.598  23.927  25.099  1.00  0.00     0.310 C 
ATOM      3  O   UNL A   1      34.395  22.751  25.386  1.00  0.00    -0.252 OA
BRANCH   2   4
ATOM      4  C   UNL A   1      33.477  24.882  24.741  1.00  0.00     0.115 C 
ATOM      5  C   UNL A   1      33.166  24.962  23.238  1.00  0.00     0.096 C 
ATOM      6  C   UNL A   1      33.456  26.335  22.591  1.00  0.00     0.041 C 
ATOM      7  C   UNL A   1      33.643  27.510  23.503  1.00  0.00    -0.030 C 
ATOM      8  C   UNL A   1      33.408  26.167  25.575  1.00  0.00     0.043 C 
ATOM      9  C   UNL A   1      33.629  27.437  24.836  1.00  0.00    -0.030 C 
BRANCH   5  10
ATOM     10  C   UNL A   1      31.730  24.453  23.062  1.00  0.00     0.224 C 
ATOM     11  N   UNL A   1      31.497  23.101  22.921  1.00  0.00    -0.352 N 
ATOM     12  H   UNL A   1      30.551  22.852  23.027  1.00  0.00     0.163 HD
ATOM     13  O   UNL A   1      30.760  25.208  23.092  1.00  0.00    -0.275 OA
BRANCH  11  14
ATOM     14  C   UNL A   1      32.378  21.953  22.644  1.00  0.00     0.157 C 
BRANCH  14  15
ATOM     15  C   UNL A   1      32.251  20.688  23.543  1.00  0.00     0.250 C 
BRANCH  15  16
ATOM     16  O   UNL A   1      32.031  19.457  22.856  1.00  0.00    -0.492 OA
BRANCH  16  17
ATOM     17  C   UNL A   1      32.681  18.366  23.350  1.00  0.00     0.119 A 
ATOM     18  C   UNL A   1      35.406  15.754  25.356  1.00  0.00     0.044 C 
ATOM     19  C   UNL A   1      34.369  16.571  24.652  1.00  0.00    -0.051 A 
ATOM     20  C   UNL A   1      33.456  17.338  25.383  1.00  0.00     0.007 A 
ATOM     21  C   UNL A   1      34.297  16.576  23.259  1.00  0.00     0.007 A 
ATOM     22  C   UNL A   1      32.619  18.238  24.731  1.00  0.00     0.046 A 
ATOM     23  C   UNL A   1      33.421  17.443  22.614  1.00  0.00     0.046 A 
ENDBRANCH  16  17
ENDBRANCH  15  16
ENDBRANCH  14  15
ENDBRANCH  11  14
ENDBRANCH   5  10
ENDBRANCH   2   4
ENDBRANCH   1   2
BRANCH   1  24
ATOM     24  C   UNL A   1      36.957  23.586  25.137  1.00  0.00     0.274 C 
BRANCH  24  25
ATOM     25  C   UNL A   1      37.617  23.927  26.482  1.00  0.00     0.275 C 
BRANCH  25  26
ATOM     26  O   UNL A   1      39.034  23.624  26.652  1.00  0.00    -0.458 OA
BRANCH  26  27
ATOM     27  C   UNL A   1      40.080  24.481  26.760  1.00  0.00     0.338 C 
ATOM     28  O   UNL A   1      41.164  24.273  26.234  1.00  0.00    -0.246 OA
BRANCH  27  29
ATOM     29  C   UNL A   1      39.826  25.743  27.460  1.00  0.00     0.060 A 
ATOM     30  C   UNL A   1      39.331  25.686  28.769  1.00  0.00     0.016 A 
ATOM     31  C   UNL A   1      40.234  26.943  26.883  1.00  0.00     0.016 A 
ATOM     32  C   UNL A   1      39.361  26.828  29.553  1.00  0.00     0.010 A 
ATOM     33  C   UNL A   1      40.388  28.041  27.696  1.00  0.00     0.010 A 
ATOM     34  C   UNL A   1      39.948  27.982  29.025  1.00  0.00    -0.014 A 
BRANCH  34  35
ATOM     35  C   UNL A   1      39.766  29.273  29.660  1.00  0.00     0.031 A 
ATOM     36  C   UNL A   1      38.702  30.215  29.276  1.00  0.00     0.074 A 
ATOM     37  C   UNL A   1      40.748  29.492  30.558  1.00  0.00     0.049 A 
ATOM     38  N   UNL A   1      38.883  31.488  29.184  1.00  0.00    -0.248 NA
ATOM     39  C   UNL A   1      37.343  29.808  28.904  1.00  0.00     0.031 C 
ATOM     40  C   UNL A   1      40.987  30.571  31.488  1.00  0.00     0.029 A 
ATOM     41  N   UNL A   1      41.946  28.749  30.578  1.00  0.00    -0.354 N 
ATOM     42  C   UNL A   1      37.629  32.055  29.094  1.00  0.00     0.074 A 
ATOM     43  C   UNL A   1      36.735  30.989  28.724  1.00  0.00     0.031 C 
ATOM     44  C   UNL A   1      42.317  30.617  31.722  1.00  0.00     0.029 A 
ATOM     45  C   UNL A   1      42.963  29.666  30.814  1.00  0.00     0.049 A 
ATOM     46  H   UNL A   1      42.043  27.778  30.449  1.00  0.00     0.167 HD
ATOM     47  C   UNL A   1      37.412  33.298  29.608  1.00  0.00     0.037 A 
ATOM     48  C   UNL A   1      43.804  29.968  29.780  1.00  0.00     0.037 A 
ATOM     49  C   UNL A   1      38.630  33.812  30.213  1.00  0.00     0.049 A 
ATOM     50  C   UNL A   1      43.714  31.426  29.393  1.00  0.00     0.074 A 
ATOM     51  C   UNL A   1      39.128  33.749  31.504  1.00  0.00     0.029 A 
ATOM     52  N   UNL A   1      39.710  34.094  29.400  1.00  0.00    -0.354 N 
ATOM     53  N   UNL A   1      42.671  32.180  29.609  1.00  0.00    -0.248 NA
ATOM     54  C   UNL A   1      44.777  32.130  28.682  1.00  0.00     0.031 C 
ATOM     55  C   UNL A   1      40.526  34.004  31.457  1.00  0.00     0.029 A 
ATOM     56  C   UNL A   1      40.871  34.215  30.136  1.00  0.00     0.049 A 
ATOM     57  H   UNL A   1      39.660  34.196  28.422  1.00  0.00     0.167 HD
ATOM     58  C   UNL A   1      42.943  33.455  29.193  1.00  0.00     0.074 A 
ATOM     59  C   UNL A   1      44.235  33.349  28.540  1.00  0.00     0.031 C 
ATOM     60  C   UNL A   1      42.105  34.505  29.436  1.00  0.00     0.037 A 
BRANCH  47  61
ATOM     61  C   UNL A   1      36.036  33.839  29.872  1.00  0.00     0.057 A 
ATOM     62  C   UNL A   1      35.212  34.281  28.821  1.00  0.00     0.134 A 
ATOM     63  C   UNL A   1      35.480  33.963  31.157  1.00  0.00     0.134 A 
ATOM     64  F   UNL A   1      35.597  34.193  27.542  1.00  0.00    -0.206 F 
ATOM     65  C   UNL A   1      33.959  34.865  29.029  1.00  0.00     0.040 A 
ATOM     66  C   UNL A   1      34.231  34.565  31.383  1.00  0.00     0.040 A 
ATOM     67  F   UNL A   1      36.135  33.505  32.237  1.00  0.00    -0.206 F 
ATOM     68  C   UNL A   1      33.469  35.028  30.315  1.00  0.00     0.006 A 
ENDBRANCH  47  61
BRANCH  48  69
ATOM     69  C   UNL A   1      44.143  28.865  28.807  1.00  0.00     0.057 A 
ATOM     70  C   UNL A   1      44.828  27.708  29.241  1.00  0.00     0.134 A 
ATOM     71  C   UNL A   1      43.694  28.837  27.481  1.00  0.00     0.134 A 
ATOM     72  F   UNL A   1      45.317  27.632  30.490  1.00  0.00    -0.206 F 
ATOM     73  C   UNL A   1      44.988  26.574  28.433  1.00  0.00     0.040 A 
ATOM     74  C   UNL A   1      43.872  27.717  26.652  1.00  0.00     0.040 A 
ATOM     75  F   UNL A   1      43.013  29.869  26.960  1.00  0.00    -0.206 F 
ATOM     76  C   UNL A   1      44.500  26.572  27.132  1.00  0.00     0.006 A 
ENDBRANCH  48  69
BRANCH  60  77
ATOM     77  C   UNL A   1      42.384  35.925  29.043  1.00  0.00     0.057 A 
ATOM     78  C   UNL A   1      41.955  36.484  27.834  1.00  0.00     0.134 A 
ATOM     79  C   UNL A   1      43.199  36.758  29.840  1.00  0.00     0.134 A 
ATOM     80  F   UNL A   1      41.304  35.751  26.920  1.00  0.00    -0.206 F 
ATOM     81  C   UNL A   1      42.216  37.816  27.497  1.00  0.00     0.040 A 
ATOM     82  C   UNL A   1      43.513  38.070  29.488  1.00  0.00     0.040 A 
ATOM     83  F   UNL A   1      43.722  36.349  31.003  1.00  0.00    -0.206 F 
ATOM     84  C   UNL A   1      42.995  38.614  28.326  1.00  0.00     0.006 A 
ENDBRANCH  60  77
ENDBRANCH  34  35
ENDBRANCH  27  29
ENDBRANCH  26  27
ENDBRANCH  25  26
ENDBRANCH  24  25
ENDBRANCH   1  24
TORSDOF 16
ENDMDL
