MODEL 1
REMARK VINA RESULT:     -11.9      0.000      0.000
REMARK SMILES C[C@H](c1ccccc1F)N(C)c1cccc(F)c1C(=O)OCCOC(=O)c1ccc(-c2c3nc(c(-c4c(F)cccc4F)c4ccc([nH]4)c(-c4c(F)cccc4F)c4nc(c(-c5c(F)cccc5F)c5ccc2[nH]5)C=C4)C=C3)cc1
REMARK SMILES IDX 22 1 21 2 19 3 20 4 18 5 12 6 13 7 14 8 16 9 15 10 17 11
REMARK SMILES IDX 10 12 11 13 2 14 1 15 3 16 4 17 8 18 5 19 7 20 9 21 6 22
REMARK SMILES IDX 23 23 24 24 25 25 26 26 27 27 28 28 80 29 29 30 79 31 30 32
REMARK SMILES IDX 31 33 32 34 73 35 33 36 78 37 72 38 74 39 34 40 77 41 71 42
REMARK SMILES IDX 70 43 35 45 61 46 44 47 60 48 45 49 48 50 59 51 75 52 46 53
REMARK SMILES IDX 47 54 58 56 76 57 49 58 36 59 37 60 42 61 38 62 39 63 41 64
REMARK SMILES IDX 43 65 40 66 62 67 63 68 68 69 64 70 65 71 67 72 69 73 66 74
REMARK SMILES IDX 50 75 51 76 56 77 52 78 53 79 55 80 57 81 54 82
REMARK H PARENT 74 44 48 55
REMARK Flexibility Score: inf
ROOT
ATOM      1  C   UNL A   1      31.122  27.664  26.572  1.00  0.00     0.275 C 
ENDROOT
BRANCH   1   2
ATOM      2  O   UNL A   1      31.732  26.474  27.109  1.00  0.00    -0.458 OA
BRANCH   2   3
ATOM      3  C   UNL A   1      31.436  25.302  26.485  1.00  0.00     0.343 C 
ATOM      4  O   UNL A   1      30.350  24.746  26.489  1.00  0.00    -0.246 OA
BRANCH   3   5
ATOM      5  C   UNL A   1      32.658  24.785  25.829  1.00  0.00     0.119 A 
ATOM      6  C   UNL A   1      33.169  25.326  24.630  1.00  0.00     0.055 A 
ATOM      7  C   UNL A   1      34.378  24.790  24.141  1.00  0.00     0.027 A 
ATOM      8  C   UNL A   1      35.031  23.729  24.766  1.00  0.00     0.005 A 
ATOM      9  C   UNL A   1      33.314  23.709  26.442  1.00  0.00     0.139 A 
ATOM     10  C   UNL A   1      34.491  23.181  25.919  1.00  0.00     0.040 A 
ATOM     11  F   UNL A   1      32.821  23.145  27.556  1.00  0.00    -0.206 F 
BRANCH   6  12
ATOM     12  N   UNL A   1      32.614  26.436  23.989  1.00  0.00    -0.367 N 
ATOM     13  C   UNL A   1      33.549  27.561  23.921  1.00  0.00     0.144 C 
BRANCH  12  14
ATOM     14  C   UNL A   1      31.594  26.295  22.913  1.00  0.00     0.112 C 
ATOM     15  C   UNL A   1      32.158  25.975  21.522  1.00  0.00     0.036 C 
BRANCH  14  16
ATOM     16  C   UNL A   1      30.519  27.368  22.955  1.00  0.00     0.010 A 
ATOM     17  C   UNL A   1      30.768  28.629  22.379  1.00  0.00     0.009 A 
ATOM     18  C   UNL A   1      29.251  27.143  23.497  1.00  0.00     0.128 A 
ATOM     19  C   UNL A   1      29.763  29.595  22.295  1.00  0.00     0.001 A 
ATOM     20  C   UNL A   1      28.239  28.098  23.408  1.00  0.00     0.039 A 
ATOM     21  F   UNL A   1      28.953  25.975  24.083  1.00  0.00    -0.207 F 
ATOM     22  C   UNL A   1      28.491  29.321  22.794  1.00  0.00     0.003 A 
ENDBRANCH  14  16
ENDBRANCH  12  14
ENDBRANCH   6  12
ENDBRANCH   3   5
ENDBRANCH   2   3
ENDBRANCH   1   2
BRANCH   1  23
ATOM     23  C   UNL A   1      31.612  28.899  27.320  1.00  0.00     0.275 C 
BRANCH  23  24
ATOM     24  O   UNL A   1      32.207  29.813  26.382  1.00  0.00    -0.458 OA
BRANCH  24  25
ATOM     25  C   UNL A   1      32.703  30.962  26.896  1.00  0.00     0.338 C 
ATOM     26  O   UNL A   1      32.097  32.001  27.101  1.00  0.00    -0.246 OA
BRANCH  25  27
ATOM     27  C   UNL A   1      34.131  30.791  27.245  1.00  0.00     0.060 A 
ATOM     28  C   UNL A   1      34.690  29.524  27.285  1.00  0.00     0.016 A 
ATOM     29  C   UNL A   1      34.873  31.879  27.713  1.00  0.00     0.016 A 
ATOM     30  C   UNL A   1      35.916  29.340  27.928  1.00  0.00     0.010 A 
ATOM     31  C   UNL A   1      36.150  31.686  28.274  1.00  0.00     0.010 A 
ATOM     32  C   UNL A   1      36.666  30.396  28.474  1.00  0.00    -0.014 A 
BRANCH  32  33
ATOM     33  C   UNL A   1      37.882  30.134  29.334  1.00  0.00     0.031 A 
ATOM     34  C   UNL A   1      39.073  29.359  28.789  1.00  0.00     0.074 A 
ATOM     35  C   UNL A   1      38.025  30.659  30.572  1.00  0.00     0.049 A 
ATOM     36  N   UNL A   1      40.080  28.817  29.437  1.00  0.00    -0.248 NA
ATOM     37  C   UNL A   1      39.151  29.171  27.331  1.00  0.00     0.031 C 
ATOM     38  C   UNL A   1      37.067  31.531  31.250  1.00  0.00     0.029 A 
ATOM     39  N   UNL A   1      39.065  30.570  31.475  1.00  0.00    -0.354 N 
ATOM     40  C   UNL A   1      40.840  28.144  28.485  1.00  0.00     0.074 A 
ATOM     41  C   UNL A   1      40.201  28.371  27.207  1.00  0.00     0.031 C 
ATOM     42  C   UNL A   1      37.609  31.996  32.383  1.00  0.00     0.029 A 
ATOM     43  C   UNL A   1      38.859  31.291  32.629  1.00  0.00     0.049 A 
ATOM     44  H   UNL A   1      39.878  30.039  31.309  1.00  0.00     0.167 HD
ATOM     45  C   UNL A   1      41.960  27.396  28.660  1.00  0.00     0.037 A 
ATOM     46  C   UNL A   1      39.523  31.325  33.802  1.00  0.00     0.037 A 
ATOM     47  C   UNL A   1      42.660  27.248  29.912  1.00  0.00     0.049 A 
ATOM     48  C   UNL A   1      40.699  30.419  34.016  1.00  0.00     0.074 A 
ATOM     49  C   UNL A   1      43.787  26.487  30.186  1.00  0.00     0.029 A 
ATOM     50  N   UNL A   1      42.329  27.899  31.089  1.00  0.00    -0.354 N 
ATOM     51  N   UNL A   1      41.296  29.630  33.160  1.00  0.00    -0.248 NA
ATOM     52  C   UNL A   1      41.257  30.367  35.375  1.00  0.00     0.031 C 
ATOM     53  C   UNL A   1      44.109  26.643  31.536  1.00  0.00     0.029 A 
ATOM     54  C   UNL A   1      43.221  27.549  32.091  1.00  0.00     0.049 A 
ATOM     55  H   UNL A   1      41.574  28.520  31.198  1.00  0.00     0.167 HD
ATOM     56  C   UNL A   1      42.301  28.989  33.874  1.00  0.00     0.074 A 
ATOM     57  C   UNL A   1      42.248  29.499  35.228  1.00  0.00     0.031 C 
ATOM     58  C   UNL A   1      43.179  28.054  33.439  1.00  0.00     0.037 A 
BRANCH  45  59
ATOM     59  C   UNL A   1      42.488  26.617  27.485  1.00  0.00     0.057 A 
ATOM     60  C   UNL A   1      42.106  25.278  27.308  1.00  0.00     0.134 A 
ATOM     61  C   UNL A   1      43.430  27.138  26.590  1.00  0.00     0.134 A 
ATOM     62  F   UNL A   1      41.219  24.708  28.138  1.00  0.00    -0.206 F 
ATOM     63  C   UNL A   1      42.652  24.483  26.299  1.00  0.00     0.040 A 
ATOM     64  C   UNL A   1      43.961  26.361  25.556  1.00  0.00     0.040 A 
ATOM     65  F   UNL A   1      43.834  28.413  26.695  1.00  0.00    -0.206 F 
ATOM     66  C   UNL A   1      43.582  25.027  25.416  1.00  0.00     0.006 A 
ENDBRANCH  45  59
BRANCH  46  67
ATOM     67  C   UNL A   1      39.011  32.179  34.908  1.00  0.00     0.057 A 
ATOM     68  C   UNL A   1      39.358  33.536  35.003  1.00  0.00     0.134 A 
ATOM     69  C   UNL A   1      38.200  31.652  35.917  1.00  0.00     0.134 A 
ATOM     70  F   UNL A   1      40.124  34.107  34.062  1.00  0.00    -0.206 F 
ATOM     71  C   UNL A   1      38.972  34.317  36.092  1.00  0.00     0.040 A 
ATOM     72  C   UNL A   1      37.772  32.435  36.993  1.00  0.00     0.040 A 
ATOM     73  F   UNL A   1      37.798  30.374  35.863  1.00  0.00    -0.206 F 
ATOM     74  C   UNL A   1      38.175  33.766  37.091  1.00  0.00     0.006 A 
ENDBRANCH  46  67
BRANCH  58  75
ATOM     75  C   UNL A   1      44.191  27.538  34.419  1.00  0.00     0.057 A 
ATOM     76  C   UNL A   1      43.919  26.402  35.193  1.00  0.00     0.134 A 
ATOM     77  C   UNL A   1      45.410  28.191  34.637  1.00  0.00     0.134 A 
ATOM     78  F   UNL A   1      42.766  25.734  35.039  1.00  0.00    -0.206 F 
ATOM     79  C   UNL A   1      44.817  25.941  36.158  1.00  0.00     0.040 A 
ATOM     80  C   UNL A   1      46.328  27.724  35.582  1.00  0.00     0.040 A 
ATOM     81  F   UNL A   1      45.738  29.275  33.920  1.00  0.00    -0.206 F 
ATOM     82  C   UNL A   1      46.027  26.602  36.351  1.00  0.00     0.006 A 
ENDBRANCH  58  75
ENDBRANCH  32  33
ENDBRANCH  25  27
ENDBRANCH  24  25
ENDBRANCH  23  24
ENDBRANCH   1  23
TORSDOF 14
ENDMDL
MODEL 2
REMARK VINA RESULT:     -11.9      1.334      3.534
REMARK SMILES C[C@H](c1ccccc1F)N(C)c1cccc(F)c1C(=O)OCCOC(=O)c1ccc(-c2c3nc(c(-c4c(F)cccc4F)c4ccc([nH]4)c(-c4c(F)cccc4F)c4nc(c(-c5c(F)cccc5F)c5ccc2[nH]5)C=C4)C=C3)cc1
REMARK SMILES IDX 22 1 21 2 19 3 20 4 18 5 12 6 13 7 14 8 16 9 15 10 17 11
REMARK SMILES IDX 10 12 11 13 2 14 1 15 3 16 4 17 8 18 5 19 7 20 9 21 6 22
REMARK SMILES IDX 23 23 24 24 25 25 26 26 27 27 28 28 80 29 29 30 79 31 30 32
REMARK SMILES IDX 31 33 32 34 73 35 33 36 78 37 72 38 74 39 34 40 77 41 71 42
REMARK SMILES IDX 70 43 35 45 61 46 44 47 60 48 45 49 48 50 59 51 75 52 46 53
REMARK SMILES IDX 47 54 58 56 76 57 49 58 36 59 37 60 42 61 38 62 39 63 41 64
REMARK SMILES IDX 43 65 40 66 62 67 63 68 68 69 64 70 65 71 67 72 69 73 66 74
REMARK SMILES IDX 50 75 51 76 56 77 52 78 53 79 55 80 57 81 54 82
REMARK H PARENT 74 44 48 55
REMARK Flexibility Score: inf
ROOT
ATOM      1  C   UNL A   1      32.872  29.685  24.844  1.00  0.00     0.275 C 
ENDROOT
BRANCH   1   2
ATOM      2  O   UNL A   1      32.678  28.285  24.559  1.00  0.00    -0.458 OA
BRANCH   2   3
ATOM      3  C   UNL A   1      32.250  27.971  23.306  1.00  0.00     0.343 C 
ATOM      4  O   UNL A   1      32.953  27.884  22.313  1.00  0.00    -0.246 OA
BRANCH   3   5
ATOM      5  C   UNL A   1      30.782  27.790  23.333  1.00  0.00     0.119 A 
ATOM      6  C   UNL A   1      30.164  26.635  23.856  1.00  0.00     0.055 A 
ATOM      7  C   UNL A   1      28.755  26.611  23.886  1.00  0.00     0.027 A 
ATOM      8  C   UNL A   1      27.979  27.648  23.371  1.00  0.00     0.005 A 
ATOM      9  C   UNL A   1      29.994  28.822  22.804  1.00  0.00     0.139 A 
ATOM     10  C   UNL A   1      28.603  28.756  22.820  1.00  0.00     0.040 A 
ATOM     11  F   UNL A   1      30.559  29.908  22.256  1.00  0.00    -0.206 F 
BRANCH   6  12
ATOM     12  N   UNL A   1      30.870  25.590  24.457  1.00  0.00    -0.367 N 
ATOM     13  C   UNL A   1      30.308  25.219  25.758  1.00  0.00     0.144 C 
BRANCH  12  14
ATOM     14  C   UNL A   1      31.557  24.540  23.655  1.00  0.00     0.112 C 
ATOM     15  C   UNL A   1      30.788  23.218  23.523  1.00  0.00     0.036 C 
BRANCH  14  16
ATOM     16  C   UNL A   1      33.037  24.410  23.971  1.00  0.00     0.010 A 
ATOM     17  C   UNL A   1      33.535  24.896  25.196  1.00  0.00     0.009 A 
ATOM     18  C   UNL A   1      33.937  23.769  23.116  1.00  0.00     0.128 A 
ATOM     19  C   UNL A   1      34.864  24.685  25.568  1.00  0.00     0.001 A 
ATOM     20  C   UNL A   1      35.262  23.546  23.485  1.00  0.00     0.039 A 
ATOM     21  F   UNL A   1      33.537  23.304  21.924  1.00  0.00    -0.207 F 
ATOM     22  C   UNL A   1      35.724  23.993  24.719  1.00  0.00     0.003 A 
ENDBRANCH  14  16
ENDBRANCH  12  14
ENDBRANCH   6  12
ENDBRANCH   3   5
ENDBRANCH   2   3
ENDBRANCH   1   2
BRANCH   1  23
ATOM     23  C   UNL A   1      31.784  30.193  25.783  1.00  0.00     0.275 C 
BRANCH  23  24
ATOM     24  O   UNL A   1      32.338  30.364  27.099  1.00  0.00    -0.458 OA
BRANCH  24  25
ATOM     25  C   UNL A   1      33.044  31.498  27.310  1.00  0.00     0.338 C 
ATOM     26  O   UNL A   1      32.623  32.643  27.301  1.00  0.00    -0.246 OA
BRANCH  25  27
ATOM     27  C   UNL A   1      34.455  31.172  27.616  1.00  0.00     0.060 A 
ATOM     28  C   UNL A   1      34.849  29.850  27.752  1.00  0.00     0.016 A 
ATOM     29  C   UNL A   1      35.353  32.190  27.951  1.00  0.00     0.016 A 
ATOM     30  C   UNL A   1      36.073  29.563  28.360  1.00  0.00     0.010 A 
ATOM     31  C   UNL A   1      36.622  31.880  28.476  1.00  0.00     0.010 A 
ATOM     32  C   UNL A   1      36.979  30.556  28.775  1.00  0.00    -0.014 A 
BRANCH  32  33
ATOM     33  C   UNL A   1      38.194  30.211  29.607  1.00  0.00     0.031 A 
ATOM     34  C   UNL A   1      39.341  29.401  29.019  1.00  0.00     0.074 A 
ATOM     35  C   UNL A   1      38.379  30.690  30.859  1.00  0.00     0.049 A 
ATOM     36  N   UNL A   1      40.331  28.794  29.634  1.00  0.00    -0.248 NA
ATOM     37  C   UNL A   1      39.388  29.257  27.555  1.00  0.00     0.031 C 
ATOM     38  C   UNL A   1      37.472  31.583  31.579  1.00  0.00     0.029 A 
ATOM     39  N   UNL A   1      39.427  30.525  31.742  1.00  0.00    -0.354 N 
ATOM     40  C   UNL A   1      41.046  28.118  28.649  1.00  0.00     0.074 A 
ATOM     41  C   UNL A   1      40.400  28.414  27.390  1.00  0.00     0.031 C 
ATOM     42  C   UNL A   1      38.050  31.986  32.717  1.00  0.00     0.029 A 
ATOM     43  C   UNL A   1      39.271  31.218  32.921  1.00  0.00     0.049 A 
ATOM     44  H   UNL A   1      40.212  29.964  31.546  1.00  0.00     0.167 HD
ATOM     45  C   UNL A   1      42.132  27.315  28.783  1.00  0.00     0.037 A 
ATOM     46  C   UNL A   1      39.952  31.185  34.084  1.00  0.00     0.037 A 
ATOM     47  C   UNL A   1      42.843  27.096  30.019  1.00  0.00     0.049 A 
ATOM     48  C   UNL A   1      41.089  30.220  34.250  1.00  0.00     0.074 A 
ATOM     49  C   UNL A   1      43.938  26.277  30.250  1.00  0.00     0.029 A 
ATOM     50  N   UNL A   1      42.560  27.724  31.220  1.00  0.00    -0.354 N 
ATOM     51  N   UNL A   1      41.637  29.432  33.361  1.00  0.00    -0.248 NA
ATOM     52  C   UNL A   1      41.664  30.100  35.598  1.00  0.00     0.031 C 
ATOM     53  C   UNL A   1      44.287  26.375  31.600  1.00  0.00     0.029 A 
ATOM     54  C   UNL A   1      43.449  27.302  32.197  1.00  0.00     0.049 A 
ATOM     55  H   UNL A   1      41.835  28.374  31.360  1.00  0.00     0.167 HD
ATOM     56  C   UNL A   1      42.622  28.724  34.038  1.00  0.00     0.074 A 
ATOM     57  C   UNL A   1      42.611  29.193  35.408  1.00  0.00     0.031 C 
ATOM     58  C   UNL A   1      43.450  27.765  33.560  1.00  0.00     0.037 A 
BRANCH  45  59
ATOM     59  C   UNL A   1      42.607  26.551  27.576  1.00  0.00     0.057 A 
ATOM     60  C   UNL A   1      43.525  27.142  26.693  1.00  0.00     0.134 A 
ATOM     61  C   UNL A   1      42.104  25.292  27.229  1.00  0.00     0.134 A 
ATOM     62  F   UNL A   1      44.036  28.356  26.955  1.00  0.00    -0.206 F 
ATOM     63  C   UNL A   1      43.911  26.519  25.505  1.00  0.00     0.040 A 
ATOM     64  C   UNL A   1      42.507  24.644  26.057  1.00  0.00     0.040 A 
ATOM     65  F   UNL A   1      41.230  24.665  28.029  1.00  0.00    -0.206 F 
ATOM     66  C   UNL A   1      43.403  25.262  25.186  1.00  0.00     0.006 A 
ENDBRANCH  45  59
BRANCH  46  67
ATOM     67  C   UNL A   1      39.496  32.025  35.224  1.00  0.00     0.057 A 
ATOM     68  C   UNL A   1      38.553  31.551  36.149  1.00  0.00     0.134 A 
ATOM     69  C   UNL A   1      39.959  33.334  35.392  1.00  0.00     0.134 A 
ATOM     70  F   UNL A   1      38.078  30.301  36.051  1.00  0.00    -0.206 F 
ATOM     71  C   UNL A   1      38.041  32.367  37.156  1.00  0.00     0.040 A 
ATOM     72  C   UNL A   1      39.483  34.148  36.423  1.00  0.00     0.040 A 
ATOM     73  F   UNL A   1      40.892  33.832  34.568  1.00  0.00    -0.206 F 
ATOM     74  C   UNL A   1      38.507  33.671  37.296  1.00  0.00     0.006 A 
ENDBRANCH  46  67
BRANCH  58  75
ATOM     75  C   UNL A   1      44.451  27.173  34.508  1.00  0.00     0.057 A 
ATOM     76  C   UNL A   1      45.704  27.774  34.688  1.00  0.00     0.134 A 
ATOM     77  C   UNL A   1      44.200  25.983  35.201  1.00  0.00     0.134 A 
ATOM     78  F   UNL A   1      46.012  28.912  34.046  1.00  0.00    -0.206 F 
ATOM     79  C   UNL A   1      46.677  27.206  35.512  1.00  0.00     0.040 A 
ATOM     80  C   UNL A   1      45.156  25.419  36.050  1.00  0.00     0.040 A 
ATOM     81  F   UNL A   1      43.017  25.365  35.084  1.00  0.00    -0.206 F 
ATOM     82  C   UNL A   1      46.402  26.026  36.199  1.00  0.00     0.006 A 
ENDBRANCH  58  75
ENDBRANCH  32  33
ENDBRANCH  25  27
ENDBRANCH  24  25
ENDBRANCH  23  24
ENDBRANCH   1  23
TORSDOF 14
ENDMDL
MODEL 3
REMARK VINA RESULT:     -11.9      1.621      3.411
REMARK SMILES C[C@H](c1ccccc1F)N(C)c1cccc(F)c1C(=O)OCCOC(=O)c1ccc(-c2c3nc(c(-c4c(F)cccc4F)c4ccc([nH]4)c(-c4c(F)cccc4F)c4nc(c(-c5c(F)cccc5F)c5ccc2[nH]5)C=C4)C=C3)cc1
REMARK SMILES IDX 22 1 21 2 19 3 20 4 18 5 12 6 13 7 14 8 16 9 15 10 17 11
REMARK SMILES IDX 10 12 11 13 2 14 1 15 3 16 4 17 8 18 5 19 7 20 9 21 6 22
REMARK SMILES IDX 23 23 24 24 25 25 26 26 27 27 28 28 80 29 29 30 79 31 30 32
REMARK SMILES IDX 31 33 32 34 73 35 33 36 78 37 72 38 74 39 34 40 77 41 71 42
REMARK SMILES IDX 70 43 35 45 61 46 44 47 60 48 45 49 48 50 59 51 75 52 46 53
REMARK SMILES IDX 47 54 58 56 76 57 49 58 36 59 37 60 42 61 38 62 39 63 41 64
REMARK SMILES IDX 43 65 40 66 62 67 63 68 68 69 64 70 65 71 67 72 69 73 66 74
REMARK SMILES IDX 50 75 51 76 56 77 52 78 53 79 55 80 57 81 54 82
REMARK H PARENT 74 44 48 55
REMARK Flexibility Score: inf
ROOT
ATOM      1  C   UNL A   1      32.628  29.548  24.980  1.00  0.00     0.275 C 
ENDROOT
BRANCH   1   2
ATOM      2  O   UNL A   1      32.197  28.175  24.887  1.00  0.00    -0.458 OA
BRANCH   2   3
ATOM      3  C   UNL A   1      33.172  27.227  24.917  1.00  0.00     0.343 C 
ATOM      4  O   UNL A   1      34.082  27.163  25.727  1.00  0.00    -0.246 OA
BRANCH   3   5
ATOM      5  C   UNL A   1      32.975  26.301  23.779  1.00  0.00     0.119 A 
ATOM      6  C   UNL A   1      32.518  24.976  23.942  1.00  0.00     0.055 A 
ATOM      7  C   UNL A   1      32.307  24.215  22.775  1.00  0.00     0.027 A 
ATOM      8  C   UNL A   1      32.586  24.709  21.501  1.00  0.00     0.005 A 
ATOM      9  C   UNL A   1      33.267  26.783  22.496  1.00  0.00     0.139 A 
ATOM     10  C   UNL A   1      33.076  25.998  21.362  1.00  0.00     0.040 A 
ATOM     11  F   UNL A   1      33.749  28.023  22.319  1.00  0.00    -0.206 F 
BRANCH   6  12
ATOM     12  N   UNL A   1      32.147  24.437  25.176  1.00  0.00    -0.367 N 
ATOM     13  C   UNL A   1      30.724  24.641  25.463  1.00  0.00     0.144 C 
BRANCH  12  14
ATOM     14  C   UNL A   1      32.822  23.239  25.748  1.00  0.00     0.112 C 
ATOM     15  C   UNL A   1      32.498  22.953  27.220  1.00  0.00     0.036 C 
BRANCH  14  16
ATOM     16  C   UNL A   1      34.288  23.132  25.365  1.00  0.00     0.010 A 
ATOM     17  C   UNL A   1      35.232  23.984  25.972  1.00  0.00     0.009 A 
ATOM     18  C   UNL A   1      34.764  22.175  24.466  1.00  0.00     0.128 A 
ATOM     19  C   UNL A   1      36.600  23.832  25.731  1.00  0.00     0.001 A 
ATOM     20  C   UNL A   1      36.128  22.009  24.230  1.00  0.00     0.039 A 
ATOM     21  F   UNL A   1      33.920  21.347  23.835  1.00  0.00    -0.207 F 
ATOM     22  C   UNL A   1      37.049  22.831  24.874  1.00  0.00     0.003 A 
ENDBRANCH  14  16
ENDBRANCH  12  14
ENDBRANCH   6  12
ENDBRANCH   3   5
ENDBRANCH   2   3
ENDBRANCH   1   2
BRANCH   1  23
ATOM     23  C   UNL A   1      31.684  30.344  25.874  1.00  0.00     0.275 C 
BRANCH  23  24
ATOM     24  O   UNL A   1      32.279  30.491  27.176  1.00  0.00    -0.458 OA
BRANCH  24  25
ATOM     25  C   UNL A   1      33.020  31.605  27.375  1.00  0.00     0.338 C 
ATOM     26  O   UNL A   1      32.632  32.762  27.361  1.00  0.00    -0.246 OA
BRANCH  25  27
ATOM     27  C   UNL A   1      34.423  31.240  27.672  1.00  0.00     0.060 A 
ATOM     28  C   UNL A   1      34.768  29.912  27.870  1.00  0.00     0.016 A 
ATOM     29  C   UNL A   1      35.366  32.237  27.938  1.00  0.00     0.016 A 
ATOM     30  C   UNL A   1      35.992  29.609  28.471  1.00  0.00     0.010 A 
ATOM     31  C   UNL A   1      36.632  31.904  28.456  1.00  0.00     0.010 A 
ATOM     32  C   UNL A   1      36.943  30.584  28.818  1.00  0.00    -0.014 A 
BRANCH  32  33
ATOM     33  C   UNL A   1      38.160  30.235  29.644  1.00  0.00     0.031 A 
ATOM     34  C   UNL A   1      39.302  29.422  29.052  1.00  0.00     0.074 A 
ATOM     35  C   UNL A   1      38.351  30.712  30.896  1.00  0.00     0.049 A 
ATOM     36  N   UNL A   1      40.293  28.812  29.662  1.00  0.00    -0.248 NA
ATOM     37  C   UNL A   1      39.344  29.279  27.588  1.00  0.00     0.031 C 
ATOM     38  C   UNL A   1      37.450  31.607  31.620  1.00  0.00     0.029 A 
ATOM     39  N   UNL A   1      39.402  30.544  31.775  1.00  0.00    -0.354 N 
ATOM     40  C   UNL A   1      41.002  28.134  28.675  1.00  0.00     0.074 A 
ATOM     41  C   UNL A   1      40.352  28.434  27.417  1.00  0.00     0.031 C 
ATOM     42  C   UNL A   1      38.033  32.008  32.756  1.00  0.00     0.029 A 
ATOM     43  C   UNL A   1      39.252  31.236  32.955  1.00  0.00     0.049 A 
ATOM     44  H   UNL A   1      40.185  29.980  31.576  1.00  0.00     0.167 HD
ATOM     45  C   UNL A   1      42.087  27.328  28.803  1.00  0.00     0.037 A 
ATOM     46  C   UNL A   1      39.938  31.200  34.115  1.00  0.00     0.037 A 
ATOM     47  C   UNL A   1      42.802  27.105  30.036  1.00  0.00     0.049 A 
ATOM     48  C   UNL A   1      41.072  30.231  34.277  1.00  0.00     0.074 A 
ATOM     49  C   UNL A   1      43.895  26.283  30.264  1.00  0.00     0.029 A 
ATOM     50  N   UNL A   1      42.524  27.733  31.240  1.00  0.00    -0.354 N 
ATOM     51  N   UNL A   1      41.615  29.442  33.385  1.00  0.00    -0.248 NA
ATOM     52  C   UNL A   1      41.652  30.108  35.623  1.00  0.00     0.031 C 
ATOM     53  C   UNL A   1      44.249  26.379  31.612  1.00  0.00     0.029 A 
ATOM     54  C   UNL A   1      43.415  27.308  32.213  1.00  0.00     0.049 A 
ATOM     55  H   UNL A   1      41.802  28.386  31.383  1.00  0.00     0.167 HD
ATOM     56  C   UNL A   1      42.600  28.731  34.058  1.00  0.00     0.074 A 
ATOM     57  C   UNL A   1      42.596  29.198  35.429  1.00  0.00     0.031 C 
ATOM     58  C   UNL A   1      43.423  27.770  33.576  1.00  0.00     0.037 A 
BRANCH  45  59
ATOM     59  C   UNL A   1      42.555  26.564  27.594  1.00  0.00     0.057 A 
ATOM     60  C   UNL A   1      43.462  27.156  26.702  1.00  0.00     0.134 A 
ATOM     61  C   UNL A   1      42.054  25.301  27.254  1.00  0.00     0.134 A 
ATOM     62  F   UNL A   1      43.971  28.372  26.958  1.00  0.00    -0.206 F 
ATOM     63  C   UNL A   1      43.841  26.533  25.513  1.00  0.00     0.040 A 
ATOM     64  C   UNL A   1      42.450  24.653  26.080  1.00  0.00     0.040 A 
ATOM     65  F   UNL A   1      41.189  24.672  28.063  1.00  0.00    -0.206 F 
ATOM     66  C   UNL A   1      43.336  25.273  25.200  1.00  0.00     0.006 A 
ENDBRANCH  45  59
BRANCH  46  67
ATOM     67  C   UNL A   1      39.489  32.041  35.258  1.00  0.00     0.057 A 
ATOM     68  C   UNL A   1      38.545  31.570  36.184  1.00  0.00     0.134 A 
ATOM     69  C   UNL A   1      39.959  33.346  35.428  1.00  0.00     0.134 A 
ATOM     70  F   UNL A   1      38.063  30.323  36.085  1.00  0.00    -0.206 F 
ATOM     71  C   UNL A   1      38.039  32.387  37.194  1.00  0.00     0.040 A 
ATOM     72  C   UNL A   1      39.490  34.161  36.461  1.00  0.00     0.040 A 
ATOM     73  F   UNL A   1      40.893  33.841  34.603  1.00  0.00    -0.206 F 
ATOM     74  C   UNL A   1      38.512  33.688  37.335  1.00  0.00     0.006 A 
ENDBRANCH  46  67
BRANCH  58  75
ATOM     75  C   UNL A   1      44.426  27.174  34.520  1.00  0.00     0.057 A 
ATOM     76  C   UNL A   1      44.120  26.015  35.246  1.00  0.00     0.134 A 
ATOM     77  C   UNL A   1      45.672  27.771  34.750  1.00  0.00     0.134 A 
ATOM     78  F   UNL A   1      42.941  25.398  35.079  1.00  0.00    -0.206 F 
ATOM     79  C   UNL A   1      45.012  25.479  36.178  1.00  0.00     0.040 A 
ATOM     80  C   UNL A   1      46.582  27.229  35.661  1.00  0.00     0.040 A 
ATOM     81  F   UNL A   1      46.032  28.873  34.077  1.00  0.00    -0.206 F 
ATOM     82  C   UNL A   1      46.248  26.086  36.384  1.00  0.00     0.006 A 
ENDBRANCH  58  75
ENDBRANCH  32  33
ENDBRANCH  25  27
ENDBRANCH  24  25
ENDBRANCH  23  24
ENDBRANCH   1  23
TORSDOF 14
ENDMDL
