MODEL 1
REMARK VINA RESULT:     -12.3      0.000      0.000
REMARK SMILES Cc1ccc([N+](=O)[O-])c(N2CCC[C@H](CC(=O)OCCOC(=O)c3ccc(-c4c5nc(c(-c6c(F)cccc6F)c6ccc([nH]6)c(-c6c(F)cccc6F)c6nc(c(-c7c(F)cccc7F)c7ccc4[nH]7)C=C6)C=C5)cc3)C2)c1
REMARK SMILES IDX 19 1 18 2 16 3 17 4 15 5 14 6 10 7 11 8 78 9 12 10 13 11
REMARK SMILES IDX 9 12 1 13 2 14 3 15 79 16 4 17 5 18 6 19 7 20 8 21 20 22
REMARK SMILES IDX 21 23 22 24 23 25 24 26 25 27 77 28 26 29 76 30 27 31 28 32
REMARK SMILES IDX 29 33 70 34 30 35 75 36 69 37 71 38 31 39 74 40 68 41 67 42
REMARK SMILES IDX 32 44 58 45 41 46 57 47 42 48 45 49 56 50 72 51 43 52 44 53
REMARK SMILES IDX 55 55 73 56 46 57 33 58 34 59 39 60 35 61 36 62 38 63 40 64
REMARK SMILES IDX 37 65 59 66 60 67 65 68 61 69 62 70 64 71 66 72 63 73 47 74
REMARK SMILES IDX 48 75 53 76 49 77 50 78 52 79 54 80 51 81
REMARK H PARENT 71 43 45 54
REMARK Flexibility Score: inf
ROOT
ATOM      1  C   UNL A   1      32.723  29.439  26.388  1.00  0.00     0.274 C 
ENDROOT
BRANCH   1   2
ATOM      2  O   UNL A   1      32.392  28.185  25.798  1.00  0.00    -0.462 OA
BRANCH   2   3
ATOM      3  C   UNL A   1      31.775  27.323  26.655  1.00  0.00     0.306 C 
ATOM      4  O   UNL A   1      31.108  27.640  27.615  1.00  0.00    -0.252 OA
BRANCH   3   5
ATOM      5  C   UNL A   1      32.033  25.905  26.227  1.00  0.00     0.128 C 
BRANCH   5   6
ATOM      6  C   UNL A   1      30.747  25.100  26.034  1.00  0.00     0.019 C 
ATOM      7  N   UNL A   1      31.849  23.339  24.758  1.00  0.00    -0.366 N 
ATOM      8  C   UNL A   1      31.148  23.646  23.504  1.00  0.00     0.117 C 
ATOM      9  C   UNL A   1      31.104  23.607  25.992  1.00  0.00     0.121 C 
ATOM     10  C   UNL A   1      30.743  25.120  23.496  1.00  0.00     0.022 C 
ATOM     11  C   UNL A   1      29.973  25.487  24.764  1.00  0.00     0.008 C 
BRANCH   7  12
ATOM     12  C   UNL A   1      32.736  22.270  24.739  1.00  0.00     0.116 A 
ATOM     13  C   UNL A   1      32.631  18.487  25.318  1.00  0.00     0.044 C 
ATOM     14  C   UNL A   1      33.152  19.862  25.019  1.00  0.00    -0.049 A 
ATOM     15  C   UNL A   1      34.519  20.058  24.789  1.00  0.00     0.010 A 
ATOM     16  C   UNL A   1      32.280  20.963  24.984  1.00  0.00     0.036 A 
ATOM     17  C   UNL A   1      35.009  21.336  24.537  1.00  0.00     0.088 A 
ATOM     18  C   UNL A   1      34.116  22.418  24.514  1.00  0.00     0.292 A 
BRANCH  18  19
ATOM     19  N   UNL A   1      34.694  23.740  24.357  1.00  0.00     0.064 N 
ATOM     20  O   UNL A   1      34.740  24.194  23.204  1.00  0.00    -0.258 OA
ATOM     21  O   UNL A   1      35.044  24.343  25.382  1.00  0.00    -0.258 OA
ENDBRANCH  18  19
ENDBRANCH   7  12
ENDBRANCH   5   6
ENDBRANCH   3   5
ENDBRANCH   2   3
ENDBRANCH   1   2
BRANCH   1  22
ATOM     22  C   UNL A   1      34.132  29.397  26.985  1.00  0.00     0.275 C 
BRANCH  22  23
ATOM     23  O   UNL A   1      34.781  30.660  27.334  1.00  0.00    -0.458 OA
BRANCH  23  24
ATOM     24  C   UNL A   1      35.613  31.006  28.349  1.00  0.00     0.338 C 
ATOM     25  O   UNL A   1      35.367  31.957  29.082  1.00  0.00    -0.246 OA
BRANCH  24  26
ATOM     26  C   UNL A   1      36.816  30.193  28.603  1.00  0.00     0.060 A 
ATOM     27  C   UNL A   1      36.882  29.372  29.746  1.00  0.00     0.016 A 
ATOM     28  C   UNL A   1      37.855  30.198  27.686  1.00  0.00     0.016 A 
ATOM     29  C   UNL A   1      37.926  28.452  29.897  1.00  0.00     0.010 A 
ATOM     30  C   UNL A   1      38.819  29.218  27.775  1.00  0.00     0.010 A 
ATOM     31  C   UNL A   1      38.880  28.355  28.885  1.00  0.00    -0.014 A 
BRANCH  31  32
ATOM     32  C   UNL A   1      40.126  27.596  28.974  1.00  0.00     0.031 A 
ATOM     33  C   UNL A   1      40.322  26.184  28.589  1.00  0.00     0.074 A 
ATOM     34  C   UNL A   1      41.186  28.363  29.311  1.00  0.00     0.049 A 
ATOM     35  N   UNL A   1      41.391  25.521  28.892  1.00  0.00    -0.248 NA
ATOM     36  C   UNL A   1      39.362  25.386  27.841  1.00  0.00     0.031 C 
ATOM     37  C   UNL A   1      42.606  28.112  29.146  1.00  0.00     0.029 A 
ATOM     38  N   UNL A   1      41.126  29.559  30.034  1.00  0.00    -0.354 N 
ATOM     39  C   UNL A   1      41.392  24.341  28.184  1.00  0.00     0.074 A 
ATOM     40  C   UNL A   1      40.072  24.274  27.596  1.00  0.00     0.031 C 
ATOM     41  C   UNL A   1      43.281  28.954  29.949  1.00  0.00     0.029 A 
ATOM     42  C   UNL A   1      42.300  29.625  30.792  1.00  0.00     0.049 A 
ATOM     43  H   UNL A   1      40.400  30.224  30.014  1.00  0.00     0.167 HD
ATOM     44  C   UNL A   1      42.556  23.628  28.093  1.00  0.00     0.037 A 
ATOM     45  C   UNL A   1      42.203  29.514  32.151  1.00  0.00     0.037 A 
ATOM     46  C   UNL A   1      43.618  24.245  28.889  1.00  0.00     0.049 A 
ATOM     47  C   UNL A   1      42.912  28.302  32.712  1.00  0.00     0.074 A 
ATOM     48  C   UNL A   1      44.683  25.080  28.590  1.00  0.00     0.029 A 
ATOM     49  N   UNL A   1      43.500  24.252  30.265  1.00  0.00    -0.354 N 
ATOM     50  N   UNL A   1      43.384  27.331  31.981  1.00  0.00    -0.248 NA
ATOM     51  C   UNL A   1      43.080  28.052  34.142  1.00  0.00     0.031 C 
ATOM     52  C   UNL A   1      45.202  25.592  29.812  1.00  0.00     0.029 A 
ATOM     53  C   UNL A   1      44.453  25.063  30.848  1.00  0.00     0.049 A 
ATOM     54  H   UNL A   1      42.822  23.744  30.766  1.00  0.00     0.167 HD
ATOM     55  C   UNL A   1      43.896  26.359  32.789  1.00  0.00     0.074 A 
ATOM     56  C   UNL A   1      43.675  26.847  34.137  1.00  0.00     0.031 C 
ATOM     57  C   UNL A   1      44.450  25.221  32.290  1.00  0.00     0.037 A 
BRANCH  44  58
ATOM     58  C   UNL A   1      42.830  22.492  27.128  1.00  0.00     0.057 A 
ATOM     59  C   UNL A   1      42.134  21.267  27.241  1.00  0.00     0.134 A 
ATOM     60  C   UNL A   1      43.767  22.522  26.083  1.00  0.00     0.134 A 
ATOM     61  F   UNL A   1      41.136  21.096  28.116  1.00  0.00    -0.206 F 
ATOM     62  C   UNL A   1      42.422  20.140  26.458  1.00  0.00     0.040 A 
ATOM     63  C   UNL A   1      44.092  21.390  25.315  1.00  0.00     0.040 A 
ATOM     64  F   UNL A   1      44.373  23.658  25.716  1.00  0.00    -0.206 F 
ATOM     65  C   UNL A   1      43.429  20.188  25.511  1.00  0.00     0.006 A 
ENDBRANCH  44  58
BRANCH  45  66
ATOM     66  C   UNL A   1      40.923  30.068  32.694  1.00  0.00     0.057 A 
ATOM     67  C   UNL A   1      40.728  31.464  32.700  1.00  0.00     0.134 A 
ATOM     68  C   UNL A   1      39.786  29.273  32.867  1.00  0.00     0.134 A 
ATOM     69  F   UNL A   1      41.770  32.293  32.516  1.00  0.00    -0.206 F 
ATOM     70  C   UNL A   1      39.455  32.035  32.776  1.00  0.00     0.040 A 
ATOM     71  C   UNL A   1      38.507  29.835  32.959  1.00  0.00     0.040 A 
ATOM     72  F   UNL A   1      39.879  27.936  32.866  1.00  0.00    -0.206 F 
ATOM     73  C   UNL A   1      38.335  31.216  32.882  1.00  0.00     0.006 A 
ENDBRANCH  45  66
BRANCH  57  74
ATOM     74  C   UNL A   1      45.059  24.160  33.146  1.00  0.00     0.057 A 
ATOM     75  C   UNL A   1      44.334  23.044  33.583  1.00  0.00     0.134 A 
ATOM     76  C   UNL A   1      46.357  24.302  33.669  1.00  0.00     0.134 A 
ATOM     77  F   UNL A   1      43.067  22.847  33.191  1.00  0.00    -0.206 F 
ATOM     78  C   UNL A   1      44.883  22.105  34.463  1.00  0.00     0.040 A 
ATOM     79  C   UNL A   1      46.898  23.398  34.584  1.00  0.00     0.040 A 
ATOM     80  F   UNL A   1      47.154  25.317  33.302  1.00  0.00    -0.206 F 
ATOM     81  C   UNL A   1      46.163  22.287  34.975  1.00  0.00     0.006 A 
ENDBRANCH  57  74
ENDBRANCH  31  32
ENDBRANCH  24  26
ENDBRANCH  23  24
ENDBRANCH  22  23
ENDBRANCH   1  22
TORSDOF 14
ENDMDL
MODEL 2
REMARK VINA RESULT:     -12.2      1.480      1.786
REMARK SMILES Cc1ccc([N+](=O)[O-])c(N2CCC[C@H](CC(=O)OCCOC(=O)c3ccc(-c4c5nc(c(-c6c(F)cccc6F)c6ccc([nH]6)c(-c6c(F)cccc6F)c6nc(c(-c7c(F)cccc7F)c7ccc4[nH]7)C=C6)C=C5)cc3)C2)c1
REMARK SMILES IDX 19 1 18 2 16 3 17 4 15 5 14 6 10 7 11 8 78 9 12 10 13 11
REMARK SMILES IDX 9 12 1 13 2 14 3 15 79 16 4 17 5 18 6 19 7 20 8 21 20 22
REMARK SMILES IDX 21 23 22 24 23 25 24 26 25 27 77 28 26 29 76 30 27 31 28 32
REMARK SMILES IDX 29 33 70 34 30 35 75 36 69 37 71 38 31 39 74 40 68 41 67 42
REMARK SMILES IDX 32 44 58 45 41 46 57 47 42 48 45 49 56 50 72 51 43 52 44 53
REMARK SMILES IDX 55 55 73 56 46 57 33 58 34 59 39 60 35 61 36 62 38 63 40 64
REMARK SMILES IDX 37 65 59 66 60 67 65 68 61 69 62 70 64 71 66 72 63 73 47 74
REMARK SMILES IDX 48 75 53 76 49 77 50 78 52 79 54 80 51 81
REMARK H PARENT 71 43 45 54
REMARK Flexibility Score: inf
ROOT
ATOM      1  C   UNL A   1      32.429  30.433  26.271  1.00  0.00     0.274 C 
ENDROOT
BRANCH   1   2
ATOM      2  O   UNL A   1      32.558  29.894  24.958  1.00  0.00    -0.462 OA
BRANCH   2   3
ATOM      3  C   UNL A   1      31.438  29.254  24.518  1.00  0.00     0.306 C 
ATOM      4  O   UNL A   1      30.401  29.788  24.197  1.00  0.00    -0.252 OA
BRANCH   3   5
ATOM      5  C   UNL A   1      31.682  27.770  24.475  1.00  0.00     0.128 C 
BRANCH   5   6
ATOM      6  C   UNL A   1      30.422  26.954  24.766  1.00  0.00     0.019 C 
ATOM      7  N   UNL A   1      31.643  24.859  25.017  1.00  0.00    -0.366 N 
ATOM      8  C   UNL A   1      31.058  24.237  23.821  1.00  0.00     0.117 C 
ATOM      9  C   UNL A   1      30.787  25.814  25.727  1.00  0.00     0.121 C 
ATOM     10  C   UNL A   1      30.650  25.327  22.830  1.00  0.00     0.022 C 
ATOM     11  C   UNL A   1      29.766  26.378  23.501  1.00  0.00     0.008 C 
BRANCH   7  12
ATOM     12  C   UNL A   1      32.532  24.088  25.756  1.00  0.00     0.116 A 
ATOM     13  C   UNL A   1      36.324  23.703  26.124  1.00  0.00     0.044 C 
ATOM     14  C   UNL A   1      34.851  23.489  26.317  1.00  0.00    -0.049 A 
ATOM     15  C   UNL A   1      34.397  22.487  27.182  1.00  0.00     0.010 A 
ATOM     16  C   UNL A   1      33.919  24.280  25.624  1.00  0.00     0.036 A 
ATOM     17  C   UNL A   1      33.032  22.270  27.345  1.00  0.00     0.088 A 
ATOM     18  C   UNL A   1      32.123  23.069  26.635  1.00  0.00     0.292 A 
BRANCH  18  19
ATOM     19  N   UNL A   1      30.718  22.728  26.755  1.00  0.00     0.064 N 
ATOM     20  O   UNL A   1      30.297  21.829  26.012  1.00  0.00    -0.258 OA
ATOM     21  O   UNL A   1      30.055  23.310  27.625  1.00  0.00    -0.258 OA
ENDBRANCH  18  19
ENDBRANCH   7  12
ENDBRANCH   5   6
ENDBRANCH   3   5
ENDBRANCH   2   3
ENDBRANCH   1   2
BRANCH   1  22
ATOM     22  C   UNL A   1      33.529  29.886  27.186  1.00  0.00     0.275 C 
BRANCH  22  23
ATOM     23  O   UNL A   1      34.771  30.647  27.318  1.00  0.00    -0.458 OA
BRANCH  23  24
ATOM     24  C   UNL A   1      35.548  30.942  28.390  1.00  0.00     0.338 C 
ATOM     25  O   UNL A   1      35.242  31.832  29.177  1.00  0.00    -0.246 OA
BRANCH  24  26
ATOM     26  C   UNL A   1      36.763  30.148  28.640  1.00  0.00     0.060 A 
ATOM     27  C   UNL A   1      36.871  29.377  29.814  1.00  0.00     0.016 A 
ATOM     28  C   UNL A   1      37.773  30.119  27.691  1.00  0.00     0.016 A 
ATOM     29  C   UNL A   1      37.925  28.469  29.971  1.00  0.00     0.010 A 
ATOM     30  C   UNL A   1      38.745  29.148  27.790  1.00  0.00     0.010 A 
ATOM     31  C   UNL A   1      38.847  28.334  28.934  1.00  0.00    -0.014 A 
BRANCH  31  32
ATOM     32  C   UNL A   1      40.100  27.586  29.015  1.00  0.00     0.031 A 
ATOM     33  C   UNL A   1      40.316  26.187  28.591  1.00  0.00     0.074 A 
ATOM     34  C   UNL A   1      41.148  28.353  29.385  1.00  0.00     0.049 A 
ATOM     35  N   UNL A   1      41.388  25.527  28.887  1.00  0.00    -0.248 NA
ATOM     36  C   UNL A   1      39.373  25.401  27.809  1.00  0.00     0.031 C 
ATOM     37  C   UNL A   1      42.572  28.123  29.230  1.00  0.00     0.029 A 
ATOM     38  N   UNL A   1      41.067  29.527  30.143  1.00  0.00    -0.354 N 
ATOM     39  C   UNL A   1      41.409  24.368  28.145  1.00  0.00     0.074 A 
ATOM     40  C   UNL A   1      40.097  24.304  27.540  1.00  0.00     0.031 C 
ATOM     41  C   UNL A   1      43.229  28.948  30.065  1.00  0.00     0.029 A 
ATOM     42  C   UNL A   1      42.232  29.583  30.915  1.00  0.00     0.049 A 
ATOM     43  H   UNL A   1      40.335  30.185  30.134  1.00  0.00     0.167 HD
ATOM     44  C   UNL A   1      42.582  23.671  28.046  1.00  0.00     0.037 A 
ATOM     45  C   UNL A   1      42.121  29.431  32.270  1.00  0.00     0.037 A 
ATOM     46  C   UNL A   1      43.628  24.275  28.872  1.00  0.00     0.049 A 
ATOM     47  C   UNL A   1      42.837  28.211  32.803  1.00  0.00     0.074 A 
ATOM     48  C   UNL A   1      44.688  25.130  28.610  1.00  0.00     0.029 A 
ATOM     49  N   UNL A   1      43.495  24.241  30.247  1.00  0.00    -0.354 N 
ATOM     50  N   UNL A   1      43.327  27.267  32.050  1.00  0.00    -0.248 NA
ATOM     51  C   UNL A   1      42.991  27.922  34.227  1.00  0.00     0.031 C 
ATOM     52  C   UNL A   1      45.187  25.611  29.852  1.00  0.00     0.029 A 
ATOM     53  C   UNL A   1      44.433  25.044  30.863  1.00  0.00     0.049 A 
ATOM     54  H   UNL A   1      42.817  23.711  30.725  1.00  0.00     0.167 HD
ATOM     55  C   UNL A   1      43.841  26.278  32.835  1.00  0.00     0.074 A 
ATOM     56  C   UNL A   1      43.599  26.723  34.194  1.00  0.00     0.031 C 
ATOM     57  C   UNL A   1      44.412  25.160  32.310  1.00  0.00     0.037 A 
BRANCH  44  58
ATOM     58  C   UNL A   1      42.879  22.566  27.052  1.00  0.00     0.057 A 
ATOM     59  C   UNL A   1      42.209  21.324  27.134  1.00  0.00     0.134 A 
ATOM     60  C   UNL A   1      43.814  22.643  26.009  1.00  0.00     0.134 A 
ATOM     61  F   UNL A   1      41.216  21.109  28.005  1.00  0.00    -0.206 F 
ATOM     62  C   UNL A   1      42.520  20.224  26.322  1.00  0.00     0.040 A 
ATOM     63  C   UNL A   1      44.162  21.539  25.210  1.00  0.00     0.040 A 
ATOM     64  F   UNL A   1      44.395  23.800  25.671  1.00  0.00    -0.206 F 
ATOM     65  C   UNL A   1      43.525  20.317  25.376  1.00  0.00     0.006 A 
ENDBRANCH  44  58
BRANCH  45  66
ATOM     66  C   UNL A   1      40.830  29.956  32.814  1.00  0.00     0.057 A 
ATOM     67  C   UNL A   1      40.632  31.350  32.886  1.00  0.00     0.134 A 
ATOM     68  C   UNL A   1      39.690  29.152  32.924  1.00  0.00     0.134 A 
ATOM     69  F   UNL A   1      41.675  32.188  32.766  1.00  0.00    -0.206 F 
ATOM     70  C   UNL A   1      39.356  31.915  32.965  1.00  0.00     0.040 A 
ATOM     71  C   UNL A   1      38.409  29.707  33.018  1.00  0.00     0.040 A 
ATOM     72  F   UNL A   1      39.787  27.817  32.857  1.00  0.00    -0.206 F 
ATOM     73  C   UNL A   1      38.236  31.091  33.007  1.00  0.00     0.006 A 
ENDBRANCH  45  66
BRANCH  57  74
ATOM     74  C   UNL A   1      45.023  24.081  33.141  1.00  0.00     0.057 A 
ATOM     75  C   UNL A   1      44.299  22.957  33.558  1.00  0.00     0.134 A 
ATOM     76  C   UNL A   1      46.323  24.211  33.663  1.00  0.00     0.134 A 
ATOM     77  F   UNL A   1      43.030  22.769  33.165  1.00  0.00    -0.206 F 
ATOM     78  C   UNL A   1      44.849  21.999  34.415  1.00  0.00     0.040 A 
ATOM     79  C   UNL A   1      46.866  23.287  34.557  1.00  0.00     0.040 A 
ATOM     80  F   UNL A   1      47.120  25.233  33.314  1.00  0.00    -0.206 F 
ATOM     81  C   UNL A   1      46.132  22.170  34.927  1.00  0.00     0.006 A 
ENDBRANCH  57  74
ENDBRANCH  31  32
ENDBRANCH  24  26
ENDBRANCH  23  24
ENDBRANCH  22  23
ENDBRANCH   1  22
TORSDOF 14
ENDMDL
MODEL 3
REMARK VINA RESULT:     -12.2      3.684      9.222
REMARK SMILES Cc1ccc([N+](=O)[O-])c(N2CCC[C@H](CC(=O)OCCOC(=O)c3ccc(-c4c5nc(c(-c6c(F)cccc6F)c6ccc([nH]6)c(-c6c(F)cccc6F)c6nc(c(-c7c(F)cccc7F)c7ccc4[nH]7)C=C6)C=C5)cc3)C2)c1
REMARK SMILES IDX 19 1 18 2 16 3 17 4 15 5 14 6 10 7 11 8 78 9 12 10 13 11
REMARK SMILES IDX 9 12 1 13 2 14 3 15 79 16 4 17 5 18 6 19 7 20 8 21 20 22
REMARK SMILES IDX 21 23 22 24 23 25 24 26 25 27 77 28 26 29 76 30 27 31 28 32
REMARK SMILES IDX 29 33 70 34 30 35 75 36 69 37 71 38 31 39 74 40 68 41 67 42
REMARK SMILES IDX 32 44 58 45 41 46 57 47 42 48 45 49 56 50 72 51 43 52 44 53
REMARK SMILES IDX 55 55 73 56 46 57 33 58 34 59 39 60 35 61 36 62 38 63 40 64
REMARK SMILES IDX 37 65 59 66 60 67 65 68 61 69 62 70 64 71 66 72 63 73 47 74
REMARK SMILES IDX 48 75 53 76 49 77 50 78 52 79 54 80 51 81
REMARK H PARENT 71 43 45 54
REMARK Flexibility Score: inf
ROOT
ATOM      1  C   UNL A   1      37.040  21.755  24.944  1.00  0.00     0.274 C 
ENDROOT
BRANCH   1   2
ATOM      2  O   UNL A   1      36.461  23.049  24.798  1.00  0.00    -0.462 OA
BRANCH   2   3
ATOM      3  C   UNL A   1      35.882  23.254  23.581  1.00  0.00     0.306 C 
ATOM      4  O   UNL A   1      36.387  23.004  22.509  1.00  0.00    -0.252 OA
BRANCH   3   5
ATOM      5  C   UNL A   1      34.506  23.832  23.761  1.00  0.00     0.128 C 
BRANCH   5   6
ATOM      6  C   UNL A   1      33.648  23.724  22.499  1.00  0.00     0.019 C 
ATOM      7  N   UNL A   1      31.942  25.253  23.333  1.00  0.00    -0.366 N 
ATOM      8  C   UNL A   1      30.896  24.225  23.422  1.00  0.00     0.117 C 
ATOM      9  C   UNL A   1      32.937  25.066  22.273  1.00  0.00     0.121 C 
ATOM     10  C   UNL A   1      31.545  22.856  23.625  1.00  0.00     0.022 C 
ATOM     11  C   UNL A   1      32.613  22.590  22.564  1.00  0.00     0.008 C 
BRANCH   7  12
ATOM     12  C   UNL A   1      31.584  26.549  23.685  1.00  0.00     0.116 A 
ATOM     13  C   UNL A   1      30.117  29.648  21.982  1.00  0.00     0.044 C 
ATOM     14  C   UNL A   1      30.687  28.745  23.036  1.00  0.00    -0.049 A 
ATOM     15  C   UNL A   1      30.907  29.232  24.330  1.00  0.00     0.010 A 
ATOM     16  C   UNL A   1      31.019  27.414  22.732  1.00  0.00     0.036 A 
ATOM     17  C   UNL A   1      31.459  28.405  25.303  1.00  0.00     0.088 A 
ATOM     18  C   UNL A   1      31.787  27.082  24.971  1.00  0.00     0.292 A 
BRANCH  18  19
ATOM     19  N   UNL A   1      32.461  26.298  25.990  1.00  0.00     0.064 N 
ATOM     20  O   UNL A   1      33.664  26.539  26.172  1.00  0.00    -0.258 OA
ATOM     21  O   UNL A   1      31.782  25.493  26.642  1.00  0.00    -0.258 OA
ENDBRANCH  18  19
ENDBRANCH   7  12
ENDBRANCH   5   6
ENDBRANCH   3   5
ENDBRANCH   2   3
ENDBRANCH   1   2
BRANCH   1  22
ATOM     22  C   UNL A   1      38.342  21.838  25.747  1.00  0.00     0.275 C 
BRANCH  22  23
ATOM     23  O   UNL A   1      38.742  23.131  26.298  1.00  0.00    -0.458 OA
BRANCH  23  24
ATOM     24  C   UNL A   1      39.940  23.609  26.722  1.00  0.00     0.338 C 
ATOM     25  O   UNL A   1      40.962  22.937  26.639  1.00  0.00    -0.246 OA
BRANCH  24  26
ATOM     26  C   UNL A   1      40.021  24.981  27.252  1.00  0.00     0.060 A 
ATOM     27  C   UNL A   1      40.537  26.016  26.448  1.00  0.00     0.016 A 
ATOM     28  C   UNL A   1      39.538  25.258  28.521  1.00  0.00     0.016 A 
ATOM     29  C   UNL A   1      40.438  27.350  26.862  1.00  0.00     0.010 A 
ATOM     30  C   UNL A   1      39.337  26.573  28.879  1.00  0.00     0.010 A 
ATOM     31  C   UNL A   1      39.803  27.626  28.072  1.00  0.00    -0.014 A 
BRANCH  31  32
ATOM     32  C   UNL A   1      39.788  28.928  28.736  1.00  0.00     0.031 A 
ATOM     33  C   UNL A   1      38.726  29.951  28.640  1.00  0.00     0.074 A 
ATOM     34  C   UNL A   1      40.801  29.081  29.616  1.00  0.00     0.049 A 
ATOM     35  N   UNL A   1      38.879  31.157  29.081  1.00  0.00    -0.248 NA
ATOM     36  C   UNL A   1      37.413  29.732  28.052  1.00  0.00     0.031 C 
ATOM     37  C   UNL A   1      40.944  30.014  30.719  1.00  0.00     0.029 A 
ATOM     38  N   UNL A   1      42.032  28.418  29.561  1.00  0.00    -0.354 N 
ATOM     39  C   UNL A   1      37.652  31.781  29.087  1.00  0.00     0.074 A 
ATOM     40  C   UNL A   1      36.783  30.873  28.372  1.00  0.00     0.031 C 
ATOM     41  C   UNL A   1      42.242  30.059  31.072  1.00  0.00     0.029 A 
ATOM     42  C   UNL A   1      42.986  29.305  30.071  1.00  0.00     0.049 A 
ATOM     43  H   UNL A   1      42.195  27.505  29.230  1.00  0.00     0.167 HD
ATOM     44  C   UNL A   1      37.505  32.938  29.802  1.00  0.00     0.037 A 
ATOM     45  C   UNL A   1      43.919  29.817  29.213  1.00  0.00     0.037 A 
ATOM     46  C   UNL A   1      38.778  33.367  30.383  1.00  0.00     0.049 A 
ATOM     47  C   UNL A   1      43.839  31.319  29.058  1.00  0.00     0.074 A 
ATOM     48  C   UNL A   1      39.353  33.245  31.639  1.00  0.00     0.029 A 
ATOM     49  N   UNL A   1      39.788  33.786  29.539  1.00  0.00    -0.354 N 
ATOM     50  N   UNL A   1      42.856  32.047  29.507  1.00  0.00    -0.248 NA
ATOM     51  C   UNL A   1      44.823  32.109  28.321  1.00  0.00     0.031 C 
ATOM     52  C   UNL A   1      40.727  33.595  31.533  1.00  0.00     0.029 A 
ATOM     53  C   UNL A   1      40.981  33.932  30.216  1.00  0.00     0.049 A 
ATOM     54  H   UNL A   1      39.671  33.957  28.577  1.00  0.00     0.167 HD
ATOM     55  C   UNL A   1      43.047  33.346  29.143  1.00  0.00     0.074 A 
ATOM     56  C   UNL A   1      44.287  33.340  28.390  1.00  0.00     0.031 C 
ATOM     57  C   UNL A   1      42.163  34.328  29.473  1.00  0.00     0.037 A 
BRANCH  44  58
ATOM     58  C   UNL A   1      36.190  33.593  30.174  1.00  0.00     0.057 A 
ATOM     59  C   UNL A   1      35.352  34.144  29.177  1.00  0.00     0.134 A 
ATOM     60  C   UNL A   1      35.693  33.733  31.479  1.00  0.00     0.134 A 
ATOM     61  F   UNL A   1      35.621  34.013  27.873  1.00  0.00    -0.206 F 
ATOM     62  C   UNL A   1      34.184  34.865  29.463  1.00  0.00     0.040 A 
ATOM     63  C   UNL A   1      34.543  34.483  31.783  1.00  0.00     0.040 A 
ATOM     64  F   UNL A   1      36.259  33.106  32.517  1.00  0.00    -0.206 F 
ATOM     65  C   UNL A   1      33.791  35.067  30.774  1.00  0.00     0.006 A 
ENDBRANCH  44  58
BRANCH  45  66
ATOM     66  C   UNL A   1      44.282  28.873  28.110  1.00  0.00     0.057 A 
ATOM     67  C   UNL A   1      45.019  27.712  28.415  1.00  0.00     0.134 A 
ATOM     68  C   UNL A   1      43.636  28.901  26.870  1.00  0.00     0.134 A 
ATOM     69  F   UNL A   1      45.648  27.602  29.598  1.00  0.00    -0.206 F 
ATOM     70  C   UNL A   1      45.032  26.598  27.572  1.00  0.00     0.040 A 
ATOM     71  C   UNL A   1      43.654  27.796  26.010  1.00  0.00     0.040 A 
ATOM     72  F   UNL A   1      42.906  29.963  26.503  1.00  0.00    -0.206 F 
ATOM     73  C   UNL A   1      44.326  26.630  26.374  1.00  0.00     0.006 A 
ENDBRANCH  45  66
BRANCH  57  74
ATOM     74  C   UNL A   1      42.366  35.766  29.127  1.00  0.00     0.057 A 
ATOM     75  C   UNL A   1      41.825  36.341  27.971  1.00  0.00     0.134 A 
ATOM     76  C   UNL A   1      43.229  36.582  29.882  1.00  0.00     0.134 A 
ATOM     77  F   UNL A   1      41.037  35.630  27.151  1.00  0.00    -0.206 F 
ATOM     78  C   UNL A   1      42.099  37.663  27.605  1.00  0.00     0.040 A 
ATOM     79  C   UNL A   1      43.547  37.886  29.501  1.00  0.00     0.040 A 
ATOM     80  F   UNL A   1      43.785  36.148  31.023  1.00  0.00    -0.206 F 
ATOM     81  C   UNL A   1      42.972  38.435  28.364  1.00  0.00     0.006 A 
ENDBRANCH  57  74
ENDBRANCH  31  32
ENDBRANCH  24  26
ENDBRANCH  23  24
ENDBRANCH  22  23
ENDBRANCH   1  22
TORSDOF 14
ENDMDL
