MODEL 1
REMARK VINA RESULT:     -11.6      0.000      0.000
REMARK SMILES NS(=O)(=O)c1ccc(NS(=O)(=O)c2cccc(C(=O)OCCOC(=O)c3ccc(-c4c5nc(c(-c6c(F)cccc6F)c6ccc([nH]6)c(-c6c(F)cccc6F)c6nc(c(-c7c(F)cccc7F)c7ccc4[nH]7)C=C6)C=C5)cc3)c2)cc1
REMARK SMILES IDX 20 1 18 2 19 3 17 4 13 5 14 6 80 7 15 8 16 9 10 10 11 11
REMARK SMILES IDX 12 12 9 13 8 15 5 16 6 17 82 18 7 19 81 20 2 21 3 22 4 23
REMARK SMILES IDX 1 24 21 27 22 28 23 29 24 30 25 31 26 32 27 33 79 34 28 35
REMARK SMILES IDX 78 36 29 37 30 38 31 39 72 40 32 41 77 42 71 43 73 44 33 45
REMARK SMILES IDX 76 46 70 47 69 48 34 50 60 51 43 52 59 53 44 54 47 55 58 56
REMARK SMILES IDX 74 57 45 58 46 59 57 61 75 62 48 63 35 64 36 65 41 66 37 67
REMARK SMILES IDX 38 68 40 69 42 70 39 71 61 72 62 73 67 74 63 75 64 76 66 77
REMARK SMILES IDX 68 78 65 79 49 80 50 81 55 82 51 83 52 84 54 85 56 86 53 87
REMARK H PARENT 9 14 1 25 1 26 73 49 47 60
REMARK Flexibility Score: inf
ROOT
ATOM      1  O   UNL A   1      41.984  21.335  25.510  1.00  0.00    -0.458 OA
ENDROOT
BRANCH   1   2
ATOM      2  C   UNL A   1      41.093  21.274  26.527  1.00  0.00     0.338 C 
ATOM      3  O   UNL A   1      41.274  20.706  27.595  1.00  0.00    -0.246 OA
BRANCH   2   4
ATOM      4  C   UNL A   1      39.824  22.005  26.242  1.00  0.00     0.061 A 
ATOM      5  C   UNL A   1      37.495  22.173  25.600  1.00  0.00     0.088 A 
ATOM      6  C   UNL A   1      37.464  23.502  26.039  1.00  0.00     0.022 A 
ATOM      7  C   UNL A   1      38.673  21.409  25.709  1.00  0.00     0.038 A 
ATOM      8  C   UNL A   1      38.627  24.115  26.486  1.00  0.00     0.002 A 
ATOM      9  C   UNL A   1      39.794  23.366  26.601  1.00  0.00     0.016 A 
BRANCH   5  10
ATOM     10  S   UNL A   1      35.971  21.417  25.082  1.00  0.00     0.261 S 
ATOM     11  O   UNL A   1      36.228  19.996  24.960  1.00  0.00    -0.201 OA
ATOM     12  O   UNL A   1      35.469  22.164  23.946  1.00  0.00    -0.201 OA
BRANCH  10  13
ATOM     13  N   UNL A   1      34.792  21.586  26.304  1.00  0.00    -0.280 N 
ATOM     14  H   UNL A   1      34.808  20.980  27.080  1.00  0.00     0.180 HD
BRANCH  13  15
ATOM     15  C   UNL A   1      33.780  22.595  26.218  1.00  0.00     0.049 A 
ATOM     16  C   UNL A   1      31.760  24.523  26.086  1.00  0.00     0.082 A 
ATOM     17  C   UNL A   1      31.429  23.164  26.079  1.00  0.00     0.024 A 
ATOM     18  C   UNL A   1      33.096  24.925  26.163  1.00  0.00     0.024 A 
ATOM     19  C   UNL A   1      32.440  22.206  26.170  1.00  0.00     0.028 A 
ATOM     20  C   UNL A   1      34.109  23.957  26.218  1.00  0.00     0.028 A 
BRANCH  16  21
ATOM     21  S   UNL A   1      30.441  25.697  25.970  1.00  0.00     0.238 S 
ATOM     22  O   UNL A   1      30.153  25.918  24.576  1.00  0.00    -0.207 OA
ATOM     23  O   UNL A   1      30.710  26.768  26.903  1.00  0.00    -0.207 OA
BRANCH  21  24
ATOM     24  N   UNL A   1      29.101  24.901  26.602  1.00  0.00    -0.225 NA
ATOM     25  H   UNL A   1      29.291  24.627  27.566  1.00  0.00     0.137 HD
ATOM     26  H   UNL A   1      28.905  24.070  26.045  1.00  0.00     0.137 HD
ENDBRANCH  21  24
ENDBRANCH  16  21
ENDBRANCH  13  15
ENDBRANCH  10  13
ENDBRANCH   5  10
ENDBRANCH   2   4
ENDBRANCH   1   2
BRANCH   1  27
ATOM     27  C   UNL A   1      43.279  20.768  25.805  1.00  0.00     0.275 C 
BRANCH  27  28
ATOM     28  C   UNL A   1      44.430  21.695  25.405  1.00  0.00     0.275 C 
BRANCH  28  29
ATOM     29  O   UNL A   1      44.523  22.832  26.283  1.00  0.00    -0.458 OA
BRANCH  29  30
ATOM     30  C   UNL A   1      44.290  24.028  25.698  1.00  0.00     0.338 C 
ATOM     31  O   UNL A   1      44.555  24.366  24.557  1.00  0.00    -0.246 OA
BRANCH  30  32
ATOM     32  C   UNL A   1      43.561  24.909  26.622  1.00  0.00     0.060 A 
ATOM     33  C   UNL A   1      43.770  26.282  26.517  1.00  0.00     0.016 A 
ATOM     34  C   UNL A   1      42.825  24.387  27.684  1.00  0.00     0.016 A 
ATOM     35  C   UNL A   1      43.286  27.141  27.498  1.00  0.00     0.010 A 
ATOM     36  C   UNL A   1      42.289  25.260  28.642  1.00  0.00     0.010 A 
ATOM     37  C   UNL A   1      42.537  26.645  28.575  1.00  0.00    -0.014 A 
BRANCH  37  38
ATOM     38  C   UNL A   1      42.070  27.570  29.646  1.00  0.00     0.031 A 
ATOM     39  C   UNL A   1      42.814  27.658  30.953  1.00  0.00     0.074 A 
ATOM     40  C   UNL A   1      40.998  28.361  29.443  1.00  0.00     0.049 A 
ATOM     41  N   UNL A   1      42.487  28.291  32.053  1.00  0.00    -0.248 NA
ATOM     42  C   UNL A   1      44.090  26.932  31.037  1.00  0.00     0.031 C 
ATOM     43  C   UNL A   1      40.209  28.420  28.212  1.00  0.00     0.029 A 
ATOM     44  N   UNL A   1      40.391  29.276  30.268  1.00  0.00    -0.354 N 
ATOM     45  C   UNL A   1      43.486  27.996  32.973  1.00  0.00     0.074 A 
ATOM     46  C   UNL A   1      44.428  27.124  32.305  1.00  0.00     0.031 C 
ATOM     47  C   UNL A   1      39.247  29.344  28.349  1.00  0.00     0.029 A 
ATOM     48  C   UNL A   1      39.295  29.884  29.703  1.00  0.00     0.049 A 
ATOM     49  H   UNL A   1      40.709  29.477  31.178  1.00  0.00     0.167 HD
ATOM     50  C   UNL A   1      43.606  28.415  34.256  1.00  0.00     0.037 A 
ATOM     51  C   UNL A   1      38.403  30.747  30.225  1.00  0.00     0.037 A 
ATOM     52  C   UNL A   1      42.698  29.328  34.904  1.00  0.00     0.049 A 
ATOM     53  C   UNL A   1      38.536  31.170  31.660  1.00  0.00     0.074 A 
ATOM     54  C   UNL A   1      42.749  29.824  36.195  1.00  0.00     0.029 A 
ATOM     55  N   UNL A   1      41.584  29.893  34.304  1.00  0.00    -0.354 N 
ATOM     56  N   UNL A   1      39.456  30.844  32.535  1.00  0.00    -0.248 NA
ATOM     57  C   UNL A   1      37.494  32.064  32.187  1.00  0.00     0.031 C 
ATOM     58  C   UNL A   1      41.643  30.660  36.389  1.00  0.00     0.029 A 
ATOM     59  C   UNL A   1      40.930  30.720  35.204  1.00  0.00     0.049 A 
ATOM     60  H   UNL A   1      41.298  29.731  33.376  1.00  0.00     0.167 HD
ATOM     61  C   UNL A   1      39.114  31.502  33.709  1.00  0.00     0.074 A 
ATOM     62  C   UNL A   1      37.913  32.262  33.429  1.00  0.00     0.031 C 
ATOM     63  C   UNL A   1      39.737  31.475  34.912  1.00  0.00     0.037 A 
BRANCH  50  64
ATOM     64  C   UNL A   1      44.745  27.860  35.065  1.00  0.00     0.057 A 
ATOM     65  C   UNL A   1      45.983  28.507  35.157  1.00  0.00     0.134 A 
ATOM     66  C   UNL A   1      44.581  26.673  35.792  1.00  0.00     0.134 A 
ATOM     67  F   UNL A   1      46.209  29.640  34.477  1.00  0.00    -0.206 F 
ATOM     68  C   UNL A   1      47.026  27.980  35.922  1.00  0.00     0.040 A 
ATOM     69  C   UNL A   1      45.607  26.151  36.582  1.00  0.00     0.040 A 
ATOM     70  F   UNL A   1      43.418  26.006  35.757  1.00  0.00    -0.206 F 
ATOM     71  C   UNL A   1      46.838  26.802  36.643  1.00  0.00     0.006 A 
ENDBRANCH  50  64
BRANCH  51  72
ATOM     72  C   UNL A   1      37.274  31.235  29.392  1.00  0.00     0.057 A 
ATOM     73  C   UNL A   1      37.295  32.510  28.816  1.00  0.00     0.134 A 
ATOM     74  C   UNL A   1      36.149  30.436  29.150  1.00  0.00     0.134 A 
ATOM     75  F   UNL A   1      38.333  33.331  29.033  1.00  0.00    -0.206 F 
ATOM     76  C   UNL A   1      36.237  32.975  28.034  1.00  0.00     0.040 A 
ATOM     77  C   UNL A   1      35.097  30.878  28.346  1.00  0.00     0.040 A 
ATOM     78  F   UNL A   1      36.066  29.205  29.674  1.00  0.00    -0.206 F 
ATOM     79  C   UNL A   1      35.138  32.154  27.790  1.00  0.00     0.006 A 
ENDBRANCH  51  72
BRANCH  63  80
ATOM     80  C   UNL A   1      39.150  32.315  36.006  1.00  0.00     0.057 A 
ATOM     81  C   UNL A   1      38.191  31.810  36.893  1.00  0.00     0.134 A 
ATOM     82  C   UNL A   1      39.568  33.639  36.191  1.00  0.00     0.134 A 
ATOM     83  F   UNL A   1      37.737  30.554  36.761  1.00  0.00    -0.206 F 
ATOM     84  C   UNL A   1      37.654  32.598  37.912  1.00  0.00     0.040 A 
ATOM     85  C   UNL A   1      39.057  34.429  37.221  1.00  0.00     0.040 A 
ATOM     86  F   UNL A   1      40.488  34.182  35.379  1.00  0.00    -0.206 F 
ATOM     87  C   UNL A   1      38.092  33.910  38.082  1.00  0.00     0.006 A 
ENDBRANCH  63  80
ENDBRANCH  37  38
ENDBRANCH  30  32
ENDBRANCH  29  30
ENDBRANCH  28  29
ENDBRANCH  27  28
ENDBRANCH   1  27
TORSDOF 16
ENDMDL
MODEL 2
REMARK VINA RESULT:     -11.4      4.332      9.210
REMARK SMILES NS(=O)(=O)c1ccc(NS(=O)(=O)c2cccc(C(=O)OCCOC(=O)c3ccc(-c4c5nc(c(-c6c(F)cccc6F)c6ccc([nH]6)c(-c6c(F)cccc6F)c6nc(c(-c7c(F)cccc7F)c7ccc4[nH]7)C=C6)C=C5)cc3)c2)cc1
REMARK SMILES IDX 20 1 18 2 19 3 17 4 13 5 14 6 80 7 15 8 16 9 10 10 11 11
REMARK SMILES IDX 12 12 9 13 8 15 5 16 6 17 82 18 7 19 81 20 2 21 3 22 4 23
REMARK SMILES IDX 1 24 21 27 22 28 23 29 24 30 25 31 26 32 27 33 79 34 28 35
REMARK SMILES IDX 78 36 29 37 30 38 31 39 72 40 32 41 77 42 71 43 73 44 33 45
REMARK SMILES IDX 76 46 70 47 69 48 34 50 60 51 43 52 59 53 44 54 47 55 58 56
REMARK SMILES IDX 74 57 45 58 46 59 57 61 75 62 48 63 35 64 36 65 41 66 37 67
REMARK SMILES IDX 38 68 40 69 42 70 39 71 61 72 62 73 67 74 63 75 64 76 66 77
REMARK SMILES IDX 68 78 65 79 49 80 50 81 55 82 51 83 52 84 54 85 56 86 53 87
REMARK H PARENT 9 14 1 25 1 26 73 49 47 60
REMARK Flexibility Score: inf
ROOT
ATOM      1  O   UNL A   1      34.054  33.731  29.010  1.00  0.00    -0.458 OA
ENDROOT
BRANCH   1   2
ATOM      2  C   UNL A   1      34.845  33.370  27.972  1.00  0.00     0.338 C 
ATOM      3  O   UNL A   1      35.378  34.141  27.186  1.00  0.00    -0.246 OA
BRANCH   2   4
ATOM      4  C   UNL A   1      35.046  31.896  27.870  1.00  0.00     0.061 A 
ATOM      5  C   UNL A   1      34.402  29.638  27.274  1.00  0.00     0.088 A 
ATOM      6  C   UNL A   1      35.715  29.201  27.490  1.00  0.00     0.022 A 
ATOM      7  C   UNL A   1      34.059  30.993  27.451  1.00  0.00     0.038 A 
ATOM      8  C   UNL A   1      36.668  30.079  27.988  1.00  0.00     0.002 A 
ATOM      9  C   UNL A   1      36.338  31.420  28.161  1.00  0.00     0.016 A 
BRANCH   5  10
ATOM     10  S   UNL A   1      33.229  28.489  26.591  1.00  0.00     0.261 S 
ATOM     11  O   UNL A   1      31.953  28.771  27.217  1.00  0.00    -0.201 OA
ATOM     12  O   UNL A   1      33.804  27.162  26.680  1.00  0.00    -0.201 OA
BRANCH  10  13
ATOM     13  N   UNL A   1      33.020  28.793  24.924  1.00  0.00    -0.280 N 
ATOM     14  H   UNL A   1      33.801  28.771  24.326  1.00  0.00     0.180 HD
BRANCH  13  15
ATOM     15  C   UNL A   1      31.725  29.079  24.384  1.00  0.00     0.049 A 
ATOM     16  C   UNL A   1      29.216  29.707  23.324  1.00  0.00     0.082 A 
ATOM     17  C   UNL A   1      29.872  30.621  24.154  1.00  0.00     0.024 A 
ATOM     18  C   UNL A   1      29.810  28.480  23.016  1.00  0.00     0.024 A 
ATOM     19  C   UNL A   1      31.135  30.314  24.661  1.00  0.00     0.028 A 
ATOM     20  C   UNL A   1      31.064  28.162  23.558  1.00  0.00     0.028 A 
BRANCH  16  21
ATOM     21  S   UNL A   1      27.616  30.146  22.708  1.00  0.00     0.238 S 
ATOM     22  O   UNL A   1      27.713  30.317  21.280  1.00  0.00    -0.207 OA
ATOM     23  O   UNL A   1      27.054  31.145  23.588  1.00  0.00    -0.207 OA
BRANCH  21  24
ATOM     24  N   UNL A   1      26.673  28.776  22.951  1.00  0.00    -0.225 NA
ATOM     25  H   UNL A   1      27.234  28.049  23.393  1.00  0.00     0.137 HD
ATOM     26  H   UNL A   1      26.326  28.438  22.053  1.00  0.00     0.137 HD
ENDBRANCH  21  24
ENDBRANCH  16  21
ENDBRANCH  13  15
ENDBRANCH  10  13
ENDBRANCH   5  10
ENDBRANCH   2   4
ENDBRANCH   1   2
BRANCH   1  27
ATOM     27  C   UNL A   1      34.129  35.127  29.372  1.00  0.00     0.275 C 
BRANCH  27  28
ATOM     28  C   UNL A   1      32.801  35.665  29.908  1.00  0.00     0.275 C 
BRANCH  28  29
ATOM     29  O   UNL A   1      32.987  36.429  31.114  1.00  0.00    -0.458 OA
BRANCH  29  30
ATOM     30  C   UNL A   1      32.598  35.807  32.251  1.00  0.00     0.338 C 
ATOM     31  O   UNL A   1      31.478  35.757  32.728  1.00  0.00    -0.246 OA
BRANCH  30  32
ATOM     32  C   UNL A   1      33.733  35.086  32.845  1.00  0.00     0.060 A 
ATOM     33  C   UNL A   1      34.983  35.700  32.821  1.00  0.00     0.016 A 
ATOM     34  C   UNL A   1      33.606  33.761  33.258  1.00  0.00     0.016 A 
ATOM     35  C   UNL A   1      36.123  34.980  33.163  1.00  0.00     0.010 A 
ATOM     36  C   UNL A   1      34.750  33.054  33.657  1.00  0.00     0.010 A 
ATOM     37  C   UNL A   1      36.025  33.648  33.588  1.00  0.00    -0.014 A 
BRANCH  37  38
ATOM     38  C   UNL A   1      37.260  32.874  33.901  1.00  0.00     0.031 A 
ATOM     39  C   UNL A   1      37.991  33.101  35.199  1.00  0.00     0.074 A 
ATOM     40  C   UNL A   1      37.715  31.939  33.044  1.00  0.00     0.049 A 
ATOM     41  N   UNL A   1      39.151  32.634  35.591  1.00  0.00    -0.248 NA
ATOM     42  C   UNL A   1      37.335  33.976  36.183  1.00  0.00     0.031 C 
ATOM     43  C   UNL A   1      37.083  31.576  31.775  1.00  0.00     0.029 A 
ATOM     44  N   UNL A   1      38.812  31.116  33.115  1.00  0.00    -0.354 N 
ATOM     45  C   UNL A   1      39.388  33.199  36.838  1.00  0.00     0.074 A 
ATOM     46  C   UNL A   1      38.254  34.048  37.137  1.00  0.00     0.031 C 
ATOM     47  C   UNL A   1      37.782  30.583  31.204  1.00  0.00     0.029 A 
ATOM     48  C   UNL A   1      38.955  30.294  32.022  1.00  0.00     0.049 A 
ATOM     49  H   UNL A   1      39.436  31.114  33.876  1.00  0.00     0.167 HD
ATOM     50  C   UNL A   1      40.452  33.026  37.659  1.00  0.00     0.037 A 
ATOM     51  C   UNL A   1      39.938  29.436  31.692  1.00  0.00     0.037 A 
ATOM     52  C   UNL A   1      41.555  32.139  37.386  1.00  0.00     0.049 A 
ATOM     53  C   UNL A   1      41.125  29.287  32.599  1.00  0.00     0.074 A 
ATOM     54  C   UNL A   1      42.669  31.883  38.167  1.00  0.00     0.029 A 
ATOM     55  N   UNL A   1      41.674  31.351  36.252  1.00  0.00    -0.354 N 
ATOM     56  N   UNL A   1      41.361  29.865  33.751  1.00  0.00    -0.248 NA
ATOM     57  C   UNL A   1      42.192  28.381  32.150  1.00  0.00     0.031 C 
ATOM     58  C   UNL A   1      43.482  30.969  37.487  1.00  0.00     0.029 A 
ATOM     59  C   UNL A   1      42.851  30.621  36.305  1.00  0.00     0.049 A 
ATOM     60  H   UNL A   1      41.020  31.315  35.517  1.00  0.00     0.167 HD
ATOM     61  C   UNL A   1      42.594  29.384  34.172  1.00  0.00     0.074 A 
ATOM     62  C   UNL A   1      43.048  28.451  33.161  1.00  0.00     0.031 C 
ATOM     63  C   UNL A   1      43.290  29.692  35.293  1.00  0.00     0.037 A 
BRANCH  50  64
ATOM     64  C   UNL A   1      40.498  33.843  38.919  1.00  0.00     0.057 A 
ATOM     65  C   UNL A   1      39.909  33.411  40.113  1.00  0.00     0.134 A 
ATOM     66  C   UNL A   1      41.179  35.068  38.942  1.00  0.00     0.134 A 
ATOM     67  F   UNL A   1      39.233  32.254  40.157  1.00  0.00    -0.206 F 
ATOM     68  C   UNL A   1      39.971  34.180  41.277  1.00  0.00     0.040 A 
ATOM     69  C   UNL A   1      41.271  35.833  40.106  1.00  0.00     0.040 A 
ATOM     70  F   UNL A   1      41.774  35.538  37.836  1.00  0.00    -0.206 F 
ATOM     71  C   UNL A   1      40.660  35.392  41.278  1.00  0.00     0.006 A 
ENDBRANCH  50  64
BRANCH  51  72
ATOM     72  C   UNL A   1      39.860  28.681  30.414  1.00  0.00     0.057 A 
ATOM     73  C   UNL A   1      40.441  29.176  29.242  1.00  0.00     0.134 A 
ATOM     74  C   UNL A   1      39.203  27.446  30.337  1.00  0.00     0.134 A 
ATOM     75  F   UNL A   1      41.061  30.366  29.246  1.00  0.00    -0.206 F 
ATOM     76  C   UNL A   1      40.370  28.474  28.038  1.00  0.00     0.040 A 
ATOM     77  C   UNL A   1      39.148  26.720  29.147  1.00  0.00     0.040 A 
ATOM     78  F   UNL A   1      38.623  26.918  31.424  1.00  0.00    -0.206 F 
ATOM     79  C   UNL A   1      39.729  27.237  27.991  1.00  0.00     0.006 A 
ENDBRANCH  51  72
BRANCH  63  80
ATOM     80  C   UNL A   1      44.599  28.991  35.501  1.00  0.00     0.057 A 
ATOM     81  C   UNL A   1      45.809  29.534  35.051  1.00  0.00     0.134 A 
ATOM     82  C   UNL A   1      44.652  27.769  36.184  1.00  0.00     0.134 A 
ATOM     83  F   UNL A   1      45.824  30.694  34.377  1.00  0.00    -0.206 F 
ATOM     84  C   UNL A   1      47.023  28.876  35.254  1.00  0.00     0.040 A 
ATOM     85  C   UNL A   1      45.862  27.114  36.415  1.00  0.00     0.040 A 
ATOM     86  F   UNL A   1      43.529  27.197  36.647  1.00  0.00    -0.206 F 
ATOM     87  C   UNL A   1      47.052  27.665  35.944  1.00  0.00     0.006 A 
ENDBRANCH  63  80
ENDBRANCH  37  38
ENDBRANCH  30  32
ENDBRANCH  29  30
ENDBRANCH  28  29
ENDBRANCH  27  28
ENDBRANCH   1  27
TORSDOF 16
ENDMDL
MODEL 3
REMARK VINA RESULT:     -11.4      3.614      5.375
REMARK SMILES NS(=O)(=O)c1ccc(NS(=O)(=O)c2cccc(C(=O)OCCOC(=O)c3ccc(-c4c5nc(c(-c6c(F)cccc6F)c6ccc([nH]6)c(-c6c(F)cccc6F)c6nc(c(-c7c(F)cccc7F)c7ccc4[nH]7)C=C6)C=C5)cc3)c2)cc1
REMARK SMILES IDX 20 1 18 2 19 3 17 4 13 5 14 6 80 7 15 8 16 9 10 10 11 11
REMARK SMILES IDX 12 12 9 13 8 15 5 16 6 17 82 18 7 19 81 20 2 21 3 22 4 23
REMARK SMILES IDX 1 24 21 27 22 28 23 29 24 30 25 31 26 32 27 33 79 34 28 35
REMARK SMILES IDX 78 36 29 37 30 38 31 39 72 40 32 41 77 42 71 43 73 44 33 45
REMARK SMILES IDX 76 46 70 47 69 48 34 50 60 51 43 52 59 53 44 54 47 55 58 56
REMARK SMILES IDX 74 57 45 58 46 59 57 61 75 62 48 63 35 64 36 65 41 66 37 67
REMARK SMILES IDX 38 68 40 69 42 70 39 71 61 72 62 73 67 74 63 75 64 76 66 77
REMARK SMILES IDX 68 78 65 79 49 80 50 81 55 82 51 83 52 84 54 85 56 86 53 87
REMARK H PARENT 9 14 1 25 1 26 73 49 47 60
REMARK Flexibility Score: inf
ROOT
ATOM      1  O   UNL A   1      37.874  21.587  24.555  1.00  0.00    -0.458 OA
ENDROOT
BRANCH   1   2
ATOM      2  C   UNL A   1      36.535  21.459  24.712  1.00  0.00     0.338 C 
ATOM      3  O   UNL A   1      35.943  20.411  24.929  1.00  0.00    -0.246 OA
BRANCH   2   4
ATOM      4  C   UNL A   1      35.805  22.756  24.618  1.00  0.00     0.061 A 
ATOM      5  C   UNL A   1      34.144  24.270  23.712  1.00  0.00     0.088 A 
ATOM      6  C   UNL A   1      34.353  25.147  24.783  1.00  0.00     0.022 A 
ATOM      7  C   UNL A   1      34.861  23.060  23.626  1.00  0.00     0.038 A 
ATOM      8  C   UNL A   1      35.348  24.885  25.715  1.00  0.00     0.002 A 
ATOM      9  C   UNL A   1      36.058  23.690  25.639  1.00  0.00     0.016 A 
BRANCH   5  10
ATOM     10  S   UNL A   1      32.827  24.623  22.571  1.00  0.00     0.261 S 
ATOM     11  O   UNL A   1      33.362  24.431  21.239  1.00  0.00    -0.201 OA
ATOM     12  O   UNL A   1      32.247  25.898  22.944  1.00  0.00    -0.201 OA
BRANCH  10  13
ATOM     13  N   UNL A   1      31.576  23.476  22.753  1.00  0.00    -0.280 N 
ATOM     14  H   UNL A   1      30.644  23.744  22.584  1.00  0.00     0.180 HD
BRANCH  13  15
ATOM     15  C   UNL A   1      31.862  22.130  23.150  1.00  0.00     0.049 A 
ATOM     16  C   UNL A   1      32.461  19.496  23.866  1.00  0.00     0.082 A 
ATOM     17  C   UNL A   1      32.355  19.845  22.517  1.00  0.00     0.024 A 
ATOM     18  C   UNL A   1      32.274  20.458  24.863  1.00  0.00     0.024 A 
ATOM     19  C   UNL A   1      32.080  21.167  22.163  1.00  0.00     0.028 A 
ATOM     20  C   UNL A   1      31.963  21.777  24.502  1.00  0.00     0.028 A 
BRANCH  16  21
ATOM     21  S   UNL A   1      32.812  17.806  24.261  1.00  0.00     0.238 S 
ATOM     22  O   UNL A   1      32.949  17.073  23.028  1.00  0.00    -0.207 OA
ATOM     23  O   UNL A   1      31.927  17.402  25.329  1.00  0.00    -0.207 OA
BRANCH  21  24
ATOM     24  N   UNL A   1      34.343  17.838  24.956  1.00  0.00    -0.225 NA
ATOM     25  H   UNL A   1      34.849  16.989  24.706  1.00  0.00     0.137 HD
ATOM     26  H   UNL A   1      34.255  17.894  25.971  1.00  0.00     0.137 HD
ENDBRANCH  21  24
ENDBRANCH  16  21
ENDBRANCH  13  15
ENDBRANCH  10  13
ENDBRANCH   5  10
ENDBRANCH   2   4
ENDBRANCH   1   2
BRANCH   1  27
ATOM     27  C   UNL A   1      38.660  21.141  25.681  1.00  0.00     0.275 C 
BRANCH  27  28
ATOM     28  C   UNL A   1      39.385  19.822  25.403  1.00  0.00     0.275 C 
BRANCH  28  29
ATOM     29  O   UNL A   1      40.395  19.554  26.394  1.00  0.00    -0.458 OA
BRANCH  29  30
ATOM     30  C   UNL A   1      41.668  19.748  25.981  1.00  0.00     0.338 C 
ATOM     31  O   UNL A   1      42.321  19.052  25.223  1.00  0.00    -0.246 OA
BRANCH  30  32
ATOM     32  C   UNL A   1      42.186  21.015  26.517  1.00  0.00     0.060 A 
ATOM     33  C   UNL A   1      42.107  21.223  27.893  1.00  0.00     0.016 A 
ATOM     34  C   UNL A   1      42.578  22.049  25.670  1.00  0.00     0.016 A 
ATOM     35  C   UNL A   1      42.373  22.479  28.427  1.00  0.00     0.010 A 
ATOM     36  C   UNL A   1      42.901  23.299  26.217  1.00  0.00     0.010 A 
ATOM     37  C   UNL A   1      42.775  23.536  27.599  1.00  0.00    -0.014 A 
BRANCH  37  38
ATOM     38  C   UNL A   1      43.006  24.890  28.179  1.00  0.00     0.031 A 
ATOM     39  C   UNL A   1      44.394  25.319  28.578  1.00  0.00     0.074 A 
ATOM     40  C   UNL A   1      41.983  25.755  28.319  1.00  0.00     0.049 A 
ATOM     41  N   UNL A   1      44.777  26.392  29.226  1.00  0.00    -0.248 NA
ATOM     42  C   UNL A   1      45.497  24.418  28.209  1.00  0.00     0.031 C 
ATOM     43  C   UNL A   1      40.596  25.497  27.930  1.00  0.00     0.029 A 
ATOM     44  N   UNL A   1      41.953  27.034  28.820  1.00  0.00    -0.354 N 
ATOM     45  C   UNL A   1      46.151  26.270  29.388  1.00  0.00     0.074 A 
ATOM     46  C   UNL A   1      46.536  25.016  28.776  1.00  0.00     0.031 C 
ATOM     47  C   UNL A   1      39.859  26.591  28.174  1.00  0.00     0.029 A 
ATOM     48  C   UNL A   1      40.699  27.598  28.813  1.00  0.00     0.049 A 
ATOM     49  H   UNL A   1      42.753  27.502  29.153  1.00  0.00     0.167 HD
ATOM     50  C   UNL A   1      47.013  27.124  29.991  1.00  0.00     0.037 A 
ATOM     51  C   UNL A   1      40.263  28.775  29.301  1.00  0.00     0.037 A 
ATOM     52  C   UNL A   1      46.638  28.399  30.551  1.00  0.00     0.049 A 
ATOM     53  C   UNL A   1      41.229  29.690  29.997  1.00  0.00     0.074 A 
ATOM     54  C   UNL A   1      47.445  29.341  31.165  1.00  0.00     0.029 A 
ATOM     55  N   UNL A   1      45.352  28.915  30.551  1.00  0.00    -0.354 N 
ATOM     56  N   UNL A   1      42.517  29.540  30.189  1.00  0.00    -0.248 NA
ATOM     57  C   UNL A   1      40.677  30.929  30.562  1.00  0.00     0.031 C 
ATOM     58  C   UNL A   1      46.640  30.412  31.571  1.00  0.00     0.029 A 
ATOM     59  C   UNL A   1      45.340  30.156  31.169  1.00  0.00     0.049 A 
ATOM     60  H   UNL A   1      44.563  28.467  30.168  1.00  0.00     0.167 HD
ATOM     61  C   UNL A   1      42.932  30.669  30.883  1.00  0.00     0.074 A 
ATOM     62  C   UNL A   1      41.763  31.504  31.062  1.00  0.00     0.031 C 
ATOM     63  C   UNL A   1      44.170  30.981  31.336  1.00  0.00     0.037 A 
BRANCH  50  64
ATOM     64  C   UNL A   1      48.448  26.695  30.113  1.00  0.00     0.057 A 
ATOM     65  C   UNL A   1      49.414  27.032  29.158  1.00  0.00     0.134 A 
ATOM     66  C   UNL A   1      48.871  25.958  31.228  1.00  0.00     0.134 A 
ATOM     67  F   UNL A   1      49.073  27.726  28.062  1.00  0.00    -0.206 F 
ATOM     68  C   UNL A   1      50.745  26.632  29.294  1.00  0.00     0.040 A 
ATOM     69  C   UNL A   1      50.205  25.575  31.388  1.00  0.00     0.040 A 
ATOM     70  F   UNL A   1      48.000  25.608  32.185  1.00  0.00    -0.206 F 
ATOM     71  C   UNL A   1      51.145  25.907  30.415  1.00  0.00     0.006 A 
ENDBRANCH  50  64
BRANCH  51  72
ATOM     72  C   UNL A   1      38.825  29.133  29.187  1.00  0.00     0.057 A 
ATOM     73  C   UNL A   1      38.290  29.613  27.987  1.00  0.00     0.134 A 
ATOM     74  C   UNL A   1      37.953  29.000  30.276  1.00  0.00     0.134 A 
ATOM     75  F   UNL A   1      39.081  29.787  26.918  1.00  0.00    -0.206 F 
ATOM     76  C   UNL A   1      36.942  29.954  27.874  1.00  0.00     0.040 A 
ATOM     77  C   UNL A   1      36.597  29.310  30.168  1.00  0.00     0.040 A 
ATOM     78  F   UNL A   1      38.404  28.547  31.454  1.00  0.00    -0.206 F 
ATOM     79  C   UNL A   1      36.089  29.794  28.964  1.00  0.00     0.006 A 
ENDBRANCH  51  72
BRANCH  63  80
ATOM     80  C   UNL A   1      44.330  32.295  32.040  1.00  0.00     0.057 A 
ATOM     81  C   UNL A   1      44.218  32.408  33.431  1.00  0.00     0.134 A 
ATOM     82  C   UNL A   1      44.625  33.459  31.318  1.00  0.00     0.134 A 
ATOM     83  F   UNL A   1      43.922  31.334  34.179  1.00  0.00    -0.206 F 
ATOM     84  C   UNL A   1      44.374  33.635  34.078  1.00  0.00     0.040 A 
ATOM     85  C   UNL A   1      44.808  34.687  31.956  1.00  0.00     0.040 A 
ATOM     86  F   UNL A   1      44.751  33.418  29.983  1.00  0.00    -0.206 F 
ATOM     87  C   UNL A   1      44.676  34.778  33.339  1.00  0.00     0.006 A 
ENDBRANCH  63  80
ENDBRANCH  37  38
ENDBRANCH  30  32
ENDBRANCH  29  30
ENDBRANCH  28  29
ENDBRANCH  27  28
ENDBRANCH   1  27
TORSDOF 16
ENDMDL
