MODEL 1
REMARK VINA RESULT:      -9.9      0.000      0.000
REMARK SMILES C[C@H]1CN(C(=O)NCCOCC(=O)OCCOC(=O)c2ccc(-c3c4nc(c(-c5c(F)cccc5F)c5ccc([nH]5)c(-c5c(F)cccc5F)c5nc(c(-c6c(F)cccc6F)c6ccc3[nH]6)C=C5)C=C4)cc2)CC[N@@H+]1C
REMARK SMILES IDX 14 1 12 2 13 3 11 4 10 5 9 6 8 7 7 8 5 9 6 10 4 12 1 13 2 14
REMARK SMILES IDX 3 15 76 16 75 17 77 18 74 20 15 21 16 22 17 23 18 24 19 25
REMARK SMILES IDX 20 26 21 27 73 28 22 29 72 30 23 31 24 32 25 33 66 34 26 35
REMARK SMILES IDX 71 36 65 37 67 38 27 39 70 40 64 41 63 42 28 44 54 45 37 46
REMARK SMILES IDX 53 47 38 48 41 49 52 50 68 51 39 52 40 53 51 55 69 56 42 57
REMARK SMILES IDX 29 58 30 59 35 60 31 61 32 62 34 63 36 64 33 65 55 66 56 67
REMARK SMILES IDX 61 68 57 69 58 70 60 71 62 72 59 73 43 74 44 75 49 76 45 77
REMARK SMILES IDX 46 78 48 79 50 80 47 81
REMARK H PARENT 7 11 76 19 67 43 41 54
REMARK Flexibility Score: inf
ROOT
ATOM      1  O   UNL A   1      41.884  21.195  26.658  1.00  0.00    -0.460 OA
ENDROOT
BRANCH   1   2
ATOM      2  C   UNL A   1      40.607  21.654  26.720  1.00  0.00     0.332 C 
ATOM      3  O   UNL A   1      39.642  21.087  26.212  1.00  0.00    -0.250 OA
BRANCH   2   4
ATOM      4  C   UNL A   1      40.451  22.937  27.556  1.00  0.00     0.282 C 
BRANCH   4   5
ATOM      5  O   UNL A   1      39.276  23.719  27.585  1.00  0.00    -0.368 OA
BRANCH   5   6
ATOM      6  C   UNL A   1      38.753  24.128  26.315  1.00  0.00     0.182 C 
BRANCH   6   7
ATOM      7  C   UNL A   1      37.290  23.727  26.054  1.00  0.00     0.146 C 
BRANCH   7   8
ATOM      8  N   UNL A   1      37.076  22.375  25.583  1.00  0.00    -0.336 N 
ATOM      9  C   UNL A   1      35.986  21.595  25.476  1.00  0.00     0.317 C 
ATOM     10  O   UNL A   1      36.162  20.467  25.062  1.00  0.00    -0.249 OA
ATOM     11  H   UNL A   1      37.901  21.935  25.278  1.00  0.00     0.165 HD
BRANCH   9  12
ATOM     12  N   UNL A   1      34.726  22.040  25.739  1.00  0.00    -0.313 N 
ATOM     13  C   UNL A   1      33.404  23.666  22.588  1.00  0.00     0.077 C 
ATOM     14  C   UNL A   1      33.730  22.511  23.530  1.00  0.00     0.200 C 
ATOM     15  C   UNL A   1      34.217  23.103  24.892  1.00  0.00     0.186 C 
ATOM     16  N   UNL A   1      32.609  21.556  23.761  1.00  0.00    -0.332 N 
ATOM     17  C   UNL A   1      33.103  20.459  24.636  1.00  0.00     0.284 C 
ATOM     18  C   UNL A   1      32.063  20.994  22.524  1.00  0.00     0.333 C 
ATOM     19  H   UNL A   1      31.847  22.071  24.203  1.00  0.00     0.348 HD
ATOM     20  C   UNL A   1      33.708  20.998  25.960  1.00  0.00     0.183 C 
ENDBRANCH   9  12
ENDBRANCH   7   8
ENDBRANCH   6   7
ENDBRANCH   5   6
ENDBRANCH   4   5
ENDBRANCH   2   4
ENDBRANCH   1   2
BRANCH   1  21
ATOM     21  C   UNL A   1      42.118  19.889  27.230  1.00  0.00     0.274 C 
BRANCH  21  22
ATOM     22  C   UNL A   1      42.473  18.849  26.157  1.00  0.00     0.275 C 
BRANCH  22  23
ATOM     23  O   UNL A   1      42.887  19.457  24.909  1.00  0.00    -0.458 OA
BRANCH  23  24
ATOM     24  C   UNL A   1      44.217  19.388  24.708  1.00  0.00     0.338 C 
ATOM     25  O   UNL A   1      44.849  18.350  24.539  1.00  0.00    -0.246 OA
BRANCH  24  26
ATOM     26  C   UNL A   1      44.925  20.674  24.672  1.00  0.00     0.060 A 
ATOM     27  C   UNL A   1      45.568  21.090  25.844  1.00  0.00     0.016 A 
ATOM     28  C   UNL A   1      44.558  21.604  23.697  1.00  0.00     0.016 A 
ATOM     29  C   UNL A   1      45.719  22.455  26.107  1.00  0.00     0.010 A 
ATOM     30  C   UNL A   1      44.725  22.972  23.956  1.00  0.00     0.010 A 
ATOM     31  C   UNL A   1      45.242  23.411  25.190  1.00  0.00    -0.014 A 
BRANCH  31  32
ATOM     32  C   UNL A   1      45.482  24.855  25.421  1.00  0.00     0.031 A 
ATOM     33  C   UNL A   1      46.802  25.563  25.269  1.00  0.00     0.074 A 
ATOM     34  C   UNL A   1      44.408  25.532  25.849  1.00  0.00     0.049 A 
ATOM     35  N   UNL A   1      47.246  26.633  25.887  1.00  0.00    -0.248 NA
ATOM     36  C   UNL A   1      47.749  25.034  24.289  1.00  0.00     0.031 C 
ATOM     37  C   UNL A   1      43.056  24.975  25.939  1.00  0.00     0.029 A 
ATOM     38  N   UNL A   1      44.290  26.809  26.308  1.00  0.00    -0.354 N 
ATOM     39  C   UNL A   1      48.568  26.811  25.468  1.00  0.00     0.074 A 
ATOM     40  C   UNL A   1      48.829  25.779  24.494  1.00  0.00     0.031 C 
ATOM     41  C   UNL A   1      42.244  25.899  26.458  1.00  0.00     0.029 A 
ATOM     42  C   UNL A   1      43.042  27.066  26.805  1.00  0.00     0.049 A 
ATOM     43  H   UNL A   1      45.019  27.470  26.287  1.00  0.00     0.167 HD
ATOM     44  C   UNL A   1      49.454  27.763  25.863  1.00  0.00     0.037 A 
ATOM     45  C   UNL A   1      42.600  28.105  27.526  1.00  0.00     0.037 A 
ATOM     46  C   UNL A   1      49.053  28.934  26.612  1.00  0.00     0.049 A 
ATOM     47  C   UNL A   1      43.549  29.213  27.831  1.00  0.00     0.074 A 
ATOM     48  C   UNL A   1      49.813  30.032  26.981  1.00  0.00     0.029 A 
ATOM     49  N   UNL A   1      47.753  29.193  27.025  1.00  0.00    -0.354 N 
ATOM     50  N   UNL A   1      44.839  29.278  27.606  1.00  0.00    -0.248 NA
ATOM     51  C   UNL A   1      42.978  30.404  28.462  1.00  0.00     0.031 C 
ATOM     52  C   UNL A   1      48.972  30.953  27.615  1.00  0.00     0.029 A 
ATOM     53  C   UNL A   1      47.683  30.446  27.609  1.00  0.00     0.049 A 
ATOM     54  H   UNL A   1      46.993  28.576  26.918  1.00  0.00     0.167 HD
ATOM     55  C   UNL A   1      45.238  30.524  28.060  1.00  0.00     0.074 A 
ATOM     56  C   UNL A   1      44.041  31.190  28.541  1.00  0.00     0.031 C 
ATOM     57  C   UNL A   1      46.477  31.071  28.084  1.00  0.00     0.037 A 
BRANCH  44  58
ATOM     58  C   UNL A   1      50.924  27.636  25.522  1.00  0.00     0.057 A 
ATOM     59  C   UNL A   1      51.880  27.080  26.379  1.00  0.00     0.134 A 
ATOM     60  C   UNL A   1      51.358  27.951  24.220  1.00  0.00     0.134 A 
ATOM     61  F   UNL A   1      51.554  26.733  27.633  1.00  0.00    -0.206 F 
ATOM     62  C   UNL A   1      53.200  26.855  25.966  1.00  0.00     0.040 A 
ATOM     63  C   UNL A   1      52.663  27.697  23.784  1.00  0.00     0.040 A 
ATOM     64  F   UNL A   1      50.504  28.471  23.325  1.00  0.00    -0.206 F 
ATOM     65  C   UNL A   1      53.591  27.147  24.661  1.00  0.00     0.006 A 
ENDBRANCH  44  58
BRANCH  45  66
ATOM     66  C   UNL A   1      41.190  28.098  27.960  1.00  0.00     0.057 A 
ATOM     67  C   UNL A   1      40.839  27.590  29.212  1.00  0.00     0.134 A 
ATOM     68  C   UNL A   1      40.197  28.746  27.213  1.00  0.00     0.134 A 
ATOM     69  F   UNL A   1      41.758  26.974  29.972  1.00  0.00    -0.206 F 
ATOM     70  C   UNL A   1      39.546  27.723  29.712  1.00  0.00     0.040 A 
ATOM     71  C   UNL A   1      38.907  28.913  27.713  1.00  0.00     0.040 A 
ATOM     72  F   UNL A   1      40.491  29.294  26.024  1.00  0.00    -0.206 F 
ATOM     73  C   UNL A   1      38.580  28.399  28.966  1.00  0.00     0.006 A 
ENDBRANCH  45  66
BRANCH  57  74
ATOM     74  C   UNL A   1      46.574  32.460  28.634  1.00  0.00     0.057 A 
ATOM     75  C   UNL A   1      46.452  33.582  27.806  1.00  0.00     0.134 A 
ATOM     76  C   UNL A   1      46.810  32.673  29.997  1.00  0.00     0.134 A 
ATOM     77  F   UNL A   1      46.241  33.436  26.489  1.00  0.00    -0.206 F 
ATOM     78  C   UNL A   1      46.603  34.873  28.310  1.00  0.00     0.040 A 
ATOM     79  C   UNL A   1      46.937  33.961  30.516  1.00  0.00     0.040 A 
ATOM     80  F   UNL A   1      46.927  31.636  30.841  1.00  0.00    -0.206 F 
ATOM     81  C   UNL A   1      46.845  35.065  29.669  1.00  0.00     0.006 A 
ENDBRANCH  57  74
ENDBRANCH  31  32
ENDBRANCH  24  26
ENDBRANCH  23  24
ENDBRANCH  22  23
ENDBRANCH  21  22
ENDBRANCH   1  21
TORSDOF 16
ENDMDL
MODEL 2
REMARK VINA RESULT:      -9.8      5.538     10.645
REMARK SMILES C[C@H]1CN(C(=O)NCCOCC(=O)OCCOC(=O)c2ccc(-c3c4nc(c(-c5c(F)cccc5F)c5ccc([nH]5)c(-c5c(F)cccc5F)c5nc(c(-c6c(F)cccc6F)c6ccc3[nH]6)C=C5)C=C4)cc2)CC[N@@H+]1C
REMARK SMILES IDX 14 1 12 2 13 3 11 4 10 5 9 6 8 7 7 8 5 9 6 10 4 12 1 13 2 14
REMARK SMILES IDX 3 15 76 16 75 17 77 18 74 20 15 21 16 22 17 23 18 24 19 25
REMARK SMILES IDX 20 26 21 27 73 28 22 29 72 30 23 31 24 32 25 33 66 34 26 35
REMARK SMILES IDX 71 36 65 37 67 38 27 39 70 40 64 41 63 42 28 44 54 45 37 46
REMARK SMILES IDX 53 47 38 48 41 49 52 50 68 51 39 52 40 53 51 55 69 56 42 57
REMARK SMILES IDX 29 58 30 59 35 60 31 61 32 62 34 63 36 64 33 65 55 66 56 67
REMARK SMILES IDX 61 68 57 69 58 70 60 71 62 72 59 73 43 74 44 75 49 76 45 77
REMARK SMILES IDX 46 78 48 79 50 80 47 81
REMARK H PARENT 7 11 76 19 67 43 41 54
REMARK Flexibility Score: inf
ROOT
ATOM      1  O   UNL A   1      32.978  34.807  28.623  1.00  0.00    -0.460 OA
ENDROOT
BRANCH   1   2
ATOM      2  C   UNL A   1      32.876  35.944  29.360  1.00  0.00     0.332 C 
ATOM      3  O   UNL A   1      32.860  37.078  28.886  1.00  0.00    -0.250 OA
BRANCH   2   4
ATOM      4  C   UNL A   1      32.706  35.690  30.869  1.00  0.00     0.282 C 
BRANCH   4   5
ATOM      5  O   UNL A   1      32.151  36.627  31.767  1.00  0.00    -0.368 OA
BRANCH   5   6
ATOM      6  C   UNL A   1      32.987  37.037  32.856  1.00  0.00     0.182 C 
BRANCH   6   7
ATOM      7  C   UNL A   1      34.394  36.412  32.866  1.00  0.00     0.146 C 
BRANCH   7   8
ATOM      8  N   UNL A   1      34.602  35.333  33.807  1.00  0.00    -0.336 N 
ATOM      9  C   UNL A   1      35.232  34.147  33.729  1.00  0.00     0.317 C 
ATOM     10  O   UNL A   1      35.190  33.442  34.718  1.00  0.00    -0.249 OA
ATOM     11  H   UNL A   1      34.199  35.501  34.688  1.00  0.00     0.165 HD
BRANCH   9  12
ATOM     12  N   UNL A   1      35.951  33.758  32.639  1.00  0.00    -0.313 N 
ATOM     13  C   UNL A   1      39.615  34.238  33.455  1.00  0.00     0.077 C 
ATOM     14  C   UNL A   1      38.271  33.516  33.446  1.00  0.00     0.200 C 
ATOM     15  C   UNL A   1      37.292  34.299  32.514  1.00  0.00     0.186 C 
ATOM     16  N   UNL A   1      38.332  32.084  33.035  1.00  0.00    -0.332 N 
ATOM     17  C   UNL A   1      36.965  31.507  33.147  1.00  0.00     0.284 C 
ATOM     18  C   UNL A   1      39.270  31.292  33.833  1.00  0.00     0.333 C 
ATOM     19  H   UNL A   1      38.673  32.051  32.074  1.00  0.00     0.348 HD
ATOM     20  C   UNL A   1      35.923  32.317  32.330  1.00  0.00     0.183 C 
ENDBRANCH   9  12
ENDBRANCH   7   8
ENDBRANCH   6   7
ENDBRANCH   5   6
ENDBRANCH   4   5
ENDBRANCH   2   4
ENDBRANCH   1   2
BRANCH   1  21
ATOM     21  C   UNL A   1      34.298  34.228  28.528  1.00  0.00     0.274 C 
BRANCH  21  22
ATOM     22  C   UNL A   1      34.340  32.800  29.091  1.00  0.00     0.275 C 
BRANCH  22  23
ATOM     23  O   UNL A   1      35.574  32.112  28.769  1.00  0.00    -0.458 OA
BRANCH  23  24
ATOM     24  C   UNL A   1      35.377  30.833  28.393  1.00  0.00     0.338 C 
ATOM     25  O   UNL A   1      34.314  30.377  27.983  1.00  0.00    -0.246 OA
BRANCH  24  26
ATOM     26  C   UNL A   1      36.552  29.957  28.469  1.00  0.00     0.060 A 
ATOM     27  C   UNL A   1      37.096  29.715  29.737  1.00  0.00     0.016 A 
ATOM     28  C   UNL A   1      37.332  29.793  27.322  1.00  0.00     0.016 A 
ATOM     29  C   UNL A   1      38.461  29.445  29.868  1.00  0.00     0.010 A 
ATOM     30  C   UNL A   1      38.698  29.507  27.455  1.00  0.00     0.010 A 
ATOM     31  C   UNL A   1      39.288  29.398  28.729  1.00  0.00    -0.014 A 
BRANCH  31  32
ATOM     32  C   UNL A   1      40.715  29.022  28.854  1.00  0.00     0.031 A 
ATOM     33  C   UNL A   1      41.856  29.971  29.109  1.00  0.00     0.074 A 
ATOM     34  C   UNL A   1      40.962  27.719  28.665  1.00  0.00     0.049 A 
ATOM     35  N   UNL A   1      43.117  29.868  28.756  1.00  0.00    -0.248 NA
ATOM     36  C   UNL A   1      41.574  31.183  29.877  1.00  0.00     0.031 C 
ATOM     37  C   UNL A   1      39.930  26.692  28.508  1.00  0.00     0.029 A 
ATOM     38  N   UNL A   1      42.142  27.048  28.546  1.00  0.00    -0.354 N 
ATOM     39  C   UNL A   1      43.733  31.064  29.138  1.00  0.00     0.074 A 
ATOM     40  C   UNL A   1      42.723  31.846  29.808  1.00  0.00     0.031 C 
ATOM     41  C   UNL A   1      40.522  25.518  28.280  1.00  0.00     0.029 A 
ATOM     42  C   UNL A   1      41.959  25.739  28.194  1.00  0.00     0.049 A 
ATOM     43  H   UNL A   1      43.024  27.458  28.693  1.00  0.00     0.167 HD
ATOM     44  C   UNL A   1      45.025  31.442  28.948  1.00  0.00     0.037 A 
ATOM     45  C   UNL A   1      42.848  24.827  27.779  1.00  0.00     0.037 A 
ATOM     46  C   UNL A   1      46.053  30.511  28.537  1.00  0.00     0.049 A 
ATOM     47  C   UNL A   1      44.285  25.215  27.712  1.00  0.00     0.074 A 
ATOM     48  C   UNL A   1      47.417  30.722  28.416  1.00  0.00     0.029 A 
ATOM     49  N   UNL A   1      45.833  29.167  28.269  1.00  0.00    -0.354 N 
ATOM     50  N   UNL A   1      44.828  26.397  27.879  1.00  0.00    -0.248 NA
ATOM     51  C   UNL A   1      45.236  24.140  27.429  1.00  0.00     0.031 C 
ATOM     52  C   UNL A   1      48.019  29.506  28.075  1.00  0.00     0.029 A 
ATOM     53  C   UNL A   1      47.037  28.531  28.021  1.00  0.00     0.049 A 
ATOM     54  H   UNL A   1      44.950  28.731  28.258  1.00  0.00     0.167 HD
ATOM     55  C   UNL A   1      46.192  26.209  27.731  1.00  0.00     0.074 A 
ATOM     56  C   UNL A   1      46.389  24.790  27.493  1.00  0.00     0.031 C 
ATOM     57  C   UNL A   1      47.193  27.120  27.780  1.00  0.00     0.037 A 
BRANCH  44  58
ATOM     58  C   UNL A   1      45.447  32.879  29.170  1.00  0.00     0.057 A 
ATOM     59  C   UNL A   1      46.053  33.343  30.343  1.00  0.00     0.134 A 
ATOM     60  C   UNL A   1      45.372  33.791  28.101  1.00  0.00     0.134 A 
ATOM     61  F   UNL A   1      46.183  32.541  31.409  1.00  0.00    -0.206 F 
ATOM     62  C   UNL A   1      46.553  34.649  30.448  1.00  0.00     0.040 A 
ATOM     63  C   UNL A   1      45.901  35.084  28.180  1.00  0.00     0.040 A 
ATOM     64  F   UNL A   1      44.823  33.425  26.931  1.00  0.00    -0.206 F 
ATOM     65  C   UNL A   1      46.494  35.517  29.360  1.00  0.00     0.006 A 
ENDBRANCH  44  58
BRANCH  45  66
ATOM     66  C   UNL A   1      42.351  23.483  27.430  1.00  0.00     0.057 A 
ATOM     67  C   UNL A   1      42.152  23.128  26.095  1.00  0.00     0.134 A 
ATOM     68  C   UNL A   1      42.226  22.480  28.402  1.00  0.00     0.134 A 
ATOM     69  F   UNL A   1      42.275  24.048  25.127  1.00  0.00    -0.206 F 
ATOM     70  C   UNL A   1      41.845  21.818  25.731  1.00  0.00     0.040 A 
ATOM     71  C   UNL A   1      41.948  21.160  28.049  1.00  0.00     0.040 A 
ATOM     72  F   UNL A   1      42.452  22.756  29.695  1.00  0.00    -0.206 F 
ATOM     73  C   UNL A   1      41.756  20.829  26.710  1.00  0.00     0.006 A 
ENDBRANCH  45  66
BRANCH  57  74
ATOM     74  C   UNL A   1      48.578  26.588  27.591  1.00  0.00     0.057 A 
ATOM     75  C   UNL A   1      49.152  26.483  26.318  1.00  0.00     0.134 A 
ATOM     76  C   UNL A   1      49.335  26.159  28.687  1.00  0.00     0.134 A 
ATOM     77  F   UNL A   1      48.466  26.866  25.230  1.00  0.00    -0.206 F 
ATOM     78  C   UNL A   1      50.419  25.931  26.137  1.00  0.00     0.040 A 
ATOM     79  C   UNL A   1      50.614  25.628  28.521  1.00  0.00     0.040 A 
ATOM     80  F   UNL A   1      48.842  26.242  29.932  1.00  0.00    -0.206 F 
ATOM     81  C   UNL A   1      51.154  25.503  27.242  1.00  0.00     0.006 A 
ENDBRANCH  57  74
ENDBRANCH  31  32
ENDBRANCH  24  26
ENDBRANCH  23  24
ENDBRANCH  22  23
ENDBRANCH  21  22
ENDBRANCH   1  21
TORSDOF 16
ENDMDL
MODEL 3
REMARK VINA RESULT:      -9.8      6.283      8.929
REMARK SMILES C[C@H]1CN(C(=O)NCCOCC(=O)OCCOC(=O)c2ccc(-c3c4nc(c(-c5c(F)cccc5F)c5ccc([nH]5)c(-c5c(F)cccc5F)c5nc(c(-c6c(F)cccc6F)c6ccc3[nH]6)C=C5)C=C4)cc2)CC[N@@H+]1C
REMARK SMILES IDX 14 1 12 2 13 3 11 4 10 5 9 6 8 7 7 8 5 9 6 10 4 12 1 13 2 14
REMARK SMILES IDX 3 15 76 16 75 17 77 18 74 20 15 21 16 22 17 23 18 24 19 25
REMARK SMILES IDX 20 26 21 27 73 28 22 29 72 30 23 31 24 32 25 33 66 34 26 35
REMARK SMILES IDX 71 36 65 37 67 38 27 39 70 40 64 41 63 42 28 44 54 45 37 46
REMARK SMILES IDX 53 47 38 48 41 49 52 50 68 51 39 52 40 53 51 55 69 56 42 57
REMARK SMILES IDX 29 58 30 59 35 60 31 61 32 62 34 63 36 64 33 65 55 66 56 67
REMARK SMILES IDX 61 68 57 69 58 70 60 71 62 72 59 73 43 74 44 75 49 76 45 77
REMARK SMILES IDX 46 78 48 79 50 80 47 81
REMARK H PARENT 7 11 76 19 67 43 41 54
REMARK Flexibility Score: inf
ROOT
ATOM      1  O   UNL A   1      36.517  21.103  25.749  1.00  0.00    -0.460 OA
ENDROOT
BRANCH   1   2
ATOM      2  C   UNL A   1      35.451  21.737  25.194  1.00  0.00     0.332 C 
ATOM      3  O   UNL A   1      35.485  22.345  24.126  1.00  0.00    -0.250 OA
BRANCH   2   4
ATOM      4  C   UNL A   1      34.147  21.572  25.995  1.00  0.00     0.282 C 
BRANCH   4   5
ATOM      5  O   UNL A   1      32.993  22.359  25.792  1.00  0.00    -0.368 OA
BRANCH   5   6
ATOM      6  C   UNL A   1      33.048  23.705  26.282  1.00  0.00     0.182 C 
BRANCH   6   7
ATOM      7  C   UNL A   1      31.975  24.649  25.712  1.00  0.00     0.146 C 
BRANCH   7   8
ATOM      8  N   UNL A   1      31.463  25.651  26.623  1.00  0.00    -0.336 N 
ATOM      9  C   UNL A   1      31.553  26.992  26.668  1.00  0.00     0.317 C 
ATOM     10  O   UNL A   1      31.022  27.542  27.613  1.00  0.00    -0.249 OA
ATOM     11  H   UNL A   1      30.939  25.271  27.363  1.00  0.00     0.165 HD
BRANCH   9  12
ATOM     12  N   UNL A   1      32.139  27.730  25.685  1.00  0.00    -0.313 N 
ATOM     13  C   UNL A   1      31.576  31.381  26.506  1.00  0.00     0.077 C 
ATOM     14  C   UNL A   1      32.268  30.024  26.588  1.00  0.00     0.200 C 
ATOM     15  C   UNL A   1      31.649  29.084  25.504  1.00  0.00     0.186 C 
ATOM     16  N   UNL A   1      33.751  30.068  26.437  1.00  0.00    -0.332 N 
ATOM     17  C   UNL A   1      34.279  28.688  26.610  1.00  0.00     0.284 C 
ATOM     18  C   UNL A   1      34.403  30.969  27.389  1.00  0.00     0.333 C 
ATOM     19  H   UNL A   1      33.959  30.432  25.507  1.00  0.00     0.348 HD
ATOM     20  C   UNL A   1      33.611  27.682  25.634  1.00  0.00     0.183 C 
ENDBRANCH   9  12
ENDBRANCH   7   8
ENDBRANCH   6   7
ENDBRANCH   5   6
ENDBRANCH   4   5
ENDBRANCH   2   4
ENDBRANCH   1   2
BRANCH   1  21
ATOM     21  C   UNL A   1      37.780  21.267  25.067  1.00  0.00     0.274 C 
BRANCH  21  22
ATOM     22  C   UNL A   1      38.862  21.839  25.995  1.00  0.00     0.275 C 
BRANCH  22  23
ATOM     23  O   UNL A   1      38.648  23.239  26.301  1.00  0.00    -0.458 OA
BRANCH  23  24
ATOM     24  C   UNL A   1      39.781  23.878  26.651  1.00  0.00     0.338 C 
ATOM     25  O   UNL A   1      40.916  23.448  26.464  1.00  0.00    -0.246 OA
BRANCH  24  26
ATOM     26  C   UNL A   1      39.606  25.194  27.276  1.00  0.00     0.060 A 
ATOM     27  C   UNL A   1      40.549  26.184  26.971  1.00  0.00     0.016 A 
ATOM     28  C   UNL A   1      38.847  25.276  28.446  1.00  0.00     0.016 A 
ATOM     29  C   UNL A   1      40.832  27.184  27.905  1.00  0.00     0.010 A 
ATOM     30  C   UNL A   1      39.123  26.289  29.375  1.00  0.00     0.010 A 
ATOM     31  C   UNL A   1      40.164  27.210  29.144  1.00  0.00    -0.014 A 
BRANCH  31  32
ATOM     32  C   UNL A   1      40.395  28.320  30.098  1.00  0.00     0.031 A 
ATOM     33  C   UNL A   1      41.409  28.326  31.210  1.00  0.00     0.074 A 
ATOM     34  C   UNL A   1      39.569  29.363  29.943  1.00  0.00     0.049 A 
ATOM     35  N   UNL A   1      41.378  28.963  32.359  1.00  0.00    -0.248 NA
ATOM     36  C   UNL A   1      42.631  27.546  31.021  1.00  0.00     0.031 C 
ATOM     37  C   UNL A   1      38.615  29.511  28.842  1.00  0.00     0.029 A 
ATOM     38  N   UNL A   1      39.381  30.468  30.718  1.00  0.00    -0.354 N 
ATOM     39  C   UNL A   1      42.504  28.543  33.073  1.00  0.00     0.074 A 
ATOM     40  C   UNL A   1      43.231  27.652  32.202  1.00  0.00     0.031 C 
ATOM     41  C   UNL A   1      37.913  30.632  29.028  1.00  0.00     0.029 A 
ATOM     42  C   UNL A   1      38.319  31.220  30.297  1.00  0.00     0.049 A 
ATOM     43  H   UNL A   1      39.943  30.697  31.493  1.00  0.00     0.167 HD
ATOM     44  C   UNL A   1      42.882  28.896  34.331  1.00  0.00     0.037 A 
ATOM     45  C   UNL A   1      37.691  32.237  30.902  1.00  0.00     0.037 A 
ATOM     46  C   UNL A   1      42.280  30.005  35.039  1.00  0.00     0.049 A 
ATOM     47  C   UNL A   1      38.206  32.707  32.218  1.00  0.00     0.074 A 
ATOM     48  C   UNL A   1      42.633  30.548  36.264  1.00  0.00     0.029 A 
ATOM     49  N   UNL A   1      41.255  30.794  34.535  1.00  0.00    -0.354 N 
ATOM     50  N   UNL A   1      39.137  32.179  32.976  1.00  0.00    -0.248 NA
ATOM     51  C   UNL A   1      37.604  33.930  32.753  1.00  0.00     0.031 C 
ATOM     52  C   UNL A   1      41.823  31.664  36.498  1.00  0.00     0.029 A 
ATOM     53  C   UNL A   1      40.991  31.838  35.404  1.00  0.00     0.049 A 
ATOM     54  H   UNL A   1      40.786  30.634  33.685  1.00  0.00     0.167 HD
ATOM     55  C   UNL A   1      39.244  33.012  34.076  1.00  0.00     0.074 A 
ATOM     56  C   UNL A   1      38.303  34.096  33.866  1.00  0.00     0.031 C 
ATOM     57  C   UNL A   1      40.041  32.893  35.166  1.00  0.00     0.037 A 
BRANCH  44  58
ATOM     58  C   UNL A   1      43.971  28.131  35.051  1.00  0.00     0.057 A 
ATOM     59  C   UNL A   1      45.314  28.525  35.082  1.00  0.00     0.134 A 
ATOM     60  C   UNL A   1      43.621  27.038  35.866  1.00  0.00     0.134 A 
ATOM     61  F   UNL A   1      45.737  29.566  34.350  1.00  0.00    -0.206 F 
ATOM     62  C   UNL A   1      46.260  27.862  35.876  1.00  0.00     0.040 A 
ATOM     63  C   UNL A   1      44.548  26.393  36.692  1.00  0.00     0.040 A 
ATOM     64  F   UNL A   1      42.352  26.603  35.913  1.00  0.00    -0.206 F 
ATOM     65  C   UNL A   1      45.875  26.805  36.698  1.00  0.00     0.006 A 
ENDBRANCH  44  58
BRANCH  45  66
ATOM     66  C   UNL A   1      36.535  32.845  30.215  1.00  0.00     0.057 A 
ATOM     67  C   UNL A   1      35.239  32.618  30.680  1.00  0.00     0.134 A 
ATOM     68  C   UNL A   1      36.711  33.790  29.195  1.00  0.00     0.134 A 
ATOM     69  F   UNL A   1      35.020  31.735  31.666  1.00  0.00    -0.206 F 
ATOM     70  C   UNL A   1      34.149  33.310  30.155  1.00  0.00     0.040 A 
ATOM     71  C   UNL A   1      35.635  34.511  28.682  1.00  0.00     0.040 A 
ATOM     72  F   UNL A   1      37.941  34.080  28.743  1.00  0.00    -0.206 F 
ATOM     73  C   UNL A   1      34.349  34.269  29.162  1.00  0.00     0.006 A 
ENDBRANCH  45  66
BRANCH  57  74
ATOM     74  C   UNL A   1      39.926  33.980  36.187  1.00  0.00     0.057 A 
ATOM     75  C   UNL A   1      39.055  33.869  37.277  1.00  0.00     0.134 A 
ATOM     76  C   UNL A   1      40.678  35.155  36.068  1.00  0.00     0.134 A 
ATOM     77  F   UNL A   1      38.298  32.771  37.432  1.00  0.00    -0.206 F 
ATOM     78  C   UNL A   1      38.904  34.908  38.194  1.00  0.00     0.040 A 
ATOM     79  C   UNL A   1      40.554  36.191  36.994  1.00  0.00     0.040 A 
ATOM     80  F   UNL A   1      41.536  35.317  35.049  1.00  0.00    -0.206 F 
ATOM     81  C   UNL A   1      39.657  36.072  38.054  1.00  0.00     0.006 A 
ENDBRANCH  57  74
ENDBRANCH  31  32
ENDBRANCH  24  26
ENDBRANCH  23  24
ENDBRANCH  22  23
ENDBRANCH  21  22
ENDBRANCH   1  21
TORSDOF 16
ENDMDL
