MODEL 1
REMARK VINA RESULT:     -12.5      0.000      0.000
REMARK SMILES O=C(OCCOC(=O)c1cc2c(c(S(=O)(=O)Nc3cc(C(F)(F)F)ccc3-n3cccn3)c1)CCC2)c1ccc(-c2c3nc(c(-c4c(F)cccc4F)c4ccc([nH]4)c(-c4c(F)cccc4F)c4nc(c(-c5c(F)cccc5F)c5ccc2[nH]5)C=C4)C=C3)cc1
REMARK SMILES IDX 5 1 4 2 3 3 2 4 1 5 37 6 38 7 90 8 39 9 89 10 40 11 41 12
REMARK SMILES IDX 42 13 83 14 43 15 88 16 82 17 84 18 44 19 87 20 81 21 80 22
REMARK SMILES IDX 45 24 71 25 54 26 70 27 55 28 58 29 69 30 85 31 56 32 57 33
REMARK SMILES IDX 68 35 86 36 59 37 46 38 47 39 52 40 48 41 49 42 51 43 53 44
REMARK SMILES IDX 50 45 72 46 73 47 78 48 74 49 75 50 77 51 79 52 76 53 60 54
REMARK SMILES IDX 61 55 66 56 62 57 63 58 65 59 67 60 64 61 6 62 7 63 8 64
REMARK SMILES IDX 9 65 10 66 33 67 11 68 13 69 12 70 36 71 34 72 35 73 14 74
REMARK SMILES IDX 15 75 16 76 17 77 18 79 19 80 27 81 20 82 26 83 25 84 28 85
REMARK SMILES IDX 29 86 32 87 30 88 31 89 21 90 22 91 23 92 24 93
REMARK H PARENT 84 23 58 34 17 78
REMARK Flexibility Score: inf
ROOT
ATOM      1  C   UNL A   1      32.802  30.204  27.025  1.00  0.00     0.275 C 
ENDROOT
BRANCH   1   2
ATOM      2  C   UNL A   1      34.301  30.082  27.305  1.00  0.00     0.275 C 
BRANCH   2   3
ATOM      3  O   UNL A   1      35.012  31.279  27.681  1.00  0.00    -0.458 OA
BRANCH   3   4
ATOM      4  C   UNL A   1      35.388  31.432  28.970  1.00  0.00     0.338 C 
ATOM      5  O   UNL A   1      34.709  31.966  29.829  1.00  0.00    -0.246 OA
BRANCH   4   6
ATOM      6  C   UNL A   1      36.649  30.706  29.255  1.00  0.00     0.060 A 
ATOM      7  C   UNL A   1      37.899  31.222  28.895  1.00  0.00     0.016 A 
ATOM      8  C   UNL A   1      36.564  29.474  29.912  1.00  0.00     0.016 A 
ATOM      9  C   UNL A   1      39.050  30.480  29.113  1.00  0.00     0.010 A 
ATOM     10  C   UNL A   1      37.721  28.739  30.149  1.00  0.00     0.010 A 
ATOM     11  C   UNL A   1      38.959  29.218  29.703  1.00  0.00    -0.014 A 
BRANCH  11  12
ATOM     12  C   UNL A   1      40.195  28.447  29.854  1.00  0.00     0.031 A 
ATOM     13  C   UNL A   1      40.845  28.419  31.207  1.00  0.00     0.074 A 
ATOM     14  C   UNL A   1      40.656  27.654  28.864  1.00  0.00     0.049 A 
ATOM     15  N   UNL A   1      42.100  28.485  31.527  1.00  0.00    -0.248 NA
ATOM     16  C   UNL A   1      39.962  28.285  32.370  1.00  0.00     0.031 C 
ATOM     17  C   UNL A   1      40.021  27.341  27.579  1.00  0.00     0.029 A 
ATOM     18  N   UNL A   1      41.767  26.864  28.859  1.00  0.00    -0.354 N 
ATOM     19  C   UNL A   1      42.168  28.223  32.899  1.00  0.00     0.074 A 
ATOM     20  C   UNL A   1      40.819  28.101  33.372  1.00  0.00     0.031 C 
ATOM     21  C   UNL A   1      40.641  26.278  27.024  1.00  0.00     0.029 A 
ATOM     22  C   UNL A   1      41.788  25.924  27.843  1.00  0.00     0.049 A 
ATOM     23  H   UNL A   1      42.491  26.954  29.520  1.00  0.00     0.167 HD
ATOM     24  C   UNL A   1      43.336  28.027  33.569  1.00  0.00     0.037 A 
ATOM     25  C   UNL A   1      42.648  24.889  27.709  1.00  0.00     0.037 A 
ATOM     26  C   UNL A   1      44.438  28.669  32.918  1.00  0.00     0.049 A 
ATOM     27  C   UNL A   1      43.832  25.164  28.554  1.00  0.00     0.074 A 
ATOM     28  C   UNL A   1      44.717  29.978  32.577  1.00  0.00     0.029 A 
ATOM     29  N   UNL A   1      45.334  27.911  32.211  1.00  0.00    -0.354 N 
ATOM     30  N   UNL A   1      44.716  26.090  28.309  1.00  0.00    -0.248 NA
ATOM     31  C   UNL A   1      43.832  24.645  29.913  1.00  0.00     0.031 C 
ATOM     32  C   UNL A   1      45.365  29.893  31.312  1.00  0.00     0.029 A 
ATOM     33  C   UNL A   1      45.468  28.538  30.998  1.00  0.00     0.049 A 
ATOM     34  H   UNL A   1      45.787  27.090  32.510  1.00  0.00     0.167 HD
ATOM     35  C   UNL A   1      45.093  26.559  29.557  1.00  0.00     0.074 A 
ATOM     36  C   UNL A   1      44.599  25.562  30.504  1.00  0.00     0.031 C 
ATOM     37  C   UNL A   1      45.531  27.840  29.737  1.00  0.00     0.037 A 
BRANCH  24  38
ATOM     38  C   UNL A   1      43.505  27.049  34.699  1.00  0.00     0.057 A 
ATOM     39  C   UNL A   1      43.523  25.666  34.443  1.00  0.00     0.134 A 
ATOM     40  C   UNL A   1      43.360  27.411  36.054  1.00  0.00     0.134 A 
ATOM     41  F   UNL A   1      43.639  25.200  33.191  1.00  0.00    -0.206 F 
ATOM     42  C   UNL A   1      43.349  24.714  35.456  1.00  0.00     0.040 A 
ATOM     43  C   UNL A   1      43.224  26.467  37.077  1.00  0.00     0.040 A 
ATOM     44  F   UNL A   1      43.253  28.690  36.436  1.00  0.00    -0.206 F 
ATOM     45  C   UNL A   1      43.189  25.113  36.776  1.00  0.00     0.006 A 
ENDBRANCH  24  38
BRANCH  25  46
ATOM     46  C   UNL A   1      42.408  23.570  27.088  1.00  0.00     0.057 A 
ATOM     47  C   UNL A   1      42.957  23.239  25.844  1.00  0.00     0.134 A 
ATOM     48  C   UNL A   1      41.837  22.510  27.817  1.00  0.00     0.134 A 
ATOM     49  F   UNL A   1      43.564  24.172  25.097  1.00  0.00    -0.206 F 
ATOM     50  C   UNL A   1      42.947  21.927  25.354  1.00  0.00     0.040 A 
ATOM     51  C   UNL A   1      41.811  21.199  27.334  1.00  0.00     0.040 A 
ATOM     52  F   UNL A   1      41.361  22.698  29.056  1.00  0.00    -0.206 F 
ATOM     53  C   UNL A   1      42.379  20.901  26.103  1.00  0.00     0.006 A 
ENDBRANCH  25  46
BRANCH  37  54
ATOM     54  C   UNL A   1      45.810  28.674  28.519  1.00  0.00     0.057 A 
ATOM     55  C   UNL A   1      44.836  29.443  27.863  1.00  0.00     0.134 A 
ATOM     56  C   UNL A   1      47.134  28.845  28.098  1.00  0.00     0.134 A 
ATOM     57  F   UNL A   1      43.560  29.440  28.268  1.00  0.00    -0.206 F 
ATOM     58  C   UNL A   1      45.157  30.299  26.806  1.00  0.00     0.040 A 
ATOM     59  C   UNL A   1      47.473  29.724  27.067  1.00  0.00     0.040 A 
ATOM     60  F   UNL A   1      48.131  28.198  28.723  1.00  0.00    -0.206 F 
ATOM     61  C   UNL A   1      46.481  30.446  26.408  1.00  0.00     0.006 A 
ENDBRANCH  37  54
ENDBRANCH  11  12
ENDBRANCH   4   6
ENDBRANCH   3   4
ENDBRANCH   2   3
ENDBRANCH   1   2
BRANCH   1  62
ATOM     62  O   UNL A   1      32.346  29.138  26.167  1.00  0.00    -0.458 OA
BRANCH  62  63
ATOM     63  C   UNL A   1      31.782  28.066  26.790  1.00  0.00     0.338 C 
ATOM     64  O   UNL A   1      31.133  28.050  27.818  1.00  0.00    -0.246 OA
BRANCH  63  65
ATOM     65  C   UNL A   1      32.142  26.852  26.034  1.00  0.00     0.061 A 
ATOM     66  C   UNL A   1      32.743  27.040  24.794  1.00  0.00     0.019 A 
ATOM     67  C   UNL A   1      31.914  25.556  26.551  1.00  0.00     0.038 A 
ATOM     68  C   UNL A   1      33.051  25.915  24.061  1.00  0.00    -0.043 A 
ATOM     69  C   UNL A   1      32.213  24.402  25.784  1.00  0.00     0.092 A 
ATOM     70  C   UNL A   1      32.723  24.612  24.505  1.00  0.00    -0.024 A 
ATOM     71  C   UNL A   1      33.721  25.897  22.718  1.00  0.00     0.036 C 
ATOM     72  C   UNL A   1      32.962  23.689  23.352  1.00  0.00     0.037 C 
ATOM     73  C   UNL A   1      34.099  24.420  22.632  1.00  0.00     0.010 C 
BRANCH  69  74
ATOM     74  S   UNL A   1      31.696  22.804  26.410  1.00  0.00     0.262 S 
ATOM     75  O   UNL A   1      30.942  23.044  27.625  1.00  0.00    -0.201 OA
ATOM     76  O   UNL A   1      31.070  22.088  25.321  1.00  0.00    -0.201 OA
BRANCH  74  77
ATOM     77  N   UNL A   1      32.965  21.775  26.894  1.00  0.00    -0.277 N 
ATOM     78  H   UNL A   1      32.857  21.242  27.715  1.00  0.00     0.180 HD
BRANCH  77  79
ATOM     79  C   UNL A   1      34.183  21.657  26.151  1.00  0.00     0.075 A 
ATOM     80  C   UNL A   1      35.199  22.612  26.349  1.00  0.00     0.042 A 
ATOM     81  C   UNL A   1      34.421  20.559  25.315  1.00  0.00     0.089 A 
ATOM     82  C   UNL A   1      36.471  22.447  25.764  1.00  0.00     0.058 A 
ATOM     83  C   UNL A   1      35.680  20.399  24.717  1.00  0.00     0.031 A 
ATOM     84  C   UNL A   1      36.692  21.340  24.933  1.00  0.00     0.015 A 
BRANCH  81  85
ATOM     85  N   UNL A   1      33.428  19.571  25.097  1.00  0.00    -0.239 N 
ATOM     86  C   UNL A   1      33.064  18.531  25.926  1.00  0.00     0.115 A 
ATOM     87  N   UNL A   1      32.791  19.491  23.903  1.00  0.00    -0.177 NA
ATOM     88  C   UNL A   1      32.342  17.647  25.166  1.00  0.00     0.042 A 
ATOM     89  C   UNL A   1      32.223  18.281  23.921  1.00  0.00     0.135 A 
ENDBRANCH  81  85
BRANCH  82  90
ATOM     90  C   UNL A   1      37.594  23.407  26.091  1.00  0.00     0.416 C 
ATOM     91  F   UNL A   1      37.944  24.187  25.035  1.00  0.00    -0.166 F 
ATOM     92  F   UNL A   1      37.261  24.263  27.098  1.00  0.00    -0.166 F 
ATOM     93  F   UNL A   1      38.737  22.788  26.500  1.00  0.00    -0.166 F 
ENDBRANCH  82  90
ENDBRANCH  77  79
ENDBRANCH  74  77
ENDBRANCH  69  74
ENDBRANCH  63  65
ENDBRANCH  62  63
ENDBRANCH   1  62
TORSDOF 16
ENDMDL
MODEL 2
REMARK VINA RESULT:     -12.4      3.737      8.353
REMARK SMILES O=C(OCCOC(=O)c1cc2c(c(S(=O)(=O)Nc3cc(C(F)(F)F)ccc3-n3cccn3)c1)CCC2)c1ccc(-c2c3nc(c(-c4c(F)cccc4F)c4ccc([nH]4)c(-c4c(F)cccc4F)c4nc(c(-c5c(F)cccc5F)c5ccc2[nH]5)C=C4)C=C3)cc1
REMARK SMILES IDX 5 1 4 2 3 3 2 4 1 5 37 6 38 7 90 8 39 9 89 10 40 11 41 12
REMARK SMILES IDX 42 13 83 14 43 15 88 16 82 17 84 18 44 19 87 20 81 21 80 22
REMARK SMILES IDX 45 24 71 25 54 26 70 27 55 28 58 29 69 30 85 31 56 32 57 33
REMARK SMILES IDX 68 35 86 36 59 37 46 38 47 39 52 40 48 41 49 42 51 43 53 44
REMARK SMILES IDX 50 45 72 46 73 47 78 48 74 49 75 50 77 51 79 52 76 53 60 54
REMARK SMILES IDX 61 55 66 56 62 57 63 58 65 59 67 60 64 61 6 62 7 63 8 64
REMARK SMILES IDX 9 65 10 66 33 67 11 68 13 69 12 70 36 71 34 72 35 73 14 74
REMARK SMILES IDX 15 75 16 76 17 77 18 79 19 80 27 81 20 82 26 83 25 84 28 85
REMARK SMILES IDX 29 86 32 87 30 88 31 89 21 90 22 91 23 92 24 93
REMARK H PARENT 84 23 58 34 17 78
REMARK Flexibility Score: inf
ROOT
ATOM      1  C   UNL A   1      36.926  21.070  24.866  1.00  0.00     0.275 C 
ENDROOT
BRANCH   1   2
ATOM      2  C   UNL A   1      38.345  21.141  25.436  1.00  0.00     0.275 C 
BRANCH   2   3
ATOM      3  O   UNL A   1      38.705  22.317  26.189  1.00  0.00    -0.458 OA
BRANCH   3   4
ATOM      4  C   UNL A   1      39.991  22.470  26.575  1.00  0.00     0.338 C 
ATOM      5  O   UNL A   1      40.876  21.659  26.366  1.00  0.00    -0.246 OA
BRANCH   4   6
ATOM      6  C   UNL A   1      40.235  23.827  27.119  1.00  0.00     0.060 A 
ATOM      7  C   UNL A   1      41.288  24.093  28.003  1.00  0.00     0.016 A 
ATOM      8  C   UNL A   1      39.381  24.860  26.720  1.00  0.00     0.016 A 
ATOM      9  C   UNL A   1      41.440  25.358  28.548  1.00  0.00     0.010 A 
ATOM     10  C   UNL A   1      39.546  26.135  27.252  1.00  0.00     0.010 A 
ATOM     11  C   UNL A   1      40.543  26.372  28.206  1.00  0.00    -0.014 A 
BRANCH  11  12
ATOM     12  C   UNL A   1      40.707  27.674  28.856  1.00  0.00     0.031 A 
ATOM     13  C   UNL A   1      41.812  28.567  28.371  1.00  0.00     0.074 A 
ATOM     14  C   UNL A   1      39.805  28.134  29.748  1.00  0.00     0.049 A 
ATOM     15  N   UNL A   1      42.629  29.319  29.044  1.00  0.00    -0.248 NA
ATOM     16  C   UNL A   1      42.026  28.641  26.923  1.00  0.00     0.031 C 
ATOM     17  C   UNL A   1      38.529  27.530  30.145  1.00  0.00     0.029 A 
ATOM     18  N   UNL A   1      39.805  29.322  30.416  1.00  0.00    -0.354 N 
ATOM     19  C   UNL A   1      43.325  30.081  28.101  1.00  0.00     0.074 A 
ATOM     20  C   UNL A   1      42.912  29.627  26.804  1.00  0.00     0.031 C 
ATOM     21  C   UNL A   1      37.791  28.445  30.807  1.00  0.00     0.029 A 
ATOM     22  C   UNL A   1      38.589  29.645  30.995  1.00  0.00     0.049 A 
ATOM     23  H   UNL A   1      40.599  29.900  30.482  1.00  0.00     0.167 HD
ATOM     24  C   UNL A   1      44.145  31.116  28.431  1.00  0.00     0.037 A 
ATOM     25  C   UNL A   1      38.236  30.832  31.539  1.00  0.00     0.037 A 
ATOM     26  C   UNL A   1      44.672  30.979  29.755  1.00  0.00     0.049 A 
ATOM     27  C   UNL A   1      39.474  31.590  31.829  1.00  0.00     0.074 A 
ATOM     28  C   UNL A   1      45.439  30.016  30.384  1.00  0.00     0.029 A 
ATOM     29  N   UNL A   1      44.165  31.755  30.763  1.00  0.00    -0.354 N 
ATOM     30  N   UNL A   1      40.330  31.279  32.760  1.00  0.00    -0.248 NA
ATOM     31  C   UNL A   1      39.965  32.503  30.808  1.00  0.00     0.031 C 
ATOM     32  C   UNL A   1      44.913  29.941  31.705  1.00  0.00     0.029 A 
ATOM     33  C   UNL A   1      43.894  30.891  31.793  1.00  0.00     0.049 A 
ATOM     34  H   UNL A   1      44.026  32.730  30.752  1.00  0.00     0.167 HD
ATOM     35  C   UNL A   1      41.566  31.614  32.230  1.00  0.00     0.074 A 
ATOM     36  C   UNL A   1      41.271  32.458  31.076  1.00  0.00     0.031 C 
ATOM     37  C   UNL A   1      42.705  30.960  32.607  1.00  0.00     0.037 A 
BRANCH  24  38
ATOM     38  C   UNL A   1      44.279  32.376  27.619  1.00  0.00     0.057 A 
ATOM     39  C   UNL A   1      45.304  32.499  26.666  1.00  0.00     0.134 A 
ATOM     40  C   UNL A   1      43.613  33.574  27.950  1.00  0.00     0.134 A 
ATOM     41  F   UNL A   1      46.020  31.431  26.284  1.00  0.00    -0.206 F 
ATOM     42  C   UNL A   1      45.680  33.735  26.125  1.00  0.00     0.040 A 
ATOM     43  C   UNL A   1      43.956  34.807  27.387  1.00  0.00     0.040 A 
ATOM     44  F   UNL A   1      42.666  33.619  28.896  1.00  0.00    -0.206 F 
ATOM     45  C   UNL A   1      45.012  34.896  26.492  1.00  0.00     0.006 A 
ENDBRANCH  24  38
BRANCH  25  46
ATOM     46  C   UNL A   1      36.896  31.450  31.602  1.00  0.00     0.057 A 
ATOM     47  C   UNL A   1      36.358  31.904  32.812  1.00  0.00     0.134 A 
ATOM     48  C   UNL A   1      36.211  31.836  30.435  1.00  0.00     0.134 A 
ATOM     49  F   UNL A   1      36.966  31.626  33.975  1.00  0.00    -0.206 F 
ATOM     50  C   UNL A   1      35.210  32.704  32.861  1.00  0.00     0.040 A 
ATOM     51  C   UNL A   1      35.058  32.625  30.471  1.00  0.00     0.040 A 
ATOM     52  F   UNL A   1      36.686  31.531  29.220  1.00  0.00    -0.206 F 
ATOM     53  C   UNL A   1      34.560  33.073  31.687  1.00  0.00     0.006 A 
ENDBRANCH  25  46
BRANCH  37  54
ATOM     54  C   UNL A   1      42.632  30.016  33.773  1.00  0.00     0.057 A 
ATOM     55  C   UNL A   1      42.816  30.411  35.107  1.00  0.00     0.134 A 
ATOM     56  C   UNL A   1      42.190  28.704  33.561  1.00  0.00     0.134 A 
ATOM     57  F   UNL A   1      43.123  31.675  35.420  1.00  0.00    -0.206 F 
ATOM     58  C   UNL A   1      42.623  29.529  36.174  1.00  0.00     0.040 A 
ATOM     59  C   UNL A   1      41.958  27.824  34.621  1.00  0.00     0.040 A 
ATOM     60  F   UNL A   1      41.923  28.273  32.318  1.00  0.00    -0.206 F 
ATOM     61  C   UNL A   1      42.186  28.231  35.932  1.00  0.00     0.006 A 
ENDBRANCH  37  54
ENDBRANCH  11  12
ENDBRANCH   4   6
ENDBRANCH   3   4
ENDBRANCH   2   3
ENDBRANCH   1   2
BRANCH   1  62
ATOM     62  O   UNL A   1      36.252  22.338  24.995  1.00  0.00    -0.458 OA
BRANCH  62  63
ATOM     63  C   UNL A   1      35.933  22.970  23.830  1.00  0.00     0.338 C 
ATOM     64  O   UNL A   1      36.541  22.957  22.778  1.00  0.00    -0.246 OA
BRANCH  63  65
ATOM     65  C   UNL A   1      34.714  23.767  24.058  1.00  0.00     0.061 A 
ATOM     66  C   UNL A   1      34.024  23.536  25.243  1.00  0.00     0.019 A 
ATOM     67  C   UNL A   1      34.275  24.741  23.131  1.00  0.00     0.038 A 
ATOM     68  C   UNL A   1      32.863  24.248  25.451  1.00  0.00    -0.043 A 
ATOM     69  C   UNL A   1      33.068  25.455  23.339  1.00  0.00     0.092 A 
ATOM     70  C   UNL A   1      32.341  25.139  24.485  1.00  0.00    -0.024 A 
ATOM     71  C   UNL A   1      31.989  24.166  26.668  1.00  0.00     0.036 C 
ATOM     72  C   UNL A   1      30.964  25.511  24.937  1.00  0.00     0.037 C 
ATOM     73  C   UNL A   1      31.126  25.409  26.457  1.00  0.00     0.010 C 
BRANCH  69  74
ATOM     74  S   UNL A   1      32.463  26.509  22.023  1.00  0.00     0.262 S 
ATOM     75  O   UNL A   1      33.345  26.325  20.887  1.00  0.00    -0.201 OA
ATOM     76  O   UNL A   1      31.049  26.248  21.867  1.00  0.00    -0.201 OA
BRANCH  74  77
ATOM     77  N   UNL A   1      32.533  28.180  22.348  1.00  0.00    -0.277 N 
ATOM     78  H   UNL A   1      32.754  28.798  21.613  1.00  0.00     0.180 HD
BRANCH  77  79
ATOM     79  C   UNL A   1      32.281  28.719  23.650  1.00  0.00     0.075 A 
ATOM     80  C   UNL A   1      33.321  28.721  24.600  1.00  0.00     0.042 A 
ATOM     81  C   UNL A   1      31.062  29.336  23.959  1.00  0.00     0.089 A 
ATOM     82  C   UNL A   1      33.170  29.385  25.835  1.00  0.00     0.058 A 
ATOM     83  C   UNL A   1      30.902  29.983  25.194  1.00  0.00     0.031 A 
ATOM     84  C   UNL A   1      31.944  29.998  26.126  1.00  0.00     0.015 A 
BRANCH  81  85
ATOM     85  N   UNL A   1      29.995  29.364  23.027  1.00  0.00    -0.239 N 
ATOM     86  C   UNL A   1      29.784  30.259  21.999  1.00  0.00     0.115 A 
ATOM     87  N   UNL A   1      28.945  28.516  23.160  1.00  0.00    -0.177 NA
ATOM     88  C   UNL A   1      28.477  30.118  21.608  1.00  0.00     0.042 A 
ATOM     89  C   UNL A   1      28.002  29.044  22.372  1.00  0.00     0.135 A 
ENDBRANCH  81  85
BRANCH  82  90
ATOM     90  C   UNL A   1      34.338  29.495  26.792  1.00  0.00     0.416 C 
ATOM     91  F   UNL A   1      34.171  28.746  27.914  1.00  0.00    -0.166 F 
ATOM     92  F   UNL A   1      35.506  29.074  26.228  1.00  0.00    -0.166 F 
ATOM     93  F   UNL A   1      34.575  30.767  27.217  1.00  0.00    -0.166 F 
ENDBRANCH  82  90
ENDBRANCH  77  79
ENDBRANCH  74  77
ENDBRANCH  69  74
ENDBRANCH  63  65
ENDBRANCH  62  63
ENDBRANCH   1  62
TORSDOF 16
ENDMDL
MODEL 3
REMARK VINA RESULT:     -12.4      1.728      2.295
REMARK SMILES O=C(OCCOC(=O)c1cc2c(c(S(=O)(=O)Nc3cc(C(F)(F)F)ccc3-n3cccn3)c1)CCC2)c1ccc(-c2c3nc(c(-c4c(F)cccc4F)c4ccc([nH]4)c(-c4c(F)cccc4F)c4nc(c(-c5c(F)cccc5F)c5ccc2[nH]5)C=C4)C=C3)cc1
REMARK SMILES IDX 5 1 4 2 3 3 2 4 1 5 37 6 38 7 90 8 39 9 89 10 40 11 41 12
REMARK SMILES IDX 42 13 83 14 43 15 88 16 82 17 84 18 44 19 87 20 81 21 80 22
REMARK SMILES IDX 45 24 71 25 54 26 70 27 55 28 58 29 69 30 85 31 56 32 57 33
REMARK SMILES IDX 68 35 86 36 59 37 46 38 47 39 52 40 48 41 49 42 51 43 53 44
REMARK SMILES IDX 50 45 72 46 73 47 78 48 74 49 75 50 77 51 79 52 76 53 60 54
REMARK SMILES IDX 61 55 66 56 62 57 63 58 65 59 67 60 64 61 6 62 7 63 8 64
REMARK SMILES IDX 9 65 10 66 33 67 11 68 13 69 12 70 36 71 34 72 35 73 14 74
REMARK SMILES IDX 15 75 16 76 17 77 18 79 19 80 27 81 20 82 26 83 25 84 28 85
REMARK SMILES IDX 29 86 32 87 30 88 31 89 21 90 22 91 23 92 24 93
REMARK H PARENT 84 23 58 34 17 78
REMARK Flexibility Score: inf
ROOT
ATOM      1  C   UNL A   1      33.063  28.931  27.259  1.00  0.00     0.275 C 
ENDROOT
BRANCH   1   2
ATOM      2  C   UNL A   1      34.152  29.976  27.513  1.00  0.00     0.275 C 
BRANCH   2   3
ATOM      3  O   UNL A   1      35.520  29.589  27.269  1.00  0.00    -0.458 OA
BRANCH   3   4
ATOM      4  C   UNL A   1      36.510  30.401  27.701  1.00  0.00     0.338 C 
ATOM      5  O   UNL A   1      36.361  31.573  27.999  1.00  0.00    -0.246 OA
BRANCH   4   6
ATOM      6  C   UNL A   1      37.762  29.647  27.945  1.00  0.00     0.060 A 
ATOM      7  C   UNL A   1      38.847  29.703  27.062  1.00  0.00     0.016 A 
ATOM      8  C   UNL A   1      37.845  28.865  29.102  1.00  0.00     0.016 A 
ATOM      9  C   UNL A   1      39.972  28.927  27.286  1.00  0.00     0.010 A 
ATOM     10  C   UNL A   1      38.983  28.101  29.338  1.00  0.00     0.010 A 
ATOM     11  C   UNL A   1      40.026  28.091  28.404  1.00  0.00    -0.014 A 
BRANCH  11  12
ATOM     12  C   UNL A   1      41.209  27.242  28.563  1.00  0.00     0.031 A 
ATOM     13  C   UNL A   1      42.039  27.421  29.801  1.00  0.00     0.074 A 
ATOM     14  C   UNL A   1      41.464  26.224  27.717  1.00  0.00     0.049 A 
ATOM     15  N   UNL A   1      43.329  27.420  29.944  1.00  0.00    -0.248 NA
ATOM     16  C   UNL A   1      41.322  27.615  31.065  1.00  0.00     0.031 C 
ATOM     17  C   UNL A   1      40.633  25.726  26.616  1.00  0.00     0.029 A 
ATOM     18  N   UNL A   1      42.500  25.338  27.744  1.00  0.00    -0.354 N 
ATOM     19  C   UNL A   1      43.570  27.433  31.322  1.00  0.00     0.074 A 
ATOM     20  C   UNL A   1      42.295  27.549  31.971  1.00  0.00     0.031 C 
ATOM     21  C   UNL A   1      41.085  24.515  26.228  1.00  0.00     0.029 A 
ATOM     22  C   UNL A   1      42.307  24.216  26.956  1.00  0.00     0.049 A 
ATOM     23  H   UNL A   1      43.315  25.485  28.277  1.00  0.00     0.167 HD
ATOM     24  C   UNL A   1      44.803  27.257  31.869  1.00  0.00     0.037 A 
ATOM     25  C   UNL A   1      43.059  23.092  26.942  1.00  0.00     0.037 A 
ATOM     26  C   UNL A   1      45.847  27.637  30.967  1.00  0.00     0.049 A 
ATOM     27  C   UNL A   1      44.368  23.408  27.558  1.00  0.00     0.074 A 
ATOM     28  C   UNL A   1      46.172  28.815  30.323  1.00  0.00     0.029 A 
ATOM     29  N   UNL A   1      46.574  26.664  30.333  1.00  0.00    -0.354 N 
ATOM     30  N   UNL A   1      45.275  24.169  27.014  1.00  0.00    -0.248 NA
ATOM     31  C   UNL A   1      44.520  23.176  28.986  1.00  0.00     0.031 C 
ATOM     32  C   UNL A   1      46.627  28.411  29.036  1.00  0.00     0.029 A 
ATOM     33  C   UNL A   1      46.582  27.016  29.007  1.00  0.00     0.049 A 
ATOM     34  H   UNL A   1      47.002  25.878  30.743  1.00  0.00     0.167 HD
ATOM     35  C   UNL A   1      45.859  24.838  28.079  1.00  0.00     0.074 A 
ATOM     36  C   UNL A   1      45.430  24.109  29.269  1.00  0.00     0.031 C 
ATOM     37  C   UNL A   1      46.414  26.077  27.926  1.00  0.00     0.037 A 
BRANCH  24  38
ATOM     38  C   UNL A   1      45.055  26.513  33.153  1.00  0.00     0.057 A 
ATOM     39  C   UNL A   1      45.775  27.124  34.195  1.00  0.00     0.134 A 
ATOM     40  C   UNL A   1      44.865  25.122  33.283  1.00  0.00     0.134 A 
ATOM     41  F   UNL A   1      46.034  28.439  34.173  1.00  0.00    -0.206 F 
ATOM     42  C   UNL A   1      46.318  26.392  35.259  1.00  0.00     0.040 A 
ATOM     43  C   UNL A   1      45.371  24.389  34.361  1.00  0.00     0.040 A 
ATOM     44  F   UNL A   1      44.263  24.399  32.329  1.00  0.00    -0.206 F 
ATOM     45  C   UNL A   1      46.125  25.019  35.340  1.00  0.00     0.006 A 
ENDBRANCH  24  38
BRANCH  25  46
ATOM     46  C   UNL A   1      42.634  21.708  26.651  1.00  0.00     0.057 A 
ATOM     47  C   UNL A   1      43.341  20.902  25.751  1.00  0.00     0.134 A 
ATOM     48  C   UNL A   1      41.666  21.057  27.438  1.00  0.00     0.134 A 
ATOM     49  F   UNL A   1      44.316  21.422  24.991  1.00  0.00    -0.206 F 
ATOM     50  C   UNL A   1      43.107  19.525  25.645  1.00  0.00     0.040 A 
ATOM     51  C   UNL A   1      41.415  19.686  27.334  1.00  0.00     0.040 A 
ATOM     52  F   UNL A   1      40.992  21.715  28.392  1.00  0.00    -0.206 F 
ATOM     53  C   UNL A   1      42.146  18.912  26.443  1.00  0.00     0.006 A 
ENDBRANCH  25  46
BRANCH  37  54
ATOM     54  C   UNL A   1      46.580  26.615  26.533  1.00  0.00     0.057 A 
ATOM     55  C   UNL A   1      45.605  27.380  25.874  1.00  0.00     0.134 A 
ATOM     56  C   UNL A   1      47.826  26.509  25.905  1.00  0.00     0.134 A 
ATOM     57  F   UNL A   1      44.422  27.640  26.444  1.00  0.00    -0.206 F 
ATOM     58  C   UNL A   1      45.842  27.964  24.626  1.00  0.00     0.040 A 
ATOM     59  C   UNL A   1      48.087  27.118  24.676  1.00  0.00     0.040 A 
ATOM     60  F   UNL A   1      48.832  25.853  26.506  1.00  0.00    -0.206 F 
ATOM     61  C   UNL A   1      47.090  27.839  24.025  1.00  0.00     0.006 A 
ENDBRANCH  37  54
ENDBRANCH  11  12
ENDBRANCH   4   6
ENDBRANCH   3   4
ENDBRANCH   2   3
ENDBRANCH   1   2
BRANCH   1  62
ATOM     62  O   UNL A   1      33.585  27.805  26.525  1.00  0.00    -0.458 OA
BRANCH  62  63
ATOM     63  C   UNL A   1      33.400  27.831  25.175  1.00  0.00     0.338 C 
ATOM     64  O   UNL A   1      33.342  28.800  24.443  1.00  0.00    -0.246 OA
BRANCH  63  65
ATOM     65  C   UNL A   1      33.207  26.446  24.710  1.00  0.00     0.061 A 
ATOM     66  C   UNL A   1      33.356  26.213  23.347  1.00  0.00     0.019 A 
ATOM     67  C   UNL A   1      32.908  25.393  25.606  1.00  0.00     0.038 A 
ATOM     68  C   UNL A   1      33.141  24.929  22.895  1.00  0.00    -0.043 A 
ATOM     69  C   UNL A   1      32.666  24.079  25.133  1.00  0.00     0.092 A 
ATOM     70  C   UNL A   1      32.725  23.886  23.755  1.00  0.00    -0.024 A 
ATOM     71  C   UNL A   1      33.274  24.465  21.474  1.00  0.00     0.036 C 
ATOM     72  C   UNL A   1      32.341  22.733  22.882  1.00  0.00     0.037 C 
ATOM     73  C   UNL A   1      33.277  22.953  21.690  1.00  0.00     0.010 C 
BRANCH  69  74
ATOM     74  S   UNL A   1      32.080  22.847  26.296  1.00  0.00     0.262 S 
ATOM     75  O   UNL A   1      32.156  23.437  27.618  1.00  0.00    -0.201 OA
ATOM     76  O   UNL A   1      30.807  22.361  25.814  1.00  0.00    -0.201 OA
BRANCH  74  77
ATOM     77  N   UNL A   1      33.037  21.443  26.402  1.00  0.00    -0.277 N 
ATOM     78  H   UNL A   1      32.680  20.659  26.880  1.00  0.00     0.180 HD
BRANCH  77  79
ATOM     79  C   UNL A   1      34.343  21.358  25.820  1.00  0.00     0.075 A 
ATOM     80  C   UNL A   1      35.285  22.363  26.111  1.00  0.00     0.042 A 
ATOM     81  C   UNL A   1      34.729  20.248  25.057  1.00  0.00     0.089 A 
ATOM     82  C   UNL A   1      36.627  22.239  25.694  1.00  0.00     0.058 A 
ATOM     83  C   UNL A   1      36.059  20.129  24.626  1.00  0.00     0.031 A 
ATOM     84  C   UNL A   1      36.996  21.120  24.935  1.00  0.00     0.015 A 
BRANCH  81  85
ATOM     85  N   UNL A   1      33.813  19.211  24.751  1.00  0.00    -0.239 N 
ATOM     86  C   UNL A   1      34.029  17.850  24.772  1.00  0.00     0.115 A 
ATOM     87  N   UNL A   1      32.586  19.505  24.254  1.00  0.00    -0.177 NA
ATOM     88  C   UNL A   1      33.002  17.271  24.071  1.00  0.00     0.042 A 
ATOM     89  C   UNL A   1      32.153  18.342  23.757  1.00  0.00     0.135 A 
ENDBRANCH  81  85
BRANCH  82  90
ATOM     90  C   UNL A   1      37.660  23.257  26.126  1.00  0.00     0.416 C 
ATOM     91  F   UNL A   1      37.213  24.070  27.120  1.00  0.00    -0.166 F 
ATOM     92  F   UNL A   1      38.793  22.668  26.604  1.00  0.00    -0.166 F 
ATOM     93  F   UNL A   1      38.070  24.078  25.120  1.00  0.00    -0.166 F 
ENDBRANCH  82  90
ENDBRANCH  77  79
ENDBRANCH  74  77
ENDBRANCH  69  74
ENDBRANCH  63  65
ENDBRANCH  62  63
ENDBRANCH   1  62
TORSDOF 16
ENDMDL
