MODEL 1
REMARK VINA RESULT:     -11.6      0.000      0.000
REMARK SMILES O=C(C[C@H]1C(=O)N[NH+]=C2c3ccc(F)cc3N=CN21)OCCOC(=O)c1ccc(-c2c3nc(c(-c4c(F)cccc4F)c4ccc([nH]4)c(-c4c(F)cccc4F)c4nc(c(-c5c(F)cccc5F)c5ccc2[nH]5)C=C4)C=C3)cc1
REMARK SMILES IDX 22 1 21 2 20 3 2 4 1 5 3 6 4 7 5 8 19 9 6 10 7 11 9 12 18 13
REMARK SMILES IDX 8 14 10 16 17 17 11 19 16 20 12 21 15 22 13 23 14 24 23 25
REMARK SMILES IDX 24 26 25 27 26 28 27 29 79 30 28 31 78 32 29 33 30 34 31 35
REMARK SMILES IDX 72 36 32 37 77 38 71 39 73 40 33 41 76 42 70 43 69 44 34 46
REMARK SMILES IDX 60 47 43 48 59 49 44 50 47 51 58 52 74 53 45 54 46 55 57 57
REMARK SMILES IDX 75 58 48 59 35 60 36 61 41 62 37 63 38 64 40 65 42 66 39 67
REMARK SMILES IDX 61 68 62 69 67 70 63 71 64 72 66 73 68 74 65 75 49 76 50 77
REMARK SMILES IDX 55 78 51 79 52 80 54 81 56 82 53 83
REMARK H PARENT 7 15 8 18 73 45 47 56
REMARK Flexibility Score: inf
ROOT
ATOM      1  C   UNL A   1      34.404  32.785  28.007  1.00  0.00     0.275 C 
ENDROOT
BRANCH   1   2
ATOM      2  C   UNL A   1      33.327  33.882  28.009  1.00  0.00     0.274 C 
BRANCH   2   3
ATOM      3  O   UNL A   1      33.845  35.217  28.118  1.00  0.00    -0.462 OA
BRANCH   3   4
ATOM      4  C   UNL A   1      33.172  36.035  28.970  1.00  0.00     0.310 C 
ATOM      5  O   UNL A   1      33.044  37.239  28.784  1.00  0.00    -0.252 OA
BRANCH   4   6
ATOM      6  C   UNL A   1      32.852  35.375  30.284  1.00  0.00     0.183 C 
BRANCH   6   7
ATOM      7  C   UNL A   1      33.616  35.977  31.463  1.00  0.00     0.286 C 
ATOM      8  C   UNL A   1      32.638  36.279  32.606  1.00  0.00     0.300 C 
ATOM      9  N   UNL A   1      34.671  35.073  31.985  1.00  0.00    -0.202 N 
ATOM     10  O   UNL A   1      31.418  36.319  32.500  1.00  0.00    -0.267 OA
ATOM     11  N   UNL A   1      33.231  36.545  33.813  1.00  0.00    -0.193 N 
ATOM     12  C   UNL A   1      34.960  35.159  33.345  1.00  0.00     0.309 C 
ATOM     13  C   UNL A   1      35.395  34.235  31.171  1.00  0.00     0.317 C 
ATOM     14  N   UNL A   1      34.366  35.923  34.215  1.00  0.00    -0.169 N 
ATOM     15  H   UNL A   1      32.818  37.211  34.409  1.00  0.00     0.216 HD
ATOM     16  C   UNL A   1      35.972  34.192  33.857  1.00  0.00     0.092 A 
ATOM     17  N   UNL A   1      36.272  33.362  31.547  1.00  0.00    -0.216 NA
ATOM     18  H   UNL A   1      34.726  36.044  35.124  1.00  0.00     0.340 HD
ATOM     19  C   UNL A   1      36.215  34.073  35.230  1.00  0.00     0.022 A 
ATOM     20  C   UNL A   1      36.511  33.277  32.934  1.00  0.00     0.085 A 
ATOM     21  C   UNL A   1      36.970  33.002  35.696  1.00  0.00     0.040 A 
ATOM     22  C   UNL A   1      37.275  32.217  33.417  1.00  0.00     0.068 A 
ATOM     23  C   UNL A   1      37.480  32.078  34.787  1.00  0.00     0.125 A 
ATOM     24  F   UNL A   1      38.159  31.019  35.248  1.00  0.00    -0.207 F 
ENDBRANCH   6   7
ENDBRANCH   4   6
ENDBRANCH   3   4
ENDBRANCH   2   3
ENDBRANCH   1   2
BRANCH   1  25
ATOM     25  O   UNL A   1      33.897  31.477  28.313  1.00  0.00    -0.458 OA
BRANCH  25  26
ATOM     26  C   UNL A   1      34.454  30.472  27.580  1.00  0.00     0.338 C 
ATOM     27  O   UNL A   1      34.057  30.052  26.517  1.00  0.00    -0.246 OA
BRANCH  26  28
ATOM     28  C   UNL A   1      35.750  30.070  28.191  1.00  0.00     0.060 A 
ATOM     29  C   UNL A   1      35.868  29.689  29.531  1.00  0.00     0.016 A 
ATOM     30  C   UNL A   1      36.888  30.099  27.376  1.00  0.00     0.016 A 
ATOM     31  C   UNL A   1      37.121  29.324  30.046  1.00  0.00     0.010 A 
ATOM     32  C   UNL A   1      38.136  29.729  27.890  1.00  0.00     0.010 A 
ATOM     33  C   UNL A   1      38.265  29.331  29.229  1.00  0.00    -0.014 A 
BRANCH  33  34
ATOM     34  C   UNL A   1      39.568  28.828  29.742  1.00  0.00     0.031 A 
ATOM     35  C   UNL A   1      40.289  29.498  30.879  1.00  0.00     0.074 A 
ATOM     36  C   UNL A   1      40.135  27.758  29.152  1.00  0.00     0.049 A 
ATOM     37  N   UNL A   1      41.347  29.093  31.538  1.00  0.00    -0.248 NA
ATOM     38  C   UNL A   1      39.757  30.786  31.335  1.00  0.00     0.031 C 
ATOM     39  C   UNL A   1      39.583  27.031  28.009  1.00  0.00     0.029 A 
ATOM     40  N   UNL A   1      41.313  27.110  29.425  1.00  0.00    -0.354 N 
ATOM     41  C   UNL A   1      41.555  30.036  32.537  1.00  0.00     0.074 A 
ATOM     42  C   UNL A   1      40.549  31.062  32.363  1.00  0.00     0.031 C 
ATOM     43  C   UNL A   1      40.428  26.043  27.672  1.00  0.00     0.029 A 
ATOM     44  C   UNL A   1      41.583  26.074  28.565  1.00  0.00     0.049 A 
ATOM     45  H   UNL A   1      41.909  27.364  30.168  1.00  0.00     0.167 HD
ATOM     46  C   UNL A   1      42.495  30.045  33.512  1.00  0.00     0.037 A 
ATOM     47  C   UNL A   1      42.645  25.250  28.497  1.00  0.00     0.037 A 
ATOM     48  C   UNL A   1      43.567  29.092  33.628  1.00  0.00     0.049 A 
ATOM     49  C   UNL A   1      43.754  25.370  29.505  1.00  0.00     0.074 A 
ATOM     50  C   UNL A   1      44.544  29.005  34.605  1.00  0.00     0.029 A 
ATOM     51  N   UNL A   1      43.837  28.096  32.705  1.00  0.00    -0.354 N 
ATOM     52  N   UNL A   1      43.849  26.165  30.542  1.00  0.00    -0.248 NA
ATOM     53  C   UNL A   1      44.906  24.472  29.332  1.00  0.00     0.031 C 
ATOM     54  C   UNL A   1      45.449  28.004  34.233  1.00  0.00     0.029 A 
ATOM     55  C   UNL A   1      45.003  27.432  33.053  1.00  0.00     0.049 A 
ATOM     56  H   UNL A   1      43.282  27.890  31.918  1.00  0.00     0.167 HD
ATOM     57  C   UNL A   1      45.047  25.837  31.164  1.00  0.00     0.074 A 
ATOM     58  C   UNL A   1      45.645  24.770  30.392  1.00  0.00     0.031 C 
ATOM     59  C   UNL A   1      45.598  26.371  32.282  1.00  0.00     0.037 A 
BRANCH  46  60
ATOM     60  C   UNL A   1      42.421  31.140  34.532  1.00  0.00     0.057 A 
ATOM     61  C   UNL A   1      41.577  31.032  35.645  1.00  0.00     0.134 A 
ATOM     62  C   UNL A   1      43.133  32.335  34.371  1.00  0.00     0.134 A 
ATOM     63  F   UNL A   1      40.864  29.915  35.853  1.00  0.00    -0.206 F 
ATOM     64  C   UNL A   1      41.440  32.078  36.559  1.00  0.00     0.040 A 
ATOM     65  C   UNL A   1      43.015  33.382  35.286  1.00  0.00     0.040 A 
ATOM     66  F   UNL A   1      43.958  32.499  33.325  1.00  0.00    -0.206 F 
ATOM     67  C   UNL A   1      42.161  33.258  36.380  1.00  0.00     0.006 A 
ENDBRANCH  46  60
BRANCH  47  68
ATOM     68  C   UNL A   1      42.723  24.229  27.424  1.00  0.00     0.057 A 
ATOM     69  C   UNL A   1      43.253  24.538  26.167  1.00  0.00     0.134 A 
ATOM     70  C   UNL A   1      42.310  22.911  27.648  1.00  0.00     0.134 A 
ATOM     71  F   UNL A   1      43.666  25.785  25.894  1.00  0.00    -0.206 F 
ATOM     72  C   UNL A   1      43.371  23.572  25.168  1.00  0.00     0.040 A 
ATOM     73  C   UNL A   1      42.444  21.929  26.666  1.00  0.00     0.040 A 
ATOM     74  F   UNL A   1      41.817  22.552  28.842  1.00  0.00    -0.206 F 
ATOM     75  C   UNL A   1      42.974  22.261  25.420  1.00  0.00     0.006 A 
ENDBRANCH  47  68
BRANCH  59  76
ATOM     76  C   UNL A   1      46.899  25.793  32.754  1.00  0.00     0.057 A 
ATOM     77  C   UNL A   1      48.116  26.257  32.236  1.00  0.00     0.134 A 
ATOM     78  C   UNL A   1      46.951  24.760  33.699  1.00  0.00     0.134 A 
ATOM     79  F   UNL A   1      48.138  27.239  31.324  1.00  0.00    -0.206 F 
ATOM     80  C   UNL A   1      49.336  25.712  32.638  1.00  0.00     0.040 A 
ATOM     81  C   UNL A   1      48.167  24.225  34.128  1.00  0.00     0.040 A 
ATOM     82  F   UNL A   1      45.824  24.282  34.245  1.00  0.00    -0.206 F 
ATOM     83  C   UNL A   1      49.364  24.696  33.591  1.00  0.00     0.006 A 
ENDBRANCH  59  76
ENDBRANCH  33  34
ENDBRANCH  26  28
ENDBRANCH  25  26
ENDBRANCH   1  25
TORSDOF 12
ENDMDL
MODEL 2
REMARK VINA RESULT:     -11.4      5.148      9.986
REMARK SMILES O=C(C[C@H]1C(=O)N[NH+]=C2c3ccc(F)cc3N=CN21)OCCOC(=O)c1ccc(-c2c3nc(c(-c4c(F)cccc4F)c4ccc([nH]4)c(-c4c(F)cccc4F)c4nc(c(-c5c(F)cccc5F)c5ccc2[nH]5)C=C4)C=C3)cc1
REMARK SMILES IDX 22 1 21 2 20 3 2 4 1 5 3 6 4 7 5 8 19 9 6 10 7 11 9 12 18 13
REMARK SMILES IDX 8 14 10 16 17 17 11 19 16 20 12 21 15 22 13 23 14 24 23 25
REMARK SMILES IDX 24 26 25 27 26 28 27 29 79 30 28 31 78 32 29 33 30 34 31 35
REMARK SMILES IDX 72 36 32 37 77 38 71 39 73 40 33 41 76 42 70 43 69 44 34 46
REMARK SMILES IDX 60 47 43 48 59 49 44 50 47 51 58 52 74 53 45 54 46 55 57 57
REMARK SMILES IDX 75 58 48 59 35 60 36 61 41 62 37 63 38 64 40 65 42 66 39 67
REMARK SMILES IDX 61 68 62 69 67 70 63 71 64 72 66 73 68 74 65 75 49 76 50 77
REMARK SMILES IDX 55 78 51 79 52 80 54 81 56 82 53 83
REMARK H PARENT 7 15 8 18 73 45 47 56
REMARK Flexibility Score: inf
ROOT
ATOM      1  C   UNL A   1      36.507  21.889  25.130  1.00  0.00     0.275 C 
ENDROOT
BRANCH   1   2
ATOM      2  C   UNL A   1      35.161  21.587  25.809  1.00  0.00     0.274 C 
BRANCH   2   3
ATOM      3  O   UNL A   1      34.090  21.306  24.896  1.00  0.00    -0.462 OA
BRANCH   3   4
ATOM      4  C   UNL A   1      32.844  21.308  25.441  1.00  0.00     0.310 C 
ATOM      5  O   UNL A   1      31.919  20.633  25.007  1.00  0.00    -0.252 OA
BRANCH   4   6
ATOM      6  C   UNL A   1      32.644  22.421  26.436  1.00  0.00     0.183 C 
BRANCH   6   7
ATOM      7  C   UNL A   1      31.727  23.530  25.923  1.00  0.00     0.286 C 
ATOM      8  C   UNL A   1      30.441  23.560  26.761  1.00  0.00     0.300 C 
ATOM      9  N   UNL A   1      32.355  24.872  25.994  1.00  0.00    -0.202 N 
ATOM     10  O   UNL A   1      30.068  22.668  27.514  1.00  0.00    -0.267 OA
ATOM     11  N   UNL A   1      29.674  24.684  26.594  1.00  0.00    -0.193 N 
ATOM     12  C   UNL A   1      31.505  25.957  26.202  1.00  0.00     0.309 C 
ATOM     13  C   UNL A   1      33.700  25.071  25.792  1.00  0.00     0.317 C 
ATOM     14  N   UNL A   1      30.218  25.907  26.384  1.00  0.00    -0.169 N 
ATOM     15  H   UNL A   1      28.694  24.599  26.629  1.00  0.00     0.216 HD
ATOM     16  C   UNL A   1      32.168  27.285  26.340  1.00  0.00     0.092 A 
ATOM     17  N   UNL A   1      34.342  26.187  25.913  1.00  0.00    -0.216 NA
ATOM     18  H   UNL A   1      29.664  26.722  26.370  1.00  0.00     0.340 HD
ATOM     19  C   UNL A   1      31.433  28.414  26.719  1.00  0.00     0.022 A 
ATOM     20  C   UNL A   1      33.573  27.311  26.276  1.00  0.00     0.085 A 
ATOM     21  C   UNL A   1      32.109  29.573  27.083  1.00  0.00     0.040 A 
ATOM     22  C   UNL A   1      34.233  28.485  26.633  1.00  0.00     0.068 A 
ATOM     23  C   UNL A   1      33.501  29.593  27.049  1.00  0.00     0.125 A 
ATOM     24  F   UNL A   1      34.145  30.696  27.454  1.00  0.00    -0.207 F 
ENDBRANCH   6   7
ENDBRANCH   4   6
ENDBRANCH   3   4
ENDBRANCH   2   3
ENDBRANCH   1   2
BRANCH   1  25
ATOM     25  O   UNL A   1      37.189  23.027  25.679  1.00  0.00    -0.458 OA
BRANCH  25  26
ATOM     26  C   UNL A   1      38.442  22.761  26.145  1.00  0.00     0.338 C 
ATOM     27  O   UNL A   1      39.041  21.715  26.042  1.00  0.00    -0.246 OA
BRANCH  26  28
ATOM     28  C   UNL A   1      39.059  24.016  26.652  1.00  0.00     0.060 A 
ATOM     29  C   UNL A   1      39.850  24.847  25.852  1.00  0.00     0.016 A 
ATOM     30  C   UNL A   1      38.839  24.352  27.994  1.00  0.00     0.016 A 
ATOM     31  C   UNL A   1      40.405  26.015  26.394  1.00  0.00     0.010 A 
ATOM     32  C   UNL A   1      39.389  25.521  28.531  1.00  0.00     0.010 A 
ATOM     33  C   UNL A   1      40.173  26.369  27.735  1.00  0.00    -0.014 A 
BRANCH  33  34
ATOM     34  C   UNL A   1      40.659  27.669  28.272  1.00  0.00     0.031 A 
ATOM     35  C   UNL A   1      42.123  27.953  28.467  1.00  0.00     0.074 A 
ATOM     36  C   UNL A   1      39.762  28.609  28.625  1.00  0.00     0.049 A 
ATOM     37  N   UNL A   1      42.711  29.083  28.777  1.00  0.00    -0.248 NA
ATOM     38  C   UNL A   1      43.046  26.827  28.293  1.00  0.00     0.031 C 
ATOM     39  C   UNL A   1      38.309  28.464  28.543  1.00  0.00     0.029 A 
ATOM     40  N   UNL A   1      39.945  29.866  29.142  1.00  0.00    -0.354 N 
ATOM     41  C   UNL A   1      44.074  28.820  28.753  1.00  0.00     0.074 A 
ATOM     42  C   UNL A   1      44.226  27.412  28.454  1.00  0.00     0.031 C 
ATOM     43  C   UNL A   1      37.731  29.586  29.003  1.00  0.00     0.029 A 
ATOM     44  C   UNL A   1      38.771  30.521  29.423  1.00  0.00     0.049 A 
ATOM     45  H   UNL A   1      40.833  30.262  29.297  1.00  0.00     0.167 HD
ATOM     46  C   UNL A   1      45.106  29.673  28.958  1.00  0.00     0.037 A 
ATOM     47  C   UNL A   1      38.556  31.734  29.968  1.00  0.00     0.037 A 
ATOM     48  C   UNL A   1      44.968  31.046  29.364  1.00  0.00     0.049 A 
ATOM     49  C   UNL A   1      39.723  32.613  30.325  1.00  0.00     0.074 A 
ATOM     50  C   UNL A   1      45.958  31.994  29.561  1.00  0.00     0.029 A 
ATOM     51  N   UNL A   1      43.766  31.652  29.694  1.00  0.00    -0.354 N 
ATOM     52  N   UNL A   1      41.003  32.407  30.139  1.00  0.00    -0.248 NA
ATOM     53  C   UNL A   1      39.409  33.899  30.966  1.00  0.00     0.031 C 
ATOM     54  C   UNL A   1      45.363  33.149  30.081  1.00  0.00     0.029 A 
ATOM     55  C   UNL A   1      43.997  32.938  30.156  1.00  0.00     0.049 A 
ATOM     56  H   UNL A   1      42.880  31.230  29.612  1.00  0.00     0.167 HD
ATOM     57  C   UNL A   1      41.643  33.549  30.605  1.00  0.00     0.074 A 
ATOM     58  C   UNL A   1      40.612  34.447  31.078  1.00  0.00     0.031 C 
ATOM     59  C   UNL A   1      42.970  33.830  30.628  1.00  0.00     0.037 A 
BRANCH  46  60
ATOM     60  C   UNL A   1      46.493  29.139  28.762  1.00  0.00     0.057 A 
ATOM     61  C   UNL A   1      47.105  29.166  27.503  1.00  0.00     0.134 A 
ATOM     62  C   UNL A   1      47.192  28.530  29.812  1.00  0.00     0.134 A 
ATOM     63  F   UNL A   1      46.484  29.731  26.456  1.00  0.00    -0.206 F 
ATOM     64  C   UNL A   1      48.363  28.600  27.293  1.00  0.00     0.040 A 
ATOM     65  C   UNL A   1      48.458  27.974  29.617  1.00  0.00     0.040 A 
ATOM     66  F   UNL A   1      46.659  28.474  31.042  1.00  0.00    -0.206 F 
ATOM     67  C   UNL A   1      49.043  28.002  28.352  1.00  0.00     0.006 A 
ENDBRANCH  46  60
BRANCH  47  68
ATOM     68  C   UNL A   1      37.171  32.198  30.220  1.00  0.00     0.057 A 
ATOM     69  C   UNL A   1      36.510  31.891  31.415  1.00  0.00     0.134 A 
ATOM     70  C   UNL A   1      36.493  32.996  29.292  1.00  0.00     0.134 A 
ATOM     71  F   UNL A   1      37.109  31.130  32.344  1.00  0.00    -0.206 F 
ATOM     72  C   UNL A   1      35.224  32.361  31.679  1.00  0.00     0.040 A 
ATOM     73  C   UNL A   1      35.217  33.492  29.553  1.00  0.00     0.040 A 
ATOM     74  F   UNL A   1      37.087  33.342  28.140  1.00  0.00    -0.206 F 
ATOM     75  C   UNL A   1      34.578  33.173  30.749  1.00  0.00     0.006 A 
ENDBRANCH  47  68
BRANCH  59  76
ATOM     76  C   UNL A   1      43.382  35.171  31.160  1.00  0.00     0.057 A 
ATOM     77  C   UNL A   1      43.570  35.367  32.534  1.00  0.00     0.134 A 
ATOM     78  C   UNL A   1      43.566  36.276  30.319  1.00  0.00     0.134 A 
ATOM     79  F   UNL A   1      43.403  34.354  33.397  1.00  0.00    -0.206 F 
ATOM     80  C   UNL A   1      43.922  36.614  33.053  1.00  0.00     0.040 A 
ATOM     81  C   UNL A   1      43.944  37.521  30.823  1.00  0.00     0.040 A 
ATOM     82  F   UNL A   1      43.417  36.151  28.992  1.00  0.00    -0.206 F 
ATOM     83  C   UNL A   1      44.116  37.694  32.196  1.00  0.00     0.006 A 
ENDBRANCH  59  76
ENDBRANCH  33  34
ENDBRANCH  26  28
ENDBRANCH  25  26
ENDBRANCH   1  25
TORSDOF 12
ENDMDL
MODEL 3
REMARK VINA RESULT:     -11.3      5.453     10.044
REMARK SMILES O=C(C[C@H]1C(=O)N[NH+]=C2c3ccc(F)cc3N=CN21)OCCOC(=O)c1ccc(-c2c3nc(c(-c4c(F)cccc4F)c4ccc([nH]4)c(-c4c(F)cccc4F)c4nc(c(-c5c(F)cccc5F)c5ccc2[nH]5)C=C4)C=C3)cc1
REMARK SMILES IDX 22 1 21 2 20 3 2 4 1 5 3 6 4 7 5 8 19 9 6 10 7 11 9 12 18 13
REMARK SMILES IDX 8 14 10 16 17 17 11 19 16 20 12 21 15 22 13 23 14 24 23 25
REMARK SMILES IDX 24 26 25 27 26 28 27 29 79 30 28 31 78 32 29 33 30 34 31 35
REMARK SMILES IDX 72 36 32 37 77 38 71 39 73 40 33 41 76 42 70 43 69 44 34 46
REMARK SMILES IDX 60 47 43 48 59 49 44 50 47 51 58 52 74 53 45 54 46 55 57 57
REMARK SMILES IDX 75 58 48 59 35 60 36 61 41 62 37 63 38 64 40 65 42 66 39 67
REMARK SMILES IDX 61 68 62 69 67 70 63 71 64 72 66 73 68 74 65 75 49 76 50 77
REMARK SMILES IDX 55 78 51 79 52 80 54 81 56 82 53 83
REMARK H PARENT 7 15 8 18 73 45 47 56
REMARK Flexibility Score: inf
ROOT
ATOM      1  C   UNL A   1      36.234  20.670  25.040  1.00  0.00     0.275 C 
ENDROOT
BRANCH   1   2
ATOM      2  C   UNL A   1      35.001  21.417  25.572  1.00  0.00     0.274 C 
BRANCH   2   3
ATOM      3  O   UNL A   1      33.845  21.325  24.726  1.00  0.00    -0.462 OA
BRANCH   3   4
ATOM      4  C   UNL A   1      32.659  21.178  25.375  1.00  0.00     0.310 C 
ATOM      5  O   UNL A   1      31.778  20.413  25.000  1.00  0.00    -0.252 OA
BRANCH   4   6
ATOM      6  C   UNL A   1      32.427  22.240  26.417  1.00  0.00     0.183 C 
BRANCH   6   7
ATOM      7  C   UNL A   1      31.516  23.367  25.935  1.00  0.00     0.286 C 
ATOM      8  C   UNL A   1      30.278  23.448  26.838  1.00  0.00     0.300 C 
ATOM      9  N   UNL A   1      32.184  24.692  25.950  1.00  0.00    -0.202 N 
ATOM     10  O   UNL A   1      29.919  22.578  27.625  1.00  0.00    -0.267 OA
ATOM     11  N   UNL A   1      29.535  24.591  26.694  1.00  0.00    -0.193 N 
ATOM     12  C   UNL A   1      31.378  25.804  26.185  1.00  0.00     0.309 C 
ATOM     13  C   UNL A   1      33.522  24.848  25.675  1.00  0.00     0.317 C 
ATOM     14  N   UNL A   1      30.102  25.795  26.436  1.00  0.00    -0.169 N 
ATOM     15  H   UNL A   1      28.556  24.536  26.782  1.00  0.00     0.216 HD
ATOM     16  C   UNL A   1      32.085  27.114  26.266  1.00  0.00     0.092 A 
ATOM     17  N   UNL A   1      34.201  25.947  25.743  1.00  0.00    -0.216 NA
ATOM     18  H   UNL A   1      29.571  26.625  26.437  1.00  0.00     0.340 HD
ATOM     19  C   UNL A   1      31.404  28.269  26.665  1.00  0.00     0.022 A 
ATOM     20  C   UNL A   1      33.485  27.098  26.128  1.00  0.00     0.085 A 
ATOM     21  C   UNL A   1      32.130  29.414  26.974  1.00  0.00     0.040 A 
ATOM     22  C   UNL A   1      34.196  28.258  26.430  1.00  0.00     0.068 A 
ATOM     23  C   UNL A   1      33.518  29.393  26.866  1.00  0.00     0.125 A 
ATOM     24  F   UNL A   1      34.214  30.482  27.218  1.00  0.00    -0.207 F 
ENDBRANCH   6   7
ENDBRANCH   4   6
ENDBRANCH   3   4
ENDBRANCH   2   3
ENDBRANCH   1   2
BRANCH   1  25
ATOM     25  O   UNL A   1      37.392  21.505  24.881  1.00  0.00    -0.458 OA
BRANCH  25  26
ATOM     26  C   UNL A   1      38.465  21.128  25.631  1.00  0.00     0.338 C 
ATOM     27  O   UNL A   1      38.900  20.005  25.751  1.00  0.00    -0.246 OA
BRANCH  26  28
ATOM     28  C   UNL A   1      39.156  22.338  26.155  1.00  0.00     0.060 A 
ATOM     29  C   UNL A   1      40.336  22.271  26.901  1.00  0.00     0.016 A 
ATOM     30  C   UNL A   1      38.572  23.583  25.890  1.00  0.00     0.016 A 
ATOM     31  C   UNL A   1      40.934  23.451  27.368  1.00  0.00     0.010 A 
ATOM     32  C   UNL A   1      39.174  24.759  26.351  1.00  0.00     0.010 A 
ATOM     33  C   UNL A   1      40.365  24.706  27.089  1.00  0.00    -0.014 A 
BRANCH  33  34
ATOM     34  C   UNL A   1      41.066  25.960  27.479  1.00  0.00     0.031 A 
ATOM     35  C   UNL A   1      42.522  26.186  27.177  1.00  0.00     0.074 A 
ATOM     36  C   UNL A   1      40.386  26.909  28.150  1.00  0.00     0.049 A 
ATOM     37  N   UNL A   1      43.233  27.279  27.312  1.00  0.00    -0.248 NA
ATOM     38  C   UNL A   1      43.277  25.041  26.658  1.00  0.00     0.031 C 
ATOM     39  C   UNL A   1      38.984  26.816  28.558  1.00  0.00     0.029 A 
ATOM     40  N   UNL A   1      40.792  28.132  28.621  1.00  0.00    -0.354 N 
ATOM     41  C   UNL A   1      44.494  26.973  26.818  1.00  0.00     0.074 A 
ATOM     42  C   UNL A   1      44.469  25.579  26.433  1.00  0.00     0.031 C 
ATOM     43  C   UNL A   1      38.650  27.931  29.229  1.00  0.00     0.029 A 
ATOM     44  C   UNL A   1      39.814  28.809  29.307  1.00  0.00     0.049 A 
ATOM     45  H   UNL A   1      41.699  28.490  28.481  1.00  0.00     0.167 HD
ATOM     46  C   UNL A   1      45.575  27.781  26.693  1.00  0.00     0.037 A 
ATOM     47  C   UNL A   1      39.853  29.999  29.937  1.00  0.00     0.037 A 
ATOM     48  C   UNL A   1      45.647  29.136  27.173  1.00  0.00     0.049 A 
ATOM     49  C   UNL A   1      41.113  30.820  29.911  1.00  0.00     0.074 A 
ATOM     50  C   UNL A   1      46.690  30.039  27.059  1.00  0.00     0.029 A 
ATOM     51  N   UNL A   1      44.657  29.762  27.913  1.00  0.00    -0.354 N 
ATOM     52  N   UNL A   1      42.245  30.582  29.295  1.00  0.00    -0.248 NA
ATOM     53  C   UNL A   1      41.096  32.081  30.668  1.00  0.00     0.031 C 
ATOM     54  C   UNL A   1      46.361  31.185  27.793  1.00  0.00     0.029 A 
ATOM     55  C   UNL A   1      45.091  31.015  28.317  1.00  0.00     0.049 A 
ATOM     56  H   UNL A   1      43.776  29.374  28.120  1.00  0.00     0.167 HD
ATOM     57  C   UNL A   1      43.058  31.678  29.559  1.00  0.00     0.074 A 
ATOM     58  C   UNL A   1      42.291  32.583  30.387  1.00  0.00     0.031 C 
ATOM     59  C   UNL A   1      44.327  31.913  29.143  1.00  0.00     0.037 A 
BRANCH  46  60
ATOM     60  C   UNL A   1      46.787  27.213  26.020  1.00  0.00     0.057 A 
ATOM     61  C   UNL A   1      46.940  27.285  24.630  1.00  0.00     0.134 A 
ATOM     62  C   UNL A   1      47.769  26.530  26.747  1.00  0.00     0.134 A 
ATOM     63  F   UNL A   1      46.030  27.921  23.877  1.00  0.00    -0.206 F 
ATOM     64  C   UNL A   1      48.025  26.690  23.985  1.00  0.00     0.040 A 
ATOM     65  C   UNL A   1      48.867  25.943  26.115  1.00  0.00     0.040 A 
ATOM     66  F   UNL A   1      47.680  26.428  28.082  1.00  0.00    -0.206 F 
ATOM     67  C   UNL A   1      48.993  26.016  24.729  1.00  0.00     0.006 A 
ENDBRANCH  46  60
BRANCH  47  68
ATOM     68  C   UNL A   1      38.658  30.494  30.661  1.00  0.00     0.057 A 
ATOM     69  C   UNL A   1      37.708  31.299  30.023  1.00  0.00     0.134 A 
ATOM     70  C   UNL A   1      38.416  30.136  31.992  1.00  0.00     0.134 A 
ATOM     71  F   UNL A   1      37.884  31.674  28.747  1.00  0.00    -0.206 F 
ATOM     72  C   UNL A   1      36.558  31.732  30.684  1.00  0.00     0.040 A 
ATOM     73  C   UNL A   1      37.260  30.542  32.657  1.00  0.00     0.040 A 
ATOM     74  F   UNL A   1      39.281  29.346  32.645  1.00  0.00    -0.206 F 
ATOM     75  C   UNL A   1      36.328  31.345  32.002  1.00  0.00     0.006 A 
ENDBRANCH  47  68
BRANCH  59  76
ATOM     76  C   UNL A   1      44.958  33.211  29.554  1.00  0.00     0.057 A 
ATOM     77  C   UNL A   1      45.708  33.299  30.733  1.00  0.00     0.134 A 
ATOM     78  C   UNL A   1      44.802  34.381  28.799  1.00  0.00     0.134 A 
ATOM     79  F   UNL A   1      45.891  32.218  31.506  1.00  0.00    -0.206 F 
ATOM     80  C   UNL A   1      46.277  34.503  31.150  1.00  0.00     0.040 A 
ATOM     81  C   UNL A   1      45.388  35.586  29.192  1.00  0.00     0.040 A 
ATOM     82  F   UNL A   1      44.109  34.362  27.651  1.00  0.00    -0.206 F 
ATOM     83  C   UNL A   1      46.122  35.650  30.375  1.00  0.00     0.006 A 
ENDBRANCH  59  76
ENDBRANCH  33  34
ENDBRANCH  26  28
ENDBRANCH  25  26
ENDBRANCH   1  25
TORSDOF 12
ENDMDL
