MODEL 1
REMARK VINA RESULT:     -11.8      0.000      0.000
REMARK SMILES C[C@H](Oc1ccc(/C=C2/SC(=S)N(c3ccc(F)c(Cl)c3)C2=O)cc1)C(=O)OCCOC(=O)c1ccc(-c2c3nc(c(-c4c(F)cccc4F)c4ccc([nH]4)c(-c4c(F)cccc4F)c4nc(c(-c5c(F)cccc5F)c5ccc2[nH]5)C=C4)C=C3)cc1
REMARK SMILES IDX 29 1 28 2 26 3 27 4 2 5 1 6 3 7 4 8 5 9 25 10 6 11 24 12
REMARK SMILES IDX 7 13 8 14 9 15 10 16 22 17 11 18 13 19 23 20 12 21 14 22
REMARK SMILES IDX 15 23 21 24 16 25 19 26 17 27 20 28 18 29 30 30 31 31 32 32
REMARK SMILES IDX 33 33 34 34 35 35 87 36 36 37 86 38 37 39 38 40 39 41 80 42
REMARK SMILES IDX 40 43 85 44 79 45 81 46 41 47 84 48 78 49 77 50 42 52 68 53
REMARK SMILES IDX 51 54 67 55 52 56 55 57 66 58 82 59 53 60 54 61 65 63 83 64
REMARK SMILES IDX 56 65 43 66 44 67 49 68 45 69 46 70 48 71 50 72 47 73 69 74
REMARK SMILES IDX 70 75 75 76 71 77 72 78 74 79 76 80 73 81 57 82 58 83 63 84
REMARK SMILES IDX 59 85 60 86 62 87 64 88 61 89
REMARK H PARENT 81 51 55 62
REMARK Flexibility Score: inf
ROOT
ATOM      1  C   UNL A   1      42.615  20.579  25.987  1.00  0.00     0.274 C 
ENDROOT
BRANCH   1   2
ATOM      2  O   UNL A   1      41.339  21.191  25.719  1.00  0.00    -0.459 OA
BRANCH   2   3
ATOM      3  C   UNL A   1      40.392  21.095  26.695  1.00  0.00     0.347 C 
ATOM      4  O   UNL A   1      40.621  21.139  27.900  1.00  0.00    -0.248 OA
BRANCH   3   5
ATOM      5  C   UNL A   1      38.998  20.825  26.120  1.00  0.00     0.279 C 
ATOM      6  C   UNL A   1      39.081  19.486  25.385  1.00  0.00     0.066 C 
BRANCH   5   7
ATOM      7  O   UNL A   1      38.629  21.949  25.323  1.00  0.00    -0.479 OA
BRANCH   7   8
ATOM      8  C   UNL A   1      37.330  22.318  25.161  1.00  0.00     0.120 A 
ATOM      9  C   UNL A   1      36.323  22.277  26.120  1.00  0.00     0.047 A 
ATOM     10  C   UNL A   1      37.017  22.736  23.867  1.00  0.00     0.047 A 
ATOM     11  C   UNL A   1      34.988  22.490  25.747  1.00  0.00     0.012 A 
ATOM     12  C   UNL A   1      35.695  22.990  23.501  1.00  0.00     0.012 A 
ATOM     13  C   UNL A   1      34.661  22.785  24.420  1.00  0.00    -0.024 A 
BRANCH  13  14
ATOM     14  C   UNL A   1      33.254  22.838  24.007  1.00  0.00     0.029 C 
ATOM     15  C   UNL A   1      32.486  23.940  24.025  1.00  0.00     0.081 C 
ATOM     16  S   UNL A   1      30.818  23.917  23.601  1.00  0.00    -0.054 SA
ATOM     17  C   UNL A   1      32.877  25.322  24.447  1.00  0.00     0.270 C 
ATOM     18  C   UNL A   1      30.559  25.585  24.115  1.00  0.00     0.152 C 
ATOM     19  N   UNL A   1      31.742  26.117  24.608  1.00  0.00    -0.261 N 
ATOM     20  O   UNL A   1      34.036  25.664  24.630  1.00  0.00    -0.268 OA
ATOM     21  S   UNL A   1      29.076  26.323  23.876  1.00  0.00    -0.051 S 
BRANCH  19  22
ATOM     22  C   UNL A   1      31.858  27.385  25.271  1.00  0.00     0.052 A 
ATOM     23  C   UNL A   1      32.399  27.483  26.565  1.00  0.00     0.030 A 
ATOM     24  C   UNL A   1      31.332  28.549  24.684  1.00  0.00     0.050 A 
ATOM     25  C   UNL A   1      32.424  28.702  27.248  1.00  0.00     0.043 A 
ATOM     26  C   UNL A   1      31.349  29.766  25.372  1.00  0.00     0.078 A 
ATOM     27  C   UNL A   1      31.895  29.838  26.649  1.00  0.00     0.141 A 
ATOM     28  Cl  UNL A   1      30.653  31.160  24.638  1.00  0.00    -0.081 Cl
ATOM     29  F   UNL A   1      31.906  30.993  27.330  1.00  0.00    -0.205 F 
ENDBRANCH  19  22
ENDBRANCH  13  14
ENDBRANCH   7   8
ENDBRANCH   5   7
ENDBRANCH   3   5
ENDBRANCH   2   3
ENDBRANCH   1   2
BRANCH   1  30
ATOM     30  C   UNL A   1      43.780  21.407  25.439  1.00  0.00     0.275 C 
BRANCH  30  31
ATOM     31  O   UNL A   1      44.023  22.569  26.251  1.00  0.00    -0.458 OA
BRANCH  31  32
ATOM     32  C   UNL A   1      43.762  23.753  25.648  1.00  0.00     0.338 C 
ATOM     33  O   UNL A   1      43.847  24.013  24.461  1.00  0.00    -0.246 OA
BRANCH  32  34
ATOM     34  C   UNL A   1      43.205  24.690  26.637  1.00  0.00     0.060 A 
ATOM     35  C   UNL A   1      43.826  25.936  26.776  1.00  0.00     0.016 A 
ATOM     36  C   UNL A   1      42.126  24.337  27.448  1.00  0.00     0.016 A 
ATOM     37  C   UNL A   1      43.363  26.840  27.728  1.00  0.00     0.010 A 
ATOM     38  C   UNL A   1      41.670  25.240  28.413  1.00  0.00     0.010 A 
ATOM     39  C   UNL A   1      42.291  26.493  28.563  1.00  0.00    -0.014 A 
BRANCH  39  40
ATOM     40  C   UNL A   1      41.858  27.425  29.629  1.00  0.00     0.031 A 
ATOM     41  C   UNL A   1      42.574  27.430  30.947  1.00  0.00     0.074 A 
ATOM     42  C   UNL A   1      40.840  28.274  29.405  1.00  0.00     0.049 A 
ATOM     43  N   UNL A   1      42.319  28.130  32.023  1.00  0.00    -0.248 NA
ATOM     44  C   UNL A   1      43.730  26.529  31.072  1.00  0.00     0.031 C 
ATOM     45  C   UNL A   1      40.092  28.385  28.153  1.00  0.00     0.029 A 
ATOM     46  N   UNL A   1      40.257  29.204  30.229  1.00  0.00    -0.354 N 
ATOM     47  C   UNL A   1      43.276  27.749  32.956  1.00  0.00     0.074 A 
ATOM     48  C   UNL A   1      44.105  26.744  32.325  1.00  0.00     0.031 C 
ATOM     49  C   UNL A   1      39.144  29.326  28.293  1.00  0.00     0.029 A 
ATOM     50  C   UNL A   1      39.196  29.858  29.652  1.00  0.00     0.049 A 
ATOM     51  H   UNL A   1      40.569  29.384  31.145  1.00  0.00     0.167 HD
ATOM     52  C   UNL A   1      43.445  28.201  34.220  1.00  0.00     0.037 A 
ATOM     53  C   UNL A   1      38.350  30.767  30.172  1.00  0.00     0.037 A 
ATOM     54  C   UNL A   1      42.624  29.206  34.843  1.00  0.00     0.049 A 
ATOM     55  C   UNL A   1      38.528  31.210  31.598  1.00  0.00     0.074 A 
ATOM     56  C   UNL A   1      42.730  29.739  36.116  1.00  0.00     0.029 A 
ATOM     57  N   UNL A   1      41.543  29.827  34.237  1.00  0.00    -0.354 N 
ATOM     58  N   UNL A   1      39.442  30.851  32.468  1.00  0.00    -0.248 NA
ATOM     59  C   UNL A   1      37.554  32.182  32.117  1.00  0.00     0.031 C 
ATOM     60  C   UNL A   1      41.688  30.658  36.292  1.00  0.00     0.029 A 
ATOM     61  C   UNL A   1      40.960  30.724  35.117  1.00  0.00     0.049 A 
ATOM     62  H   UNL A   1      41.236  29.655  33.317  1.00  0.00     0.167 HD
ATOM     63  C   UNL A   1      39.166  31.565  33.626  1.00  0.00     0.074 A 
ATOM     64  C   UNL A   1      38.008  32.389  33.345  1.00  0.00     0.031 C 
ATOM     65  C   UNL A   1      39.812  31.540  34.817  1.00  0.00     0.037 A 
BRANCH  52  66
ATOM     66  C   UNL A   1      44.554  27.595  35.027  1.00  0.00     0.057 A 
ATOM     67  C   UNL A   1      45.858  28.102  34.986  1.00  0.00     0.134 A 
ATOM     68  C   UNL A   1      44.303  26.518  35.887  1.00  0.00     0.134 A 
ATOM     69  F   UNL A   1      46.166  29.123  34.173  1.00  0.00    -0.206 F 
ATOM     70  C   UNL A   1      46.878  27.551  35.764  1.00  0.00     0.040 A 
ATOM     71  C   UNL A   1      45.309  25.972  36.684  1.00  0.00     0.040 A 
ATOM     72  F   UNL A   1      43.073  25.990  35.974  1.00  0.00    -0.206 F 
ATOM     73  C   UNL A   1      46.603  26.487  36.621  1.00  0.00     0.006 A 
ENDBRANCH  52  66
BRANCH  53  74
ATOM     74  C   UNL A   1      37.240  31.305  29.348  1.00  0.00     0.057 A 
ATOM     75  C   UNL A   1      36.096  30.544  29.087  1.00  0.00     0.134 A 
ATOM     76  C   UNL A   1      37.307  32.586  28.787  1.00  0.00     0.134 A 
ATOM     77  F   UNL A   1      35.986  29.301  29.577  1.00  0.00    -0.206 F 
ATOM     78  C   UNL A   1      35.063  31.031  28.283  1.00  0.00     0.040 A 
ATOM     79  C   UNL A   1      36.272  33.095  28.001  1.00  0.00     0.040 A 
ATOM     80  F   UNL A   1      38.378  33.364  29.000  1.00  0.00    -0.206 F 
ATOM     81  C   UNL A   1      35.148  32.312  27.742  1.00  0.00     0.006 A 
ENDBRANCH  53  74
BRANCH  65  82
ATOM     82  C   UNL A   1      39.298  32.447  35.894  1.00  0.00     0.057 A 
ATOM     83  C   UNL A   1      39.775  33.756  36.043  1.00  0.00     0.134 A 
ATOM     84  C   UNL A   1      38.291  32.020  36.769  1.00  0.00     0.134 A 
ATOM     85  F   UNL A   1      40.749  34.219  35.245  1.00  0.00    -0.206 F 
ATOM     86  C   UNL A   1      39.281  34.601  37.038  1.00  0.00     0.040 A 
ATOM     87  C   UNL A   1      37.775  32.863  37.752  1.00  0.00     0.040 A 
ATOM     88  F   UNL A   1      37.788  30.780  36.673  1.00  0.00    -0.206 F 
ATOM     89  C   UNL A   1      38.273  34.157  37.892  1.00  0.00     0.006 A 
ENDBRANCH  65  82
ENDBRANCH  39  40
ENDBRANCH  32  34
ENDBRANCH  31  32
ENDBRANCH  30  31
ENDBRANCH   1  30
TORSDOF 15
ENDMDL
MODEL 2
REMARK VINA RESULT:     -11.7      1.431      2.326
REMARK SMILES C[C@H](Oc1ccc(/C=C2/SC(=S)N(c3ccc(F)c(Cl)c3)C2=O)cc1)C(=O)OCCOC(=O)c1ccc(-c2c3nc(c(-c4c(F)cccc4F)c4ccc([nH]4)c(-c4c(F)cccc4F)c4nc(c(-c5c(F)cccc5F)c5ccc2[nH]5)C=C4)C=C3)cc1
REMARK SMILES IDX 29 1 28 2 26 3 27 4 2 5 1 6 3 7 4 8 5 9 25 10 6 11 24 12
REMARK SMILES IDX 7 13 8 14 9 15 10 16 22 17 11 18 13 19 23 20 12 21 14 22
REMARK SMILES IDX 15 23 21 24 16 25 19 26 17 27 20 28 18 29 30 30 31 31 32 32
REMARK SMILES IDX 33 33 34 34 35 35 87 36 36 37 86 38 37 39 38 40 39 41 80 42
REMARK SMILES IDX 40 43 85 44 79 45 81 46 41 47 84 48 78 49 77 50 42 52 68 53
REMARK SMILES IDX 51 54 67 55 52 56 55 57 66 58 82 59 53 60 54 61 65 63 83 64
REMARK SMILES IDX 56 65 43 66 44 67 49 68 45 69 46 70 48 71 50 72 47 73 69 74
REMARK SMILES IDX 70 75 75 76 71 77 72 78 74 79 76 80 73 81 57 82 58 83 63 84
REMARK SMILES IDX 59 85 60 86 62 87 64 88 61 89
REMARK H PARENT 81 51 55 62
REMARK Flexibility Score: inf
ROOT
ATOM      1  C   UNL A   1      44.506  21.884  25.429  1.00  0.00     0.274 C 
ENDROOT
BRANCH   1   2
ATOM      2  O   UNL A   1      43.356  21.846  26.294  1.00  0.00    -0.459 OA
BRANCH   2   3
ATOM      3  C   UNL A   1      42.341  21.009  25.936  1.00  0.00     0.347 C 
ATOM      4  O   UNL A   1      42.490  19.930  25.371  1.00  0.00    -0.248 OA
BRANCH   3   5
ATOM      5  C   UNL A   1      40.964  21.613  26.231  1.00  0.00     0.279 C 
ATOM      6  C   UNL A   1      41.065  22.275  27.607  1.00  0.00     0.066 C 
BRANCH   5   7
ATOM      7  O   UNL A   1      39.996  20.572  26.113  1.00  0.00    -0.479 OA
BRANCH   7   8
ATOM      8  C   UNL A   1      38.719  20.822  25.719  1.00  0.00     0.120 A 
ATOM      9  C   UNL A   1      37.948  21.935  26.036  1.00  0.00     0.047 A 
ATOM     10  C   UNL A   1      38.152  19.803  24.950  1.00  0.00     0.047 A 
ATOM     11  C   UNL A   1      36.580  21.953  25.732  1.00  0.00     0.012 A 
ATOM     12  C   UNL A   1      36.800  19.836  24.609  1.00  0.00     0.012 A 
ATOM     13  C   UNL A   1      35.986  20.873  25.072  1.00  0.00    -0.024 A 
BRANCH  13  14
ATOM     14  C   UNL A   1      34.528  20.826  24.911  1.00  0.00     0.029 C 
ATOM     15  C   UNL A   1      33.775  21.819  24.408  1.00  0.00     0.081 C 
ATOM     16  S   UNL A   1      32.059  21.729  24.318  1.00  0.00    -0.054 SA
ATOM     17  C   UNL A   1      34.234  23.152  23.905  1.00  0.00     0.270 C 
ATOM     18  C   UNL A   1      31.894  23.414  23.820  1.00  0.00     0.152 C 
ATOM     19  N   UNL A   1      33.146  24.009  23.746  1.00  0.00    -0.261 N 
ATOM     20  O   UNL A   1      35.408  23.419  23.691  1.00  0.00    -0.268 OA
ATOM     21  S   UNL A   1      30.393  24.035  23.420  1.00  0.00    -0.051 S 
BRANCH  19  22
ATOM     22  C   UNL A   1      33.377  25.411  23.542  1.00  0.00     0.052 A 
ATOM     23  C   UNL A   1      33.509  25.946  22.248  1.00  0.00     0.030 A 
ATOM     24  C   UNL A   1      33.586  26.267  24.636  1.00  0.00     0.050 A 
ATOM     25  C   UNL A   1      33.830  27.292  22.051  1.00  0.00     0.043 A 
ATOM     26  C   UNL A   1      33.916  27.612  24.439  1.00  0.00     0.078 A 
ATOM     27  C   UNL A   1      34.035  28.119  23.149  1.00  0.00     0.141 A 
ATOM     28  Cl  UNL A   1      34.210  28.619  25.805  1.00  0.00    -0.081 Cl
ATOM     29  F   UNL A   1      34.366  29.401  22.940  1.00  0.00    -0.205 F 
ENDBRANCH  19  22
ENDBRANCH  13  14
ENDBRANCH   7   8
ENDBRANCH   5   7
ENDBRANCH   3   5
ENDBRANCH   2   3
ENDBRANCH   1   2
BRANCH   1  30
ATOM     30  C   UNL A   1      44.303  22.826  24.240  1.00  0.00     0.275 C 
BRANCH  30  31
ATOM     31  O   UNL A   1      43.680  24.057  24.647  1.00  0.00    -0.458 OA
BRANCH  31  32
ATOM     32  C   UNL A   1      44.531  24.998  25.120  1.00  0.00     0.338 C 
ATOM     33  O   UNL A   1      45.638  25.277  24.695  1.00  0.00    -0.246 OA
BRANCH  32  34
ATOM     34  C   UNL A   1      43.861  25.771  26.179  1.00  0.00     0.060 A 
ATOM     35  C   UNL A   1      44.280  27.089  26.389  1.00  0.00     0.016 A 
ATOM     36  C   UNL A   1      42.874  25.199  26.984  1.00  0.00     0.016 A 
ATOM     37  C   UNL A   1      43.706  27.846  27.407  1.00  0.00     0.010 A 
ATOM     38  C   UNL A   1      42.308  25.957  28.015  1.00  0.00     0.010 A 
ATOM     39  C   UNL A   1      42.727  27.280  28.236  1.00  0.00    -0.014 A 
BRANCH  39  40
ATOM     40  C   UNL A   1      42.183  28.063  29.369  1.00  0.00     0.031 A 
ATOM     41  C   UNL A   1      42.879  28.031  30.697  1.00  0.00     0.074 A 
ATOM     42  C   UNL A   1      41.079  28.812  29.198  1.00  0.00     0.049 A 
ATOM     43  N   UNL A   1      42.537  28.602  31.824  1.00  0.00    -0.248 NA
ATOM     44  C   UNL A   1      44.125  27.254  30.768  1.00  0.00     0.031 C 
ATOM     45  C   UNL A   1      40.338  28.950  27.945  1.00  0.00     0.029 A 
ATOM     46  N   UNL A   1      40.388  29.597  30.086  1.00  0.00    -0.354 N 
ATOM     47  C   UNL A   1      43.519  28.247  32.740  1.00  0.00     0.074 A 
ATOM     48  C   UNL A   1      44.461  27.398  32.042  1.00  0.00     0.031 C 
ATOM     49  C   UNL A   1      39.290  29.766  28.145  1.00  0.00     0.029 A 
ATOM     50  C   UNL A   1      39.268  30.180  29.546  1.00  0.00     0.049 A 
ATOM     51  H   UNL A   1      40.668  29.729  31.020  1.00  0.00     0.167 HD
ATOM     52  C   UNL A   1      43.623  28.603  34.042  1.00  0.00     0.037 A 
ATOM     53  C   UNL A   1      38.321  30.942  30.124  1.00  0.00     0.037 A 
ATOM     54  C   UNL A   1      42.689  29.454  34.731  1.00  0.00     0.049 A 
ATOM     55  C   UNL A   1      38.433  31.276  31.587  1.00  0.00     0.074 A 
ATOM     56  C   UNL A   1      42.722  29.882  36.047  1.00  0.00     0.029 A 
ATOM     57  N   UNL A   1      41.553  30.004  34.158  1.00  0.00    -0.354 N 
ATOM     58  N   UNL A   1      39.372  30.944  32.441  1.00  0.00    -0.248 NA
ATOM     59  C   UNL A   1      37.353  32.087  32.167  1.00  0.00     0.031 C 
ATOM     60  C   UNL A   1      41.584  30.663  36.280  1.00  0.00     0.029 A 
ATOM     61  C   UNL A   1      40.865  30.752  35.100  1.00  0.00     0.049 A 
ATOM     62  H   UNL A   1      41.277  29.880  33.221  1.00  0.00     0.167 HD
ATOM     63  C   UNL A   1      39.005  31.519  33.650  1.00  0.00     0.074 A 
ATOM     64  C   UNL A   1      37.767  32.234  33.417  1.00  0.00     0.031 C 
ATOM     65  C   UNL A   1      39.637  31.460  34.848  1.00  0.00     0.037 A 
BRANCH  52  66
ATOM     66  C   UNL A   1      44.784  28.053  34.816  1.00  0.00     0.057 A 
ATOM     67  C   UNL A   1      45.999  28.742  34.912  1.00  0.00     0.134 A 
ATOM     68  C   UNL A   1      44.667  26.841  35.508  1.00  0.00     0.134 A 
ATOM     69  F   UNL A   1      46.177  29.901  34.262  1.00  0.00    -0.206 F 
ATOM     70  C   UNL A   1      47.064  28.237  35.661  1.00  0.00     0.040 A 
ATOM     71  C   UNL A   1      45.717  26.337  36.275  1.00  0.00     0.040 A 
ATOM     72  F   UNL A   1      43.527  26.136  35.458  1.00  0.00    -0.206 F 
ATOM     73  C   UNL A   1      46.922  27.034  36.351  1.00  0.00     0.006 A 
ENDBRANCH  52  66
BRANCH  53  74
ATOM     74  C   UNL A   1      37.167  31.426  29.327  1.00  0.00     0.057 A 
ATOM     75  C   UNL A   1      37.151  32.714  28.783  1.00  0.00     0.134 A 
ATOM     76  C   UNL A   1      36.046  30.617  29.107  1.00  0.00     0.134 A 
ATOM     77  F   UNL A   1      38.186  33.543  28.980  1.00  0.00    -0.206 F 
ATOM     78  C   UNL A   1      36.054  33.188  28.061  1.00  0.00     0.040 A 
ATOM     79  C   UNL A   1      34.952  31.068  28.368  1.00  0.00     0.040 A 
ATOM     80  F   UNL A   1      36.001  29.372  29.606  1.00  0.00    -0.206 F 
ATOM     81  C   UNL A   1      34.952  32.361  27.848  1.00  0.00     0.006 A 
ENDBRANCH  53  74
BRANCH  65  82
ATOM     82  C   UNL A   1      39.015  32.209  35.987  1.00  0.00     0.057 A 
ATOM     83  C   UNL A   1      38.146  31.584  36.890  1.00  0.00     0.134 A 
ATOM     84  C   UNL A   1      39.314  33.560  36.203  1.00  0.00     0.134 A 
ATOM     85  F   UNL A   1      37.808  30.296  36.729  1.00  0.00    -0.206 F 
ATOM     86  C   UNL A   1      37.581  32.284  37.958  1.00  0.00     0.040 A 
ATOM     87  C   UNL A   1      38.773  34.263  37.279  1.00  0.00     0.040 A 
ATOM     88  F   UNL A   1      40.145  34.213  35.376  1.00  0.00    -0.206 F 
ATOM     89  C   UNL A   1      37.900  33.626  38.159  1.00  0.00     0.006 A 
ENDBRANCH  65  82
ENDBRANCH  39  40
ENDBRANCH  32  34
ENDBRANCH  31  32
ENDBRANCH  30  31
ENDBRANCH   1  30
TORSDOF 15
ENDMDL
MODEL 3
REMARK VINA RESULT:     -11.6      1.248      6.197
REMARK SMILES C[C@H](Oc1ccc(/C=C2/SC(=S)N(c3ccc(F)c(Cl)c3)C2=O)cc1)C(=O)OCCOC(=O)c1ccc(-c2c3nc(c(-c4c(F)cccc4F)c4ccc([nH]4)c(-c4c(F)cccc4F)c4nc(c(-c5c(F)cccc5F)c5ccc2[nH]5)C=C4)C=C3)cc1
REMARK SMILES IDX 29 1 28 2 26 3 27 4 2 5 1 6 3 7 4 8 5 9 25 10 6 11 24 12
REMARK SMILES IDX 7 13 8 14 9 15 10 16 22 17 11 18 13 19 23 20 12 21 14 22
REMARK SMILES IDX 15 23 21 24 16 25 19 26 17 27 20 28 18 29 30 30 31 31 32 32
REMARK SMILES IDX 33 33 34 34 35 35 87 36 36 37 86 38 37 39 38 40 39 41 80 42
REMARK SMILES IDX 40 43 85 44 79 45 81 46 41 47 84 48 78 49 77 50 42 52 68 53
REMARK SMILES IDX 51 54 67 55 52 56 55 57 66 58 82 59 53 60 54 61 65 63 83 64
REMARK SMILES IDX 56 65 43 66 44 67 49 68 45 69 46 70 48 71 50 72 47 73 69 74
REMARK SMILES IDX 70 75 75 76 71 77 72 78 74 79 76 80 73 81 57 82 58 83 63 84
REMARK SMILES IDX 59 85 60 86 62 87 64 88 61 89
REMARK H PARENT 81 51 55 62
REMARK Flexibility Score: inf
ROOT
ATOM      1  C   UNL A   1      44.625  22.121  25.450  1.00  0.00     0.274 C 
ENDROOT
BRANCH   1   2
ATOM      2  O   UNL A   1      43.569  21.932  26.411  1.00  0.00    -0.459 OA
BRANCH   2   3
ATOM      3  C   UNL A   1      42.567  21.073  26.065  1.00  0.00     0.347 C 
ATOM      4  O   UNL A   1      42.714  20.069  25.375  1.00  0.00    -0.248 OA
BRANCH   3   5
ATOM      5  C   UNL A   1      41.199  21.556  26.559  1.00  0.00     0.279 C 
ATOM      6  C   UNL A   1      41.383  21.966  28.020  1.00  0.00     0.066 C 
BRANCH   5   7
ATOM      7  O   UNL A   1      40.257  20.512  26.320  1.00  0.00    -0.479 OA
BRANCH   7   8
ATOM      8  C   UNL A   1      39.009  20.768  25.844  1.00  0.00     0.120 A 
ATOM      9  C   UNL A   1      38.217  21.876  26.124  1.00  0.00     0.047 A 
ATOM     10  C   UNL A   1      38.499  19.761  25.022  1.00  0.00     0.047 A 
ATOM     11  C   UNL A   1      36.873  21.898  25.727  1.00  0.00     0.012 A 
ATOM     12  C   UNL A   1      37.173  19.798  24.589  1.00  0.00     0.012 A 
ATOM     13  C   UNL A   1      36.327  20.828  25.011  1.00  0.00    -0.024 A 
BRANCH  13  14
ATOM     14  C   UNL A   1      34.884  20.783  24.749  1.00  0.00     0.029 C 
ATOM     15  C   UNL A   1      34.113  21.853  24.493  1.00  0.00     0.081 C 
ATOM     16  S   UNL A   1      32.410  21.739  24.271  1.00  0.00    -0.054 SA
ATOM     17  C   UNL A   1      34.534  23.287  24.408  1.00  0.00     0.270 C 
ATOM     18  C   UNL A   1      32.193  23.490  24.248  1.00  0.00     0.152 C 
ATOM     19  N   UNL A   1      33.417  24.121  24.422  1.00  0.00    -0.261 N 
ATOM     20  O   UNL A   1      35.704  23.639  24.352  1.00  0.00    -0.268 OA
ATOM     21  S   UNL A   1      30.687  24.152  23.939  1.00  0.00    -0.051 S 
BRANCH  19  22
ATOM     22  C   UNL A   1      33.591  25.530  24.628  1.00  0.00     0.052 A 
ATOM     23  C   UNL A   1      33.617  26.078  25.923  1.00  0.00     0.030 A 
ATOM     24  C   UNL A   1      33.632  26.413  23.535  1.00  0.00     0.050 A 
ATOM     25  C   UNL A   1      33.690  27.460  26.122  1.00  0.00     0.043 A 
ATOM     26  C   UNL A   1      33.696  27.796  23.736  1.00  0.00     0.078 A 
ATOM     27  C   UNL A   1      33.726  28.313  25.027  1.00  0.00     0.141 A 
ATOM     28  Cl  UNL A   1      33.698  28.847  22.371  1.00  0.00    -0.081 Cl
ATOM     29  F   UNL A   1      33.772  29.636  25.238  1.00  0.00    -0.205 F 
ENDBRANCH  19  22
ENDBRANCH  13  14
ENDBRANCH   7   8
ENDBRANCH   5   7
ENDBRANCH   3   5
ENDBRANCH   2   3
ENDBRANCH   1   2
BRANCH   1  30
ATOM     30  C   UNL A   1      44.174  22.962  24.254  1.00  0.00     0.275 C 
BRANCH  30  31
ATOM     31  O   UNL A   1      43.489  24.153  24.679  1.00  0.00    -0.458 OA
BRANCH  31  32
ATOM     32  C   UNL A   1      44.294  25.146  25.126  1.00  0.00     0.338 C 
ATOM     33  O   UNL A   1      45.351  25.515  24.645  1.00  0.00    -0.246 OA
BRANCH  32  34
ATOM     34  C   UNL A   1      43.630  25.846  26.238  1.00  0.00     0.060 A 
ATOM     35  C   UNL A   1      44.050  27.148  26.532  1.00  0.00     0.016 A 
ATOM     36  C   UNL A   1      42.650  25.221  27.011  1.00  0.00     0.016 A 
ATOM     37  C   UNL A   1      43.483  27.835  27.602  1.00  0.00     0.010 A 
ATOM     38  C   UNL A   1      42.091  25.908  28.093  1.00  0.00     0.010 A 
ATOM     39  C   UNL A   1      42.510  27.215  28.398  1.00  0.00    -0.014 A 
BRANCH  39  40
ATOM     40  C   UNL A   1      41.973  27.920  29.584  1.00  0.00     0.031 A 
ATOM     41  C   UNL A   1      40.725  28.743  29.458  1.00  0.00     0.074 A 
ATOM     42  C   UNL A   1      42.595  27.806  30.771  1.00  0.00     0.049 A 
ATOM     43  N   UNL A   1      40.124  29.476  30.360  1.00  0.00    -0.248 NA
ATOM     44  C   UNL A   1      40.066  28.741  28.144  1.00  0.00     0.031 C 
ATOM     45  C   UNL A   1      43.794  27.007  31.023  1.00  0.00     0.029 A 
ATOM     46  N   UNL A   1      42.303  28.368  31.988  1.00  0.00    -0.354 N 
ATOM     47  C   UNL A   1      39.021  30.030  29.721  1.00  0.00     0.074 A 
ATOM     48  C   UNL A   1      39.046  29.562  28.352  1.00  0.00     0.031 C 
ATOM     49  C   UNL A   1      44.140  27.135  32.315  1.00  0.00     0.029 A 
ATOM     50  C   UNL A   1      43.208  28.050  32.971  1.00  0.00     0.049 A 
ATOM     51  H   UNL A   1      41.520  28.945  32.142  1.00  0.00     0.167 HD
ATOM     52  C   UNL A   1      38.075  30.850  30.236  1.00  0.00     0.037 A 
ATOM     53  C   UNL A   1      43.287  28.468  34.248  1.00  0.00     0.037 A 
ATOM     54  C   UNL A   1      38.049  31.308  31.600  1.00  0.00     0.049 A 
ATOM     55  C   UNL A   1      42.254  29.424  34.776  1.00  0.00     0.074 A 
ATOM     56  C   UNL A   1      37.120  32.129  32.216  1.00  0.00     0.029 A 
ATOM     57  N   UNL A   1      38.997  30.985  32.558  1.00  0.00    -0.354 N 
ATOM     58  N   UNL A   1      41.209  29.933  34.167  1.00  0.00    -0.248 NA
ATOM     59  C   UNL A   1      42.411  29.868  36.169  1.00  0.00     0.031 C 
ATOM     60  C   UNL A   1      37.527  32.332  33.540  1.00  0.00     0.029 A 
ATOM     61  C   UNL A   1      38.686  31.607  33.757  1.00  0.00     0.049 A 
ATOM     62  H   UNL A   1      39.775  30.401  32.409  1.00  0.00     0.167 HD
ATOM     63  C   UNL A   1      40.577  30.738  35.105  1.00  0.00     0.074 A 
ATOM     64  C   UNL A   1      41.346  30.640  36.329  1.00  0.00     0.031 C 
ATOM     65  C   UNL A   1      39.461  31.493  34.966  1.00  0.00     0.037 A 
BRANCH  52  66
ATOM     66  C   UNL A   1      36.996  31.324  29.310  1.00  0.00     0.057 A 
ATOM     67  C   UNL A   1      35.918  30.505  28.952  1.00  0.00     0.134 A 
ATOM     68  C   UNL A   1      37.014  32.631  28.805  1.00  0.00     0.134 A 
ATOM     69  F   UNL A   1      35.850  29.240  29.392  1.00  0.00    -0.206 F 
ATOM     70  C   UNL A   1      34.901  30.966  28.113  1.00  0.00     0.040 A 
ATOM     71  C   UNL A   1      35.994  33.108  27.982  1.00  0.00     0.040 A 
ATOM     72  F   UNL A   1      38.018  33.465  29.114  1.00  0.00    -0.206 F 
ATOM     73  C   UNL A   1      34.934  32.273  27.631  1.00  0.00     0.006 A 
ENDBRANCH  52  66
BRANCH  53  74
ATOM     74  C   UNL A   1      44.400  28.006  35.113  1.00  0.00     0.057 A 
ATOM     75  C   UNL A   1      44.275  26.859  35.904  1.00  0.00     0.134 A 
ATOM     76  C   UNL A   1      45.607  28.712  35.183  1.00  0.00     0.134 A 
ATOM     77  F   UNL A   1      43.134  26.156  35.897  1.00  0.00    -0.206 F 
ATOM     78  C   UNL A   1      45.306  26.439  36.747  1.00  0.00     0.040 A 
ATOM     79  C   UNL A   1      46.654  28.290  36.003  1.00  0.00     0.040 A 
ATOM     80  F   UNL A   1      45.787  29.820  34.450  1.00  0.00    -0.206 F 
ATOM     81  C   UNL A   1      46.501  27.153  36.794  1.00  0.00     0.006 A 
ENDBRANCH  53  74
BRANCH  65  82
ATOM     82  C   UNL A   1      38.990  32.249  36.172  1.00  0.00     0.057 A 
ATOM     83  C   UNL A   1      39.359  33.581  36.396  1.00  0.00     0.134 A 
ATOM     84  C   UNL A   1      38.133  31.647  37.102  1.00  0.00     0.134 A 
ATOM     85  F   UNL A   1      40.191  34.207  35.549  1.00  0.00    -0.206 F 
ATOM     86  C   UNL A   1      38.906  34.283  37.513  1.00  0.00     0.040 A 
ATOM     87  C   UNL A   1      37.655  32.346  38.210  1.00  0.00     0.040 A 
ATOM     88  F   UNL A   1      37.738  30.376  36.940  1.00  0.00    -0.206 F 
ATOM     89  C   UNL A   1      38.046  33.668  38.421  1.00  0.00     0.006 A 
ENDBRANCH  65  82
ENDBRANCH  39  40
ENDBRANCH  32  34
ENDBRANCH  31  32
ENDBRANCH  30  31
ENDBRANCH   1  30
TORSDOF 15
ENDMDL
