MODEL 1
REMARK VINA RESULT:     -12.0      0.000      0.000
REMARK SMILES CC(=O)Nc1cccc(-c2cc(F)ccc2C(=O)OCCOC(=O)c2ccc(-c3c4nc(c(-c5c(F)cccc5F)c5ccc([nH]5)c(-c5c(F)cccc5F)c5nc(c(-c6c(F)cccc6F)c6ccc3[nH]6)C=C5)C=C4)cc2)c1
REMARK SMILES IDX 20 1 19 2 17 3 18 4 16 5 10 6 11 7 12 8 15 9 13 10 14 11
REMARK SMILES IDX 9 12 5 13 6 14 79 15 7 16 8 17 4 18 1 19 2 20 3 21 21 23
REMARK SMILES IDX 22 24 23 25 24 26 25 27 26 28 78 29 27 30 77 31 28 32 29 33
REMARK SMILES IDX 30 34 71 35 31 36 76 37 70 38 72 39 32 40 75 41 69 42 68 43
REMARK SMILES IDX 33 45 59 46 42 47 58 48 43 49 46 50 57 51 73 52 44 53 45 54
REMARK SMILES IDX 56 56 74 57 47 58 34 59 35 60 40 61 36 62 37 63 39 64 41 65
REMARK SMILES IDX 38 66 60 67 61 68 66 69 62 70 63 71 65 72 67 73 64 74 48 75
REMARK SMILES IDX 49 76 54 77 50 78 51 79 53 80 55 81 52 82
REMARK H PARENT 4 22 72 44 46 55
REMARK Flexibility Score: inf
ROOT
ATOM      1  C   UNL A   1      32.659  29.582  25.009  1.00  0.00     0.275 C 
ENDROOT
BRANCH   1   2
ATOM      2  O   UNL A   1      32.683  28.283  25.637  1.00  0.00    -0.458 OA
BRANCH   2   3
ATOM      3  C   UNL A   1      31.711  27.410  25.275  1.00  0.00     0.338 C 
ATOM      4  O   UNL A   1      30.731  27.103  25.929  1.00  0.00    -0.246 OA
BRANCH   3   5
ATOM      5  C   UNL A   1      31.945  26.877  23.906  1.00  0.00     0.068 A 
ATOM      6  C   UNL A   1      31.101  27.165  22.806  1.00  0.00    -0.001 A 
ATOM      7  C   UNL A   1      31.449  26.622  21.554  1.00  0.00     0.048 A 
ATOM      8  C   UNL A   1      32.586  25.830  21.406  1.00  0.00     0.123 A 
ATOM      9  C   UNL A   1      33.110  26.104  23.727  1.00  0.00     0.019 A 
ATOM     10  F   UNL A   1      32.890  25.333  20.200  1.00  0.00    -0.207 F 
ATOM     11  C   UNL A   1      33.418  25.564  22.482  1.00  0.00     0.040 A 
BRANCH   6  12
ATOM     12  C   UNL A   1      29.899  28.011  22.924  1.00  0.00    -0.015 A 
ATOM     13  C   UNL A   1      28.916  30.231  23.217  1.00  0.00     0.041 A 
ATOM     14  C   UNL A   1      27.686  29.627  23.499  1.00  0.00     0.026 A 
ATOM     15  C   UNL A   1      30.004  29.417  22.902  1.00  0.00     0.034 A 
ATOM     16  C   UNL A   1      27.543  28.239  23.449  1.00  0.00     0.003 A 
ATOM     17  C   UNL A   1      28.645  27.436  23.170  1.00  0.00     0.009 A 
BRANCH  13  18
ATOM     18  N   UNL A   1      28.994  31.623  23.392  1.00  0.00    -0.326 N 
ATOM     19  C   UNL A   1      28.110  32.512  21.230  1.00  0.00     0.114 C 
ATOM     20  C   UNL A   1      28.807  32.679  22.550  1.00  0.00     0.221 C 
ATOM     21  O   UNL A   1      29.184  33.795  22.920  1.00  0.00    -0.275 OA
ATOM     22  H   UNL A   1      29.231  31.891  24.309  1.00  0.00     0.169 HD
ENDBRANCH  13  18
ENDBRANCH   6  12
ENDBRANCH   3   5
ENDBRANCH   2   3
ENDBRANCH   1   2
BRANCH   1  23
ATOM     23  C   UNL A   1      31.790  30.547  25.807  1.00  0.00     0.275 C 
BRANCH  23  24
ATOM     24  O   UNL A   1      32.343  30.699  27.124  1.00  0.00    -0.458 OA
BRANCH  24  25
ATOM     25  C   UNL A   1      33.023  31.845  27.332  1.00  0.00     0.338 C 
ATOM     26  O   UNL A   1      32.615  32.994  27.247  1.00  0.00    -0.246 OA
BRANCH  25  27
ATOM     27  C   UNL A   1      34.369  31.514  27.804  1.00  0.00     0.060 A 
ATOM     28  C   UNL A   1      34.639  30.188  28.132  1.00  0.00     0.016 A 
ATOM     29  C   UNL A   1      35.307  32.511  28.048  1.00  0.00     0.016 A 
ATOM     30  C   UNL A   1      35.819  29.857  28.789  1.00  0.00     0.010 A 
ATOM     31  C   UNL A   1      36.528  32.165  28.633  1.00  0.00     0.010 A 
ATOM     32  C   UNL A   1      36.781  30.841  29.045  1.00  0.00    -0.014 A 
BRANCH  32  33
ATOM     33  C   UNL A   1      38.018  30.506  29.802  1.00  0.00     0.031 A 
ATOM     34  C   UNL A   1      39.071  29.641  29.163  1.00  0.00     0.074 A 
ATOM     35  C   UNL A   1      38.214  30.985  31.046  1.00  0.00     0.049 A 
ATOM     36  N   UNL A   1      40.111  29.061  29.706  1.00  0.00    -0.248 NA
ATOM     37  C   UNL A   1      38.926  29.383  27.721  1.00  0.00     0.031 C 
ATOM     38  C   UNL A   1      37.312  31.886  31.764  1.00  0.00     0.029 A 
ATOM     39  N   UNL A   1      39.245  30.778  31.929  1.00  0.00    -0.354 N 
ATOM     40  C   UNL A   1      40.709  28.325  28.689  1.00  0.00     0.074 A 
ATOM     41  C   UNL A   1      39.913  28.528  27.497  1.00  0.00     0.031 C 
ATOM     42  C   UNL A   1      37.841  32.179  32.961  1.00  0.00     0.029 A 
ATOM     43  C   UNL A   1      39.070  31.415  33.134  1.00  0.00     0.049 A 
ATOM     44  H   UNL A   1      40.033  30.226  31.720  1.00  0.00     0.167 HD
ATOM     45  C   UNL A   1      41.818  27.551  28.747  1.00  0.00     0.037 A 
ATOM     46  C   UNL A   1      39.792  31.353  34.270  1.00  0.00     0.037 A 
ATOM     47  C   UNL A   1      42.634  27.396  29.923  1.00  0.00     0.049 A 
ATOM     48  C   UNL A   1      40.993  30.452  34.324  1.00  0.00     0.074 A 
ATOM     49  C   UNL A   1      43.775  26.631  30.089  1.00  0.00     0.029 A 
ATOM     50  N   UNL A   1      42.403  28.037  31.131  1.00  0.00    -0.354 N 
ATOM     51  N   UNL A   1      41.506  29.699  33.381  1.00  0.00    -0.248 NA
ATOM     52  C   UNL A   1      41.702  30.373  35.610  1.00  0.00     0.031 C 
ATOM     53  C   UNL A   1      44.220  26.788  31.407  1.00  0.00     0.029 A 
ATOM     54  C   UNL A   1      43.378  27.683  32.048  1.00  0.00     0.049 A 
ATOM     55  H   UNL A   1      41.658  28.655  31.310  1.00  0.00     0.167 HD
ATOM     56  C   UNL A   1      42.604  29.071  33.953  1.00  0.00     0.074 A 
ATOM     57  C   UNL A   1      42.694  29.544  35.318  1.00  0.00     0.031 C 
ATOM     58  C   UNL A   1      43.457  28.175  33.399  1.00  0.00     0.037 A 
BRANCH  45  59
ATOM     59  C   UNL A   1      42.197  26.787  27.511  1.00  0.00     0.057 A 
ATOM     60  C   UNL A   1      43.003  27.340  26.509  1.00  0.00     0.134 A 
ATOM     61  C   UNL A   1      41.771  25.462  27.339  1.00  0.00     0.134 A 
ATOM     62  F   UNL A   1      43.432  28.607  26.606  1.00  0.00    -0.206 F 
ATOM     63  C   UNL A   1      43.354  26.613  25.370  1.00  0.00     0.040 A 
ATOM     64  C   UNL A   1      42.135  24.717  26.217  1.00  0.00     0.040 A 
ATOM     65  F   UNL A   1      41.001  24.869  28.263  1.00  0.00    -0.206 F 
ATOM     66  C   UNL A   1      42.924  25.294  25.224  1.00  0.00     0.006 A 
ENDBRANCH  45  59
BRANCH  46  67
ATOM     67  C   UNL A   1      39.371  32.131  35.463  1.00  0.00     0.057 A 
ATOM     68  C   UNL A   1      38.510  31.581  36.419  1.00  0.00     0.134 A 
ATOM     69  C   UNL A   1      39.815  33.443  35.674  1.00  0.00     0.134 A 
ATOM     70  F   UNL A   1      38.031  30.339  36.260  1.00  0.00    -0.206 F 
ATOM     71  C   UNL A   1      38.096  32.310  37.535  1.00  0.00     0.040 A 
ATOM     72  C   UNL A   1      39.434  34.173  36.800  1.00  0.00     0.040 A 
ATOM     73  F   UNL A   1      40.643  34.028  34.794  1.00  0.00    -0.206 F 
ATOM     74  C   UNL A   1      38.565  33.608  37.732  1.00  0.00     0.006 A 
ENDBRANCH  46  67
BRANCH  58  75
ATOM     75  C   UNL A   1      44.581  27.685  34.261  1.00  0.00     0.057 A 
ATOM     76  C   UNL A   1      44.468  26.521  35.032  1.00  0.00     0.134 A 
ATOM     77  C   UNL A   1      45.800  28.375  34.300  1.00  0.00     0.134 A 
ATOM     78  F   UNL A   1      43.321  25.826  35.048  1.00  0.00    -0.206 F 
ATOM     79  C   UNL A   1      45.521  26.074  35.830  1.00  0.00     0.040 A 
ATOM     80  C   UNL A   1      46.867  27.923  35.076  1.00  0.00     0.040 A 
ATOM     81  F   UNL A   1      45.973  29.493  33.579  1.00  0.00    -0.206 F 
ATOM     82  C   UNL A   1      46.727  26.772  35.849  1.00  0.00     0.006 A 
ENDBRANCH  58  75
ENDBRANCH  32  33
ENDBRANCH  25  27
ENDBRANCH  24  25
ENDBRANCH  23  24
ENDBRANCH   1  23
TORSDOF 13
ENDMDL
MODEL 2
REMARK VINA RESULT:     -12.0      5.502      9.939
REMARK SMILES CC(=O)Nc1cccc(-c2cc(F)ccc2C(=O)OCCOC(=O)c2ccc(-c3c4nc(c(-c5c(F)cccc5F)c5ccc([nH]5)c(-c5c(F)cccc5F)c5nc(c(-c6c(F)cccc6F)c6ccc3[nH]6)C=C5)C=C4)cc2)c1
REMARK SMILES IDX 20 1 19 2 17 3 18 4 16 5 10 6 11 7 12 8 15 9 13 10 14 11
REMARK SMILES IDX 9 12 5 13 6 14 79 15 7 16 8 17 4 18 1 19 2 20 3 21 21 23
REMARK SMILES IDX 22 24 23 25 24 26 25 27 26 28 78 29 27 30 77 31 28 32 29 33
REMARK SMILES IDX 30 34 71 35 31 36 76 37 70 38 72 39 32 40 75 41 69 42 68 43
REMARK SMILES IDX 33 45 59 46 42 47 58 48 43 49 46 50 57 51 73 52 44 53 45 54
REMARK SMILES IDX 56 56 74 57 47 58 34 59 35 60 40 61 36 62 37 63 39 64 41 65
REMARK SMILES IDX 38 66 60 67 61 68 66 69 62 70 63 71 65 72 67 73 64 74 48 75
REMARK SMILES IDX 49 76 54 77 50 78 51 79 53 80 55 81 52 82
REMARK H PARENT 4 22 72 44 46 55
REMARK Flexibility Score: inf
ROOT
ATOM      1  C   UNL A   1      35.751  20.216  24.988  1.00  0.00     0.275 C 
ENDROOT
BRANCH   1   2
ATOM      2  O   UNL A   1      35.434  21.570  25.369  1.00  0.00    -0.458 OA
BRANCH   2   3
ATOM      3  C   UNL A   1      34.617  22.264  24.539  1.00  0.00     0.338 C 
ATOM      4  O   UNL A   1      34.846  22.571  23.383  1.00  0.00    -0.246 OA
BRANCH   3   5
ATOM      5  C   UNL A   1      33.321  22.584  25.198  1.00  0.00     0.068 A 
ATOM      6  C   UNL A   1      32.180  21.749  25.112  1.00  0.00    -0.001 A 
ATOM      7  C   UNL A   1      31.023  22.149  25.807  1.00  0.00     0.048 A 
ATOM      8  C   UNL A   1      31.004  23.327  26.553  1.00  0.00     0.123 A 
ATOM      9  C   UNL A   1      33.292  23.751  25.987  1.00  0.00     0.019 A 
ATOM     10  F   UNL A   1      29.888  23.677  27.204  1.00  0.00    -0.207 F 
ATOM     11  C   UNL A   1      32.128  24.133  26.646  1.00  0.00     0.040 A 
BRANCH   6  12
ATOM     12  C   UNL A   1      32.171  20.489  24.346  1.00  0.00    -0.015 A 
ATOM     13  C   UNL A   1      32.419  18.057  24.303  1.00  0.00     0.041 A 
ATOM     14  C   UNL A   1      32.508  18.111  22.907  1.00  0.00     0.026 A 
ATOM     15  C   UNL A   1      32.220  19.244  25.006  1.00  0.00     0.034 A 
ATOM     16  C   UNL A   1      32.383  19.325  22.230  1.00  0.00     0.003 A 
ATOM     17  C   UNL A   1      32.222  20.508  22.946  1.00  0.00     0.009 A 
BRANCH  13  18
ATOM     18  N   UNL A   1      32.659  16.810  24.906  1.00  0.00    -0.326 N 
ATOM     19  C   UNL A   1      35.147  16.607  24.809  1.00  0.00     0.114 C 
ATOM     20  C   UNL A   1      33.776  16.040  25.041  1.00  0.00     0.221 C 
ATOM     21  O   UNL A   1      33.637  14.870  25.408  1.00  0.00    -0.275 OA
ATOM     22  H   UNL A   1      31.857  16.411  25.315  1.00  0.00     0.169 HD
ENDBRANCH  13  18
ENDBRANCH   6  12
ENDBRANCH   3   5
ENDBRANCH   2   3
ENDBRANCH   1   2
BRANCH   1  23
ATOM     23  C   UNL A   1      37.261  20.013  24.934  1.00  0.00     0.275 C 
BRANCH  23  24
ATOM     24  O   UNL A   1      37.908  21.141  25.544  1.00  0.00    -0.458 OA
BRANCH  24  25
ATOM     25  C   UNL A   1      39.148  20.903  26.019  1.00  0.00     0.338 C 
ATOM     26  O   UNL A   1      39.815  19.884  25.921  1.00  0.00    -0.246 OA
BRANCH  25  27
ATOM     27  C   UNL A   1      39.667  22.136  26.616  1.00  0.00     0.060 A 
ATOM     28  C   UNL A   1      39.177  23.350  26.141  1.00  0.00     0.016 A 
ATOM     29  C   UNL A   1      40.715  22.102  27.529  1.00  0.00     0.016 A 
ATOM     30  C   UNL A   1      39.788  24.542  26.509  1.00  0.00     0.010 A 
ATOM     31  C   UNL A   1      41.275  23.307  27.964  1.00  0.00     0.010 A 
ATOM     32  C   UNL A   1      40.844  24.537  27.429  1.00  0.00    -0.014 A 
BRANCH  32  33
ATOM     33  C   UNL A   1      41.542  25.803  27.781  1.00  0.00     0.031 A 
ATOM     34  C   UNL A   1      40.831  26.842  28.607  1.00  0.00     0.074 A 
ATOM     35  C   UNL A   1      42.811  26.022  27.383  1.00  0.00     0.049 A 
ATOM     36  N   UNL A   1      41.167  28.083  28.849  1.00  0.00    -0.248 NA
ATOM     37  C   UNL A   1      39.565  26.429  29.235  1.00  0.00     0.031 C 
ATOM     38  C   UNL A   1      43.644  25.080  26.635  1.00  0.00     0.029 A 
ATOM     39  N   UNL A   1      43.624  27.115  27.558  1.00  0.00    -0.354 N 
ATOM     40  C   UNL A   1      40.129  28.616  29.605  1.00  0.00     0.074 A 
ATOM     41  C   UNL A   1      39.150  27.565  29.779  1.00  0.00     0.031 C 
ATOM     42  C   UNL A   1      44.856  25.619  26.442  1.00  0.00     0.029 A 
ATOM     43  C   UNL A   1      44.858  26.979  26.969  1.00  0.00     0.049 A 
ATOM     44  H   UNL A   1      43.350  27.918  28.057  1.00  0.00     0.167 HD
ATOM     45  C   UNL A   1      40.006  29.869  30.105  1.00  0.00     0.037 A 
ATOM     46  C   UNL A   1      45.862  27.865  26.824  1.00  0.00     0.037 A 
ATOM     47  C   UNL A   1      41.009  30.893  29.972  1.00  0.00     0.049 A 
ATOM     48  C   UNL A   1      45.684  29.263  27.348  1.00  0.00     0.074 A 
ATOM     49  C   UNL A   1      40.980  32.197  30.437  1.00  0.00     0.029 A 
ATOM     50  N   UNL A   1      42.232  30.721  29.342  1.00  0.00    -0.354 N 
ATOM     51  N   UNL A   1      44.667  29.781  27.993  1.00  0.00    -0.248 NA
ATOM     52  C   UNL A   1      46.784  30.205  27.101  1.00  0.00     0.031 C 
ATOM     53  C   UNL A   1      42.176  32.821  30.064  1.00  0.00     0.029 A 
ATOM     54  C   UNL A   1      42.965  31.894  29.402  1.00  0.00     0.049 A 
ATOM     55  H   UNL A   1      42.536  29.887  28.916  1.00  0.00     0.167 HD
ATOM     56  C   UNL A   1      45.010  31.102  28.243  1.00  0.00     0.074 A 
ATOM     57  C   UNL A   1      46.336  31.302  27.697  1.00  0.00     0.031 C 
ATOM     58  C   UNL A   1      44.288  32.068  28.862  1.00  0.00     0.037 A 
BRANCH  45  59
ATOM     59  C   UNL A   1      38.729  30.210  30.816  1.00  0.00     0.057 A 
ATOM     60  C   UNL A   1      37.629  30.765  30.150  1.00  0.00     0.134 A 
ATOM     61  C   UNL A   1      38.589  29.949  32.186  1.00  0.00     0.134 A 
ATOM     62  F   UNL A   1      37.702  31.053  28.842  1.00  0.00    -0.206 F 
ATOM     63  C   UNL A   1      36.445  31.068  30.824  1.00  0.00     0.040 A 
ATOM     64  C   UNL A   1      37.402  30.224  32.866  1.00  0.00     0.040 A 
ATOM     65  F   UNL A   1      39.601  29.413  32.884  1.00  0.00    -0.206 F 
ATOM     66  C   UNL A   1      36.327  30.792  32.186  1.00  0.00     0.006 A 
ENDBRANCH  45  59
BRANCH  46  67
ATOM     67  C   UNL A   1      47.104  27.474  26.112  1.00  0.00     0.057 A 
ATOM     68  C   UNL A   1      47.199  27.563  24.719  1.00  0.00     0.134 A 
ATOM     69  C   UNL A   1      48.225  26.997  26.805  1.00  0.00     0.134 A 
ATOM     70  F   UNL A   1      46.152  27.988  23.997  1.00  0.00    -0.206 F 
ATOM     71  C   UNL A   1      48.358  27.182  24.040  1.00  0.00     0.040 A 
ATOM     72  C   UNL A   1      49.399  26.641  26.142  1.00  0.00     0.040 A 
ATOM     73  F   UNL A   1      48.198  26.887  28.142  1.00  0.00    -0.206 F 
ATOM     74  C   UNL A   1      49.466  26.726  24.753  1.00  0.00     0.006 A 
ENDBRANCH  46  67
BRANCH  58  75
ATOM     75  C   UNL A   1      44.939  33.410  29.015  1.00  0.00     0.057 A 
ATOM     76  C   UNL A   1      45.761  33.711  30.109  1.00  0.00     0.134 A 
ATOM     77  C   UNL A   1      44.759  34.402  28.044  1.00  0.00     0.134 A 
ATOM     78  F   UNL A   1      45.958  32.806  31.080  1.00  0.00    -0.206 F 
ATOM     79  C   UNL A   1      46.362  34.962  30.242  1.00  0.00     0.040 A 
ATOM     80  C   UNL A   1      45.375  35.649  28.155  1.00  0.00     0.040 A 
ATOM     81  F   UNL A   1      43.989  34.174  26.970  1.00  0.00    -0.206 F 
ATOM     82  C   UNL A   1      46.175  35.933  29.261  1.00  0.00     0.006 A 
ENDBRANCH  58  75
ENDBRANCH  32  33
ENDBRANCH  25  27
ENDBRANCH  24  25
ENDBRANCH  23  24
ENDBRANCH   1  23
TORSDOF 13
ENDMDL
MODEL 3
REMARK VINA RESULT:     -11.8      4.677      8.984
REMARK SMILES CC(=O)Nc1cccc(-c2cc(F)ccc2C(=O)OCCOC(=O)c2ccc(-c3c4nc(c(-c5c(F)cccc5F)c5ccc([nH]5)c(-c5c(F)cccc5F)c5nc(c(-c6c(F)cccc6F)c6ccc3[nH]6)C=C5)C=C4)cc2)c1
REMARK SMILES IDX 20 1 19 2 17 3 18 4 16 5 10 6 11 7 12 8 15 9 13 10 14 11
REMARK SMILES IDX 9 12 5 13 6 14 79 15 7 16 8 17 4 18 1 19 2 20 3 21 21 23
REMARK SMILES IDX 22 24 23 25 24 26 25 27 26 28 78 29 27 30 77 31 28 32 29 33
REMARK SMILES IDX 30 34 71 35 31 36 76 37 70 38 72 39 32 40 75 41 69 42 68 43
REMARK SMILES IDX 33 45 59 46 42 47 58 48 43 49 46 50 57 51 73 52 44 53 45 54
REMARK SMILES IDX 56 56 74 57 47 58 34 59 35 60 40 61 36 62 37 63 39 64 41 65
REMARK SMILES IDX 38 66 60 67 61 68 66 69 62 70 63 71 65 72 67 73 64 74 48 75
REMARK SMILES IDX 49 76 54 77 50 78 51 79 53 80 55 81 52 82
REMARK H PARENT 4 22 72 44 46 55
REMARK Flexibility Score: inf
ROOT
ATOM      1  C   UNL A   1      35.450  21.792  25.515  1.00  0.00     0.275 C 
ENDROOT
BRANCH   1   2
ATOM      2  O   UNL A   1      34.494  21.261  26.458  1.00  0.00    -0.458 OA
BRANCH   2   3
ATOM      3  C   UNL A   1      33.184  21.370  26.127  1.00  0.00     0.338 C 
ATOM      4  O   UNL A   1      32.367  22.117  26.634  1.00  0.00    -0.246 OA
BRANCH   3   5
ATOM      5  C   UNL A   1      32.838  20.476  24.988  1.00  0.00     0.068 A 
ATOM      6  C   UNL A   1      32.479  20.958  23.706  1.00  0.00    -0.001 A 
ATOM      7  C   UNL A   1      32.203  20.008  22.703  1.00  0.00     0.048 A 
ATOM      8  C   UNL A   1      32.281  18.643  22.968  1.00  0.00     0.123 A 
ATOM      9  C   UNL A   1      32.946  19.092  25.225  1.00  0.00     0.019 A 
ATOM     10  F   UNL A   1      32.015  17.766  21.992  1.00  0.00    -0.207 F 
ATOM     11  C   UNL A   1      32.647  18.176  24.221  1.00  0.00     0.040 A 
BRANCH   6  12
ATOM     12  C   UNL A   1      32.403  22.396  23.387  1.00  0.00    -0.015 A 
ATOM     13  C   UNL A   1      31.073  24.441  23.216  1.00  0.00     0.041 A 
ATOM     14  C   UNL A   1      32.106  25.027  22.477  1.00  0.00     0.026 A 
ATOM     15  C   UNL A   1      31.245  23.141  23.691  1.00  0.00     0.034 A 
ATOM     16  C   UNL A   1      33.293  24.334  22.233  1.00  0.00     0.003 A 
ATOM     17  C   UNL A   1      33.438  23.023  22.680  1.00  0.00     0.009 A 
BRANCH  13  18
ATOM     18  N   UNL A   1      29.877  25.171  23.324  1.00  0.00    -0.326 N 
ATOM     19  C   UNL A   1      30.479  27.007  24.908  1.00  0.00     0.114 C 
ATOM     20  C   UNL A   1      29.482  26.198  24.129  1.00  0.00     0.221 C 
ATOM     21  O   UNL A   1      28.282  26.481  24.168  1.00  0.00    -0.275 OA
ATOM     22  H   UNL A   1      29.182  24.883  22.688  1.00  0.00     0.169 HD
ENDBRANCH  13  18
ENDBRANCH   6  12
ENDBRANCH   3   5
ENDBRANCH   2   3
ENDBRANCH   1   2
BRANCH   1  23
ATOM     23  C   UNL A   1      36.528  20.760  25.206  1.00  0.00     0.275 C 
BRANCH  23  24
ATOM     24  O   UNL A   1      37.770  21.439  24.958  1.00  0.00    -0.458 OA
BRANCH  24  25
ATOM     25  C   UNL A   1      38.804  21.040  25.727  1.00  0.00     0.338 C 
ATOM     26  O   UNL A   1      39.277  19.919  25.840  1.00  0.00    -0.246 OA
BRANCH  25  27
ATOM     27  C   UNL A   1      39.392  22.217  26.371  1.00  0.00     0.060 A 
ATOM     28  C   UNL A   1      38.864  23.467  26.056  1.00  0.00     0.016 A 
ATOM     29  C   UNL A   1      40.528  22.105  27.165  1.00  0.00     0.016 A 
ATOM     30  C   UNL A   1      39.520  24.624  26.461  1.00  0.00     0.010 A 
ATOM     31  C   UNL A   1      41.139  23.268  27.642  1.00  0.00     0.010 A 
ATOM     32  C   UNL A   1      40.665  24.540  27.263  1.00  0.00    -0.014 A 
BRANCH  32  33
ATOM     33  C   UNL A   1      41.406  25.772  27.649  1.00  0.00     0.031 A 
ATOM     34  C   UNL A   1      40.732  26.808  28.508  1.00  0.00     0.074 A 
ATOM     35  C   UNL A   1      42.680  25.960  27.253  1.00  0.00     0.049 A 
ATOM     36  N   UNL A   1      41.109  28.031  28.784  1.00  0.00    -0.248 NA
ATOM     37  C   UNL A   1      39.455  26.420  29.128  1.00  0.00     0.031 C 
ATOM     38  C   UNL A   1      43.479  25.013  26.475  1.00  0.00     0.029 A 
ATOM     39  N   UNL A   1      43.529  27.020  27.456  1.00  0.00    -0.354 N 
ATOM     40  C   UNL A   1      40.092  28.576  29.559  1.00  0.00     0.074 A 
ATOM     41  C   UNL A   1      39.079  27.552  29.706  1.00  0.00     0.031 C 
ATOM     42  C   UNL A   1      44.708  25.517  26.293  1.00  0.00     0.029 A 
ATOM     43  C   UNL A   1      44.757  26.860  26.858  1.00  0.00     0.049 A 
ATOM     44  H   UNL A   1      43.283  27.817  27.979  1.00  0.00     0.167 HD
ATOM     45  C   UNL A   1      40.012  29.816  30.096  1.00  0.00     0.037 A 
ATOM     46  C   UNL A   1      45.788  27.717  26.736  1.00  0.00     0.037 A 
ATOM     47  C   UNL A   1      41.048  30.811  29.989  1.00  0.00     0.049 A 
ATOM     48  C   UNL A   1      45.659  29.104  27.300  1.00  0.00     0.074 A 
ATOM     49  C   UNL A   1      41.064  32.100  30.492  1.00  0.00     0.029 A 
ATOM     50  N   UNL A   1      42.263  30.616  29.349  1.00  0.00    -0.354 N 
ATOM     51  N   UNL A   1      44.661  29.636  27.964  1.00  0.00    -0.248 NA
ATOM     52  C   UNL A   1      46.789  30.016  27.077  1.00  0.00     0.031 C 
ATOM     53  C   UNL A   1      42.278  32.695  30.132  1.00  0.00     0.029 A 
ATOM     54  C   UNL A   1      43.034  31.762  29.441  1.00  0.00     0.049 A 
ATOM     55  H   UNL A   1      42.537  29.786  28.898  1.00  0.00     0.167 HD
ATOM     56  C   UNL A   1      45.049  30.938  28.251  1.00  0.00     0.074 A 
ATOM     57  C   UNL A   1      46.379  31.109  27.706  1.00  0.00     0.031 C 
ATOM     58  C   UNL A   1      44.361  31.908  28.901  1.00  0.00     0.037 A 
BRANCH  45  59
ATOM     59  C   UNL A   1      38.748  30.178  30.821  1.00  0.00     0.057 A 
ATOM     60  C   UNL A   1      38.578  29.938  32.190  1.00  0.00     0.134 A 
ATOM     61  C   UNL A   1      37.696  30.806  30.140  1.00  0.00     0.134 A 
ATOM     62  F   UNL A   1      39.541  29.328  32.897  1.00  0.00    -0.206 F 
ATOM     63  C   UNL A   1      37.400  30.290  32.852  1.00  0.00     0.040 A 
ATOM     64  C   UNL A   1      36.523  31.185  30.796  1.00  0.00     0.040 A 
ATOM     65  F   UNL A   1      37.794  31.070  28.829  1.00  0.00    -0.206 F 
ATOM     66  C   UNL A   1      36.370  30.920  32.155  1.00  0.00     0.006 A 
ENDBRANCH  45  59
BRANCH  46  67
ATOM     67  C   UNL A   1      47.015  27.306  26.008  1.00  0.00     0.057 A 
ATOM     68  C   UNL A   1      48.101  26.736  26.682  1.00  0.00     0.134 A 
ATOM     69  C   UNL A   1      47.136  27.477  24.623  1.00  0.00     0.134 A 
ATOM     70  F   UNL A   1      48.057  26.569  28.012  1.00  0.00    -0.206 F 
ATOM     71  C   UNL A   1      49.265  26.362  26.009  1.00  0.00     0.040 A 
ATOM     72  C   UNL A   1      48.281  27.080  23.932  1.00  0.00     0.040 A 
ATOM     73  F   UNL A   1      46.130  28.018  23.917  1.00  0.00    -0.206 F 
ATOM     74  C   UNL A   1      49.354  26.526  24.627  1.00  0.00     0.006 A 
ENDBRANCH  46  67
BRANCH  58  75
ATOM     75  C   UNL A   1      45.056  33.222  29.091  1.00  0.00     0.057 A 
ATOM     76  C   UNL A   1      45.882  33.468  30.195  1.00  0.00     0.134 A 
ATOM     77  C   UNL A   1      44.915  34.245  28.144  1.00  0.00     0.134 A 
ATOM     78  F   UNL A   1      46.044  32.533  31.143  1.00  0.00    -0.206 F 
ATOM     79  C   UNL A   1      46.526  34.694  30.362  1.00  0.00     0.040 A 
ATOM     80  C   UNL A   1      45.572  35.466  28.289  1.00  0.00     0.040 A 
ATOM     81  F   UNL A   1      44.143  34.069  27.062  1.00  0.00    -0.206 F 
ATOM     82  C   UNL A   1      46.376  35.695  29.405  1.00  0.00     0.006 A 
ENDBRANCH  58  75
ENDBRANCH  32  33
ENDBRANCH  25  27
ENDBRANCH  24  25
ENDBRANCH  23  24
ENDBRANCH   1  23
TORSDOF 13
ENDMDL
