MODEL 1
REMARK VINA RESULT:     -11.1      0.000      0.000
REMARK SMILES C[C@@H](c1ccncc1)N1C[C@@H](C(=O)OCCOC(=O)c2ccc(-c3c4nc(c(-c5c(F)cccc5F)c5ccc([nH]5)c(-c5c(F)cccc5F)c5nc(c(-c6c(F)cccc6F)c6ccc3[nH]6)C=C5)C=C4)cc2)CC1=O
REMARK SMILES IDX 15 1 14 2 12 3 13 4 11 5 9 6 10 7 75 8 74 9 76 10 2 11 1 12
REMARK SMILES IDX 3 13 4 14 8 15 5 16 7 17 6 18 16 19 17 20 18 21 19 22 20 23
REMARK SMILES IDX 21 24 73 25 22 26 72 27 23 28 24 29 25 30 66 31 26 32 71 33
REMARK SMILES IDX 65 34 67 35 27 36 70 37 64 38 63 39 28 41 54 42 37 43 53 44
REMARK SMILES IDX 38 45 41 46 52 47 68 48 39 49 40 50 51 52 69 53 42 54 29 55
REMARK SMILES IDX 30 56 35 57 31 58 32 59 34 60 36 61 33 62 55 63 56 64 61 65
REMARK SMILES IDX 57 66 58 67 60 68 62 69 59 70 43 71 44 72 49 73 45 74 46 75
REMARK SMILES IDX 48 76 50 77 47 78
REMARK H PARENT 67 40 41 51
REMARK Flexibility Score: inf
ROOT
ATOM      1  C   UNL A   1      46.622  23.123  24.381  1.00  0.00     0.274 C 
ENDROOT
BRANCH   1   2
ATOM      2  O   UNL A   1      45.772  22.079  23.867  1.00  0.00    -0.462 OA
BRANCH   2   3
ATOM      3  C   UNL A   1      45.787  20.892  24.518  1.00  0.00     0.311 C 
ATOM      4  O   UNL A   1      46.786  20.359  24.987  1.00  0.00    -0.252 OA
BRANCH   3   5
ATOM      5  C   UNL A   1      44.418  20.280  24.659  1.00  0.00     0.128 C 
ATOM      6  N   UNL A   1      42.616  19.913  26.067  1.00  0.00    -0.335 N 
ATOM      7  C   UNL A   1      43.666  20.880  25.820  1.00  0.00     0.136 C 
ATOM      8  C   UNL A   1      43.064  18.641  25.702  1.00  0.00     0.224 C 
ATOM      9  C   UNL A   1      44.339  18.785  24.912  1.00  0.00     0.117 C 
ATOM     10  O   UNL A   1      42.583  17.558  25.995  1.00  0.00    -0.275 OA
BRANCH   6  11
ATOM     11  C   UNL A   1      41.500  20.169  26.997  1.00  0.00     0.112 C 
ATOM     12  C   UNL A   1      41.820  21.285  28.010  1.00  0.00     0.036 C 
BRANCH  11  13
ATOM     13  C   UNL A   1      40.172  20.437  26.291  1.00  0.00    -0.023 A 
ATOM     14  C   UNL A   1      39.455  19.462  25.588  1.00  0.00     0.026 A 
ATOM     15  C   UNL A   1      39.625  21.728  26.324  1.00  0.00     0.026 A 
ATOM     16  C   UNL A   1      38.272  19.819  24.952  1.00  0.00     0.111 A 
ATOM     17  C   UNL A   1      38.418  21.980  25.691  1.00  0.00     0.111 A 
ATOM     18  N   UNL A   1      37.736  21.057  24.988  1.00  0.00    -0.265 NA
ENDBRANCH  11  13
ENDBRANCH   6  11
ENDBRANCH   3   5
ENDBRANCH   2   3
ENDBRANCH   1   2
BRANCH   1  19
ATOM     19  C   UNL A   1      45.869  23.958  25.421  1.00  0.00     0.275 C 
BRANCH  19  20
ATOM     20  O   UNL A   1      44.902  24.831  24.803  1.00  0.00    -0.458 OA
BRANCH  20  21
ATOM     21  C   UNL A   1      43.609  24.476  24.991  1.00  0.00     0.338 C 
ATOM     22  O   UNL A   1      43.022  23.531  24.496  1.00  0.00    -0.246 OA
BRANCH  21  23
ATOM     23  C   UNL A   1      43.002  25.324  26.027  1.00  0.00     0.060 A 
ATOM     24  C   UNL A   1      43.445  26.642  26.126  1.00  0.00     0.016 A 
ATOM     25  C   UNL A   1      42.107  24.810  26.964  1.00  0.00     0.016 A 
ATOM     26  C   UNL A   1      43.025  27.454  27.170  1.00  0.00     0.010 A 
ATOM     27  C   UNL A   1      41.660  25.636  28.003  1.00  0.00     0.010 A 
ATOM     28  C   UNL A   1      42.127  26.958  28.120  1.00  0.00    -0.014 A 
BRANCH  28  29
ATOM     29  C   UNL A   1      41.719  27.824  29.251  1.00  0.00     0.031 A 
ATOM     30  C   UNL A   1      42.488  27.790  30.539  1.00  0.00     0.074 A 
ATOM     31  C   UNL A   1      40.679  28.667  29.106  1.00  0.00     0.049 A 
ATOM     32  N   UNL A   1      42.225  28.383  31.674  1.00  0.00    -0.248 NA
ATOM     33  C   UNL A   1      43.714  26.978  30.552  1.00  0.00     0.031 C 
ATOM     34  C   UNL A   1      39.892  28.836  27.883  1.00  0.00     0.029 A 
ATOM     35  N   UNL A   1      40.107  29.541  29.995  1.00  0.00    -0.354 N 
ATOM     36  C   UNL A   1      43.231  27.991  32.547  1.00  0.00     0.074 A 
ATOM     37  C   UNL A   1      44.106  27.103  31.812  1.00  0.00     0.031 C 
ATOM     38  C   UNL A   1      38.942  29.759  28.097  1.00  0.00     0.029 A 
ATOM     39  C   UNL A   1      39.016  30.202  29.486  1.00  0.00     0.049 A 
ATOM     40  H   UNL A   1      40.445  29.680  30.908  1.00  0.00     0.167 HD
ATOM     41  C   UNL A   1      43.405  28.341  33.844  1.00  0.00     0.037 A 
ATOM     42  C   UNL A   1      38.150  31.042  30.083  1.00  0.00     0.037 A 
ATOM     43  C   UNL A   1      42.548  29.249  34.560  1.00  0.00     0.049 A 
ATOM     44  C   UNL A   1      38.336  31.375  31.536  1.00  0.00     0.074 A 
ATOM     45  C   UNL A   1      42.647  29.678  35.873  1.00  0.00     0.029 A 
ATOM     46  N   UNL A   1      41.435  29.876  34.018  1.00  0.00    -0.354 N 
ATOM     47  N   UNL A   1      39.272  30.975  32.361  1.00  0.00    -0.248 NA
ATOM     48  C   UNL A   1      37.338  32.266  32.144  1.00  0.00     0.031 C 
ATOM     49  C   UNL A   1      41.573  30.534  36.136  1.00  0.00     0.029 A 
ATOM     50  C   UNL A   1      40.829  30.673  34.976  1.00  0.00     0.049 A 
ATOM     51  H   UNL A   1      41.122  29.771  33.091  1.00  0.00     0.167 HD
ATOM     52  C   UNL A   1      38.988  31.576  33.580  1.00  0.00     0.074 A 
ATOM     53  C   UNL A   1      37.800  32.381  33.381  1.00  0.00     0.031 C 
ATOM     54  C   UNL A   1      39.648  31.470  34.758  1.00  0.00     0.037 A 
BRANCH  41  55
ATOM     55  C   UNL A   1      44.548  27.710  34.583  1.00  0.00     0.057 A 
ATOM     56  C   UNL A   1      45.809  28.312  34.657  1.00  0.00     0.134 A 
ATOM     57  C   UNL A   1      44.370  26.494  35.256  1.00  0.00     0.134 A 
ATOM     58  F   UNL A   1      46.049  29.469  34.022  1.00  0.00    -0.206 F 
ATOM     59  C   UNL A   1      46.860  27.717  35.358  1.00  0.00     0.040 A 
ATOM     60  C   UNL A   1      45.405  25.901  35.980  1.00  0.00     0.040 A 
ATOM     61  F   UNL A   1      43.183  25.867  35.228  1.00  0.00    -0.206 F 
ATOM     62  C   UNL A   1      46.657  26.510  36.027  1.00  0.00     0.006 A 
ENDBRANCH  41  55
BRANCH  42  63
ATOM     63  C   UNL A   1      37.009  31.597  29.313  1.00  0.00     0.057 A 
ATOM     64  C   UNL A   1      35.859  30.838  29.072  1.00  0.00     0.134 A 
ATOM     65  C   UNL A   1      37.042  32.900  28.801  1.00  0.00     0.134 A 
ATOM     66  F   UNL A   1      35.779  29.575  29.518  1.00  0.00    -0.206 F 
ATOM     67  C   UNL A   1      34.787  31.349  28.341  1.00  0.00     0.040 A 
ATOM     68  C   UNL A   1      35.967  33.434  28.091  1.00  0.00     0.040 A 
ATOM     69  F   UNL A   1      38.115  33.680  29.001  1.00  0.00    -0.206 F 
ATOM     70  C   UNL A   1      34.836  32.655  27.854  1.00  0.00     0.006 A 
ENDBRANCH  42  63
BRANCH  54  71
ATOM     71  C   UNL A   1      39.116  32.264  35.912  1.00  0.00     0.057 A 
ATOM     72  C   UNL A   1      39.490  33.597  36.124  1.00  0.00     0.134 A 
ATOM     73  C   UNL A   1      38.195  31.699  36.802  1.00  0.00     0.134 A 
ATOM     74  F   UNL A   1      40.380  34.191  35.314  1.00  0.00    -0.206 F 
ATOM     75  C   UNL A   1      38.979  34.334  37.193  1.00  0.00     0.040 A 
ATOM     76  C   UNL A   1      37.660  32.433  37.861  1.00  0.00     0.040 A 
ATOM     77  F   UNL A   1      37.793  30.428  36.650  1.00  0.00    -0.206 F 
ATOM     78  C   UNL A   1      38.056  33.753  38.061  1.00  0.00     0.006 A 
ENDBRANCH  54  71
ENDBRANCH  28  29
ENDBRANCH  21  23
ENDBRANCH  20  21
ENDBRANCH  19  20
ENDBRANCH   1  19
TORSDOF 13
ENDMDL
MODEL 2
REMARK VINA RESULT:     -10.8      4.465      8.919
REMARK SMILES C[C@@H](c1ccncc1)N1C[C@@H](C(=O)OCCOC(=O)c2ccc(-c3c4nc(c(-c5c(F)cccc5F)c5ccc([nH]5)c(-c5c(F)cccc5F)c5nc(c(-c6c(F)cccc6F)c6ccc3[nH]6)C=C5)C=C4)cc2)CC1=O
REMARK SMILES IDX 15 1 14 2 12 3 13 4 11 5 9 6 10 7 75 8 74 9 76 10 2 11 1 12
REMARK SMILES IDX 3 13 4 14 8 15 5 16 7 17 6 18 16 19 17 20 18 21 19 22 20 23
REMARK SMILES IDX 21 24 73 25 22 26 72 27 23 28 24 29 25 30 66 31 26 32 71 33
REMARK SMILES IDX 65 34 67 35 27 36 70 37 64 38 63 39 28 41 54 42 37 43 53 44
REMARK SMILES IDX 38 45 41 46 52 47 68 48 39 49 40 50 51 52 69 53 42 54 29 55
REMARK SMILES IDX 30 56 35 57 31 58 32 59 34 60 36 61 33 62 55 63 56 64 61 65
REMARK SMILES IDX 57 66 58 67 60 68 62 69 59 70 43 71 44 72 49 73 45 74 46 75
REMARK SMILES IDX 48 76 50 77 47 78
REMARK H PARENT 67 40 41 51
REMARK Flexibility Score: inf
ROOT
ATOM      1  C   UNL A   1      38.847  21.424  25.780  1.00  0.00     0.274 C 
ENDROOT
BRANCH   1   2
ATOM      2  O   UNL A   1      37.672  21.635  24.974  1.00  0.00    -0.462 OA
BRANCH   2   3
ATOM      3  C   UNL A   1      36.732  22.482  25.458  1.00  0.00     0.311 C 
ATOM      4  O   UNL A   1      36.845  23.702  25.509  1.00  0.00    -0.252 OA
BRANCH   3   5
ATOM      5  C   UNL A   1      35.478  21.779  25.904  1.00  0.00     0.128 C 
ATOM      6  N   UNL A   1      33.495  20.785  25.236  1.00  0.00    -0.335 N 
ATOM      7  C   UNL A   1      34.848  21.010  24.770  1.00  0.00     0.136 C 
ATOM      8  C   UNL A   1      33.117  21.833  26.081  1.00  0.00     0.224 C 
ATOM      9  C   UNL A   1      34.343  22.636  26.433  1.00  0.00     0.117 C 
ATOM     10  O   UNL A   1      31.995  22.134  26.454  1.00  0.00    -0.275 OA
BRANCH   6  11
ATOM     11  C   UNL A   1      32.549  19.895  24.538  1.00  0.00     0.112 C 
ATOM     12  C   UNL A   1      32.235  20.373  23.107  1.00  0.00     0.036 C 
BRANCH  11  13
ATOM     13  C   UNL A   1      32.981  18.430  24.541  1.00  0.00    -0.023 A 
ATOM     14  C   UNL A   1      33.650  17.814  23.476  1.00  0.00     0.026 A 
ATOM     15  C   UNL A   1      32.693  17.631  25.657  1.00  0.00     0.026 A 
ATOM     16  C   UNL A   1      33.969  16.465  23.567  1.00  0.00     0.111 A 
ATOM     17  C   UNL A   1      33.086  16.302  25.672  1.00  0.00     0.111 A 
ATOM     18  N   UNL A   1      33.703  15.694  24.642  1.00  0.00    -0.265 NA
ENDBRANCH  11  13
ENDBRANCH   6  11
ENDBRANCH   3   5
ENDBRANCH   2   3
ENDBRANCH   1   2
BRANCH   1  19
ATOM     19  C   UNL A   1      39.420  20.027  25.530  1.00  0.00     0.275 C 
BRANCH  19  20
ATOM     20  O   UNL A   1      40.458  19.701  26.476  1.00  0.00    -0.458 OA
BRANCH  20  21
ATOM     21  C   UNL A   1      41.721  19.883  26.024  1.00  0.00     0.338 C 
ATOM     22  O   UNL A   1      42.333  19.183  25.236  1.00  0.00    -0.246 OA
BRANCH  21  23
ATOM     23  C   UNL A   1      42.248  21.167  26.507  1.00  0.00     0.060 A 
ATOM     24  C   UNL A   1      42.305  21.365  27.886  1.00  0.00     0.016 A 
ATOM     25  C   UNL A   1      42.564  22.205  25.634  1.00  0.00     0.016 A 
ATOM     26  C   UNL A   1      42.650  22.602  28.411  1.00  0.00     0.010 A 
ATOM     27  C   UNL A   1      42.941  23.448  26.161  1.00  0.00     0.010 A 
ATOM     28  C   UNL A   1      42.973  23.656  27.552  1.00  0.00    -0.014 A 
BRANCH  28  29
ATOM     29  C   UNL A   1      43.301  24.983  28.127  1.00  0.00     0.031 A 
ATOM     30  C   UNL A   1      42.208  25.970  28.413  1.00  0.00     0.074 A 
ATOM     31  C   UNL A   1      44.579  25.284  28.425  1.00  0.00     0.049 A 
ATOM     32  N   UNL A   1      42.299  27.213  28.807  1.00  0.00    -0.248 NA
ATOM     33  C   UNL A   1      40.827  25.495  28.227  1.00  0.00     0.031 C 
ATOM     34  C   UNL A   1      45.722  24.385  28.251  1.00  0.00     0.029 A 
ATOM     35  N   UNL A   1      45.130  26.430  28.938  1.00  0.00    -0.354 N 
ATOM     36  C   UNL A   1      40.994  27.682  28.884  1.00  0.00     0.074 A 
ATOM     37  C   UNL A   1      40.129  26.591  28.489  1.00  0.00     0.031 C 
ATOM     38  C   UNL A   1      46.838  25.012  28.654  1.00  0.00     0.029 A 
ATOM     39  C   UNL A   1      46.498  26.373  29.058  1.00  0.00     0.049 A 
ATOM     40  H   UNL A   1      44.598  27.217  29.196  1.00  0.00     0.167 HD
ATOM     41  C   UNL A   1      40.561  28.912  29.250  1.00  0.00     0.037 A 
ATOM     42  C   UNL A   1      47.381  27.323  29.417  1.00  0.00     0.037 A 
ATOM     43  C   UNL A   1      41.426  29.983  29.672  1.00  0.00     0.049 A 
ATOM     44  C   UNL A   1      46.879  28.695  29.769  1.00  0.00     0.074 A 
ATOM     45  C   UNL A   1      41.083  31.262  30.076  1.00  0.00     0.029 A 
ATOM     46  N   UNL A   1      42.808  29.896  29.751  1.00  0.00    -0.354 N 
ATOM     47  N   UNL A   1      45.646  29.137  29.810  1.00  0.00    -0.248 NA
ATOM     48  C   UNL A   1      47.892  29.701  30.115  1.00  0.00     0.031 C 
ATOM     49  C   UNL A   1      42.260  31.961  30.363  1.00  0.00     0.029 A 
ATOM     50  C   UNL A   1      43.334  31.104  30.179  1.00  0.00     0.049 A 
ATOM     51  H   UNL A   1      43.338  29.094  29.536  1.00  0.00     0.167 HD
ATOM     52  C   UNL A   1      45.731  30.466  30.200  1.00  0.00     0.074 A 
ATOM     53  C   UNL A   1      47.137  30.754  30.400  1.00  0.00     0.031 C 
ATOM     54  C   UNL A   1      44.736  31.369  30.375  1.00  0.00     0.037 A 
BRANCH  41  55
ATOM     55  C   UNL A   1      39.086  29.176  29.177  1.00  0.00     0.057 A 
ATOM     56  C   UNL A   1      38.449  29.514  27.978  1.00  0.00     0.134 A 
ATOM     57  C   UNL A   1      38.289  29.060  30.323  1.00  0.00     0.134 A 
ATOM     58  F   UNL A   1      39.158  29.656  26.848  1.00  0.00    -0.206 F 
ATOM     59  C   UNL A   1      37.073  29.746  27.924  1.00  0.00     0.040 A 
ATOM     60  C   UNL A   1      36.910  29.266  30.278  1.00  0.00     0.040 A 
ATOM     61  F   UNL A   1      38.838  28.734  31.504  1.00  0.00    -0.206 F 
ATOM     62  C   UNL A   1      36.299  29.616  29.076  1.00  0.00     0.006 A 
ENDBRANCH  41  55
BRANCH  42  63
ATOM     63  C   UNL A   1      48.832  27.018  29.423  1.00  0.00     0.057 A 
ATOM     64  C   UNL A   1      49.626  27.241  28.293  1.00  0.00     0.134 A 
ATOM     65  C   UNL A   1      49.461  26.496  30.561  1.00  0.00     0.134 A 
ATOM     66  F   UNL A   1      49.076  27.719  27.166  1.00  0.00    -0.206 F 
ATOM     67  C   UNL A   1      50.990  26.947  28.289  1.00  0.00     0.040 A 
ATOM     68  C   UNL A   1      50.828  26.221  30.579  1.00  0.00     0.040 A 
ATOM     69  F   UNL A   1      48.755  26.262  31.678  1.00  0.00    -0.206 F 
ATOM     70  C   UNL A   1      51.597  26.441  29.438  1.00  0.00     0.006 A 
ENDBRANCH  42  63
BRANCH  54  71
ATOM     71  C   UNL A   1      45.133  32.741  30.830  1.00  0.00     0.057 A 
ATOM     72  C   UNL A   1      45.396  33.772  29.920  1.00  0.00     0.134 A 
ATOM     73  C   UNL A   1      45.222  33.042  32.195  1.00  0.00     0.134 A 
ATOM     74  F   UNL A   1      45.343  33.543  28.598  1.00  0.00    -0.206 F 
ATOM     75  C   UNL A   1      45.751  35.051  30.351  1.00  0.00     0.040 A 
ATOM     76  C   UNL A   1      45.553  34.322  32.638  1.00  0.00     0.040 A 
ATOM     77  F   UNL A   1      44.976  32.099  33.117  1.00  0.00    -0.206 F 
ATOM     78  C   UNL A   1      45.824  35.330  31.715  1.00  0.00     0.006 A 
ENDBRANCH  54  71
ENDBRANCH  28  29
ENDBRANCH  21  23
ENDBRANCH  20  21
ENDBRANCH  19  20
ENDBRANCH   1  19
TORSDOF 13
ENDMDL
MODEL 3
REMARK VINA RESULT:     -10.8      4.592      9.347
REMARK SMILES C[C@@H](c1ccncc1)N1C[C@@H](C(=O)OCCOC(=O)c2ccc(-c3c4nc(c(-c5c(F)cccc5F)c5ccc([nH]5)c(-c5c(F)cccc5F)c5nc(c(-c6c(F)cccc6F)c6ccc3[nH]6)C=C5)C=C4)cc2)CC1=O
REMARK SMILES IDX 15 1 14 2 12 3 13 4 11 5 9 6 10 7 75 8 74 9 76 10 2 11 1 12
REMARK SMILES IDX 3 13 4 14 8 15 5 16 7 17 6 18 16 19 17 20 18 21 19 22 20 23
REMARK SMILES IDX 21 24 73 25 22 26 72 27 23 28 24 29 25 30 66 31 26 32 71 33
REMARK SMILES IDX 65 34 67 35 27 36 70 37 64 38 63 39 28 41 54 42 37 43 53 44
REMARK SMILES IDX 38 45 41 46 52 47 68 48 39 49 40 50 51 52 69 53 42 54 29 55
REMARK SMILES IDX 30 56 35 57 31 58 32 59 34 60 36 61 33 62 55 63 56 64 61 65
REMARK SMILES IDX 57 66 58 67 60 68 62 69 59 70 43 71 44 72 49 73 45 74 46 75
REMARK SMILES IDX 48 76 50 77 47 78
REMARK H PARENT 67 40 41 51
REMARK Flexibility Score: inf
ROOT
ATOM      1  C   UNL A   1      38.554  20.535  25.206  1.00  0.00     0.274 C 
ENDROOT
BRANCH   1   2
ATOM      2  O   UNL A   1      38.116  21.801  25.738  1.00  0.00    -0.462 OA
BRANCH   2   3
ATOM      3  C   UNL A   1      36.974  22.324  25.232  1.00  0.00     0.311 C 
ATOM      4  O   UNL A   1      36.921  23.218  24.395  1.00  0.00    -0.252 OA
BRANCH   3   5
ATOM      5  C   UNL A   1      35.733  21.665  25.773  1.00  0.00     0.128 C 
ATOM      6  N   UNL A   1      33.655  20.777  25.263  1.00  0.00    -0.335 N 
ATOM      7  C   UNL A   1      34.970  20.955  24.682  1.00  0.00     0.136 C 
ATOM      8  C   UNL A   1      33.403  21.817  26.163  1.00  0.00     0.224 C 
ATOM      9  C   UNL A   1      34.690  22.555  26.422  1.00  0.00     0.117 C 
ATOM     10  O   UNL A   1      32.333  22.156  26.642  1.00  0.00    -0.275 OA
BRANCH   6  11
ATOM     11  C   UNL A   1      32.610  19.948  24.632  1.00  0.00     0.112 C 
ATOM     12  C   UNL A   1      32.253  20.430  23.213  1.00  0.00     0.036 C 
BRANCH  11  13
ATOM     13  C   UNL A   1      32.936  18.456  24.637  1.00  0.00    -0.023 A 
ATOM     14  C   UNL A   1      32.696  17.611  25.728  1.00  0.00     0.026 A 
ATOM     15  C   UNL A   1      33.521  17.877  23.501  1.00  0.00     0.026 A 
ATOM     16  C   UNL A   1      33.062  16.274  25.640  1.00  0.00     0.111 A 
ATOM     17  C   UNL A   1      33.815  16.523  23.494  1.00  0.00     0.111 A 
ATOM     18  N   UNL A   1      33.615  15.709  24.548  1.00  0.00    -0.265 NA
ENDBRANCH  11  13
ENDBRANCH   6  11
ENDBRANCH   3   5
ENDBRANCH   2   3
ENDBRANCH   1   2
BRANCH   1  19
ATOM     19  C   UNL A   1      39.546  19.870  26.164  1.00  0.00     0.275 C 
BRANCH  19  20
ATOM     20  O   UNL A   1      40.542  19.108  25.453  1.00  0.00    -0.458 OA
BRANCH  20  21
ATOM     21  C   UNL A   1      41.790  19.174  25.973  1.00  0.00     0.338 C 
ATOM     22  O   UNL A   1      42.640  18.301  25.970  1.00  0.00    -0.246 OA
BRANCH  21  23
ATOM     23  C   UNL A   1      42.068  20.538  26.443  1.00  0.00     0.060 A 
ATOM     24  C   UNL A   1      42.303  21.518  25.479  1.00  0.00     0.016 A 
ATOM     25  C   UNL A   1      42.219  20.832  27.796  1.00  0.00     0.016 A 
ATOM     26  C   UNL A   1      42.716  22.790  25.849  1.00  0.00     0.010 A 
ATOM     27  C   UNL A   1      42.609  22.123  28.174  1.00  0.00     0.010 A 
ATOM     28  C   UNL A   1      42.872  23.106  27.201  1.00  0.00    -0.014 A 
BRANCH  28  29
ATOM     29  C   UNL A   1      43.352  24.456  27.578  1.00  0.00     0.031 A 
ATOM     30  C   UNL A   1      42.376  25.501  28.036  1.00  0.00     0.074 A 
ATOM     31  C   UNL A   1      44.670  24.731  27.544  1.00  0.00     0.049 A 
ATOM     32  N   UNL A   1      42.581  26.764  28.300  1.00  0.00    -0.248 NA
ATOM     33  C   UNL A   1      40.983  25.064  28.216  1.00  0.00     0.031 C 
ATOM     34  C   UNL A   1      45.722  23.781  27.176  1.00  0.00     0.029 A 
ATOM     35  N   UNL A   1      45.348  25.890  27.823  1.00  0.00    -0.354 N 
ATOM     36  C   UNL A   1      41.341  27.285  28.645  1.00  0.00     0.074 A 
ATOM     37  C   UNL A   1      40.387  26.200  28.549  1.00  0.00     0.031 C 
ATOM     38  C   UNL A   1      46.913  24.394  27.256  1.00  0.00     0.029 A 
ATOM     39  C   UNL A   1      46.704  25.792  27.622  1.00  0.00     0.049 A 
ATOM     40  H   UNL A   1      44.907  26.711  28.136  1.00  0.00     0.167 HD
ATOM     41  C   UNL A   1      41.030  28.553  29.006  1.00  0.00     0.037 A 
ATOM     42  C   UNL A   1      47.664  26.732  27.689  1.00  0.00     0.037 A 
ATOM     43  C   UNL A   1      41.990  29.618  29.128  1.00  0.00     0.049 A 
ATOM     44  C   UNL A   1      47.286  28.143  28.042  1.00  0.00     0.074 A 
ATOM     45  C   UNL A   1      41.777  30.935  29.501  1.00  0.00     0.029 A 
ATOM     46  N   UNL A   1      43.350  29.487  28.887  1.00  0.00    -0.354 N 
ATOM     47  N   UNL A   1      46.106  28.631  28.336  1.00  0.00    -0.248 NA
ATOM     48  C   UNL A   1      48.371  29.134  28.062  1.00  0.00     0.031 C 
ATOM     49  C   UNL A   1      43.001  31.608  29.449  1.00  0.00     0.029 A 
ATOM     50  C   UNL A   1      43.985  30.702  29.085  1.00  0.00     0.049 A 
ATOM     51  H   UNL A   1      43.798  28.653  28.616  1.00  0.00     0.167 HD
ATOM     52  C   UNL A   1      46.306  29.981  28.592  1.00  0.00     0.074 A 
ATOM     53  C   UNL A   1      47.725  30.230  28.433  1.00  0.00     0.031 C 
ATOM     54  C   UNL A   1      45.398  30.930  28.925  1.00  0.00     0.037 A 
BRANCH  41  55
ATOM     55  C   UNL A   1      39.585  28.864  29.261  1.00  0.00     0.057 A 
ATOM     56  C   UNL A   1      38.729  29.306  28.246  1.00  0.00     0.134 A 
ATOM     57  C   UNL A   1      39.039  28.689  30.539  1.00  0.00     0.134 A 
ATOM     58  F   UNL A   1      39.193  29.508  27.004  1.00  0.00    -0.206 F 
ATOM     59  C   UNL A   1      37.383  29.582  28.497  1.00  0.00     0.040 A 
ATOM     60  C   UNL A   1      37.691  28.939  30.797  1.00  0.00     0.040 A 
ATOM     61  F   UNL A   1      39.806  28.264  31.555  1.00  0.00    -0.206 F 
ATOM     62  C   UNL A   1      36.860  29.392  29.775  1.00  0.00     0.006 A 
ENDBRANCH  41  55
BRANCH  42  63
ATOM     63  C   UNL A   1      49.070  26.375  27.378  1.00  0.00     0.057 A 
ATOM     64  C   UNL A   1      49.551  26.397  26.064  1.00  0.00     0.134 A 
ATOM     65  C   UNL A   1      49.967  26.004  28.388  1.00  0.00     0.134 A 
ATOM     66  F   UNL A   1      48.734  26.723  25.052  1.00  0.00    -0.206 F 
ATOM     67  C   UNL A   1      50.870  26.053  25.764  1.00  0.00     0.040 A 
ATOM     68  C   UNL A   1      51.294  25.683  28.105  1.00  0.00     0.040 A 
ATOM     69  F   UNL A   1      49.568  25.966  29.668  1.00  0.00    -0.206 F 
ATOM     70  C   UNL A   1      51.748  25.701  26.788  1.00  0.00     0.006 A 
ENDBRANCH  42  63
BRANCH  54  71
ATOM     71  C   UNL A   1      45.917  32.315  29.167  1.00  0.00     0.057 A 
ATOM     72  C   UNL A   1      46.361  32.726  30.429  1.00  0.00     0.134 A 
ATOM     73  C   UNL A   1      46.002  33.237  28.117  1.00  0.00     0.134 A 
ATOM     74  F   UNL A   1      46.291  31.893  31.479  1.00  0.00    -0.206 F 
ATOM     75  C   UNL A   1      46.856  34.013  30.643  1.00  0.00     0.040 A 
ATOM     76  C   UNL A   1      46.516  34.519  28.313  1.00  0.00     0.040 A 
ATOM     77  F   UNL A   1      45.598  32.902  26.882  1.00  0.00    -0.206 F 
ATOM     78  C   UNL A   1      46.940  34.911  29.581  1.00  0.00     0.006 A 
ENDBRANCH  54  71
ENDBRANCH  28  29
ENDBRANCH  21  23
ENDBRANCH  20  21
ENDBRANCH  19  20
ENDBRANCH   1  19
TORSDOF 13
ENDMDL
