MODEL 1
REMARK VINA RESULT:     -11.7      0.000      0.000
REMARK SMILES C[C@@H](C(=O)OCCOC(=O)c1ccc(-c2c3nc(c(-c4c(F)cccc4F)c4ccc([nH]4)c(-c4c(F)cccc4F)c4nc(c(-c5c(F)cccc5F)c5ccc2[nH]5)C=C4)C=C3)cc1)c1ccc(-c2ccc3[nH]ccc3c2)cc1
REMARK SMILES IDX 6 1 5 2 3 3 4 4 2 5 1 6 65 7 66 8 79 9 67 10 78 11 68 12
REMARK SMILES IDX 69 13 70 14 77 15 71 16 76 17 72 18 75 19 73 20 74 21 7 23
REMARK SMILES IDX 8 24 9 25 10 26 11 27 12 28 64 29 13 30 63 31 14 32 15 33
REMARK SMILES IDX 16 34 57 35 17 36 62 37 56 38 58 39 18 40 61 41 55 42 54 43
REMARK SMILES IDX 19 45 45 46 28 47 44 48 29 49 32 50 43 51 59 52 30 53 31 54
REMARK SMILES IDX 42 56 60 57 33 58 20 59 21 60 26 61 22 62 23 63 25 64 27 65
REMARK SMILES IDX 24 66 46 67 47 68 52 69 48 70 49 71 51 72 53 73 50 74 34 75
REMARK SMILES IDX 35 76 40 77 36 78 37 79 39 80 41 81 38 82
REMARK H PARENT 73 22 58 44 32 55
REMARK Flexibility Score: inf
ROOT
ATOM      1  C   UNL A   1      31.083  29.562  24.401  1.00  0.00     0.274 C 
ENDROOT
BRANCH   1   2
ATOM      2  O   UNL A   1      31.606  28.529  23.541  1.00  0.00    -0.462 OA
BRANCH   2   3
ATOM      3  C   UNL A   1      30.704  27.781  22.844  1.00  0.00     0.313 C 
ATOM      4  O   UNL A   1      30.010  28.222  21.934  1.00  0.00    -0.252 OA
BRANCH   3   5
ATOM      5  C   UNL A   1      30.648  26.325  23.335  1.00  0.00     0.126 C 
ATOM      6  C   UNL A   1      29.554  26.167  24.410  1.00  0.00     0.025 C 
BRANCH   5   7
ATOM      7  C   UNL A   1      31.995  25.728  23.765  1.00  0.00    -0.034 A 
ATOM      8  C   UNL A   1      33.000  25.469  22.815  1.00  0.00     0.005 A 
ATOM      9  C   UNL A   1      32.313  25.463  25.103  1.00  0.00     0.005 A 
ATOM     10  C   UNL A   1      34.206  24.847  23.170  1.00  0.00     0.009 A 
ATOM     11  C   UNL A   1      33.527  24.849  25.458  1.00  0.00     0.009 A 
ATOM     12  C   UNL A   1      34.472  24.475  24.492  1.00  0.00    -0.018 A 
BRANCH  12  13
ATOM     13  C   UNL A   1      35.648  23.649  24.845  1.00  0.00    -0.018 A 
ATOM     14  C   UNL A   1      35.858  22.382  24.277  1.00  0.00     0.011 A 
ATOM     15  C   UNL A   1      36.636  24.156  25.718  1.00  0.00     0.019 A 
ATOM     16  C   UNL A   1      37.020  21.634  24.521  1.00  0.00     0.027 A 
ATOM     17  C   UNL A   1      37.808  23.422  25.990  1.00  0.00    -0.000 A 
ATOM     18  C   UNL A   1      37.980  22.186  25.372  1.00  0.00     0.045 A 
ATOM     19  C   UNL A   1      38.961  23.656  26.791  1.00  0.00     0.028 A 
ATOM     20  N   UNL A   1      39.218  21.714  25.749  1.00  0.00    -0.361 N 
ATOM     21  C   UNL A   1      39.802  22.580  26.635  1.00  0.00     0.083 A 
ATOM     22  H   UNL A   1      39.623  20.877  25.429  1.00  0.00     0.166 HD
ENDBRANCH  12  13
ENDBRANCH   5   7
ENDBRANCH   3   5
ENDBRANCH   2   3
ENDBRANCH   1   2
BRANCH   1  23
ATOM     23  C   UNL A   1      31.703  29.387  25.783  1.00  0.00     0.275 C 
BRANCH  23  24
ATOM     24  O   UNL A   1      32.912  30.166  25.801  1.00  0.00    -0.458 OA
BRANCH  24  25
ATOM     25  C   UNL A   1      33.040  31.068  26.796  1.00  0.00     0.338 C 
ATOM     26  O   UNL A   1      32.240  31.928  27.134  1.00  0.00    -0.246 OA
BRANCH  25  27
ATOM     27  C   UNL A   1      34.339  30.842  27.456  1.00  0.00     0.060 A 
ATOM     28  C   UNL A   1      34.709  29.547  27.822  1.00  0.00     0.016 A 
ATOM     29  C   UNL A   1      35.164  31.922  27.775  1.00  0.00     0.016 A 
ATOM     30  C   UNL A   1      35.886  29.340  28.536  1.00  0.00     0.010 A 
ATOM     31  C   UNL A   1      36.378  31.697  28.438  1.00  0.00     0.010 A 
ATOM     32  C   UNL A   1      36.744  30.402  28.847  1.00  0.00    -0.014 A 
BRANCH  32  33
ATOM     33  C   UNL A   1      37.958  30.156  29.678  1.00  0.00     0.031 A 
ATOM     34  C   UNL A   1      39.132  29.423  29.087  1.00  0.00     0.074 A 
ATOM     35  C   UNL A   1      38.066  30.648  30.929  1.00  0.00     0.049 A 
ATOM     36  N   UNL A   1      40.199  28.948  29.679  1.00  0.00    -0.248 NA
ATOM     37  C   UNL A   1      39.090  29.179  27.637  1.00  0.00     0.031 C 
ATOM     38  C   UNL A   1      37.060  31.459  31.615  1.00  0.00     0.029 A 
ATOM     39  N   UNL A   1      39.095  30.563  31.837  1.00  0.00    -0.354 N 
ATOM     40  C   UNL A   1      40.933  28.316  28.684  1.00  0.00     0.074 A 
ATOM     41  C   UNL A   1      40.182  28.451  27.454  1.00  0.00     0.031 C 
ATOM     42  C   UNL A   1      37.548  31.855  32.801  1.00  0.00     0.029 A 
ATOM     43  C   UNL A   1      38.865  31.254  33.001  1.00  0.00     0.049 A 
ATOM     44  H   UNL A   1      39.921  30.054  31.668  1.00  0.00     0.167 HD
ATOM     45  C   UNL A   1      42.128  27.686  28.783  1.00  0.00     0.037 A 
ATOM     46  C   UNL A   1      39.611  31.371  34.116  1.00  0.00     0.037 A 
ATOM     47  C   UNL A   1      42.922  27.620  29.981  1.00  0.00     0.049 A 
ATOM     48  C   UNL A   1      40.905  30.613  34.227  1.00  0.00     0.074 A 
ATOM     49  C   UNL A   1      44.129  26.975  30.183  1.00  0.00     0.029 A 
ATOM     50  N   UNL A   1      42.604  28.259  31.169  1.00  0.00    -0.354 N 
ATOM     51  N   UNL A   1      41.537  29.917  33.317  1.00  0.00    -0.248 NA
ATOM     52  C   UNL A   1      41.572  30.629  35.539  1.00  0.00     0.031 C 
ATOM     53  C   UNL A   1      44.539  27.216  31.499  1.00  0.00     0.029 A 
ATOM     54  C   UNL A   1      43.600  28.033  32.106  1.00  0.00     0.049 A 
ATOM     55  H   UNL A   1      41.793  28.794  31.324  1.00  0.00     0.167 HD
ATOM     56  C   UNL A   1      42.661  29.398  33.945  1.00  0.00     0.074 A 
ATOM     57  C   UNL A   1      42.655  29.903  35.302  1.00  0.00     0.031 C 
ATOM     58  C   UNL A   1      43.600  28.560  33.446  1.00  0.00     0.037 A 
BRANCH  45  59
ATOM     59  C   UNL A   1      42.636  26.989  27.559  1.00  0.00     0.057 A 
ATOM     60  C   UNL A   1      42.374  25.637  27.309  1.00  0.00     0.134 A 
ATOM     61  C   UNL A   1      43.384  27.693  26.607  1.00  0.00     0.134 A 
ATOM     62  F   UNL A   1      41.680  24.905  28.193  1.00  0.00    -0.206 F 
ATOM     63  C   UNL A   1      42.856  25.004  26.162  1.00  0.00     0.040 A 
ATOM     64  C   UNL A   1      43.853  27.078  25.447  1.00  0.00     0.040 A 
ATOM     65  F   UNL A   1      43.664  28.993  26.787  1.00  0.00    -0.206 F 
ATOM     66  C   UNL A   1      43.594  25.727  25.225  1.00  0.00     0.006 A 
ENDBRANCH  45  59
BRANCH  46  67
ATOM     67  C   UNL A   1      39.140  32.204  35.252  1.00  0.00     0.057 A 
ATOM     68  C   UNL A   1      38.335  31.657  36.257  1.00  0.00     0.134 A 
ATOM     69  C   UNL A   1      39.449  33.567  35.343  1.00  0.00     0.134 A 
ATOM     70  F   UNL A   1      37.976  30.365  36.206  1.00  0.00    -0.206 F 
ATOM     71  C   UNL A   1      37.850  32.435  37.309  1.00  0.00     0.040 A 
ATOM     72  C   UNL A   1      38.994  34.351  36.403  1.00  0.00     0.040 A 
ATOM     73  F   UNL A   1      40.204  34.155  34.403  1.00  0.00    -0.206 F 
ATOM     74  C   UNL A   1      38.186  33.786  37.388  1.00  0.00     0.006 A 
ENDBRANCH  46  67
BRANCH  58  75
ATOM     75  C   UNL A   1      44.720  28.163  34.358  1.00  0.00     0.057 A 
ATOM     76  C   UNL A   1      45.885  28.933  34.468  1.00  0.00     0.134 A 
ATOM     77  C   UNL A   1      44.619  27.022  35.162  1.00  0.00     0.134 A 
ATOM     78  F   UNL A   1      46.048  30.030  33.712  1.00  0.00    -0.206 F 
ATOM     79  C   UNL A   1      46.918  28.572  35.335  1.00  0.00     0.040 A 
ATOM     80  C   UNL A   1      45.635  26.660  36.047  1.00  0.00     0.040 A 
ATOM     81  F   UNL A   1      43.527  26.244  35.103  1.00  0.00    -0.206 F 
ATOM     82  C   UNL A   1      46.791  27.435  36.132  1.00  0.00     0.006 A 
ENDBRANCH  58  75
ENDBRANCH  32  33
ENDBRANCH  25  27
ENDBRANCH  24  25
ENDBRANCH  23  24
ENDBRANCH   1  23
TORSDOF 13
ENDMDL
MODEL 2
REMARK VINA RESULT:     -11.7      3.697      8.230
REMARK SMILES C[C@@H](C(=O)OCCOC(=O)c1ccc(-c2c3nc(c(-c4c(F)cccc4F)c4ccc([nH]4)c(-c4c(F)cccc4F)c4nc(c(-c5c(F)cccc5F)c5ccc2[nH]5)C=C4)C=C3)cc1)c1ccc(-c2ccc3[nH]ccc3c2)cc1
REMARK SMILES IDX 6 1 5 2 3 3 4 4 2 5 1 6 65 7 66 8 79 9 67 10 78 11 68 12
REMARK SMILES IDX 69 13 70 14 77 15 71 16 76 17 72 18 75 19 73 20 74 21 7 23
REMARK SMILES IDX 8 24 9 25 10 26 11 27 12 28 64 29 13 30 63 31 14 32 15 33
REMARK SMILES IDX 16 34 57 35 17 36 62 37 56 38 58 39 18 40 61 41 55 42 54 43
REMARK SMILES IDX 19 45 45 46 28 47 44 48 29 49 32 50 43 51 59 52 30 53 31 54
REMARK SMILES IDX 42 56 60 57 33 58 20 59 21 60 26 61 22 62 23 63 25 64 27 65
REMARK SMILES IDX 24 66 46 67 47 68 52 69 48 70 49 71 51 72 53 73 50 74 34 75
REMARK SMILES IDX 35 76 40 77 36 78 37 79 39 80 41 81 38 82
REMARK H PARENT 73 22 58 44 32 55
REMARK Flexibility Score: inf
ROOT
ATOM      1  C   UNL A   1      43.818  21.674  25.586  1.00  0.00     0.274 C 
ENDROOT
BRANCH   1   2
ATOM      2  O   UNL A   1      42.616  20.989  25.178  1.00  0.00    -0.462 OA
BRANCH   2   3
ATOM      3  C   UNL A   1      41.709  20.688  26.149  1.00  0.00     0.313 C 
ATOM      4  O   UNL A   1      41.343  19.547  26.410  1.00  0.00    -0.252 OA
BRANCH   3   5
ATOM      5  C   UNL A   1      41.190  21.941  26.875  1.00  0.00     0.126 C 
ATOM      6  C   UNL A   1      41.353  21.777  28.400  1.00  0.00     0.025 C 
BRANCH   5   7
ATOM      7  C   UNL A   1      39.780  22.392  26.472  1.00  0.00    -0.034 A 
ATOM      8  C   UNL A   1      39.326  23.687  26.780  1.00  0.00     0.005 A 
ATOM      9  C   UNL A   1      38.903  21.576  25.745  1.00  0.00     0.005 A 
ATOM     10  C   UNL A   1      38.014  24.094  26.498  1.00  0.00     0.009 A 
ATOM     11  C   UNL A   1      37.592  21.990  25.454  1.00  0.00     0.009 A 
ATOM     12  C   UNL A   1      37.102  23.234  25.877  1.00  0.00    -0.018 A 
BRANCH  12  13
ATOM     13  C   UNL A   1      35.670  23.582  25.751  1.00  0.00    -0.018 A 
ATOM     14  C   UNL A   1      35.188  24.354  24.680  1.00  0.00     0.011 A 
ATOM     15  C   UNL A   1      34.732  23.078  26.679  1.00  0.00     0.019 A 
ATOM     16  C   UNL A   1      33.820  24.603  24.491  1.00  0.00     0.027 A 
ATOM     17  C   UNL A   1      33.352  23.321  26.521  1.00  0.00    -0.000 A 
ATOM     18  C   UNL A   1      32.928  24.063  25.421  1.00  0.00     0.045 A 
ATOM     19  C   UNL A   1      32.191  22.952  27.254  1.00  0.00     0.028 A 
ATOM     20  N   UNL A   1      31.552  24.098  25.464  1.00  0.00    -0.361 N 
ATOM     21  C   UNL A   1      31.099  23.460  26.588  1.00  0.00     0.083 A 
ATOM     22  H   UNL A   1      30.977  24.521  24.787  1.00  0.00     0.166 HD
ENDBRANCH  12  13
ENDBRANCH   5   7
ENDBRANCH   3   5
ENDBRANCH   2   3
ENDBRANCH   1   2
BRANCH   1  23
ATOM     23  C   UNL A   1      44.191  22.671  24.493  1.00  0.00     0.275 C 
BRANCH  23  24
ATOM     24  O   UNL A   1      43.511  23.900  24.799  1.00  0.00    -0.458 OA
BRANCH  24  25
ATOM     25  C   UNL A   1      44.284  24.956  25.131  1.00  0.00     0.338 C 
ATOM     26  O   UNL A   1      45.344  25.295  24.625  1.00  0.00    -0.246 OA
BRANCH  25  27
ATOM     27  C   UNL A   1      43.624  25.681  26.232  1.00  0.00     0.060 A 
ATOM     28  C   UNL A   1      43.882  27.040  26.412  1.00  0.00     0.016 A 
ATOM     29  C   UNL A   1      42.801  24.999  27.130  1.00  0.00     0.016 A 
ATOM     30  C   UNL A   1      43.342  27.707  27.509  1.00  0.00     0.010 A 
ATOM     31  C   UNL A   1      42.211  25.693  28.195  1.00  0.00     0.010 A 
ATOM     32  C   UNL A   1      42.493  27.054  28.411  1.00  0.00    -0.014 A 
BRANCH  32  33
ATOM     33  C   UNL A   1      41.994  27.777  29.616  1.00  0.00     0.031 A 
ATOM     34  C   UNL A   1      40.734  28.594  29.529  1.00  0.00     0.074 A 
ATOM     35  C   UNL A   1      42.602  27.651  30.813  1.00  0.00     0.049 A 
ATOM     36  N   UNL A   1      40.227  29.438  30.393  1.00  0.00    -0.248 NA
ATOM     37  C   UNL A   1      39.944  28.452  28.295  1.00  0.00     0.031 C 
ATOM     38  C   UNL A   1      43.777  26.825  31.090  1.00  0.00     0.029 A 
ATOM     39  N   UNL A   1      42.290  28.199  32.036  1.00  0.00    -0.354 N 
ATOM     40  C   UNL A   1      39.088  29.955  29.793  1.00  0.00     0.074 A 
ATOM     41  C   UNL A   1      38.985  29.346  28.484  1.00  0.00     0.031 C 
ATOM     42  C   UNL A   1      44.041  26.862  32.406  1.00  0.00     0.029 A 
ATOM     43  C   UNL A   1      43.113  27.785  33.054  1.00  0.00     0.049 A 
ATOM     44  H   UNL A   1      41.545  28.829  32.168  1.00  0.00     0.167 HD
ATOM     45  C   UNL A   1      38.202  30.852  30.289  1.00  0.00     0.037 A 
ATOM     46  C   UNL A   1      43.141  28.128  34.356  1.00  0.00     0.037 A 
ATOM     47  C   UNL A   1      38.248  31.398  31.618  1.00  0.00     0.049 A 
ATOM     48  C   UNL A   1      42.188  29.172  34.870  1.00  0.00     0.074 A 
ATOM     49  C   UNL A   1      37.412  32.338  32.196  1.00  0.00     0.029 A 
ATOM     50  N   UNL A   1      39.159  31.020  32.592  1.00  0.00    -0.354 N 
ATOM     51  N   UNL A   1      41.183  29.747  34.260  1.00  0.00    -0.248 NA
ATOM     52  C   UNL A   1      42.399  29.640  36.250  1.00  0.00     0.031 C 
ATOM     53  C   UNL A   1      37.823  32.536  33.519  1.00  0.00     0.029 A 
ATOM     54  C   UNL A   1      38.898  31.699  33.771  1.00  0.00     0.049 A 
ATOM     55  H   UNL A   1      39.883  30.366  32.464  1.00  0.00     0.167 HD
ATOM     56  C   UNL A   1      40.654  30.655  35.168  1.00  0.00     0.074 A 
ATOM     57  C   UNL A   1      41.415  30.517  36.392  1.00  0.00     0.031 C 
ATOM     58  C   UNL A   1      39.643  31.538  34.992  1.00  0.00     0.037 A 
BRANCH  45  59
ATOM     59  C   UNL A   1      37.118  31.321  29.369  1.00  0.00     0.057 A 
ATOM     60  C   UNL A   1      35.986  30.544  29.094  1.00  0.00     0.134 A 
ATOM     61  C   UNL A   1      37.203  32.582  28.766  1.00  0.00     0.134 A 
ATOM     62  F   UNL A   1      35.856  29.320  29.625  1.00  0.00    -0.206 F 
ATOM     63  C   UNL A   1      34.986  30.999  28.233  1.00  0.00     0.040 A 
ATOM     64  C   UNL A   1      36.200  33.056  27.921  1.00  0.00     0.040 A 
ATOM     65  F   UNL A   1      38.261  33.376  28.994  1.00  0.00    -0.206 F 
ATOM     66  C   UNL A   1      35.089  32.261  27.648  1.00  0.00     0.006 A 
ENDBRANCH  45  59
BRANCH  46  67
ATOM     67  C   UNL A   1      44.137  27.518  35.273  1.00  0.00     0.057 A 
ATOM     68  C   UNL A   1      45.408  28.083  35.429  1.00  0.00     0.134 A 
ATOM     69  C   UNL A   1      43.861  26.344  35.984  1.00  0.00     0.134 A 
ATOM     70  F   UNL A   1      45.744  29.189  34.747  1.00  0.00    -0.206 F 
ATOM     71  C   UNL A   1      46.370  27.499  36.255  1.00  0.00     0.040 A 
ATOM     72  C   UNL A   1      44.803  25.765  36.834  1.00  0.00     0.040 A 
ATOM     73  F   UNL A   1      42.666  25.745  35.866  1.00  0.00    -0.206 F 
ATOM     74  C   UNL A   1      46.065  26.340  36.967  1.00  0.00     0.006 A 
ENDBRANCH  46  67
BRANCH  58  75
ATOM     75  C   UNL A   1      39.275  32.400  36.161  1.00  0.00     0.057 A 
ATOM     76  C   UNL A   1      39.828  33.675  36.335  1.00  0.00     0.134 A 
ATOM     77  C   UNL A   1      38.332  31.968  37.101  1.00  0.00     0.134 A 
ATOM     78  F   UNL A   1      40.749  34.139  35.477  1.00  0.00    -0.206 F 
ATOM     79  C   UNL A   1      39.467  34.484  37.414  1.00  0.00     0.040 A 
ATOM     80  C   UNL A   1      37.948  32.774  38.173  1.00  0.00     0.040 A 
ATOM     81  F   UNL A   1      37.765  30.756  36.987  1.00  0.00    -0.206 F 
ATOM     82  C   UNL A   1      38.519  34.036  38.333  1.00  0.00     0.006 A 
ENDBRANCH  58  75
ENDBRANCH  32  33
ENDBRANCH  25  27
ENDBRANCH  24  25
ENDBRANCH  23  24
ENDBRANCH   1  23
TORSDOF 13
ENDMDL
MODEL 3
REMARK VINA RESULT:     -11.6      4.069      8.910
REMARK SMILES C[C@@H](C(=O)OCCOC(=O)c1ccc(-c2c3nc(c(-c4c(F)cccc4F)c4ccc([nH]4)c(-c4c(F)cccc4F)c4nc(c(-c5c(F)cccc5F)c5ccc2[nH]5)C=C4)C=C3)cc1)c1ccc(-c2ccc3[nH]ccc3c2)cc1
REMARK SMILES IDX 6 1 5 2 3 3 4 4 2 5 1 6 65 7 66 8 79 9 67 10 78 11 68 12
REMARK SMILES IDX 69 13 70 14 77 15 71 16 76 17 72 18 75 19 73 20 74 21 7 23
REMARK SMILES IDX 8 24 9 25 10 26 11 27 12 28 64 29 13 30 63 31 14 32 15 33
REMARK SMILES IDX 16 34 57 35 17 36 62 37 56 38 58 39 18 40 61 41 55 42 54 43
REMARK SMILES IDX 19 45 45 46 28 47 44 48 29 49 32 50 43 51 59 52 30 53 31 54
REMARK SMILES IDX 42 56 60 57 33 58 20 59 21 60 26 61 22 62 23 63 25 64 27 65
REMARK SMILES IDX 24 66 46 67 47 68 52 69 48 70 49 71 51 72 53 73 50 74 34 75
REMARK SMILES IDX 35 76 40 77 36 78 37 79 39 80 41 81 38 82
REMARK H PARENT 73 22 58 44 32 55
REMARK Flexibility Score: inf
ROOT
ATOM      1  C   UNL A   1      34.663  20.776  25.494  1.00  0.00     0.274 C 
ENDROOT
BRANCH   1   2
ATOM      2  O   UNL A   1      33.823  20.958  24.336  1.00  0.00    -0.462 OA
BRANCH   2   3
ATOM      3  C   UNL A   1      32.527  21.315  24.556  1.00  0.00     0.313 C 
ATOM      4  O   UNL A   1      31.768  20.705  25.302  1.00  0.00    -0.252 OA
BRANCH   3   5
ATOM      5  C   UNL A   1      32.119  22.565  23.757  1.00  0.00     0.126 C 
ATOM      6  C   UNL A   1      32.805  22.559  22.375  1.00  0.00     0.025 C 
BRANCH   5   7
ATOM      7  C   UNL A   1      32.286  23.898  24.498  1.00  0.00    -0.034 A 
ATOM      8  C   UNL A   1      31.205  24.789  24.624  1.00  0.00     0.005 A 
ATOM      9  C   UNL A   1      33.483  24.272  25.123  1.00  0.00     0.005 A 
ATOM     10  C   UNL A   1      31.354  26.048  25.222  1.00  0.00     0.009 A 
ATOM     11  C   UNL A   1      33.627  25.530  25.731  1.00  0.00     0.009 A 
ATOM     12  C   UNL A   1      32.584  26.467  25.741  1.00  0.00    -0.018 A 
BRANCH  12  13
ATOM     13  C   UNL A   1      32.801  27.858  26.196  1.00  0.00    -0.018 A 
ATOM     14  C   UNL A   1      31.741  28.774  26.306  1.00  0.00     0.011 A 
ATOM     15  C   UNL A   1      34.086  28.280  26.604  1.00  0.00     0.019 A 
ATOM     16  C   UNL A   1      31.915  30.062  26.834  1.00  0.00     0.027 A 
ATOM     17  C   UNL A   1      34.292  29.572  27.129  1.00  0.00    -0.000 A 
ATOM     18  C   UNL A   1      33.199  30.426  27.248  1.00  0.00     0.045 A 
ATOM     19  C   UNL A   1      35.428  30.270  27.624  1.00  0.00     0.028 A 
ATOM     20  N   UNL A   1      33.652  31.583  27.840  1.00  0.00    -0.361 N 
ATOM     21  C   UNL A   1      35.006  31.511  28.039  1.00  0.00     0.083 A 
ATOM     22  H   UNL A   1      33.087  32.350  28.086  1.00  0.00     0.166 HD
ENDBRANCH  12  13
ENDBRANCH   5   7
ENDBRANCH   3   5
ENDBRANCH   2   3
ENDBRANCH   1   2
BRANCH   1  23
ATOM     23  C   UNL A   1      36.079  20.475  25.010  1.00  0.00     0.275 C 
BRANCH  23  24
ATOM     24  O   UNL A   1      36.942  21.457  25.606  1.00  0.00    -0.458 OA
BRANCH  24  25
ATOM     25  C   UNL A   1      38.255  21.153  25.674  1.00  0.00     0.338 C 
ATOM     26  O   UNL A   1      38.794  20.096  25.376  1.00  0.00    -0.246 OA
BRANCH  25  27
ATOM     27  C   UNL A   1      38.978  22.339  26.166  1.00  0.00     0.060 A 
ATOM     28  C   UNL A   1      38.502  23.613  25.853  1.00  0.00     0.016 A 
ATOM     29  C   UNL A   1      40.168  22.193  26.882  1.00  0.00     0.016 A 
ATOM     30  C   UNL A   1      39.234  24.736  26.228  1.00  0.00     0.010 A 
ATOM     31  C   UNL A   1      40.865  23.330  27.310  1.00  0.00     0.010 A 
ATOM     32  C   UNL A   1      40.417  24.619  26.968  1.00  0.00    -0.014 A 
BRANCH  32  33
ATOM     33  C   UNL A   1      41.217  25.837  27.287  1.00  0.00     0.031 A 
ATOM     34  C   UNL A   1      40.667  26.863  28.241  1.00  0.00     0.074 A 
ATOM     35  C   UNL A   1      42.464  26.007  26.802  1.00  0.00     0.049 A 
ATOM     36  N   UNL A   1      41.108  28.065  28.514  1.00  0.00    -0.248 NA
ATOM     37  C   UNL A   1      39.449  26.488  28.977  1.00  0.00     0.031 C 
ATOM     38  C   UNL A   1      43.179  25.065  25.942  1.00  0.00     0.029 A 
ATOM     39  N   UNL A   1      43.367  27.027  26.996  1.00  0.00    -0.354 N 
ATOM     40  C   UNL A   1      40.202  28.604  29.417  1.00  0.00     0.074 A 
ATOM     41  C   UNL A   1      39.176  27.606  29.634  1.00  0.00     0.031 C 
ATOM     42  C   UNL A   1      44.429  25.513  25.742  1.00  0.00     0.029 A 
ATOM     43  C   UNL A   1      44.578  26.817  26.383  1.00  0.00     0.049 A 
ATOM     44  H   UNL A   1      43.163  27.831  27.525  1.00  0.00     0.167 HD
ATOM     45  C   UNL A   1      40.224  29.817  30.020  1.00  0.00     0.037 A 
ATOM     46  C   UNL A   1      45.676  27.594  26.317  1.00  0.00     0.037 A 
ATOM     47  C   UNL A   1      41.282  30.782  29.877  1.00  0.00     0.049 A 
ATOM     48  C   UNL A   1      45.655  28.963  26.940  1.00  0.00     0.074 A 
ATOM     49  C   UNL A   1      41.374  32.050  30.422  1.00  0.00     0.029 A 
ATOM     50  N   UNL A   1      42.453  30.564  29.168  1.00  0.00    -0.354 N 
ATOM     51  N   UNL A   1      44.741  29.514  27.698  1.00  0.00    -0.248 NA
ATOM     52  C   UNL A   1      46.810  29.833  26.667  1.00  0.00     0.031 C 
ATOM     53  C   UNL A   1      42.598  32.606  30.035  1.00  0.00     0.029 A 
ATOM     54  C   UNL A   1      43.279  31.672  29.272  1.00  0.00     0.049 A 
ATOM     55  H   UNL A   1      42.666  29.745  28.666  1.00  0.00     0.167 HD
ATOM     56  C   UNL A   1      45.197  30.796  27.976  1.00  0.00     0.074 A 
ATOM     57  C   UNL A   1      46.496  30.924  27.351  1.00  0.00     0.031 C 
ATOM     58  C   UNL A   1      44.581  31.783  28.668  1.00  0.00     0.037 A 
BRANCH  45  59
ATOM     59  C   UNL A   1      39.046  30.180  30.869  1.00  0.00     0.057 A 
ATOM     60  C   UNL A   1      38.005  30.985  30.394  1.00  0.00     0.134 A 
ATOM     61  C   UNL A   1      38.947  29.695  32.180  1.00  0.00     0.134 A 
ATOM     62  F   UNL A   1      38.052  31.496  29.154  1.00  0.00    -0.206 F 
ATOM     63  C   UNL A   1      36.914  31.313  31.201  1.00  0.00     0.040 A 
ATOM     64  C   UNL A   1      37.852  29.998  32.988  1.00  0.00     0.040 A 
ATOM     65  F   UNL A   1      39.910  28.913  32.691  1.00  0.00    -0.206 F 
ATOM     66  C   UNL A   1      36.834  30.814  32.501  1.00  0.00     0.006 A 
ENDBRANCH  45  59
BRANCH  46  67
ATOM     67  C   UNL A   1      46.885  27.128  25.594  1.00  0.00     0.057 A 
ATOM     68  C   UNL A   1      47.861  26.364  26.245  1.00  0.00     0.134 A 
ATOM     69  C   UNL A   1      47.115  27.461  24.253  1.00  0.00     0.134 A 
ATOM     70  F   UNL A   1      47.714  26.044  27.540  1.00  0.00    -0.206 F 
ATOM     71  C   UNL A   1      49.023  25.953  25.591  1.00  0.00     0.040 A 
ATOM     72  C   UNL A   1      48.259  27.033  23.579  1.00  0.00     0.040 A 
ATOM     73  F   UNL A   1      46.225  28.203  23.577  1.00  0.00    -0.206 F 
ATOM     74  C   UNL A   1      49.220  26.281  24.251  1.00  0.00     0.006 A 
ENDBRANCH  46  67
BRANCH  58  75
ATOM     75  C   UNL A   1      45.319  33.078  28.819  1.00  0.00     0.057 A 
ATOM     76  C   UNL A   1      45.135  34.136  27.920  1.00  0.00     0.134 A 
ATOM     77  C   UNL A   1      46.194  33.283  29.893  1.00  0.00     0.134 A 
ATOM     78  F   UNL A   1      44.322  33.996  26.862  1.00  0.00    -0.206 F 
ATOM     79  C   UNL A   1      45.809  35.349  28.076  1.00  0.00     0.040 A 
ATOM     80  C   UNL A   1      46.858  34.497  30.071  1.00  0.00     0.040 A 
ATOM     81  F   UNL A   1      46.411  32.307  30.788  1.00  0.00    -0.206 F 
ATOM     82  C   UNL A   1      46.669  35.533  29.158  1.00  0.00     0.006 A 
ENDBRANCH  58  75
ENDBRANCH  32  33
ENDBRANCH  25  27
ENDBRANCH  24  25
ENDBRANCH  23  24
ENDBRANCH   1  23
TORSDOF 13
ENDMDL
