MODEL 1
REMARK VINA RESULT:     -12.6      0.000      0.000
REMARK SMILES O=C(OCCOC(=O)c1cn(Cc2ccc(N3CCCC3=O)cc2)c2cc(F)c(F)cc2c1=O)c1ccc(-c2c3nc(c(-c4c(F)cccc4F)c4ccc([nH]4)c(-c4c(F)cccc4F)c4nc(c(-c5c(F)cccc5F)c5ccc2[nH]5)C=C4)C=C3)cc1
REMARK SMILES IDX 5 1 4 2 3 3 2 4 1 5 35 6 36 7 88 8 37 9 87 10 38 11 39 12
REMARK SMILES IDX 40 13 81 14 41 15 86 16 80 17 82 18 42 19 85 20 79 21 78 22
REMARK SMILES IDX 43 24 69 25 52 26 68 27 53 28 56 29 67 30 83 31 54 32 55 33
REMARK SMILES IDX 66 35 84 36 57 37 44 38 45 39 50 40 46 41 47 42 49 43 51 44
REMARK SMILES IDX 48 45 70 46 71 47 76 48 72 49 73 50 75 51 77 52 74 53 58 54
REMARK SMILES IDX 59 55 64 56 60 57 61 58 63 59 65 60 62 61 6 62 7 63 8 64
REMARK SMILES IDX 9 65 10 66 33 67 11 68 32 69 34 70 25 71 31 72 26 73 29 74
REMARK SMILES IDX 27 75 30 76 28 77 12 78 13 79 14 80 24 81 15 82 23 83 16 84
REMARK SMILES IDX 17 85 18 86 21 87 19 88 20 89 22 90
REMARK H PARENT 82 23 56 34
REMARK Flexibility Score: inf
ROOT
ATOM      1  C   UNL A   1      32.219  30.840  26.372  1.00  0.00     0.275 C 
ENDROOT
BRANCH   1   2
ATOM      2  C   UNL A   1      31.544  32.073  26.987  1.00  0.00     0.275 C 
BRANCH   2   3
ATOM      3  O   UNL A   1      32.325  33.277  26.926  1.00  0.00    -0.458 OA
BRANCH   3   4
ATOM      4  C   UNL A   1      32.961  33.881  27.961  1.00  0.00     0.338 C 
ATOM      5  O   UNL A   1      32.596  34.983  28.360  1.00  0.00    -0.246 OA
BRANCH   4   6
ATOM      6  C   UNL A   1      34.252  33.340  28.475  1.00  0.00     0.060 A 
ATOM      7  C   UNL A   1      34.154  32.389  29.494  1.00  0.00     0.016 A 
ATOM      8  C   UNL A   1      35.525  33.683  28.010  1.00  0.00     0.016 A 
ATOM      9  C   UNL A   1      35.307  31.902  30.113  1.00  0.00     0.010 A 
ATOM     10  C   UNL A   1      36.684  33.199  28.641  1.00  0.00     0.010 A 
ATOM     11  C   UNL A   1      36.590  32.327  29.725  1.00  0.00    -0.014 A 
BRANCH  11  12
ATOM     12  C   UNL A   1      37.792  31.715  30.357  1.00  0.00     0.031 A 
ATOM     13  C   UNL A   1      38.430  32.236  31.626  1.00  0.00     0.074 A 
ATOM     14  C   UNL A   1      38.302  30.613  29.774  1.00  0.00     0.049 A 
ATOM     15  N   UNL A   1      39.245  31.599  32.434  1.00  0.00    -0.248 NA
ATOM     16  C   UNL A   1      38.072  33.581  32.105  1.00  0.00     0.031 C 
ATOM     17  C   UNL A   1      37.835  30.027  28.512  1.00  0.00     0.029 A 
ATOM     18  N   UNL A   1      39.349  29.812  30.143  1.00  0.00    -0.354 N 
ATOM     19  C   UNL A   1      39.359  32.384  33.578  1.00  0.00     0.074 A 
ATOM     20  C   UNL A   1      38.641  33.610  33.310  1.00  0.00     0.031 C 
ATOM     21  C   UNL A   1      38.628  28.999  28.185  1.00  0.00     0.029 A 
ATOM     22  C   UNL A   1      39.677  28.882  29.188  1.00  0.00     0.049 A 
ATOM     23  H   UNL A   1      39.817  29.893  31.005  1.00  0.00     0.167 HD
ATOM     24  C   UNL A   1      39.932  32.040  34.759  1.00  0.00     0.037 A 
ATOM     25  C   UNL A   1      40.752  28.081  29.095  1.00  0.00     0.037 A 
ATOM     26  C   UNL A   1      40.834  30.928  34.909  1.00  0.00     0.049 A 
ATOM     27  C   UNL A   1      41.716  28.038  30.240  1.00  0.00     0.074 A 
ATOM     28  C   UNL A   1      41.525  30.518  36.037  1.00  0.00     0.029 A 
ATOM     29  N   UNL A   1      41.258  30.126  33.866  1.00  0.00    -0.354 N 
ATOM     30  N   UNL A   1      41.609  28.594  31.422  1.00  0.00    -0.248 NA
ATOM     31  C   UNL A   1      42.944  27.260  30.049  1.00  0.00     0.031 C 
ATOM     32  C   UNL A   1      42.448  29.541  35.646  1.00  0.00     0.029 A 
ATOM     33  C   UNL A   1      42.292  29.313  34.289  1.00  0.00     0.049 A 
ATOM     34  H   UNL A   1      40.878  30.131  32.957  1.00  0.00     0.167 HD
ATOM     35  C   UNL A   1      42.728  28.186  32.134  1.00  0.00     0.074 A 
ATOM     36  C   UNL A   1      43.508  27.351  31.246  1.00  0.00     0.031 C 
ATOM     37  C   UNL A   1      43.062  28.470  33.415  1.00  0.00     0.037 A 
BRANCH  24  38
ATOM     38  C   UNL A   1      39.615  32.817  36.004  1.00  0.00     0.057 A 
ATOM     39  C   UNL A   1      38.525  32.528  36.823  1.00  0.00     0.134 A 
ATOM     40  C   UNL A   1      40.317  34.006  36.264  1.00  0.00     0.134 A 
ATOM     41  F   UNL A   1      37.779  31.437  36.596  1.00  0.00    -0.206 F 
ATOM     42  C   UNL A   1      38.157  33.378  37.872  1.00  0.00     0.040 A 
ATOM     43  C   UNL A   1      39.972  34.857  37.316  1.00  0.00     0.040 A 
ATOM     44  F   UNL A   1      41.304  34.395  35.447  1.00  0.00    -0.206 F 
ATOM     45  C   UNL A   1      38.883  34.544  38.123  1.00  0.00     0.006 A 
ENDBRANCH  24  38
BRANCH  25  46
ATOM     46  C   UNL A   1      41.022  27.362  27.828  1.00  0.00     0.057 A 
ATOM     47  C   UNL A   1      41.681  28.010  26.772  1.00  0.00     0.134 A 
ATOM     48  C   UNL A   1      40.684  26.018  27.648  1.00  0.00     0.134 A 
ATOM     49  F   UNL A   1      42.033  29.300  26.882  1.00  0.00    -0.206 F 
ATOM     50  C   UNL A   1      41.990  27.352  25.584  1.00  0.00     0.040 A 
ATOM     51  C   UNL A   1      41.016  25.337  26.476  1.00  0.00     0.040 A 
ATOM     52  F   UNL A   1      40.069  25.340  28.628  1.00  0.00    -0.206 F 
ATOM     53  C   UNL A   1      41.668  26.005  25.440  1.00  0.00     0.006 A 
ENDBRANCH  25  46
BRANCH  37  54
ATOM     54  C   UNL A   1      44.306  27.842  33.959  1.00  0.00     0.057 A 
ATOM     55  C   UNL A   1      45.529  28.521  33.902  1.00  0.00     0.134 A 
ATOM     56  C   UNL A   1      44.303  26.550  34.498  1.00  0.00     0.134 A 
ATOM     57  F   UNL A   1      45.599  29.759  33.388  1.00  0.00    -0.206 F 
ATOM     58  C   UNL A   1      46.711  27.930  34.346  1.00  0.00     0.040 A 
ATOM     59  C   UNL A   1      45.473  25.961  34.976  1.00  0.00     0.040 A 
ATOM     60  F   UNL A   1      43.158  25.857  34.595  1.00  0.00    -0.206 F 
ATOM     61  C   UNL A   1      46.682  26.648  34.891  1.00  0.00     0.006 A 
ENDBRANCH  37  54
ENDBRANCH  11  12
ENDBRANCH   4   6
ENDBRANCH   3   4
ENDBRANCH   2   3
ENDBRANCH   1   2
BRANCH   1  62
ATOM     62  O   UNL A   1      31.767  29.603  26.950  1.00  0.00    -0.458 OA
BRANCH  62  63
ATOM     63  C   UNL A   1      32.713  28.621  27.060  1.00  0.00     0.343 C 
ATOM     64  O   UNL A   1      33.654  28.630  27.824  1.00  0.00    -0.246 OA
BRANCH  63  65
ATOM     65  C   UNL A   1      32.387  27.512  26.138  1.00  0.00     0.124 A 
ATOM     66  C   UNL A   1      31.134  27.292  25.715  1.00  0.00     0.106 A 
ATOM     67  C   UNL A   1      33.433  26.583  25.650  1.00  0.00     0.204 A 
ATOM     68  N   UNL A   1      30.708  26.225  24.927  1.00  0.00    -0.342 N 
ATOM     69  C   UNL A   1      32.992  25.370  24.911  1.00  0.00     0.050 A 
ATOM     70  O   UNL A   1      34.619  26.737  25.913  1.00  0.00    -0.288 OA
ATOM     71  C   UNL A   1      31.621  25.189  24.631  1.00  0.00     0.055 A 
ATOM     72  C   UNL A   1      33.940  24.389  24.588  1.00  0.00     0.056 A 
ATOM     73  C   UNL A   1      31.230  23.936  24.126  1.00  0.00     0.069 A 
ATOM     74  C   UNL A   1      33.519  23.198  24.014  1.00  0.00     0.159 A 
ATOM     75  C   UNL A   1      32.171  22.965  23.805  1.00  0.00     0.160 A 
ATOM     76  F   UNL A   1      34.420  22.259  23.700  1.00  0.00    -0.204 F 
ATOM     77  F   UNL A   1      31.753  21.794  23.304  1.00  0.00    -0.204 F 
BRANCH  68  78
ATOM     78  C   UNL A   1      29.361  26.174  24.332  1.00  0.00     0.157 C 
BRANCH  78  79
ATOM     79  C   UNL A   1      29.040  27.404  23.530  1.00  0.00    -0.028 A 
ATOM     80  C   UNL A   1      30.015  28.057  22.775  1.00  0.00     0.008 A 
ATOM     81  C   UNL A   1      27.735  27.900  23.520  1.00  0.00     0.008 A 
ATOM     82  C   UNL A   1      29.707  29.223  22.074  1.00  0.00     0.027 A 
ATOM     83  C   UNL A   1      27.429  29.058  22.808  1.00  0.00     0.027 A 
ATOM     84  C   UNL A   1      28.415  29.758  22.103  1.00  0.00     0.044 A 
BRANCH  84  85
ATOM     85  N   UNL A   1      28.121  30.981  21.453  1.00  0.00    -0.312 N 
ATOM     86  C   UNL A   1      27.812  31.072  20.045  1.00  0.00     0.126 C 
ATOM     87  C   UNL A   1      28.053  32.239  22.066  1.00  0.00     0.227 C 
ATOM     88  C   UNL A   1      28.038  32.529  19.714  1.00  0.00     0.032 C 
ATOM     89  C   UNL A   1      27.694  33.246  21.004  1.00  0.00     0.102 C 
ATOM     90  O   UNL A   1      28.217  32.544  23.237  1.00  0.00    -0.275 OA
ENDBRANCH  84  85
ENDBRANCH  78  79
ENDBRANCH  68  78
ENDBRANCH  63  65
ENDBRANCH  62  63
ENDBRANCH   1  62
TORSDOF 14
ENDMDL
MODEL 2
REMARK VINA RESULT:     -12.4      2.293      5.142
REMARK SMILES O=C(OCCOC(=O)c1cn(Cc2ccc(N3CCCC3=O)cc2)c2cc(F)c(F)cc2c1=O)c1ccc(-c2c3nc(c(-c4c(F)cccc4F)c4ccc([nH]4)c(-c4c(F)cccc4F)c4nc(c(-c5c(F)cccc5F)c5ccc2[nH]5)C=C4)C=C3)cc1
REMARK SMILES IDX 5 1 4 2 3 3 2 4 1 5 35 6 36 7 88 8 37 9 87 10 38 11 39 12
REMARK SMILES IDX 40 13 81 14 41 15 86 16 80 17 82 18 42 19 85 20 79 21 78 22
REMARK SMILES IDX 43 24 69 25 52 26 68 27 53 28 56 29 67 30 83 31 54 32 55 33
REMARK SMILES IDX 66 35 84 36 57 37 44 38 45 39 50 40 46 41 47 42 49 43 51 44
REMARK SMILES IDX 48 45 70 46 71 47 76 48 72 49 73 50 75 51 77 52 74 53 58 54
REMARK SMILES IDX 59 55 64 56 60 57 61 58 63 59 65 60 62 61 6 62 7 63 8 64
REMARK SMILES IDX 9 65 10 66 33 67 11 68 32 69 34 70 25 71 31 72 26 73 29 74
REMARK SMILES IDX 27 75 30 76 28 77 12 78 13 79 14 80 24 81 15 82 23 83 16 84
REMARK SMILES IDX 17 85 18 86 21 87 19 88 20 89 22 90
REMARK H PARENT 82 23 56 34
REMARK Flexibility Score: inf
ROOT
ATOM      1  C   UNL A   1      32.943  30.879  26.477  1.00  0.00     0.275 C 
ENDROOT
BRANCH   1   2
ATOM      2  C   UNL A   1      31.960  31.835  27.164  1.00  0.00     0.275 C 
BRANCH   2   3
ATOM      3  O   UNL A   1      32.352  33.217  27.142  1.00  0.00    -0.458 OA
BRANCH   3   4
ATOM      4  C   UNL A   1      33.073  33.867  28.090  1.00  0.00     0.338 C 
ATOM      5  O   UNL A   1      32.779  35.013  28.420  1.00  0.00    -0.246 OA
BRANCH   4   6
ATOM      6  C   UNL A   1      34.367  33.307  28.573  1.00  0.00     0.060 A 
ATOM      7  C   UNL A   1      34.293  32.471  29.690  1.00  0.00     0.016 A 
ATOM      8  C   UNL A   1      35.621  33.527  27.993  1.00  0.00     0.016 A 
ATOM      9  C   UNL A   1      35.460  31.983  30.280  1.00  0.00     0.010 A 
ATOM     10  C   UNL A   1      36.795  33.042  28.594  1.00  0.00     0.010 A 
ATOM     11  C   UNL A   1      36.733  32.291  29.768  1.00  0.00    -0.014 A 
BRANCH  11  12
ATOM     12  C   UNL A   1      37.944  31.677  30.381  1.00  0.00     0.031 A 
ATOM     13  C   UNL A   1      38.534  32.124  31.700  1.00  0.00     0.074 A 
ATOM     14  C   UNL A   1      38.507  30.641  29.730  1.00  0.00     0.049 A 
ATOM     15  N   UNL A   1      39.355  31.457  32.478  1.00  0.00    -0.248 NA
ATOM     16  C   UNL A   1      38.116  33.415  32.269  1.00  0.00     0.031 C 
ATOM     17  C   UNL A   1      38.088  30.135  28.418  1.00  0.00     0.029 A 
ATOM     18  N   UNL A   1      39.575  29.852  30.063  1.00  0.00    -0.354 N 
ATOM     19  C   UNL A   1      39.416  32.158  33.679  1.00  0.00     0.074 A 
ATOM     20  C   UNL A   1      38.658  33.375  33.486  1.00  0.00     0.031 C 
ATOM     21  C   UNL A   1      38.926  29.163  28.034  1.00  0.00     0.029 A 
ATOM     22  C   UNL A   1      39.958  29.009  29.050  1.00  0.00     0.049 A 
ATOM     23  H   UNL A   1      40.021  29.885  30.940  1.00  0.00     0.167 HD
ATOM     24  C   UNL A   1      39.976  31.748  34.845  1.00  0.00     0.037 A 
ATOM     25  C   UNL A   1      41.064  28.257  28.924  1.00  0.00     0.037 A 
ATOM     26  C   UNL A   1      40.916  30.660  34.933  1.00  0.00     0.049 A 
ATOM     27  C   UNL A   1      42.004  28.162  30.085  1.00  0.00     0.074 A 
ATOM     28  C   UNL A   1      41.598  30.192  36.044  1.00  0.00     0.029 A 
ATOM     29  N   UNL A   1      41.391  29.954  33.844  1.00  0.00    -0.354 N 
ATOM     30  N   UNL A   1      41.852  28.624  31.303  1.00  0.00    -0.248 NA
ATOM     31  C   UNL A   1      43.265  27.445  29.866  1.00  0.00     0.031 C 
ATOM     32  C   UNL A   1      42.565  29.281  35.604  1.00  0.00     0.029 A 
ATOM     33  C   UNL A   1      42.447  29.151  34.231  1.00  0.00     0.049 A 
ATOM     34  H   UNL A   1      41.032  30.015  32.930  1.00  0.00     0.167 HD
ATOM     35  C   UNL A   1      42.970  28.205  32.008  1.00  0.00     0.074 A 
ATOM     36  C   UNL A   1      43.799  27.467  31.080  1.00  0.00     0.031 C 
ATOM     37  C   UNL A   1      43.267  28.403  33.315  1.00  0.00     0.037 A 
BRANCH  24  38
ATOM     38  C   UNL A   1      39.604  32.417  36.136  1.00  0.00     0.057 A 
ATOM     39  C   UNL A   1      38.499  32.038  36.897  1.00  0.00     0.134 A 
ATOM     40  C   UNL A   1      40.267  33.599  36.508  1.00  0.00     0.134 A 
ATOM     41  F   UNL A   1      37.789  30.951  36.564  1.00  0.00    -0.206 F 
ATOM     42  C   UNL A   1      38.080  32.795  37.997  1.00  0.00     0.040 A 
ATOM     43  C   UNL A   1      39.870  34.356  37.612  1.00  0.00     0.040 A 
ATOM     44  F   UNL A   1      41.266  34.074  35.753  1.00  0.00    -0.206 F 
ATOM     45  C   UNL A   1      38.768  33.956  38.360  1.00  0.00     0.006 A 
ENDBRANCH  24  38
BRANCH  25  46
ATOM     46  C   UNL A   1      41.387  27.644  27.614  1.00  0.00     0.057 A 
ATOM     47  C   UNL A   1      42.033  28.397  26.621  1.00  0.00     0.134 A 
ATOM     48  C   UNL A   1      41.114  26.304  27.330  1.00  0.00     0.134 A 
ATOM     49  F   UNL A   1      42.325  29.690  26.831  1.00  0.00    -0.206 F 
ATOM     50  C   UNL A   1      42.392  27.842  25.395  1.00  0.00     0.040 A 
ATOM     51  C   UNL A   1      41.497  25.726  26.119  1.00  0.00     0.040 A 
ATOM     52  F   UNL A   1      40.515  25.530  28.246  1.00  0.00    -0.206 F 
ATOM     53  C   UNL A   1      42.135  26.496  25.147  1.00  0.00     0.006 A 
ENDBRANCH  25  46
BRANCH  37  54
ATOM     54  C   UNL A   1      44.521  27.782  33.840  1.00  0.00     0.057 A 
ATOM     55  C   UNL A   1      44.517  26.466  34.319  1.00  0.00     0.134 A 
ATOM     56  C   UNL A   1      45.721  28.498  33.916  1.00  0.00     0.134 A 
ATOM     57  F   UNL A   1      43.395  25.730  34.282  1.00  0.00    -0.206 F 
ATOM     58  C   UNL A   1      45.660  25.888  34.869  1.00  0.00     0.040 A 
ATOM     59  C   UNL A   1      46.880  27.920  34.434  1.00  0.00     0.040 A 
ATOM     60  F   UNL A   1      45.791  29.758  33.457  1.00  0.00    -0.206 F 
ATOM     61  C   UNL A   1      46.847  26.615  34.922  1.00  0.00     0.006 A 
ENDBRANCH  37  54
ENDBRANCH  11  12
ENDBRANCH   4   6
ENDBRANCH   3   4
ENDBRANCH   2   3
ENDBRANCH   1   2
BRANCH   1  62
ATOM     62  O   UNL A   1      32.519  29.505  26.524  1.00  0.00    -0.458 OA
BRANCH  62  63
ATOM     63  C   UNL A   1      31.899  29.039  25.398  1.00  0.00     0.343 C 
ATOM     64  O   UNL A   1      31.352  29.723  24.559  1.00  0.00    -0.246 OA
BRANCH  63  65
ATOM     65  C   UNL A   1      32.039  27.568  25.325  1.00  0.00     0.124 A 
ATOM     66  C   UNL A   1      32.748  26.976  24.353  1.00  0.00     0.106 A 
ATOM     67  C   UNL A   1      31.390  26.682  26.318  1.00  0.00     0.204 A 
ATOM     68  N   UNL A   1      32.863  25.604  24.140  1.00  0.00    -0.342 N 
ATOM     69  C   UNL A   1      31.394  25.220  26.049  1.00  0.00     0.050 A 
ATOM     70  O   UNL A   1      30.785  27.120  27.289  1.00  0.00    -0.288 OA
ATOM     71  C   UNL A   1      32.076  24.724  24.918  1.00  0.00     0.055 A 
ATOM     72  C   UNL A   1      30.643  24.374  26.877  1.00  0.00     0.056 A 
ATOM     73  C   UNL A   1      31.873  23.374  24.586  1.00  0.00     0.069 A 
ATOM     74  C   UNL A   1      30.536  23.028  26.559  1.00  0.00     0.159 A 
ATOM     75  C   UNL A   1      31.129  22.536  25.409  1.00  0.00     0.160 A 
ATOM     76  F   UNL A   1      29.823  22.214  27.348  1.00  0.00    -0.204 F 
ATOM     77  F   UNL A   1      30.983  21.249  25.066  1.00  0.00    -0.204 F 
BRANCH  68  78
ATOM     78  C   UNL A   1      33.828  25.034  23.184  1.00  0.00     0.157 C 
BRANCH  78  79
ATOM     79  C   UNL A   1      34.944  24.293  23.866  1.00  0.00    -0.028 A 
ATOM     80  C   UNL A   1      35.309  24.576  25.183  1.00  0.00     0.008 A 
ATOM     81  C   UNL A   1      35.623  23.284  23.181  1.00  0.00     0.008 A 
ATOM     82  C   UNL A   1      36.377  23.909  25.782  1.00  0.00     0.027 A 
ATOM     83  C   UNL A   1      36.681  22.612  23.788  1.00  0.00     0.027 A 
ATOM     84  C   UNL A   1      37.099  22.936  25.084  1.00  0.00     0.044 A 
BRANCH  84  85
ATOM     85  N   UNL A   1      38.229  22.312  25.666  1.00  0.00    -0.312 N 
ATOM     86  C   UNL A   1      39.170  23.014  26.507  1.00  0.00     0.126 C 
ATOM     87  C   UNL A   1      38.570  20.958  25.548  1.00  0.00     0.227 C 
ATOM     88  C   UNL A   1      40.397  22.131  26.498  1.00  0.00     0.032 C 
ATOM     89  C   UNL A   1      39.831  20.734  26.342  1.00  0.00     0.102 C 
ATOM     90  O   UNL A   1      37.996  20.060  24.952  1.00  0.00    -0.275 OA
ENDBRANCH  84  85
ENDBRANCH  78  79
ENDBRANCH  68  78
ENDBRANCH  63  65
ENDBRANCH  62  63
ENDBRANCH   1  62
TORSDOF 14
ENDMDL
MODEL 3
REMARK VINA RESULT:     -12.4      4.549      9.133
REMARK SMILES O=C(OCCOC(=O)c1cn(Cc2ccc(N3CCCC3=O)cc2)c2cc(F)c(F)cc2c1=O)c1ccc(-c2c3nc(c(-c4c(F)cccc4F)c4ccc([nH]4)c(-c4c(F)cccc4F)c4nc(c(-c5c(F)cccc5F)c5ccc2[nH]5)C=C4)C=C3)cc1
REMARK SMILES IDX 5 1 4 2 3 3 2 4 1 5 35 6 36 7 88 8 37 9 87 10 38 11 39 12
REMARK SMILES IDX 40 13 81 14 41 15 86 16 80 17 82 18 42 19 85 20 79 21 78 22
REMARK SMILES IDX 43 24 69 25 52 26 68 27 53 28 56 29 67 30 83 31 54 32 55 33
REMARK SMILES IDX 66 35 84 36 57 37 44 38 45 39 50 40 46 41 47 42 49 43 51 44
REMARK SMILES IDX 48 45 70 46 71 47 76 48 72 49 73 50 75 51 77 52 74 53 58 54
REMARK SMILES IDX 59 55 64 56 60 57 61 58 63 59 65 60 62 61 6 62 7 63 8 64
REMARK SMILES IDX 9 65 10 66 33 67 11 68 32 69 34 70 25 71 31 72 26 73 29 74
REMARK SMILES IDX 27 75 30 76 28 77 12 78 13 79 14 80 24 81 15 82 23 83 16 84
REMARK SMILES IDX 17 85 18 86 21 87 19 88 20 89 22 90
REMARK H PARENT 82 23 56 34
REMARK Flexibility Score: inf
ROOT
ATOM      1  C   UNL A   1      38.320  21.170  25.346  1.00  0.00     0.275 C 
ENDROOT
BRANCH   1   2
ATOM      2  C   UNL A   1      38.753  19.723  25.081  1.00  0.00     0.275 C 
BRANCH   2   3
ATOM      3  O   UNL A   1      39.705  19.199  26.022  1.00  0.00    -0.458 OA
BRANCH   3   4
ATOM      4  C   UNL A   1      41.013  19.543  26.124  1.00  0.00     0.338 C 
ATOM      5  O   UNL A   1      41.891  18.690  26.028  1.00  0.00    -0.246 OA
BRANCH   4   6
ATOM      6  C   UNL A   1      41.404  20.905  26.589  1.00  0.00     0.060 A 
ATOM      7  C   UNL A   1      41.910  21.764  25.610  1.00  0.00     0.016 A 
ATOM      8  C   UNL A   1      41.282  21.388  27.896  1.00  0.00     0.016 A 
ATOM      9  C   UNL A   1      42.401  23.021  25.965  1.00  0.00     0.010 A 
ATOM     10  C   UNL A   1      41.786  22.651  28.252  1.00  0.00     0.010 A 
ATOM     11  C   UNL A   1      42.384  23.473  27.297  1.00  0.00    -0.014 A 
BRANCH  11  12
ATOM     12  C   UNL A   1      42.841  24.855  27.614  1.00  0.00     0.031 A 
ATOM     13  C   UNL A   1      44.291  25.281  27.608  1.00  0.00     0.074 A 
ATOM     14  C   UNL A   1      41.891  25.772  27.877  1.00  0.00     0.049 A 
ATOM     15  N   UNL A   1      44.769  26.502  27.531  1.00  0.00    -0.248 NA
ATOM     16  C   UNL A   1      45.340  24.248  27.609  1.00  0.00     0.031 C 
ATOM     17  C   UNL A   1      40.452  25.500  27.980  1.00  0.00     0.029 A 
ATOM     18  N   UNL A   1      41.993  27.111  28.145  1.00  0.00    -0.354 N 
ATOM     19  C   UNL A   1      46.137  26.376  27.307  1.00  0.00     0.074 A 
ATOM     20  C   UNL A   1      46.442  24.965  27.396  1.00  0.00     0.031 C 
ATOM     21  C   UNL A   1      39.818  26.621  28.345  1.00  0.00     0.029 A 
ATOM     22  C   UNL A   1      40.805  27.673  28.541  1.00  0.00     0.049 A 
ATOM     23  H   UNL A   1      42.832  27.618  28.061  1.00  0.00     0.167 HD
ATOM     24  C   UNL A   1      47.009  27.357  26.963  1.00  0.00     0.037 A 
ATOM     25  C   UNL A   1      40.557  28.878  29.080  1.00  0.00     0.037 A 
ATOM     26  C   UNL A   1      46.725  28.761  27.119  1.00  0.00     0.049 A 
ATOM     27  C   UNL A   1      41.674  29.871  29.164  1.00  0.00     0.074 A 
ATOM     28  C   UNL A   1      47.549  29.845  26.866  1.00  0.00     0.029 A 
ATOM     29  N   UNL A   1      45.567  29.260  27.684  1.00  0.00    -0.354 N 
ATOM     30  N   UNL A   1      42.884  29.788  28.665  1.00  0.00    -0.248 NA
ATOM     31  C   UNL A   1      41.403  31.123  29.879  1.00  0.00     0.031 C 
ATOM     32  C   UNL A   1      46.928  30.988  27.383  1.00  0.00     0.029 A 
ATOM     33  C   UNL A   1      45.703  30.617  27.910  1.00  0.00     0.049 A 
ATOM     34  H   UNL A   1      44.765  28.729  27.893  1.00  0.00     0.167 HD
ATOM     35  C   UNL A   1      43.496  30.998  28.956  1.00  0.00     0.074 A 
ATOM     36  C   UNL A   1      42.533  31.790  29.689  1.00  0.00     0.031 C 
ATOM     37  C   UNL A   1      44.743  31.413  28.626  1.00  0.00     0.037 A 
BRANCH  24  38
ATOM     38  C   UNL A   1      48.337  27.007  26.359  1.00  0.00     0.057 A 
ATOM     39  C   UNL A   1      49.523  26.982  27.093  1.00  0.00     0.134 A 
ATOM     40  C   UNL A   1      48.443  26.889  24.963  1.00  0.00     0.134 A 
ATOM     41  F   UNL A   1      49.498  27.143  28.423  1.00  0.00    -0.206 F 
ATOM     42  C   UNL A   1      50.764  26.827  26.465  1.00  0.00     0.040 A 
ATOM     43  C   UNL A   1      49.673  26.719  24.324  1.00  0.00     0.040 A 
ATOM     44  F   UNL A   1      47.354  27.016  24.194  1.00  0.00    -0.206 F 
ATOM     45  C   UNL A   1      50.842  26.692  25.077  1.00  0.00     0.006 A 
ENDBRANCH  24  38
BRANCH  25  46
ATOM     46  C   UNL A   1      39.231  29.152  29.683  1.00  0.00     0.057 A 
ATOM     47  C   UNL A   1      38.202  29.709  28.908  1.00  0.00     0.134 A 
ATOM     48  C   UNL A   1      38.935  28.829  31.010  1.00  0.00     0.134 A 
ATOM     49  F   UNL A   1      38.420  30.040  27.626  1.00  0.00    -0.206 F 
ATOM     50  C   UNL A   1      36.931  29.938  29.430  1.00  0.00     0.040 A 
ATOM     51  C   UNL A   1      37.657  29.024  31.537  1.00  0.00     0.040 A 
ATOM     52  F   UNL A   1      39.873  28.278  31.795  1.00  0.00    -0.206 F 
ATOM     53  C   UNL A   1      36.653  29.582  30.746  1.00  0.00     0.006 A 
ENDBRANCH  25  46
BRANCH  37  54
ATOM     54  C   UNL A   1      45.132  32.804  29.014  1.00  0.00     0.057 A 
ATOM     55  C   UNL A   1      44.836  33.886  28.177  1.00  0.00     0.134 A 
ATOM     56  C   UNL A   1      45.840  33.067  30.193  1.00  0.00     0.134 A 
ATOM     57  F   UNL A   1      44.169  33.697  27.028  1.00  0.00    -0.206 F 
ATOM     58  C   UNL A   1      45.244  35.181  28.490  1.00  0.00     0.040 A 
ATOM     59  C   UNL A   1      46.224  34.363  30.534  1.00  0.00     0.040 A 
ATOM     60  F   UNL A   1      46.137  32.073  31.044  1.00  0.00    -0.206 F 
ATOM     61  C   UNL A   1      45.936  35.423  29.675  1.00  0.00     0.006 A 
ENDBRANCH  37  54
ENDBRANCH  11  12
ENDBRANCH   4   6
ENDBRANCH   3   4
ENDBRANCH   2   3
ENDBRANCH   1   2
BRANCH   1  62
ATOM     62  O   UNL A   1      36.897  21.358  25.252  1.00  0.00    -0.458 OA
BRANCH  62  63
ATOM     63  C   UNL A   1      36.475  22.190  24.252  1.00  0.00     0.343 C 
ATOM     64  O   UNL A   1      37.030  22.350  23.186  1.00  0.00    -0.246 OA
BRANCH  63  65
ATOM     65  C   UNL A   1      35.202  22.833  24.644  1.00  0.00     0.124 A 
ATOM     66  C   UNL A   1      35.150  24.119  25.023  1.00  0.00     0.106 A 
ATOM     67  C   UNL A   1      33.927  22.080  24.648  1.00  0.00     0.204 A 
ATOM     68  N   UNL A   1      34.026  24.789  25.500  1.00  0.00    -0.342 N 
ATOM     69  C   UNL A   1      32.740  22.731  25.264  1.00  0.00     0.050 A 
ATOM     70  O   UNL A   1      33.848  20.925  24.248  1.00  0.00    -0.288 OA
ATOM     71  C   UNL A   1      32.844  24.054  25.742  1.00  0.00     0.055 A 
ATOM     72  C   UNL A   1      31.568  21.981  25.437  1.00  0.00     0.056 A 
ATOM     73  C   UNL A   1      31.771  24.548  26.504  1.00  0.00     0.069 A 
ATOM     74  C   UNL A   1      30.499  22.538  26.125  1.00  0.00     0.159 A 
ATOM     75  C   UNL A   1      30.609  23.804  26.674  1.00  0.00     0.160 A 
ATOM     76  F   UNL A   1      29.376  21.829  26.291  1.00  0.00    -0.204 F 
ATOM     77  F   UNL A   1      29.601  24.325  27.388  1.00  0.00    -0.204 F 
BRANCH  68  78
ATOM     78  C   UNL A   1      34.004  26.250  25.692  1.00  0.00     0.157 C 
BRANCH  78  79
ATOM     79  C   UNL A   1      32.879  26.911  24.946  1.00  0.00    -0.028 A 
ATOM     80  C   UNL A   1      32.622  26.619  23.606  1.00  0.00     0.008 A 
ATOM     81  C   UNL A   1      32.055  27.824  25.607  1.00  0.00     0.008 A 
ATOM     82  C   UNL A   1      31.602  27.277  22.919  1.00  0.00     0.027 A 
ATOM     83  C   UNL A   1      31.029  28.470  24.920  1.00  0.00     0.027 A 
ATOM     84  C   UNL A   1      30.807  28.234  23.559  1.00  0.00     0.044 A 
BRANCH  84  85
ATOM     85  N   UNL A   1      29.821  28.955  22.843  1.00  0.00    -0.312 N 
ATOM     86  C   UNL A   1      30.136  30.032  21.934  1.00  0.00     0.126 C 
ATOM     87  C   UNL A   1      28.441  28.714  22.879  1.00  0.00     0.227 C 
ATOM     88  C   UNL A   1      28.830  30.780  21.787  1.00  0.00     0.032 C 
ATOM     89  C   UNL A   1      27.780  29.701  21.953  1.00  0.00     0.102 C 
ATOM     90  O   UNL A   1      27.814  27.869  23.500  1.00  0.00    -0.275 OA
ENDBRANCH  84  85
ENDBRANCH  78  79
ENDBRANCH  68  78
ENDBRANCH  63  65
ENDBRANCH  62  63
ENDBRANCH   1  62
TORSDOF 14
ENDMDL
