MODEL 1
REMARK VINA RESULT:     -12.2      0.000      0.000
REMARK SMILES CC[C@H]1Sc2ccc(S(=O)(=O)N3CCC(C(=O)OCCOC(=O)c4ccc(-c5c6nc(c(-c7c(F)cccc7F)c7ccc([nH]7)c(-c7c(F)cccc7F)c7nc(c(-c8c(F)cccc8F)c8ccc5[nH]8)C=C7)C=C6)cc4)CC3)cc2NC1=O
REMARK SMILES IDX 19 1 18 2 16 3 17 4 15 5 12 6 13 7 79 8 14 9 78 10 9 11
REMARK SMILES IDX 10 12 11 13 8 14 3 15 4 16 83 17 5 18 82 19 84 20 6 21 81 22
REMARK SMILES IDX 7 24 80 25 2 26 1 27 20 28 21 29 22 30 23 31 24 32 25 33
REMARK SMILES IDX 77 34 26 35 76 36 27 37 28 38 29 39 70 40 30 41 75 42 69 43
REMARK SMILES IDX 71 44 31 45 74 46 68 47 67 48 32 50 58 51 41 52 57 53 42 54
REMARK SMILES IDX 45 55 56 56 72 57 43 58 44 59 55 61 73 62 46 63 33 64 34 65
REMARK SMILES IDX 39 66 35 67 36 68 38 69 40 70 37 71 59 72 60 73 65 74 61 75
REMARK SMILES IDX 62 76 64 77 66 78 63 79 47 80 48 81 53 82 49 83 50 84 52 85
REMARK SMILES IDX 54 86 51 87
REMARK H PARENT 82 23 71 49 45 60
REMARK Flexibility Score: inf
ROOT
ATOM      1  C   UNL A   1      42.364  21.071  26.154  1.00  0.00     0.274 C 
ENDROOT
BRANCH   1   2
ATOM      2  O   UNL A   1      41.078  21.605  25.785  1.00  0.00    -0.462 OA
BRANCH   2   3
ATOM      3  C   UNL A   1      40.153  21.643  26.774  1.00  0.00     0.309 C 
ATOM      4  O   UNL A   1      40.385  21.462  27.965  1.00  0.00    -0.252 OA
BRANCH   3   5
ATOM      5  C   UNL A   1      38.750  21.900  26.276  1.00  0.00     0.102 C 
ATOM      6  N   UNL A   1      36.484  22.396  24.591  1.00  0.00    -0.198 NA
ATOM      7  C   UNL A   1      36.979  23.471  25.488  1.00  0.00     0.103 C 
ATOM      8  C   UNL A   1      36.904  21.000  24.863  1.00  0.00     0.103 C 
ATOM      9  C   UNL A   1      38.468  23.313  25.780  1.00  0.00     0.032 C 
ATOM     10  C   UNL A   1      38.389  20.907  25.182  1.00  0.00     0.032 C 
BRANCH   6  11
ATOM     11  S   UNL A   1      34.933  22.613  23.908  1.00  0.00     0.243 S 
ATOM     12  O   UNL A   1      34.154  21.425  24.182  1.00  0.00    -0.207 OA
ATOM     13  O   UNL A   1      35.125  23.099  22.557  1.00  0.00    -0.207 OA
BRANCH  11  14
ATOM     14  C   UNL A   1      34.128  23.942  24.788  1.00  0.00     0.084 A 
ATOM     15  C   UNL A   1      31.335  28.181  25.233  1.00  0.00     0.141 C 
ATOM     16  S   UNL A   1      31.396  27.077  26.703  1.00  0.00    -0.111 SA
ATOM     17  C   UNL A   1      32.760  28.593  24.881  1.00  0.00     0.237 C 
ATOM     18  C   UNL A   1      32.550  25.885  26.044  1.00  0.00     0.032 A 
ATOM     19  N   UNL A   1      33.663  27.583  24.664  1.00  0.00    -0.324 N 
ATOM     20  O   UNL A   1      33.081  29.758  24.651  1.00  0.00    -0.273 OA
ATOM     21  C   UNL A   1      32.482  24.555  26.465  1.00  0.00     0.018 A 
ATOM     22  C   UNL A   1      33.487  26.250  25.063  1.00  0.00     0.056 A 
ATOM     23  H   UNL A   1      34.497  27.812  24.193  1.00  0.00     0.170 HD
ATOM     24  C   UNL A   1      33.266  23.583  25.834  1.00  0.00     0.023 A 
ATOM     25  C   UNL A   1      34.267  25.282  24.435  1.00  0.00     0.049 A 
BRANCH  15  26
ATOM     26  C   UNL A   1      30.625  27.479  24.050  1.00  0.00     0.021 C 
ATOM     27  C   UNL A   1      29.564  28.330  23.360  1.00  0.00     0.005 C 
ENDBRANCH  15  26
ENDBRANCH  11  14
ENDBRANCH   6  11
ENDBRANCH   3   5
ENDBRANCH   2   3
ENDBRANCH   1   2
BRANCH   1  28
ATOM     28  C   UNL A   1      43.514  21.864  25.525  1.00  0.00     0.275 C 
BRANCH  28  29
ATOM     29  O   UNL A   1      43.061  23.087  24.914  1.00  0.00    -0.458 OA
BRANCH  29  30
ATOM     30  C   UNL A   1      43.848  24.163  25.144  1.00  0.00     0.338 C 
ATOM     31  O   UNL A   1      44.900  24.442  24.594  1.00  0.00    -0.246 OA
BRANCH  30  32
ATOM     32  C   UNL A   1      43.206  25.072  26.104  1.00  0.00     0.060 A 
ATOM     33  C   UNL A   1      43.701  26.375  26.209  1.00  0.00     0.016 A 
ATOM     34  C   UNL A   1      42.223  24.613  26.979  1.00  0.00     0.016 A 
ATOM     35  C   UNL A   1      43.232  27.223  27.208  1.00  0.00     0.010 A 
ATOM     36  C   UNL A   1      41.744  25.470  27.975  1.00  0.00     0.010 A 
ATOM     37  C   UNL A   1      42.259  26.772  28.108  1.00  0.00    -0.014 A 
BRANCH  37  38
ATOM     38  C   UNL A   1      41.826  27.645  29.226  1.00  0.00     0.031 A 
ATOM     39  C   UNL A   1      42.566  27.611  30.533  1.00  0.00     0.074 A 
ATOM     40  C   UNL A   1      40.777  28.474  29.064  1.00  0.00     0.049 A 
ATOM     41  N   UNL A   1      42.294  28.223  31.656  1.00  0.00    -0.248 NA
ATOM     42  C   UNL A   1      43.774  26.772  30.582  1.00  0.00     0.031 C 
ATOM     43  C   UNL A   1      40.006  28.627  27.831  1.00  0.00     0.029 A 
ATOM     44  N   UNL A   1      40.177  29.336  29.946  1.00  0.00    -0.354 N 
ATOM     45  C   UNL A   1      43.278  27.825  32.553  1.00  0.00     0.074 A 
ATOM     46  C   UNL A   1      44.142  26.903  31.848  1.00  0.00     0.031 C 
ATOM     47  C   UNL A   1      39.036  29.533  28.033  1.00  0.00     0.029 A 
ATOM     48  C   UNL A   1      39.084  29.981  29.421  1.00  0.00     0.049 A 
ATOM     49  H   UNL A   1      40.499  29.478  30.865  1.00  0.00     0.167 HD
ATOM     50  C   UNL A   1      43.443  28.199  33.845  1.00  0.00     0.037 A 
ATOM     51  C   UNL A   1      38.202  30.815  30.004  1.00  0.00     0.037 A 
ATOM     52  C   UNL A   1      42.585  29.127  34.536  1.00  0.00     0.049 A 
ATOM     53  C   UNL A   1      38.374  31.167  31.457  1.00  0.00     0.074 A 
ATOM     54  C   UNL A   1      42.679  29.582  35.840  1.00  0.00     0.029 A 
ATOM     55  N   UNL A   1      41.473  29.739  33.978  1.00  0.00    -0.354 N 
ATOM     56  N   UNL A   1      39.306  30.785  32.297  1.00  0.00    -0.248 NA
ATOM     57  C   UNL A   1      37.368  32.062  32.045  1.00  0.00     0.031 C 
ATOM     58  C   UNL A   1      41.595  30.432  36.086  1.00  0.00     0.029 A 
ATOM     59  C   UNL A   1      40.858  30.550  34.919  1.00  0.00     0.049 A 
ATOM     60  H   UNL A   1      41.164  29.616  33.052  1.00  0.00     0.167 HD
ATOM     61  C   UNL A   1      39.018  31.416  33.500  1.00  0.00     0.074 A 
ATOM     62  C   UNL A   1      37.829  32.213  33.278  1.00  0.00     0.031 C 
ATOM     63  C   UNL A   1      39.678  31.343  34.680  1.00  0.00     0.037 A 
BRANCH  50  64
ATOM     64  C   UNL A   1      44.579  27.578  34.606  1.00  0.00     0.057 A 
ATOM     65  C   UNL A   1      45.846  28.172  34.671  1.00  0.00     0.134 A 
ATOM     66  C   UNL A   1      44.392  26.382  35.312  1.00  0.00     0.134 A 
ATOM     67  F   UNL A   1      46.098  29.310  34.005  1.00  0.00    -0.206 F 
ATOM     68  C   UNL A   1      46.891  27.588  35.389  1.00  0.00     0.040 A 
ATOM     69  C   UNL A   1      45.421  25.802  36.057  1.00  0.00     0.040 A 
ATOM     70  F   UNL A   1      43.203  25.762  35.299  1.00  0.00    -0.206 F 
ATOM     71  C   UNL A   1      46.678  26.403  36.092  1.00  0.00     0.006 A 
ENDBRANCH  50  64
BRANCH  51  72
ATOM     72  C   UNL A   1      37.064  31.358  29.221  1.00  0.00     0.057 A 
ATOM     73  C   UNL A   1      37.090  32.661  28.711  1.00  0.00     0.134 A 
ATOM     74  C   UNL A   1      35.918  30.592  28.972  1.00  0.00     0.134 A 
ATOM     75  F   UNL A   1      38.148  33.454  28.937  1.00  0.00    -0.206 F 
ATOM     76  C   UNL A   1      36.014  33.188  27.995  1.00  0.00     0.040 A 
ATOM     77  C   UNL A   1      34.846  31.097  28.235  1.00  0.00     0.040 A 
ATOM     78  F   UNL A   1      35.830  29.335  29.432  1.00  0.00    -0.206 F 
ATOM     79  C   UNL A   1      34.889  32.402  27.751  1.00  0.00     0.006 A 
ENDBRANCH  51  72
BRANCH  63  80
ATOM     80  C   UNL A   1      39.156  32.180  35.813  1.00  0.00     0.057 A 
ATOM     81  C   UNL A   1      38.277  31.664  36.773  1.00  0.00     0.134 A 
ATOM     82  C   UNL A   1      39.567  33.511  35.961  1.00  0.00     0.134 A 
ATOM     83  F   UNL A   1      37.835  30.401  36.682  1.00  0.00    -0.206 F 
ATOM     84  C   UNL A   1      37.807  32.449  37.828  1.00  0.00     0.040 A 
ATOM     85  C   UNL A   1      39.126  34.296  37.027  1.00  0.00     0.040 A 
ATOM     86  F   UNL A   1      40.415  34.064  35.081  1.00  0.00    -0.206 F 
ATOM     87  C   UNL A   1      38.238  33.768  37.961  1.00  0.00     0.006 A 
ENDBRANCH  63  80
ENDBRANCH  37  38
ENDBRANCH  30  32
ENDBRANCH  29  30
ENDBRANCH  28  29
ENDBRANCH   1  28
TORSDOF 14
ENDMDL
MODEL 2
REMARK VINA RESULT:     -11.8      2.073      6.718
REMARK SMILES CC[C@H]1Sc2ccc(S(=O)(=O)N3CCC(C(=O)OCCOC(=O)c4ccc(-c5c6nc(c(-c7c(F)cccc7F)c7ccc([nH]7)c(-c7c(F)cccc7F)c7nc(c(-c8c(F)cccc8F)c8ccc5[nH]8)C=C7)C=C6)cc4)CC3)cc2NC1=O
REMARK SMILES IDX 19 1 18 2 16 3 17 4 15 5 12 6 13 7 79 8 14 9 78 10 9 11
REMARK SMILES IDX 10 12 11 13 8 14 3 15 4 16 83 17 5 18 82 19 84 20 6 21 81 22
REMARK SMILES IDX 7 24 80 25 2 26 1 27 20 28 21 29 22 30 23 31 24 32 25 33
REMARK SMILES IDX 77 34 26 35 76 36 27 37 28 38 29 39 70 40 30 41 75 42 69 43
REMARK SMILES IDX 71 44 31 45 74 46 68 47 67 48 32 50 58 51 41 52 57 53 42 54
REMARK SMILES IDX 45 55 56 56 72 57 43 58 44 59 55 61 73 62 46 63 33 64 34 65
REMARK SMILES IDX 39 66 35 67 36 68 38 69 40 70 37 71 59 72 60 73 65 74 61 75
REMARK SMILES IDX 62 76 64 77 66 78 63 79 47 80 48 81 53 82 49 83 50 84 52 85
REMARK SMILES IDX 54 86 51 87
REMARK H PARENT 82 23 71 49 45 60
REMARK Flexibility Score: inf
ROOT
ATOM      1  C   UNL A   1      39.574  21.439  26.100  1.00  0.00     0.274 C 
ENDROOT
BRANCH   1   2
ATOM      2  O   UNL A   1      38.294  22.019  25.781  1.00  0.00    -0.462 OA
BRANCH   2   3
ATOM      3  C   UNL A   1      37.351  21.153  25.340  1.00  0.00     0.309 C 
ATOM      4  O   UNL A   1      37.564  20.187  24.614  1.00  0.00    -0.252 OA
BRANCH   3   5
ATOM      5  C   UNL A   1      35.954  21.500  25.798  1.00  0.00     0.102 C 
ATOM      6  N   UNL A   1      33.298  22.572  25.937  1.00  0.00    -0.198 NA
ATOM      7  C   UNL A   1      34.346  23.089  26.853  1.00  0.00     0.103 C 
ATOM      8  C   UNL A   1      33.530  21.272  25.261  1.00  0.00     0.103 C 
ATOM      9  C   UNL A   1      35.739  22.939  26.250  1.00  0.00     0.032 C 
ATOM     10  C   UNL A   1      34.944  21.164  24.711  1.00  0.00     0.032 C 
BRANCH   6  11
ATOM     11  S   UNL A   1      31.679  22.964  26.315  1.00  0.00     0.243 S 
ATOM     12  O   UNL A   1      31.615  23.282  27.725  1.00  0.00    -0.207 OA
ATOM     13  O   UNL A   1      30.842  21.938  25.729  1.00  0.00    -0.207 OA
BRANCH  11  14
ATOM     14  C   UNL A   1      31.265  24.472  25.453  1.00  0.00     0.084 A 
ATOM     15  C   UNL A   1      32.096  29.186  23.704  1.00  0.00     0.141 C 
ATOM     16  S   UNL A   1      30.848  28.181  22.801  1.00  0.00    -0.111 SA
ATOM     17  C   UNL A   1      31.662  29.296  25.161  1.00  0.00     0.237 C 
ATOM     18  C   UNL A   1      30.888  26.753  23.872  1.00  0.00     0.032 A 
ATOM     19  N   UNL A   1      31.441  28.122  25.834  1.00  0.00    -0.324 N 
ATOM     20  O   UNL A   1      31.647  30.363  25.773  1.00  0.00    -0.273 OA
ATOM     21  C   UNL A   1      30.620  25.488  23.344  1.00  0.00     0.018 A 
ATOM     22  C   UNL A   1      31.246  26.873  25.225  1.00  0.00     0.056 A 
ATOM     23  H   UNL A   1      31.417  28.159  26.817  1.00  0.00     0.170 HD
ATOM     24  C   UNL A   1      30.814  24.348  24.132  1.00  0.00     0.023 A 
ATOM     25  C   UNL A   1      31.439  25.738  26.010  1.00  0.00     0.049 A 
BRANCH  15  26
ATOM     26  C   UNL A   1      33.505  28.563  23.563  1.00  0.00     0.021 C 
ATOM     27  C   UNL A   1      33.860  28.125  22.145  1.00  0.00     0.005 C 
ENDBRANCH  15  26
ENDBRANCH  11  14
ENDBRANCH   6  11
ENDBRANCH   3   5
ENDBRANCH   2   3
ENDBRANCH   1   2
BRANCH   1  28
ATOM     28  C   UNL A   1      40.593  22.501  26.524  1.00  0.00     0.275 C 
BRANCH  28  29
ATOM     29  O   UNL A   1      40.030  23.827  26.520  1.00  0.00    -0.458 OA
BRANCH  29  30
ATOM     30  C   UNL A   1      40.936  24.829  26.438  1.00  0.00     0.338 C 
ATOM     31  O   UNL A   1      41.841  24.945  25.629  1.00  0.00    -0.246 OA
BRANCH  30  32
ATOM     32  C   UNL A   1      40.624  25.882  27.415  1.00  0.00     0.060 A 
ATOM     33  C   UNL A   1      41.502  26.965  27.518  1.00  0.00     0.016 A 
ATOM     34  C   UNL A   1      39.560  25.743  28.305  1.00  0.00     0.016 A 
ATOM     35  C   UNL A   1      41.337  27.906  28.530  1.00  0.00     0.010 A 
ATOM     36  C   UNL A   1      39.388  26.696  29.314  1.00  0.00     0.010 A 
ATOM     37  C   UNL A   1      40.286  27.771  29.446  1.00  0.00    -0.014 A 
BRANCH  37  38
ATOM     38  C   UNL A   1      40.165  28.723  30.576  1.00  0.00     0.031 A 
ATOM     39  C   UNL A   1      39.139  29.819  30.525  1.00  0.00     0.074 A 
ATOM     40  C   UNL A   1      40.966  28.597  31.650  1.00  0.00     0.049 A 
ATOM     41  N   UNL A   1      38.934  30.803  31.362  1.00  0.00    -0.248 NA
ATOM     42  C   UNL A   1      38.222  29.807  29.374  1.00  0.00     0.031 C 
ATOM     43  C   UNL A   1      41.970  27.550  31.835  1.00  0.00     0.029 A 
ATOM     44  N   UNL A   1      41.066  29.361  32.785  1.00  0.00    -0.354 N 
ATOM     45  C   UNL A   1      37.885  31.542  30.829  1.00  0.00     0.074 A 
ATOM     46  C   UNL A   1      37.510  30.904  29.585  1.00  0.00     0.031 C 
ATOM     47  C   UNL A   1      42.583  27.735  33.015  1.00  0.00     0.029 A 
ATOM     48  C   UNL A   1      42.052  28.941  33.643  1.00  0.00     0.049 A 
ATOM     49  H   UNL A   1      40.485  30.135  32.966  1.00  0.00     0.167 HD
ATOM     50  C   UNL A   1      37.291  32.650  31.334  1.00  0.00     0.037 A 
ATOM     51  C   UNL A   1      42.500  29.488  34.790  1.00  0.00     0.037 A 
ATOM     52  C   UNL A   1      37.663  33.272  32.579  1.00  0.00     0.049 A 
ATOM     53  C   UNL A   1      41.862  30.752  35.298  1.00  0.00     0.074 A 
ATOM     54  C   UNL A   1      37.111  34.387  33.185  1.00  0.00     0.029 A 
ATOM     55  N   UNL A   1      38.685  32.832  33.408  1.00  0.00    -0.354 N 
ATOM     56  N   UNL A   1      40.873  31.444  34.787  1.00  0.00    -0.248 NA
ATOM     57  C   UNL A   1      42.407  31.314  36.542  1.00  0.00     0.031 C 
ATOM     58  C   UNL A   1      37.831  34.651  34.355  1.00  0.00     0.029 A 
ATOM     59  C   UNL A   1      38.795  33.668  34.508  1.00  0.00     0.049 A 
ATOM     60  H   UNL A   1      39.250  32.044  33.239  1.00  0.00     0.167 HD
ATOM     61  C   UNL A   1      40.656  32.503  35.660  1.00  0.00     0.074 A 
ATOM     62  C   UNL A   1      41.612  32.356  36.738  1.00  0.00     0.031 C 
ATOM     63  C   UNL A   1      39.748  33.504  35.576  1.00  0.00     0.037 A 
BRANCH  50  64
ATOM     64  C   UNL A   1      36.195  33.280  30.523  1.00  0.00     0.057 A 
ATOM     65  C   UNL A   1      34.842  33.125  30.852  1.00  0.00     0.134 A 
ATOM     66  C   UNL A   1      36.502  34.081  29.416  1.00  0.00     0.134 A 
ATOM     67  F   UNL A   1      34.478  32.359  31.892  1.00  0.00    -0.206 F 
ATOM     68  C   UNL A   1      33.833  33.724  30.094  1.00  0.00     0.040 A 
ATOM     69  C   UNL A   1      35.504  34.708  28.666  1.00  0.00     0.040 A 
ATOM     70  F   UNL A   1      37.777  34.277  29.048  1.00  0.00    -0.206 F 
ATOM     71  C   UNL A   1      34.164  34.524  29.002  1.00  0.00     0.006 A 
ENDBRANCH  50  64
BRANCH  51  72
ATOM     72  C   UNL A   1      43.623  28.855  35.524  1.00  0.00     0.057 A 
ATOM     73  C   UNL A   1      44.950  29.223  35.278  1.00  0.00     0.134 A 
ATOM     74  C   UNL A   1      43.399  27.858  36.483  1.00  0.00     0.134 A 
ATOM     75  F   UNL A   1      45.233  30.152  34.354  1.00  0.00    -0.206 F 
ATOM     76  C   UNL A   1      46.014  28.614  35.946  1.00  0.00     0.040 A 
ATOM     77  C   UNL A   1      44.451  27.261  37.178  1.00  0.00     0.040 A 
ATOM     78  F   UNL A   1      42.149  27.460  36.768  1.00  0.00    -0.206 F 
ATOM     79  C   UNL A   1      45.764  27.633  36.904  1.00  0.00     0.006 A 
ENDBRANCH  51  72
BRANCH  63  80
ATOM     80  C   UNL A   1      39.714  34.497  36.703  1.00  0.00     0.057 A 
ATOM     81  C   UNL A   1      40.392  35.721  36.634  1.00  0.00     0.134 A 
ATOM     82  C   UNL A   1      38.965  34.236  37.858  1.00  0.00     0.134 A 
ATOM     83  F   UNL A   1      41.139  36.026  35.562  1.00  0.00    -0.206 F 
ATOM     84  C   UNL A   1      40.344  36.641  37.684  1.00  0.00     0.040 A 
ATOM     85  C   UNL A   1      38.887  35.160  38.900  1.00  0.00     0.040 A 
ATOM     86  F   UNL A   1      38.284  33.087  37.983  1.00  0.00    -0.206 F 
ATOM     87  C   UNL A   1      39.583  36.364  38.818  1.00  0.00     0.006 A 
ENDBRANCH  63  80
ENDBRANCH  37  38
ENDBRANCH  30  32
ENDBRANCH  29  30
ENDBRANCH  28  29
ENDBRANCH   1  28
TORSDOF 14
ENDMDL
MODEL 3
REMARK VINA RESULT:     -11.7      2.009      2.789
REMARK SMILES CC[C@H]1Sc2ccc(S(=O)(=O)N3CCC(C(=O)OCCOC(=O)c4ccc(-c5c6nc(c(-c7c(F)cccc7F)c7ccc([nH]7)c(-c7c(F)cccc7F)c7nc(c(-c8c(F)cccc8F)c8ccc5[nH]8)C=C7)C=C6)cc4)CC3)cc2NC1=O
REMARK SMILES IDX 19 1 18 2 16 3 17 4 15 5 12 6 13 7 79 8 14 9 78 10 9 11
REMARK SMILES IDX 10 12 11 13 8 14 3 15 4 16 83 17 5 18 82 19 84 20 6 21 81 22
REMARK SMILES IDX 7 24 80 25 2 26 1 27 20 28 21 29 22 30 23 31 24 32 25 33
REMARK SMILES IDX 77 34 26 35 76 36 27 37 28 38 29 39 70 40 30 41 75 42 69 43
REMARK SMILES IDX 71 44 31 45 74 46 68 47 67 48 32 50 58 51 41 52 57 53 42 54
REMARK SMILES IDX 45 55 56 56 72 57 43 58 44 59 55 61 73 62 46 63 33 64 34 65
REMARK SMILES IDX 39 66 35 67 36 68 38 69 40 70 37 71 59 72 60 73 65 74 61 75
REMARK SMILES IDX 62 76 64 77 66 78 63 79 47 80 48 81 53 82 49 83 50 84 52 85
REMARK SMILES IDX 54 86 51 87
REMARK H PARENT 82 23 71 49 45 60
REMARK Flexibility Score: inf
ROOT
ATOM      1  C   UNL A   1      39.727  21.277  26.113  1.00  0.00     0.274 C 
ENDROOT
BRANCH   1   2
ATOM      2  O   UNL A   1      38.484  21.874  25.694  1.00  0.00    -0.462 OA
BRANCH   2   3
ATOM      3  C   UNL A   1      37.527  21.008  25.281  1.00  0.00     0.309 C 
ATOM      4  O   UNL A   1      37.722  20.030  24.566  1.00  0.00    -0.252 OA
BRANCH   3   5
ATOM      5  C   UNL A   1      36.141  21.371  25.757  1.00  0.00     0.102 C 
ATOM      6  N   UNL A   1      33.410  22.241  25.847  1.00  0.00    -0.198 NA
ATOM      7  C   UNL A   1      34.467  23.078  26.470  1.00  0.00     0.103 C 
ATOM      8  C   UNL A   1      33.718  20.822  25.549  1.00  0.00     0.103 C 
ATOM      9  C   UNL A   1      35.820  22.860  25.801  1.00  0.00     0.032 C 
ATOM     10  C   UNL A   1      35.091  20.660  24.916  1.00  0.00     0.032 C 
BRANCH   6  11
ATOM     11  S   UNL A   1      31.792  22.609  26.256  1.00  0.00     0.243 S 
ATOM     12  O   UNL A   1      31.759  22.982  27.653  1.00  0.00    -0.207 OA
ATOM     13  O   UNL A   1      30.966  21.539  25.737  1.00  0.00    -0.207 OA
BRANCH  11  14
ATOM     14  C   UNL A   1      31.316  24.070  25.347  1.00  0.00     0.084 A 
ATOM     15  C   UNL A   1      31.936  28.766  23.470  1.00  0.00     0.141 C 
ATOM     16  S   UNL A   1      30.749  27.677  22.585  1.00  0.00    -0.111 SA
ATOM     17  C   UNL A   1      31.481  28.897  24.920  1.00  0.00     0.237 C 
ATOM     18  C   UNL A   1      30.846  26.283  23.697  1.00  0.00     0.032 A 
ATOM     19  N   UNL A   1      31.310  27.732  25.624  1.00  0.00    -0.324 N 
ATOM     20  O   UNL A   1      31.407  29.978  25.501  1.00  0.00    -0.273 OA
ATOM     21  C   UNL A   1      30.646  24.992  23.204  1.00  0.00     0.018 A 
ATOM     22  C   UNL A   1      31.182  26.459  25.049  1.00  0.00     0.056 A 
ATOM     23  H   UNL A   1      31.272  27.796  26.606  1.00  0.00     0.170 HD
ATOM     24  C   UNL A   1      30.886  23.886  24.026  1.00  0.00     0.023 A 
ATOM     25  C   UNL A   1      31.421  25.357  25.868  1.00  0.00     0.049 A 
BRANCH  15  26
ATOM     26  C   UNL A   1      33.375  28.209  23.361  1.00  0.00     0.021 C 
ATOM     27  C   UNL A   1      34.042  28.450  22.010  1.00  0.00     0.005 C 
ENDBRANCH  15  26
ENDBRANCH  11  14
ENDBRANCH   6  11
ENDBRANCH   3   5
ENDBRANCH   2   3
ENDBRANCH   1   2
BRANCH   1  28
ATOM     28  C   UNL A   1      40.721  22.326  26.621  1.00  0.00     0.275 C 
BRANCH  28  29
ATOM     29  O   UNL A   1      40.154  23.650  26.638  1.00  0.00    -0.458 OA
BRANCH  29  30
ATOM     30  C   UNL A   1      41.047  24.653  26.478  1.00  0.00     0.338 C 
ATOM     31  O   UNL A   1      41.933  24.730  25.644  1.00  0.00    -0.246 OA
BRANCH  30  32
ATOM     32  C   UNL A   1      40.746  25.759  27.398  1.00  0.00     0.060 A 
ATOM     33  C   UNL A   1      41.573  26.885  27.367  1.00  0.00     0.016 A 
ATOM     34  C   UNL A   1      39.750  25.636  28.366  1.00  0.00     0.016 A 
ATOM     35  C   UNL A   1      41.425  27.888  28.321  1.00  0.00     0.010 A 
ATOM     36  C   UNL A   1      39.595  26.650  29.317  1.00  0.00     0.010 A 
ATOM     37  C   UNL A   1      40.444  27.772  29.312  1.00  0.00    -0.014 A 
BRANCH  37  38
ATOM     38  C   UNL A   1      40.347  28.797  30.380  1.00  0.00     0.031 A 
ATOM     39  C   UNL A   1      41.262  28.728  31.569  1.00  0.00     0.074 A 
ATOM     40  C   UNL A   1      39.447  29.792  30.276  1.00  0.00     0.049 A 
ATOM     41  N   UNL A   1      41.277  29.467  32.648  1.00  0.00    -0.248 NA
ATOM     42  C   UNL A   1      42.298  27.683  31.542  1.00  0.00     0.031 C 
ATOM     43  C   UNL A   1      38.535  29.990  29.151  1.00  0.00     0.029 A 
ATOM     44  N   UNL A   1      39.149  30.819  31.135  1.00  0.00    -0.354 N 
ATOM     45  C   UNL A   1      42.303  28.963  33.439  1.00  0.00     0.074 A 
ATOM     46  C   UNL A   1      42.873  27.842  32.724  1.00  0.00     0.031 C 
ATOM     47  C   UNL A   1      37.780  31.075  29.386  1.00  0.00     0.029 A 
ATOM     48  C   UNL A   1      38.118  31.615  30.699  1.00  0.00     0.049 A 
ATOM     49  H   UNL A   1      39.629  30.971  31.981  1.00  0.00     0.167 HD
ATOM     50  C   UNL A   1      42.727  29.400  34.649  1.00  0.00     0.037 A 
ATOM     51  C   UNL A   1      37.496  32.644  31.306  1.00  0.00     0.037 A 
ATOM     52  C   UNL A   1      42.161  30.525  35.349  1.00  0.00     0.049 A 
ATOM     53  C   UNL A   1      37.948  33.071  32.676  1.00  0.00     0.074 A 
ATOM     54  C   UNL A   1      42.532  31.056  36.572  1.00  0.00     0.029 A 
ATOM     55  N   UNL A   1      41.101  31.290  34.887  1.00  0.00    -0.354 N 
ATOM     56  N   UNL A   1      38.917  32.588  33.416  1.00  0.00    -0.248 NA
ATOM     57  C   UNL A   1      37.217  34.183  33.297  1.00  0.00     0.031 C 
ATOM     58  C   UNL A   1      41.665  32.111  36.872  1.00  0.00     0.029 A 
ATOM     59  C   UNL A   1      40.788  32.274  35.811  1.00  0.00     0.049 A 
ATOM     60  H   UNL A   1      40.636  31.154  34.029  1.00  0.00     0.167 HD
ATOM     61  C   UNL A   1      38.932  33.355  34.573  1.00  0.00     0.074 A 
ATOM     62  C   UNL A   1      37.881  34.342  34.433  1.00  0.00     0.031 C 
ATOM     63  C   UNL A   1      39.743  33.253  35.654  1.00  0.00     0.037 A 
BRANCH  50  64
ATOM     64  C   UNL A   1      43.841  28.638  35.309  1.00  0.00     0.057 A 
ATOM     65  C   UNL A   1      45.189  28.952  35.092  1.00  0.00     0.134 A 
ATOM     66  C   UNL A   1      43.557  27.596  36.202  1.00  0.00     0.134 A 
ATOM     67  F   UNL A   1      45.531  29.929  34.238  1.00  0.00    -0.206 F 
ATOM     68  C   UNL A   1      46.214  28.240  35.720  1.00  0.00     0.040 A 
ATOM     69  C   UNL A   1      44.572  26.896  36.856  1.00  0.00     0.040 A 
ATOM     70  F   UNL A   1      42.288  27.247  36.461  1.00  0.00    -0.206 F 
ATOM     71  C   UNL A   1      45.906  27.214  36.611  1.00  0.00     0.006 A 
ENDBRANCH  50  64
BRANCH  51  72
ATOM     72  C   UNL A   1      36.364  33.328  30.632  1.00  0.00     0.057 A 
ATOM     73  C   UNL A   1      35.042  33.117  31.040  1.00  0.00     0.134 A 
ATOM     74  C   UNL A   1      36.574  34.200  29.556  1.00  0.00     0.134 A 
ATOM     75  F   UNL A   1      34.773  32.273  32.047  1.00  0.00    -0.206 F 
ATOM     76  C   UNL A   1      33.971  33.736  30.395  1.00  0.00     0.040 A 
ATOM     77  C   UNL A   1      35.514  34.847  28.920  1.00  0.00     0.040 A 
ATOM     78  F   UNL A   1      37.818  34.447  29.117  1.00  0.00    -0.206 F 
ATOM     79  C   UNL A   1      34.207  34.610  29.335  1.00  0.00     0.006 A 
ENDBRANCH  51  72
BRANCH  63  80
ATOM     80  C   UNL A   1      39.555  34.260  36.752  1.00  0.00     0.057 A 
ATOM     81  C   UNL A   1      38.804  33.977  37.899  1.00  0.00     0.134 A 
ATOM     82  C   UNL A   1      40.165  35.519  36.673  1.00  0.00     0.134 A 
ATOM     83  F   UNL A   1      38.182  32.795  38.030  1.00  0.00    -0.206 F 
ATOM     84  C   UNL A   1      38.646  34.918  38.918  1.00  0.00     0.040 A 
ATOM     85  C   UNL A   1      40.038  36.457  37.698  1.00  0.00     0.040 A 
ATOM     86  F   UNL A   1      40.907  35.851  35.605  1.00  0.00    -0.206 F 
ATOM     87  C   UNL A   1      39.271  36.160  38.822  1.00  0.00     0.006 A 
ENDBRANCH  63  80
ENDBRANCH  37  38
ENDBRANCH  30  32
ENDBRANCH  29  30
ENDBRANCH  28  29
ENDBRANCH   1  28
TORSDOF 14
ENDMDL
