MODEL 1
REMARK VINA RESULT:      -8.8      0.000      0.000
REMARK SMILES COCC[N@H+](C)[C@H](C)[C@@H](C)C(=O)OCCOC(=O)c1ccc(-c2c3nc(c(-c4c(F)cccc4F)c4ccc([nH]4)c(-c4c(F)cccc4F)c4nc(c(-c5c(F)cccc5F)c5ccc2[nH]5)C=C4)C=C3)cc1
REMARK SMILES IDX 13 1 11 2 12 3 9 4 10 5 7 6 8 7 5 8 6 9 4 11 3 12 2 13 1 14
REMARK SMILES IDX 14 15 15 16 16 17 17 18 18 19 19 20 20 21 72 22 21 23 71 24
REMARK SMILES IDX 22 25 23 26 24 27 65 28 25 29 70 30 64 31 66 32 26 33 69 34
REMARK SMILES IDX 63 35 62 36 27 38 53 39 36 40 52 41 37 42 40 43 51 44 67 45
REMARK SMILES IDX 38 46 39 47 50 49 68 50 41 51 28 52 29 53 34 54 30 55 31 56
REMARK SMILES IDX 33 57 35 58 32 59 54 60 55 61 60 62 56 63 57 64 59 65 61 66
REMARK SMILES IDX 58 67 42 68 43 69 48 70 44 71 45 72 47 73 49 74 46 75
REMARK H PARENT 5 10 66 37 40 48
REMARK Flexibility Score: inf
ROOT
ATOM      1  O   UNL A   1      39.118  22.331  25.824  1.00  0.00    -0.462 OA
ENDROOT
BRANCH   1   2
ATOM      2  C   UNL A   1      37.978  23.056  25.752  1.00  0.00     0.314 C 
ATOM      3  O   UNL A   1      37.900  24.235  26.095  1.00  0.00    -0.252 OA
BRANCH   2   4
ATOM      4  C   UNL A   1      36.736  22.293  25.306  1.00  0.00     0.154 C 
ATOM      5  C   UNL A   1      36.590  22.670  23.820  1.00  0.00     0.026 C 
BRANCH   4   6
ATOM      6  C   UNL A   1      35.425  22.468  26.145  1.00  0.00     0.194 C 
ATOM      7  C   UNL A   1      34.469  23.504  25.504  1.00  0.00     0.076 C 
BRANCH   6   8
ATOM      8  N   UNL A   1      34.573  21.278  26.396  1.00  0.00    -0.333 N 
ATOM      9  C   UNL A   1      33.543  21.439  27.427  1.00  0.00     0.333 C 
ATOM     10  H   UNL A   1      35.317  20.680  26.756  1.00  0.00     0.348 HD
BRANCH   8  11
ATOM     11  C   UNL A   1      34.027  20.531  25.250  1.00  0.00     0.291 C 
BRANCH  11  12
ATOM     12  C   UNL A   1      32.516  20.229  25.157  1.00  0.00     0.221 C 
BRANCH  12  13
ATOM     13  O   UNL A   1      32.179  18.845  25.266  1.00  0.00    -0.379 OA
ATOM     14  C   UNL A   1      32.893  18.016  24.367  1.00  0.00     0.195 C 
ENDBRANCH  12  13
ENDBRANCH  11  12
ENDBRANCH   8  11
ENDBRANCH   6   8
ENDBRANCH   4   6
ENDBRANCH   2   4
ENDBRANCH   1   2
BRANCH   1  15
ATOM     15  C   UNL A   1      38.938  20.967  26.267  1.00  0.00     0.274 C 
BRANCH  15  16
ATOM     16  C   UNL A   1      39.685  19.955  25.396  1.00  0.00     0.275 C 
BRANCH  16  17
ATOM     17  O   UNL A   1      40.721  19.292  26.145  1.00  0.00    -0.458 OA
BRANCH  17  18
ATOM     18  C   UNL A   1      41.978  19.650  25.815  1.00  0.00     0.338 C 
ATOM     19  O   UNL A   1      42.751  19.041  25.087  1.00  0.00    -0.246 OA
BRANCH  18  20
ATOM     20  C   UNL A   1      42.368  20.928  26.425  1.00  0.00     0.060 A 
ATOM     21  C   UNL A   1      42.241  21.125  27.800  1.00  0.00     0.016 A 
ATOM     22  C   UNL A   1      42.674  22.000  25.585  1.00  0.00     0.016 A 
ATOM     23  C   UNL A   1      42.377  22.403  28.334  1.00  0.00     0.010 A 
ATOM     24  C   UNL A   1      42.873  23.270  26.127  1.00  0.00     0.010 A 
ATOM     25  C   UNL A   1      42.713  23.482  27.504  1.00  0.00    -0.014 A 
BRANCH  25  26
ATOM     26  C   UNL A   1      43.009  24.797  28.113  1.00  0.00     0.031 A 
ATOM     27  C   UNL A   1      44.402  25.195  28.497  1.00  0.00     0.074 A 
ATOM     28  C   UNL A   1      41.978  25.642  28.297  1.00  0.00     0.049 A 
ATOM     29  N   UNL A   1      44.810  26.305  29.059  1.00  0.00    -0.248 NA
ATOM     30  C   UNL A   1      45.473  24.228  28.222  1.00  0.00     0.031 C 
ATOM     31  C   UNL A   1      40.584  25.348  27.954  1.00  0.00     0.029 A 
ATOM     32  N   UNL A   1      41.939  26.916  28.795  1.00  0.00    -0.354 N 
ATOM     33  C   UNL A   1      46.180  26.161  29.233  1.00  0.00     0.074 A 
ATOM     34  C   UNL A   1      46.535  24.857  28.712  1.00  0.00     0.031 C 
ATOM     35  C   UNL A   1      39.834  26.430  28.207  1.00  0.00     0.029 A 
ATOM     36  C   UNL A   1      40.681  27.466  28.783  1.00  0.00     0.049 A 
ATOM     37  H   UNL A   1      42.734  27.392  29.128  1.00  0.00     0.167 HD
ATOM     38  C   UNL A   1      47.051  27.039  29.786  1.00  0.00     0.037 A 
ATOM     39  C   UNL A   1      40.253  28.669  29.204  1.00  0.00     0.037 A 
ATOM     40  C   UNL A   1      46.685  28.341  30.291  1.00  0.00     0.049 A 
ATOM     41  C   UNL A   1      41.243  29.625  29.790  1.00  0.00     0.074 A 
ATOM     42  C   UNL A   1      47.494  29.304  30.868  1.00  0.00     0.029 A 
ATOM     43  N   UNL A   1      45.399  28.861  30.274  1.00  0.00    -0.354 N 
ATOM     44  N   UNL A   1      42.532  29.470  29.962  1.00  0.00    -0.248 NA
ATOM     45  C   UNL A   1      40.718  30.917  30.248  1.00  0.00     0.031 C 
ATOM     46  C   UNL A   1      46.693  30.395  31.225  1.00  0.00     0.029 A 
ATOM     47  C   UNL A   1      45.390  30.126  30.840  1.00  0.00     0.049 A 
ATOM     48  H   UNL A   1      44.608  28.399  29.912  1.00  0.00     0.167 HD
ATOM     49  C   UNL A   1      42.977  30.640  30.557  1.00  0.00     0.074 A 
ATOM     50  C   UNL A   1      41.821  31.509  30.683  1.00  0.00     0.031 C 
ATOM     51  C   UNL A   1      44.225  30.963  30.973  1.00  0.00     0.037 A 
BRANCH  38  52
ATOM     52  C   UNL A   1      48.483  26.612  29.911  1.00  0.00     0.057 A 
ATOM     53  C   UNL A   1      49.446  26.954  28.954  1.00  0.00     0.134 A 
ATOM     54  C   UNL A   1      48.914  25.889  31.032  1.00  0.00     0.134 A 
ATOM     55  F   UNL A   1      49.098  27.635  27.852  1.00  0.00    -0.206 F 
ATOM     56  C   UNL A   1      50.785  26.583  29.102  1.00  0.00     0.040 A 
ATOM     57  C   UNL A   1      50.252  25.529  31.200  1.00  0.00     0.040 A 
ATOM     58  F   UNL A   1      48.042  25.535  31.988  1.00  0.00    -0.206 F 
ATOM     59  C   UNL A   1      51.192  25.874  30.231  1.00  0.00     0.006 A 
ENDBRANCH  38  52
BRANCH  39  60
ATOM     60  C   UNL A   1      38.817  29.010  29.075  1.00  0.00     0.057 A 
ATOM     61  C   UNL A   1      37.953  28.912  30.169  1.00  0.00     0.134 A 
ATOM     62  C   UNL A   1      38.294  29.503  27.874  1.00  0.00     0.134 A 
ATOM     63  F   UNL A   1      38.398  28.435  31.341  1.00  0.00    -0.206 F 
ATOM     64  C   UNL A   1      36.615  29.296  30.075  1.00  0.00     0.040 A 
ATOM     65  C   UNL A   1      36.964  29.913  27.772  1.00  0.00     0.040 A 
ATOM     66  F   UNL A   1      39.080  29.632  26.795  1.00  0.00    -0.206 F 
ATOM     67  C   UNL A   1      36.120  29.808  28.876  1.00  0.00     0.006 A 
ENDBRANCH  39  60
BRANCH  51  68
ATOM     68  C   UNL A   1      44.385  32.311  31.604  1.00  0.00     0.057 A 
ATOM     69  C   UNL A   1      44.242  32.492  32.986  1.00  0.00     0.134 A 
ATOM     70  C   UNL A   1      44.666  33.439  30.825  1.00  0.00     0.134 A 
ATOM     71  F   UNL A   1      43.954  31.450  33.781  1.00  0.00    -0.206 F 
ATOM     72  C   UNL A   1      44.346  33.755  33.569  1.00  0.00     0.040 A 
ATOM     73  C   UNL A   1      44.791  34.704  31.400  1.00  0.00     0.040 A 
ATOM     74  F   UNL A   1      44.815  33.330  29.497  1.00  0.00    -0.206 F 
ATOM     75  C   UNL A   1      44.622  34.865  32.774  1.00  0.00     0.006 A 
ENDBRANCH  51  68
ENDBRANCH  25  26
ENDBRANCH  18  20
ENDBRANCH  17  18
ENDBRANCH  16  17
ENDBRANCH  15  16
ENDBRANCH   1  15
TORSDOF 16
ENDMDL
MODEL 2
REMARK VINA RESULT:      -8.7      5.052      9.215
REMARK SMILES COCC[N@H+](C)[C@H](C)[C@@H](C)C(=O)OCCOC(=O)c1ccc(-c2c3nc(c(-c4c(F)cccc4F)c4ccc([nH]4)c(-c4c(F)cccc4F)c4nc(c(-c5c(F)cccc5F)c5ccc2[nH]5)C=C4)C=C3)cc1
REMARK SMILES IDX 13 1 11 2 12 3 9 4 10 5 7 6 8 7 5 8 6 9 4 11 3 12 2 13 1 14
REMARK SMILES IDX 14 15 15 16 16 17 17 18 18 19 19 20 20 21 72 22 21 23 71 24
REMARK SMILES IDX 22 25 23 26 24 27 65 28 25 29 70 30 64 31 66 32 26 33 69 34
REMARK SMILES IDX 63 35 62 36 27 38 53 39 36 40 52 41 37 42 40 43 51 44 67 45
REMARK SMILES IDX 38 46 39 47 50 49 68 50 41 51 28 52 29 53 34 54 30 55 31 56
REMARK SMILES IDX 33 57 35 58 32 59 54 60 55 61 60 62 56 63 57 64 59 65 61 66
REMARK SMILES IDX 58 67 42 68 43 69 48 70 44 71 45 72 47 73 49 74 46 75
REMARK H PARENT 5 10 66 37 40 48
REMARK Flexibility Score: inf
ROOT
ATOM      1  O   UNL A   1      32.913  30.704  27.034  1.00  0.00    -0.462 OA
ENDROOT
BRANCH   1   2
ATOM      2  C   UNL A   1      33.086  29.458  26.532  1.00  0.00     0.314 C 
ATOM      3  O   UNL A   1      34.174  29.022  26.159  1.00  0.00    -0.252 OA
BRANCH   2   4
ATOM      4  C   UNL A   1      31.815  28.637  26.353  1.00  0.00     0.154 C 
ATOM      5  C   UNL A   1      31.494  28.146  27.777  1.00  0.00     0.026 C 
BRANCH   4   6
ATOM      6  C   UNL A   1      31.818  27.505  25.269  1.00  0.00     0.194 C 
ATOM      7  C   UNL A   1      30.566  26.602  25.381  1.00  0.00     0.076 C 
BRANCH   6   8
ATOM      8  N   UNL A   1      31.875  27.889  23.836  1.00  0.00    -0.333 N 
ATOM      9  C   UNL A   1      31.615  26.810  22.878  1.00  0.00     0.333 C 
ATOM     10  H   UNL A   1      32.870  28.119  23.820  1.00  0.00     0.348 HD
BRANCH   8  11
ATOM     11  C   UNL A   1      31.208  29.125  23.395  1.00  0.00     0.291 C 
BRANCH  11  12
ATOM     12  C   UNL A   1      29.766  29.089  22.847  1.00  0.00     0.221 C 
BRANCH  12  13
ATOM     13  O   UNL A   1      29.622  29.600  21.521  1.00  0.00    -0.379 OA
ATOM     14  C   UNL A   1      28.504  30.454  21.361  1.00  0.00     0.195 C 
ENDBRANCH  12  13
ENDBRANCH  11  12
ENDBRANCH   8  11
ENDBRANCH   6   8
ENDBRANCH   4   6
ENDBRANCH   2   4
ENDBRANCH   1   2
BRANCH   1  15
ATOM     15  C   UNL A   1      31.752  31.402  26.530  1.00  0.00     0.274 C 
BRANCH  15  16
ATOM     16  C   UNL A   1      31.642  32.833  27.059  1.00  0.00     0.275 C 
BRANCH  16  17
ATOM     17  O   UNL A   1      32.920  33.496  27.029  1.00  0.00    -0.458 OA
BRANCH  17  18
ATOM     18  C   UNL A   1      33.229  34.184  28.147  1.00  0.00     0.338 C 
ATOM     19  O   UNL A   1      32.650  35.167  28.591  1.00  0.00    -0.246 OA
BRANCH  18  20
ATOM     20  C   UNL A   1      34.385  33.611  28.849  1.00  0.00     0.060 A 
ATOM     21  C   UNL A   1      35.669  34.102  28.619  1.00  0.00     0.016 A 
ATOM     22  C   UNL A   1      34.200  32.443  29.590  1.00  0.00     0.016 A 
ATOM     23  C   UNL A   1      36.776  33.404  29.093  1.00  0.00     0.010 A 
ATOM     24  C   UNL A   1      35.305  31.776  30.119  1.00  0.00     0.010 A 
ATOM     25  C   UNL A   1      36.601  32.246  29.863  1.00  0.00    -0.014 A 
BRANCH  25  26
ATOM     26  C   UNL A   1      37.781  31.610  30.489  1.00  0.00     0.031 A 
ATOM     27  C   UNL A   1      38.602  30.584  29.767  1.00  0.00     0.074 A 
ATOM     28  C   UNL A   1      38.111  32.000  31.733  1.00  0.00     0.049 A 
ATOM     29  N   UNL A   1      39.649  29.926  30.194  1.00  0.00    -0.248 NA
ATOM     30  C   UNL A   1      38.195  30.247  28.395  1.00  0.00     0.031 C 
ATOM     31  C   UNL A   1      37.377  32.995  32.519  1.00  0.00     0.029 A 
ATOM     32  N   UNL A   1      39.148  31.629  32.546  1.00  0.00    -0.354 N 
ATOM     33  C   UNL A   1      40.013  29.076  29.158  1.00  0.00     0.074 A 
ATOM     34  C   UNL A   1      39.075  29.305  28.078  1.00  0.00     0.031 C 
ATOM     35  C   UNL A   1      38.015  33.191  33.682  1.00  0.00     0.029 A 
ATOM     36  C   UNL A   1      39.162  32.295  33.746  1.00  0.00     0.049 A 
ATOM     37  H   UNL A   1      39.818  30.953  32.294  1.00  0.00     0.167 HD
ATOM     38  C   UNL A   1      41.032  28.183  29.124  1.00  0.00     0.037 A 
ATOM     39  C   UNL A   1      40.000  32.186  34.792  1.00  0.00     0.037 A 
ATOM     40  C   UNL A   1      41.966  27.973  30.205  1.00  0.00     0.049 A 
ATOM     41  C   UNL A   1      41.128  31.208  34.716  1.00  0.00     0.074 A 
ATOM     42  C   UNL A   1      43.033  27.094  30.266  1.00  0.00     0.029 A 
ATOM     43  N   UNL A   1      41.943  28.657  31.411  1.00  0.00    -0.354 N 
ATOM     44  N   UNL A   1      41.451  30.399  33.737  1.00  0.00    -0.248 NA
ATOM     45  C   UNL A   1      42.002  31.118  35.892  1.00  0.00     0.031 C 
ATOM     46  C   UNL A   1      43.639  27.226  31.522  1.00  0.00     0.029 A 
ATOM     47  C   UNL A   1      42.970  28.211  32.230  1.00  0.00     0.049 A 
ATOM     48  H   UNL A   1      41.293  29.356  31.652  1.00  0.00     0.167 HD
ATOM     49  C   UNL A   1      42.561  29.696  34.177  1.00  0.00     0.074 A 
ATOM     50  C   UNL A   1      42.876  30.201  35.501  1.00  0.00     0.031 C 
ATOM     51  C   UNL A   1      43.251  28.713  33.550  1.00  0.00     0.037 A 
BRANCH  38  52
ATOM     52  C   UNL A   1      41.173  27.336  27.896  1.00  0.00     0.057 A 
ATOM     53  C   UNL A   1      41.932  27.746  26.793  1.00  0.00     0.134 A 
ATOM     54  C   UNL A   1      40.580  26.067  27.835  1.00  0.00     0.134 A 
ATOM     55  F   UNL A   1      42.516  28.954  26.782  1.00  0.00    -0.206 F 
ATOM     56  C   UNL A   1      42.088  26.930  25.670  1.00  0.00     0.040 A 
ATOM     57  C   UNL A   1      40.743  25.234  26.726  1.00  0.00     0.040 A 
ATOM     58  F   UNL A   1      39.844  25.611  28.861  1.00  0.00    -0.206 F 
ATOM     59  C   UNL A   1      41.497  25.667  25.637  1.00  0.00     0.006 A 
ENDBRANCH  38  52
BRANCH  39  60
ATOM     60  C   UNL A   1      39.781  33.037  35.985  1.00  0.00     0.057 A 
ATOM     61  C   UNL A   1      38.927  32.628  37.013  1.00  0.00     0.134 A 
ATOM     62  C   UNL A   1      40.470  34.244  36.152  1.00  0.00     0.134 A 
ATOM     63  F   UNL A   1      38.233  31.486  36.901  1.00  0.00    -0.206 F 
ATOM     64  C   UNL A   1      38.767  33.390  38.171  1.00  0.00     0.040 A 
ATOM     65  C   UNL A   1      40.338  35.004  37.314  1.00  0.00     0.040 A 
ATOM     66  F   UNL A   1      41.312  34.679  35.204  1.00  0.00    -0.206 F 
ATOM     67  C   UNL A   1      39.481  34.577  38.327  1.00  0.00     0.006 A 
ENDBRANCH  39  60
BRANCH  51  68
ATOM     68  C   UNL A   1      44.405  28.129  34.304  1.00  0.00     0.057 A 
ATOM     69  C   UNL A   1      44.241  27.022  35.146  1.00  0.00     0.134 A 
ATOM     70  C   UNL A   1      45.684  28.686  34.202  1.00  0.00     0.134 A 
ATOM     71  F   UNL A   1      43.033  26.457  35.298  1.00  0.00    -0.206 F 
ATOM     72  C   UNL A   1      45.306  26.505  35.884  1.00  0.00     0.040 A 
ATOM     73  C   UNL A   1      46.761  28.165  34.920  1.00  0.00     0.040 A 
ATOM     74  F   UNL A   1      45.905  29.746  33.411  1.00  0.00    -0.206 F 
ATOM     75  C   UNL A   1      46.571  27.078  35.770  1.00  0.00     0.006 A 
ENDBRANCH  51  68
ENDBRANCH  25  26
ENDBRANCH  18  20
ENDBRANCH  17  18
ENDBRANCH  16  17
ENDBRANCH  15  16
ENDBRANCH   1  15
TORSDOF 16
ENDMDL
MODEL 3
REMARK VINA RESULT:      -8.7      0.840      6.753
REMARK SMILES COCC[N@H+](C)[C@H](C)[C@@H](C)C(=O)OCCOC(=O)c1ccc(-c2c3nc(c(-c4c(F)cccc4F)c4ccc([nH]4)c(-c4c(F)cccc4F)c4nc(c(-c5c(F)cccc5F)c5ccc2[nH]5)C=C4)C=C3)cc1
REMARK SMILES IDX 13 1 11 2 12 3 9 4 10 5 7 6 8 7 5 8 6 9 4 11 3 12 2 13 1 14
REMARK SMILES IDX 14 15 15 16 16 17 17 18 18 19 19 20 20 21 72 22 21 23 71 24
REMARK SMILES IDX 22 25 23 26 24 27 65 28 25 29 70 30 64 31 66 32 26 33 69 34
REMARK SMILES IDX 63 35 62 36 27 38 53 39 36 40 52 41 37 42 40 43 51 44 67 45
REMARK SMILES IDX 38 46 39 47 50 49 68 50 41 51 28 52 29 53 34 54 30 55 31 56
REMARK SMILES IDX 33 57 35 58 32 59 54 60 55 61 60 62 56 63 57 64 59 65 61 66
REMARK SMILES IDX 58 67 42 68 43 69 48 70 44 71 45 72 47 73 49 74 46 75
REMARK H PARENT 5 10 66 37 40 48
REMARK Flexibility Score: inf
ROOT
ATOM      1  O   UNL A   1      37.144  21.017  25.324  1.00  0.00    -0.462 OA
ENDROOT
BRANCH   1   2
ATOM      2  C   UNL A   1      36.635  22.004  24.549  1.00  0.00     0.314 C 
ATOM      3  O   UNL A   1      36.981  22.199  23.385  1.00  0.00    -0.252 OA
BRANCH   2   4
ATOM      4  C   UNL A   1      35.659  22.948  25.240  1.00  0.00     0.154 C 
ATOM      5  C   UNL A   1      36.570  23.868  26.074  1.00  0.00     0.026 C 
BRANCH   4   6
ATOM      6  C   UNL A   1      34.472  22.318  26.046  1.00  0.00     0.194 C 
ATOM      7  C   UNL A   1      33.631  23.400  26.766  1.00  0.00     0.076 C 
BRANCH   6   8
ATOM      8  N   UNL A   1      33.476  21.491  25.320  1.00  0.00    -0.333 N 
ATOM      9  C   UNL A   1      33.113  21.963  23.979  1.00  0.00     0.333 C 
ATOM     10  H   UNL A   1      32.698  21.664  25.957  1.00  0.00     0.348 HD
BRANCH   8  11
ATOM     11  C   UNL A   1      33.623  20.026  25.315  1.00  0.00     0.291 C 
BRANCH  11  12
ATOM     12  C   UNL A   1      32.623  19.137  24.546  1.00  0.00     0.221 C 
BRANCH  12  13
ATOM     13  O   UNL A   1      32.026  18.102  25.329  1.00  0.00    -0.379 OA
ATOM     14  C   UNL A   1      32.850  16.961  25.481  1.00  0.00     0.195 C 
ENDBRANCH  12  13
ENDBRANCH  11  12
ENDBRANCH   8  11
ENDBRANCH   6   8
ENDBRANCH   4   6
ENDBRANCH   2   4
ENDBRANCH   1   2
BRANCH   1  15
ATOM     15  C   UNL A   1      38.586  21.017  25.430  1.00  0.00     0.274 C 
BRANCH  15  16
ATOM     16  C   UNL A   1      39.196  19.625  25.259  1.00  0.00     0.275 C 
BRANCH  16  17
ATOM     17  O   UNL A   1      40.158  19.350  26.295  1.00  0.00    -0.458 OA
BRANCH  17  18
ATOM     18  C   UNL A   1      41.434  19.649  25.978  1.00  0.00     0.338 C 
ATOM     19  O   UNL A   1      42.199  18.982  25.293  1.00  0.00    -0.246 OA
BRANCH  18  20
ATOM     20  C   UNL A   1      41.857  20.936  26.544  1.00  0.00     0.060 A 
ATOM     21  C   UNL A   1      41.730  21.187  27.910  1.00  0.00     0.016 A 
ATOM     22  C   UNL A   1      42.198  21.967  25.667  1.00  0.00     0.016 A 
ATOM     23  C   UNL A   1      41.900  22.478  28.398  1.00  0.00     0.010 A 
ATOM     24  C   UNL A   1      42.431  23.250  26.164  1.00  0.00     0.010 A 
ATOM     25  C   UNL A   1      42.271  23.516  27.531  1.00  0.00    -0.014 A 
BRANCH  25  26
ATOM     26  C   UNL A   1      42.601  24.844  28.095  1.00  0.00     0.031 A 
ATOM     27  C   UNL A   1      41.545  25.875  28.359  1.00  0.00     0.074 A 
ATOM     28  C   UNL A   1      43.890  25.093  28.385  1.00  0.00     0.049 A 
ATOM     29  N   UNL A   1      41.686  27.088  28.829  1.00  0.00    -0.248 NA
ATOM     30  C   UNL A   1      40.157  25.504  28.052  1.00  0.00     0.031 C 
ATOM     31  C   UNL A   1      44.993  24.153  28.168  1.00  0.00     0.029 A 
ATOM     32  N   UNL A   1      44.491  26.191  28.937  1.00  0.00    -0.354 N 
ATOM     33  C   UNL A   1      40.412  27.639  28.850  1.00  0.00     0.074 A 
ATOM     34  C   UNL A   1      39.508  26.624  28.347  1.00  0.00     0.031 C 
ATOM     35  C   UNL A   1      46.129  24.696  28.627  1.00  0.00     0.029 A 
ATOM     36  C   UNL A   1      45.844  26.040  29.113  1.00  0.00     0.049 A 
ATOM     37  H   UNL A   1      44.002  27.009  29.185  1.00  0.00     0.167 HD
ATOM     38  C   UNL A   1      40.041  28.881  29.244  1.00  0.00     0.037 A 
ATOM     39  C   UNL A   1      46.760  26.896  29.599  1.00  0.00     0.037 A 
ATOM     40  C   UNL A   1      40.952  29.878  29.753  1.00  0.00     0.049 A 
ATOM     41  C   UNL A   1      46.317  28.252  30.048  1.00  0.00     0.074 A 
ATOM     42  C   UNL A   1      40.673  31.165  30.181  1.00  0.00     0.029 A 
ATOM     43  N   UNL A   1      42.318  29.695  29.906  1.00  0.00    -0.354 N 
ATOM     44  N   UNL A   1      45.111  28.765  30.046  1.00  0.00    -0.248 NA
ATOM     45  C   UNL A   1      47.360  29.152  30.555  1.00  0.00     0.031 C 
ATOM     46  C   UNL A   1      41.877  31.770  30.566  1.00  0.00     0.029 A 
ATOM     47  C   UNL A   1      42.899  30.849  30.411  1.00  0.00     0.049 A 
ATOM     48  H   UNL A   1      42.805  28.867  29.689  1.00  0.00     0.167 HD
ATOM     49  C   UNL A   1      45.247  30.051  30.544  1.00  0.00     0.074 A 
ATOM     50  C   UNL A   1      46.651  30.226  30.869  1.00  0.00     0.031 C 
ATOM     51  C   UNL A   1      44.300  31.006  30.706  1.00  0.00     0.037 A 
BRANCH  38  52
ATOM     52  C   UNL A   1      38.594  29.250  29.109  1.00  0.00     0.057 A 
ATOM     53  C   UNL A   1      37.715  29.220  30.198  1.00  0.00     0.134 A 
ATOM     54  C   UNL A   1      38.085  29.691  27.879  1.00  0.00     0.134 A 
ATOM     55  F   UNL A   1      38.135  28.797  31.399  1.00  0.00    -0.206 F 
ATOM     56  C   UNL A   1      36.378  29.605  30.066  1.00  0.00     0.040 A 
ATOM     57  C   UNL A   1      36.757  30.096  27.739  1.00  0.00     0.040 A 
ATOM     58  F   UNL A   1      38.878  29.749  26.798  1.00  0.00    -0.206 F 
ATOM     59  C   UNL A   1      35.897  30.050  28.835  1.00  0.00     0.006 A 
ENDBRANCH  38  52
BRANCH  39  60
ATOM     60  C   UNL A   1      48.177  26.471  29.676  1.00  0.00     0.057 A 
ATOM     61  C   UNL A   1      49.074  26.765  28.646  1.00  0.00     0.134 A 
ATOM     62  C   UNL A   1      48.679  25.820  30.810  1.00  0.00     0.134 A 
ATOM     63  F   UNL A   1      48.646  27.377  27.532  1.00  0.00    -0.206 F 
ATOM     64  C   UNL A   1      50.425  26.429  28.740  1.00  0.00     0.040 A 
ATOM     65  C   UNL A   1      50.031  25.499  30.928  1.00  0.00     0.040 A 
ATOM     66  F   UNL A   1      47.867  25.524  31.836  1.00  0.00    -0.206 F 
ATOM     67  C   UNL A   1      50.908  25.803  29.888  1.00  0.00     0.006 A 
ENDBRANCH  39  60
BRANCH  51  68
ATOM     68  C   UNL A   1      44.769  32.318  31.255  1.00  0.00     0.057 A 
ATOM     69  C   UNL A   1      45.194  33.352  30.411  1.00  0.00     0.134 A 
ATOM     70  C   UNL A   1      44.813  32.544  32.635  1.00  0.00     0.134 A 
ATOM     71  F   UNL A   1      45.192  33.186  29.079  1.00  0.00    -0.206 F 
ATOM     72  C   UNL A   1      45.674  34.558  30.922  1.00  0.00     0.040 A 
ATOM     73  C   UNL A   1      45.273  33.753  33.158  1.00  0.00     0.040 A 
ATOM     74  F   UNL A   1      44.418  31.593  33.494  1.00  0.00    -0.206 F 
ATOM     75  C   UNL A   1      45.713  34.760  32.301  1.00  0.00     0.006 A 
ENDBRANCH  51  68
ENDBRANCH  25  26
ENDBRANCH  18  20
ENDBRANCH  17  18
ENDBRANCH  16  17
ENDBRANCH  15  16
ENDBRANCH   1  15
TORSDOF 16
ENDMDL
