MODEL 1
REMARK VINA RESULT:      -9.8      0.000      0.000
REMARK SMILES CC[C@@H](NC(=O)[C@H](C)C[NH2+]C)C(=O)OCCOC(=O)c1ccc(-c2c3nc(c(-c4c(F)cccc4F)c4ccc([nH]4)c(-c4c(F)cccc4F)c4nc(c(-c5c(F)cccc5F)c5ccc2[nH]5)C=C4)C=C3)cc1
REMARK SMILES IDX 15 1 14 2 12 3 13 4 3 5 2 6 1 7 4 8 5 9 6 11 7 12 8 13 9 14
REMARK SMILES IDX 10 15 11 16 16 19 17 20 18 21 19 22 20 23 21 24 73 25 22 26
REMARK SMILES IDX 72 27 23 28 24 29 25 30 66 31 26 32 71 33 65 34 67 35 27 36
REMARK SMILES IDX 70 37 64 38 63 39 28 41 54 42 37 43 53 44 38 45 41 46 52 47
REMARK SMILES IDX 68 48 39 49 40 50 51 52 69 53 42 54 29 55 30 56 35 57 31 58
REMARK SMILES IDX 32 59 34 60 36 61 33 62 55 63 56 64 61 65 57 66 58 67 60 68
REMARK SMILES IDX 62 69 59 70 43 71 44 72 49 73 45 74 46 75 48 76 50 77 47 78
REMARK H PARENT 4 10 10 17 10 18 67 40 41 51
REMARK Flexibility Score: inf
ROOT
ATOM      1  C   UNL A   1      31.764  30.811  26.729  1.00  0.00     0.274 C 
ENDROOT
BRANCH   1   2
ATOM      2  O   UNL A   1      31.503  30.412  25.367  1.00  0.00    -0.461 OA
BRANCH   2   3
ATOM      3  C   UNL A   1      32.256  29.388  24.872  1.00  0.00     0.328 C 
ATOM      4  O   UNL A   1      33.392  29.125  25.251  1.00  0.00    -0.250 OA
BRANCH   3   5
ATOM      5  C   UNL A   1      31.560  28.630  23.727  1.00  0.00     0.192 C 
BRANCH   5   6
ATOM      6  C   UNL A   1      30.787  27.374  24.167  1.00  0.00     0.033 C 
ATOM      7  C   UNL A   1      31.108  26.153  23.303  1.00  0.00     0.007 C 
ENDBRANCH   5   6
BRANCH   5   8
ATOM      8  N   UNL A   1      30.907  29.371  22.632  1.00  0.00    -0.342 N 
ATOM      9  C   UNL A   1      29.659  29.809  22.339  1.00  0.00     0.229 C 
ATOM     10  H   UNL A   1      31.549  29.612  21.925  1.00  0.00     0.164 HD
ATOM     11  O   UNL A   1      29.481  30.196  21.177  1.00  0.00    -0.275 OA
BRANCH   9  12
ATOM     12  C   UNL A   1      28.516  29.912  23.340  1.00  0.00     0.130 C 
ATOM     13  C   UNL A   1      27.373  28.952  23.004  1.00  0.00     0.024 C 
BRANCH  12  14
ATOM     14  C   UNL A   1      28.189  31.386  23.614  1.00  0.00     0.273 C 
BRANCH  14  15
ATOM     15  N   UNL A   1      29.358  32.253  23.794  1.00  0.00    -0.348 N 
ATOM     16  C   UNL A   1      29.141  33.546  23.154  1.00  0.00     0.330 C 
ATOM     17  H   UNL A   1      30.175  31.805  23.377  1.00  0.00     0.346 HD
ATOM     18  H   UNL A   1      29.509  32.400  24.792  1.00  0.00     0.346 HD
ENDBRANCH  14  15
ENDBRANCH  12  14
ENDBRANCH   9  12
ENDBRANCH   5   8
ENDBRANCH   3   5
ENDBRANCH   2   3
ENDBRANCH   1   2
BRANCH   1  19
ATOM     19  C   UNL A   1      31.750  32.324  26.934  1.00  0.00     0.275 C 
BRANCH  19  20
ATOM     20  O   UNL A   1      33.077  32.829  27.111  1.00  0.00    -0.458 OA
BRANCH  20  21
ATOM     21  C   UNL A   1      33.181  33.815  28.027  1.00  0.00     0.338 C 
ATOM     22  O   UNL A   1      32.373  34.698  28.268  1.00  0.00    -0.246 OA
BRANCH  21  23
ATOM     23  C   UNL A   1      34.358  33.554  28.860  1.00  0.00     0.060 A 
ATOM     24  C   UNL A   1      35.575  34.126  28.467  1.00  0.00     0.016 A 
ATOM     25  C   UNL A   1      34.270  32.747  29.994  1.00  0.00     0.016 A 
ATOM     26  C   UNL A   1      36.723  33.881  29.199  1.00  0.00     0.010 A 
ATOM     27  C   UNL A   1      35.425  32.479  30.716  1.00  0.00     0.010 A 
ATOM     28  C   UNL A   1      36.653  33.021  30.299  1.00  0.00    -0.014 A 
BRANCH  28  29
ATOM     29  C   UNL A   1      37.899  32.520  30.897  1.00  0.00     0.031 A 
ATOM     30  C   UNL A   1      38.567  31.355  30.233  1.00  0.00     0.074 A 
ATOM     31  C   UNL A   1      38.400  33.101  31.997  1.00  0.00     0.049 A 
ATOM     32  N   UNL A   1      39.586  30.646  30.633  1.00  0.00    -0.248 NA
ATOM     33  C   UNL A   1      37.996  30.921  28.945  1.00  0.00     0.031 C 
ATOM     34  C   UNL A   1      37.839  34.277  32.662  1.00  0.00     0.029 A 
ATOM     35  N   UNL A   1      39.487  32.766  32.756  1.00  0.00    -0.354 N 
ATOM     36  C   UNL A   1      39.763  29.670  29.661  1.00  0.00     0.074 A 
ATOM     37  C   UNL A   1      38.735  29.861  28.664  1.00  0.00     0.031 C 
ATOM     38  C   UNL A   1      38.577  34.552  33.749  1.00  0.00     0.029 A 
ATOM     39  C   UNL A   1      39.628  33.546  33.876  1.00  0.00     0.049 A 
ATOM     40  H   UNL A   1      40.106  32.037  32.523  1.00  0.00     0.167 HD
ATOM     41  C   UNL A   1      40.708  28.703  29.615  1.00  0.00     0.037 A 
ATOM     42  C   UNL A   1      40.492  33.423  34.900  1.00  0.00     0.037 A 
ATOM     43  C   UNL A   1      41.716  28.541  30.628  1.00  0.00     0.049 A 
ATOM     44  C   UNL A   1      41.488  32.294  34.858  1.00  0.00     0.074 A 
ATOM     45  C   UNL A   1      42.731  27.607  30.696  1.00  0.00     0.029 A 
ATOM     46  N   UNL A   1      41.825  29.342  31.758  1.00  0.00    -0.354 N 
ATOM     47  N   UNL A   1      41.659  31.372  33.940  1.00  0.00    -0.248 NA
ATOM     48  C   UNL A   1      42.410  32.188  35.996  1.00  0.00     0.031 C 
ATOM     49  C   UNL A   1      43.422  27.809  31.895  1.00  0.00     0.029 A 
ATOM     50  C   UNL A   1      42.878  28.908  32.543  1.00  0.00     0.049 A 
ATOM     51  H   UNL A   1      41.240  30.106  31.969  1.00  0.00     0.167 HD
ATOM     52  C   UNL A   1      42.727  30.596  34.370  1.00  0.00     0.074 A 
ATOM     53  C   UNL A   1      43.170  31.167  35.627  1.00  0.00     0.031 C 
ATOM     54  C   UNL A   1      43.294  29.511  33.785  1.00  0.00     0.037 A 
BRANCH  41  55
ATOM     55  C   UNL A   1      40.658  27.737  28.469  1.00  0.00     0.057 A 
ATOM     56  C   UNL A   1      39.858  26.586  28.497  1.00  0.00     0.134 A 
ATOM     57  C   UNL A   1      41.418  27.963  27.315  1.00  0.00     0.134 A 
ATOM     58  F   UNL A   1      39.122  26.294  29.581  1.00  0.00    -0.206 F 
ATOM     59  C   UNL A   1      39.835  25.685  27.430  1.00  0.00     0.040 A 
ATOM     60  C   UNL A   1      41.382  27.085  26.231  1.00  0.00     0.040 A 
ATOM     61  F   UNL A   1      42.211  29.041  27.222  1.00  0.00    -0.206 F 
ATOM     62  C   UNL A   1      40.593  25.938  26.288  1.00  0.00     0.006 A 
ENDBRANCH  41  55
BRANCH  42  63
ATOM     63  C   UNL A   1      40.439  34.370  36.041  1.00  0.00     0.057 A 
ATOM     64  C   UNL A   1      41.254  35.508  36.077  1.00  0.00     0.134 A 
ATOM     65  C   UNL A   1      39.581  34.160  37.128  1.00  0.00     0.134 A 
ATOM     66  F   UNL A   1      42.109  35.756  35.073  1.00  0.00    -0.206 F 
ATOM     67  C   UNL A   1      41.233  36.390  37.158  1.00  0.00     0.040 A 
ATOM     68  C   UNL A   1      39.530  35.049  38.203  1.00  0.00     0.040 A 
ATOM     69  F   UNL A   1      38.769  33.093  37.156  1.00  0.00    -0.206 F 
ATOM     70  C   UNL A   1      40.365  36.163  38.224  1.00  0.00     0.006 A 
ENDBRANCH  42  63
BRANCH  54  71
ATOM     71  C   UNL A   1      44.482  28.910  34.476  1.00  0.00     0.057 A 
ATOM     72  C   UNL A   1      45.786  29.362  34.241  1.00  0.00     0.134 A 
ATOM     73  C   UNL A   1      44.308  27.894  35.425  1.00  0.00     0.134 A 
ATOM     74  F   UNL A   1      46.020  30.325  33.336  1.00  0.00    -0.206 F 
ATOM     75  C   UNL A   1      46.879  28.805  34.905  1.00  0.00     0.040 A 
ATOM     76  C   UNL A   1      45.389  27.353  36.119  1.00  0.00     0.040 A 
ATOM     77  F   UNL A   1      43.082  27.426  35.706  1.00  0.00    -0.206 F 
ATOM     78  C   UNL A   1      46.680  27.803  35.854  1.00  0.00     0.006 A 
ENDBRANCH  54  71
ENDBRANCH  28  29
ENDBRANCH  21  23
ENDBRANCH  20  21
ENDBRANCH  19  20
ENDBRANCH   1  19
TORSDOF 16
ENDMDL
MODEL 2
REMARK VINA RESULT:      -9.7      6.517     11.070
REMARK SMILES CC[C@@H](NC(=O)[C@H](C)C[NH2+]C)C(=O)OCCOC(=O)c1ccc(-c2c3nc(c(-c4c(F)cccc4F)c4ccc([nH]4)c(-c4c(F)cccc4F)c4nc(c(-c5c(F)cccc5F)c5ccc2[nH]5)C=C4)C=C3)cc1
REMARK SMILES IDX 15 1 14 2 12 3 13 4 3 5 2 6 1 7 4 8 5 9 6 11 7 12 8 13 9 14
REMARK SMILES IDX 10 15 11 16 16 19 17 20 18 21 19 22 20 23 21 24 73 25 22 26
REMARK SMILES IDX 72 27 23 28 24 29 25 30 66 31 26 32 71 33 65 34 67 35 27 36
REMARK SMILES IDX 70 37 64 38 63 39 28 41 54 42 37 43 53 44 38 45 41 46 52 47
REMARK SMILES IDX 68 48 39 49 40 50 51 52 69 53 42 54 29 55 30 56 35 57 31 58
REMARK SMILES IDX 32 59 34 60 36 61 33 62 55 63 56 64 61 65 57 66 58 67 60 68
REMARK SMILES IDX 62 69 59 70 43 71 44 72 49 73 45 74 46 75 48 76 50 77 47 78
REMARK H PARENT 4 10 10 17 10 18 67 40 41 51
REMARK Flexibility Score: inf
ROOT
ATOM      1  C   UNL A   1      37.686  20.135  24.613  1.00  0.00     0.274 C 
ENDROOT
BRANCH   1   2
ATOM      2  O   UNL A   1      36.337  20.007  25.110  1.00  0.00    -0.461 OA
BRANCH   2   3
ATOM      3  C   UNL A   1      35.752  21.138  25.597  1.00  0.00     0.328 C 
ATOM      4  O   UNL A   1      36.371  22.069  26.102  1.00  0.00    -0.250 OA
BRANCH   3   5
ATOM      5  C   UNL A   1      34.216  21.102  25.515  1.00  0.00     0.192 C 
BRANCH   5   6
ATOM      6  C   UNL A   1      33.618  21.903  24.344  1.00  0.00     0.033 C 
ATOM      7  C   UNL A   1      32.126  22.190  24.530  1.00  0.00     0.007 C 
ENDBRANCH   5   6
BRANCH   5   8
ATOM      8  N   UNL A   1      33.483  19.857  25.813  1.00  0.00    -0.342 N 
ATOM      9  C   UNL A   1      32.991  18.806  25.115  1.00  0.00     0.229 C 
ATOM     10  H   UNL A   1      33.304  19.765  26.777  1.00  0.00     0.164 HD
ATOM     11  O   UNL A   1      32.214  18.065  25.730  1.00  0.00    -0.275 OA
BRANCH   9  12
ATOM     12  C   UNL A   1      33.375  18.456  23.683  1.00  0.00     0.130 C 
ATOM     13  C   UNL A   1      32.149  18.328  22.776  1.00  0.00     0.024 C 
BRANCH  12  14
ATOM     14  C   UNL A   1      34.419  17.332  23.680  1.00  0.00     0.273 C 
BRANCH  14  15
ATOM     15  N   UNL A   1      35.063  17.087  24.974  1.00  0.00    -0.348 N 
ATOM     16  C   UNL A   1      34.885  15.696  25.379  1.00  0.00     0.330 C 
ATOM     17  H   UNL A   1      34.646  17.697  25.677  1.00  0.00     0.346 HD
ATOM     18  H   UNL A   1      36.061  17.280  24.888  1.00  0.00     0.346 HD
ENDBRANCH  14  15
ENDBRANCH  12  14
ENDBRANCH   9  12
ENDBRANCH   5   8
ENDBRANCH   3   5
ENDBRANCH   2   3
ENDBRANCH   1   2
BRANCH   1  19
ATOM     19  C   UNL A   1      38.701  19.288  25.376  1.00  0.00     0.275 C 
BRANCH  19  20
ATOM     20  O   UNL A   1      39.560  20.110  26.171  1.00  0.00    -0.458 OA
BRANCH  20  21
ATOM     21  C   UNL A   1      40.864  19.759  26.130  1.00  0.00     0.338 C 
ATOM     22  O   UNL A   1      41.340  18.703  25.745  1.00  0.00    -0.246 OA
BRANCH  21  23
ATOM     23  C   UNL A   1      41.674  20.940  26.440  1.00  0.00     0.060 A 
ATOM     24  C   UNL A   1      41.964  21.195  27.786  1.00  0.00     0.016 A 
ATOM     25  C   UNL A   1      42.121  21.789  25.429  1.00  0.00     0.016 A 
ATOM     26  C   UNL A   1      42.695  22.318  28.135  1.00  0.00     0.010 A 
ATOM     27  C   UNL A   1      42.834  22.929  25.777  1.00  0.00     0.010 A 
ATOM     28  C   UNL A   1      43.091  23.206  27.131  1.00  0.00    -0.014 A 
BRANCH  28  29
ATOM     29  C   UNL A   1      43.598  24.533  27.508  1.00  0.00     0.031 A 
ATOM     30  C   UNL A   1      42.600  25.555  27.958  1.00  0.00     0.074 A 
ATOM     31  C   UNL A   1      44.912  24.796  27.444  1.00  0.00     0.049 A 
ATOM     32  N   UNL A   1      42.768  26.823  28.209  1.00  0.00    -0.248 NA
ATOM     33  C   UNL A   1      41.215  25.082  28.134  1.00  0.00     0.031 C 
ATOM     34  C   UNL A   1      45.950  23.833  27.075  1.00  0.00     0.029 A 
ATOM     35  N   UNL A   1      45.592  25.961  27.672  1.00  0.00    -0.354 N 
ATOM     36  C   UNL A   1      41.510  27.305  28.549  1.00  0.00     0.074 A 
ATOM     37  C   UNL A   1      40.584  26.201  28.450  1.00  0.00     0.031 C 
ATOM     38  C   UNL A   1      47.139  24.456  27.080  1.00  0.00     0.029 A 
ATOM     39  C   UNL A   1      46.935  25.865  27.405  1.00  0.00     0.049 A 
ATOM     40  H   UNL A   1      45.161  26.785  27.993  1.00  0.00     0.167 HD
ATOM     41  C   UNL A   1      41.171  28.562  28.911  1.00  0.00     0.037 A 
ATOM     42  C   UNL A   1      47.874  26.828  27.394  1.00  0.00     0.037 A 
ATOM     43  C   UNL A   1      42.120  29.639  28.997  1.00  0.00     0.049 A 
ATOM     44  C   UNL A   1      47.456  28.234  27.733  1.00  0.00     0.074 A 
ATOM     45  C   UNL A   1      41.906  30.955  29.357  1.00  0.00     0.029 A 
ATOM     46  N   UNL A   1      43.474  29.512  28.710  1.00  0.00    -0.354 N 
ATOM     47  N   UNL A   1      46.268  28.691  28.057  1.00  0.00    -0.248 NA
ATOM     48  C   UNL A   1      48.506  29.259  27.704  1.00  0.00     0.031 C 
ATOM     49  C   UNL A   1      43.120  31.638  29.236  1.00  0.00     0.029 A 
ATOM     50  C   UNL A   1      44.104  30.734  28.862  1.00  0.00     0.049 A 
ATOM     51  H   UNL A   1      43.920  28.677  28.439  1.00  0.00     0.167 HD
ATOM     52  C   UNL A   1      46.433  30.048  28.302  1.00  0.00     0.074 A 
ATOM     53  C   UNL A   1      47.839  30.334  28.101  1.00  0.00     0.031 C 
ATOM     54  C   UNL A   1      45.511  30.976  28.662  1.00  0.00     0.037 A 
BRANCH  41  55
ATOM     55  C   UNL A   1      39.723  28.838  29.191  1.00  0.00     0.057 A 
ATOM     56  C   UNL A   1      39.177  28.731  30.478  1.00  0.00     0.134 A 
ATOM     57  C   UNL A   1      38.859  29.220  28.158  1.00  0.00     0.134 A 
ATOM     58  F   UNL A   1      39.942  28.344  31.511  1.00  0.00    -0.206 F 
ATOM     59  C   UNL A   1      37.824  28.972  30.721  1.00  0.00     0.040 A 
ATOM     60  C   UNL A   1      37.511  29.492  28.392  1.00  0.00     0.040 A 
ATOM     61  F   UNL A   1      39.311  29.337  26.900  1.00  0.00    -0.206 F 
ATOM     62  C   UNL A   1      36.987  29.362  29.677  1.00  0.00     0.006 A 
ENDBRANCH  41  55
BRANCH  42  63
ATOM     63  C   UNL A   1      49.276  26.501  27.036  1.00  0.00     0.057 A 
ATOM     64  C   UNL A   1      50.224  26.196  28.020  1.00  0.00     0.134 A 
ATOM     65  C   UNL A   1      49.709  26.492  25.703  1.00  0.00     0.134 A 
ATOM     66  F   UNL A   1      49.876  26.204  29.316  1.00  0.00    -0.206 F 
ATOM     67  C   UNL A   1      51.552  25.916  27.697  1.00  0.00     0.040 A 
ATOM     68  C   UNL A   1      51.028  26.185  25.363  1.00  0.00     0.040 A 
ATOM     69  F   UNL A   1      48.852  26.769  24.710  1.00  0.00    -0.206 F 
ATOM     70  C   UNL A   1      51.956  25.905  26.364  1.00  0.00     0.006 A 
ENDBRANCH  42  63
BRANCH  54  71
ATOM     71  C   UNL A   1      46.010  32.370  28.905  1.00  0.00     0.057 A 
ATOM     72  C   UNL A   1      46.023  33.341  27.897  1.00  0.00     0.134 A 
ATOM     73  C   UNL A   1      46.442  32.752  30.182  1.00  0.00     0.134 A 
ATOM     74  F   UNL A   1      45.633  33.033  26.650  1.00  0.00    -0.206 F 
ATOM     75  C   UNL A   1      46.473  34.638  28.144  1.00  0.00     0.040 A 
ATOM     76  C   UNL A   1      46.863  34.054  30.449  1.00  0.00     0.040 A 
ATOM     77  F   UNL A   1      46.442  31.872  31.195  1.00  0.00    -0.206 F 
ATOM     78  C   UNL A   1      46.887  34.999  29.425  1.00  0.00     0.006 A 
ENDBRANCH  54  71
ENDBRANCH  28  29
ENDBRANCH  21  23
ENDBRANCH  20  21
ENDBRANCH  19  20
ENDBRANCH   1  19
TORSDOF 16
ENDMDL
MODEL 3
REMARK VINA RESULT:      -9.7      1.279      2.352
REMARK SMILES CC[C@@H](NC(=O)[C@H](C)C[NH2+]C)C(=O)OCCOC(=O)c1ccc(-c2c3nc(c(-c4c(F)cccc4F)c4ccc([nH]4)c(-c4c(F)cccc4F)c4nc(c(-c5c(F)cccc5F)c5ccc2[nH]5)C=C4)C=C3)cc1
REMARK SMILES IDX 15 1 14 2 12 3 13 4 3 5 2 6 1 7 4 8 5 9 6 11 7 12 8 13 9 14
REMARK SMILES IDX 10 15 11 16 16 19 17 20 18 21 19 22 20 23 21 24 73 25 22 26
REMARK SMILES IDX 72 27 23 28 24 29 25 30 66 31 26 32 71 33 65 34 67 35 27 36
REMARK SMILES IDX 70 37 64 38 63 39 28 41 54 42 37 43 53 44 38 45 41 46 52 47
REMARK SMILES IDX 68 48 39 49 40 50 51 52 69 53 42 54 29 55 30 56 35 57 31 58
REMARK SMILES IDX 32 59 34 60 36 61 33 62 55 63 56 64 61 65 57 66 58 67 60 68
REMARK SMILES IDX 62 69 59 70 43 71 44 72 49 73 45 74 46 75 48 76 50 77 47 78
REMARK H PARENT 4 10 10 17 10 18 67 40 41 51
REMARK Flexibility Score: inf
ROOT
ATOM      1  C   UNL A   1      31.381  32.396  26.865  1.00  0.00     0.274 C 
ENDROOT
BRANCH   1   2
ATOM      2  O   UNL A   1      31.469  31.290  25.942  1.00  0.00    -0.461 OA
BRANCH   2   3
ATOM      3  C   UNL A   1      31.989  30.126  26.425  1.00  0.00     0.328 C 
ATOM      4  O   UNL A   1      31.489  29.477  27.338  1.00  0.00    -0.250 OA
BRANCH   3   5
ATOM      5  C   UNL A   1      33.318  29.737  25.753  1.00  0.00     0.192 C 
BRANCH   5   6
ATOM      6  C   UNL A   1      34.222  28.825  26.601  1.00  0.00     0.033 C 
ATOM      7  C   UNL A   1      35.012  29.599  27.659  1.00  0.00     0.007 C 
ENDBRANCH   5   6
BRANCH   5   8
ATOM      8  N   UNL A   1      33.362  29.435  24.310  1.00  0.00    -0.342 N 
ATOM      9  C   UNL A   1      32.575  28.802  23.406  1.00  0.00     0.229 C 
ATOM     10  H   UNL A   1      34.181  29.786  23.892  1.00  0.00     0.164 HD
ATOM     11  O   UNL A   1      33.100  28.556  22.313  1.00  0.00    -0.275 OA
BRANCH   9  12
ATOM     12  C   UNL A   1      31.110  28.447  23.625  1.00  0.00     0.130 C 
ATOM     13  C   UNL A   1      30.949  27.153  24.425  1.00  0.00     0.024 C 
BRANCH  12  14
ATOM     14  C   UNL A   1      30.329  28.610  22.315  1.00  0.00     0.273 C 
BRANCH  14  15
ATOM     15  N   UNL A   1      30.545  29.885  21.624  1.00  0.00    -0.348 N 
ATOM     16  C   UNL A   1      29.336  30.701  21.664  1.00  0.00     0.330 C 
ATOM     17  H   UNL A   1      30.795  29.702  20.652  1.00  0.00     0.346 HD
ATOM     18  H   UNL A   1      31.298  30.390  22.092  1.00  0.00     0.346 HD
ENDBRANCH  14  15
ENDBRANCH  12  14
ENDBRANCH   9  12
ENDBRANCH   5   8
ENDBRANCH   3   5
ENDBRANCH   2   3
ENDBRANCH   1   2
BRANCH   1  19
ATOM     19  C   UNL A   1      32.719  32.766  27.502  1.00  0.00     0.275 C 
BRANCH  19  20
ATOM     20  O   UNL A   1      32.817  34.178  27.703  1.00  0.00    -0.458 OA
BRANCH  20  21
ATOM     21  C   UNL A   1      33.177  34.540  28.953  1.00  0.00     0.338 C 
ATOM     22  O   UNL A   1      32.541  35.218  29.745  1.00  0.00    -0.246 OA
BRANCH  21  23
ATOM     23  C   UNL A   1      34.398  33.816  29.315  1.00  0.00     0.060 A 
ATOM     24  C   UNL A   1      34.272  32.709  30.163  1.00  0.00     0.016 A 
ATOM     25  C   UNL A   1      35.644  34.230  28.845  1.00  0.00     0.016 A 
ATOM     26  C   UNL A   1      35.399  32.013  30.564  1.00  0.00     0.010 A 
ATOM     27  C   UNL A   1      36.779  33.549  29.264  1.00  0.00     0.010 A 
ATOM     28  C   UNL A   1      36.655  32.462  30.147  1.00  0.00    -0.014 A 
BRANCH  28  29
ATOM     29  C   UNL A   1      37.860  31.924  30.796  1.00  0.00     0.031 A 
ATOM     30  C   UNL A   1      38.638  30.879  30.057  1.00  0.00     0.074 A 
ATOM     31  C   UNL A   1      38.229  32.369  32.006  1.00  0.00     0.049 A 
ATOM     32  N   UNL A   1      39.644  30.155  30.461  1.00  0.00    -0.248 NA
ATOM     33  C   UNL A   1      38.210  30.603  28.673  1.00  0.00     0.031 C 
ATOM     34  C   UNL A   1      37.557  33.428  32.759  1.00  0.00     0.029 A 
ATOM     35  N   UNL A   1      39.253  31.970  32.820  1.00  0.00    -0.354 N 
ATOM     36  C   UNL A   1      39.955  29.323  29.394  1.00  0.00     0.074 A 
ATOM     37  C   UNL A   1      39.018  29.612  28.333  1.00  0.00     0.031 C 
ATOM     38  C   UNL A   1      38.177  33.580  33.940  1.00  0.00     0.029 A 
ATOM     39  C   UNL A   1      39.253  32.598  34.039  1.00  0.00     0.049 A 
ATOM     40  H   UNL A   1      39.923  31.298  32.557  1.00  0.00     0.167 HD
ATOM     41  C   UNL A   1      40.940  28.400  29.318  1.00  0.00     0.037 A 
ATOM     42  C   UNL A   1      40.021  32.367  35.120  1.00  0.00     0.037 A 
ATOM     43  C   UNL A   1      41.854  28.136  30.396  1.00  0.00     0.049 A 
ATOM     44  C   UNL A   1      41.065  31.285  35.032  1.00  0.00     0.074 A 
ATOM     45  C   UNL A   1      42.898  27.233  30.443  1.00  0.00     0.029 A 
ATOM     46  N   UNL A   1      41.821  28.783  31.625  1.00  0.00    -0.354 N 
ATOM     47  N   UNL A   1      41.362  30.499  34.024  1.00  0.00    -0.248 NA
ATOM     48  C   UNL A   1      41.879  31.057  36.232  1.00  0.00     0.031 C 
ATOM     49  C   UNL A   1      43.464  27.294  31.721  1.00  0.00     0.029 A 
ATOM     50  C   UNL A   1      42.813  28.281  32.448  1.00  0.00     0.049 A 
ATOM     51  H   UNL A   1      41.187  29.493  31.874  1.00  0.00     0.167 HD
ATOM     52  C   UNL A   1      42.417  29.706  34.454  1.00  0.00     0.074 A 
ATOM     53  C   UNL A   1      42.714  30.117  35.812  1.00  0.00     0.031 C 
ATOM     54  C   UNL A   1      43.084  28.726  33.793  1.00  0.00     0.037 A 
BRANCH  41  55
ATOM     55  C   UNL A   1      41.041  27.593  28.057  1.00  0.00     0.057 A 
ATOM     56  C   UNL A   1      41.825  28.002  26.970  1.00  0.00     0.134 A 
ATOM     57  C   UNL A   1      40.346  26.385  27.928  1.00  0.00     0.134 A 
ATOM     58  F   UNL A   1      42.499  29.162  27.014  1.00  0.00    -0.206 F 
ATOM     59  C   UNL A   1      41.895  27.251  25.795  1.00  0.00     0.040 A 
ATOM     60  C   UNL A   1      40.430  25.610  26.771  1.00  0.00     0.040 A 
ATOM     61  F   UNL A   1      39.571  25.935  28.927  1.00  0.00    -0.206 F 
ATOM     62  C   UNL A   1      41.202  26.046  25.696  1.00  0.00     0.006 A 
ENDBRANCH  41  55
BRANCH  42  63
ATOM     63  C   UNL A   1      39.819  33.152  36.362  1.00  0.00     0.057 A 
ATOM     64  C   UNL A   1      38.894  32.749  37.332  1.00  0.00     0.134 A 
ATOM     65  C   UNL A   1      40.538  34.329  36.611  1.00  0.00     0.134 A 
ATOM     66  F   UNL A   1      38.162  31.639  37.146  1.00  0.00    -0.206 F 
ATOM     67  C   UNL A   1      38.675  33.495  38.491  1.00  0.00     0.040 A 
ATOM     68  C   UNL A   1      40.349  35.070  37.778  1.00  0.00     0.040 A 
ATOM     69  F   UNL A   1      41.444  34.770  35.726  1.00  0.00    -0.206 F 
ATOM     70  C   UNL A   1      39.408  34.658  38.719  1.00  0.00     0.006 A 
ENDBRANCH  42  63
BRANCH  54  71
ATOM     71  C   UNL A   1      44.226  28.075  34.516  1.00  0.00     0.057 A 
ATOM     72  C   UNL A   1      45.524  28.599  34.479  1.00  0.00     0.134 A 
ATOM     73  C   UNL A   1      44.009  26.931  35.295  1.00  0.00     0.134 A 
ATOM     74  F   UNL A   1      45.798  29.687  33.742  1.00  0.00    -0.206 F 
ATOM     75  C   UNL A   1      46.572  27.993  35.171  1.00  0.00     0.040 A 
ATOM     76  C   UNL A   1      45.042  26.336  36.018  1.00  0.00     0.040 A 
ATOM     77  F   UNL A   1      42.785  26.387  35.382  1.00  0.00    -0.206 F 
ATOM     78  C   UNL A   1      46.330  26.862  35.950  1.00  0.00     0.006 A 
ENDBRANCH  54  71
ENDBRANCH  28  29
ENDBRANCH  21  23
ENDBRANCH  20  21
ENDBRANCH  19  20
ENDBRANCH   1  19
TORSDOF 16
ENDMDL
