MODEL 1
REMARK VINA RESULT:      -9.8      0.000      0.000
REMARK SMILES O=C(CCCCC(=O)N1CCC(CO)CC1)OCCOC(=O)c1ccc(-c2c3nc(c(-c4c(F)cccc4F)c4ccc([nH]4)c(-c4c(F)cccc4F)c4nc(c(-c5c(F)cccc5F)c5ccc2[nH]5)C=C4)C=C3)cc1
REMARK SMILES IDX 1 1 2 2 3 3 4 4 5 5 6 6 7 7 8 8 9 9 10 10 16 11 11 12 15 13
REMARK SMILES IDX 12 14 13 15 14 16 17 18 18 19 19 20 20 21 21 22 22 23 23 24
REMARK SMILES IDX 24 25 76 26 25 27 75 28 26 29 27 30 28 31 69 32 29 33 74 34
REMARK SMILES IDX 68 35 70 36 30 37 73 38 67 39 66 40 31 42 57 43 40 44 56 45
REMARK SMILES IDX 41 46 44 47 55 48 71 49 42 50 43 51 54 53 72 54 45 55 32 56
REMARK SMILES IDX 33 57 38 58 34 59 35 60 37 61 39 62 36 63 58 64 59 65 64 66
REMARK SMILES IDX 60 67 61 68 63 69 65 70 62 71 46 72 47 73 52 74 48 75 49 76
REMARK SMILES IDX 51 77 53 78 50 79
REMARK H PARENT 14 17 70 41 44 52
REMARK Flexibility Score: inf
ROOT
ATOM      1  O   UNL A   1      41.909  18.370  25.768  1.00  0.00    -0.252 OA
ATOM      2  C   UNL A   1      41.810  19.536  26.144  1.00  0.00     0.305 C 
ENDROOT
BRANCH   2   3
ATOM      3  C   UNL A   1      40.448  20.165  26.335  1.00  0.00     0.123 C 
BRANCH   3   4
ATOM      4  C   UNL A   1      40.426  21.685  26.206  1.00  0.00     0.012 C 
BRANCH   4   5
ATOM      5  C   UNL A   1      39.144  22.458  26.592  1.00  0.00     0.010 C 
BRANCH   5   6
ATOM      6  C   UNL A   1      38.339  23.219  25.539  1.00  0.00     0.100 C 
BRANCH   6   7
ATOM      7  C   UNL A   1      36.818  23.228  25.574  1.00  0.00     0.222 C 
ATOM      8  O   UNL A   1      36.212  24.090  26.211  1.00  0.00    -0.275 OA
ATOM      9  N   UNL A   1      36.187  22.407  24.656  1.00  0.00    -0.343 N 
ATOM     10  C   UNL A   1      35.019  22.907  23.944  1.00  0.00     0.120 C 
ATOM     11  C   UNL A   1      36.333  20.964  24.680  1.00  0.00     0.120 C 
ATOM     12  C   UNL A   1      33.730  22.296  24.472  1.00  0.00     0.027 C 
ATOM     13  C   UNL A   1      35.077  20.320  25.265  1.00  0.00     0.027 C 
ATOM     14  C   UNL A   1      33.818  20.760  24.504  1.00  0.00     0.018 C 
BRANCH  14  15
ATOM     15  C   UNL A   1      32.573  20.148  25.142  1.00  0.00     0.159 C 
BRANCH  15  16
ATOM     16  O   UNL A   1      32.929  19.319  26.238  1.00  0.00    -0.396 OA
ATOM     17  H   UNL A   1      33.723  19.673  26.668  1.00  0.00     0.210 HD
ENDBRANCH  15  16
ENDBRANCH  14  15
ENDBRANCH   6   7
ENDBRANCH   5   6
ENDBRANCH   4   5
ENDBRANCH   3   4
ENDBRANCH   2   3
BRANCH   2  18
ATOM     18  O   UNL A   1      42.915  20.300  26.304  1.00  0.00    -0.462 OA
BRANCH  18  19
ATOM     19  C   UNL A   1      44.003  20.333  25.366  1.00  0.00     0.274 C 
BRANCH  19  20
ATOM     20  C   UNL A   1      44.387  21.757  24.948  1.00  0.00     0.275 C 
BRANCH  20  21
ATOM     21  O   UNL A   1      43.792  22.757  25.796  1.00  0.00    -0.458 OA
BRANCH  21  22
ATOM     22  C   UNL A   1      44.062  24.041  25.450  1.00  0.00     0.338 C 
ATOM     23  O   UNL A   1      44.599  24.425  24.426  1.00  0.00    -0.246 OA
BRANCH  22  24
ATOM     24  C   UNL A   1      43.467  24.965  26.443  1.00  0.00     0.060 A 
ATOM     25  C   UNL A   1      43.964  26.272  26.506  1.00  0.00     0.016 A 
ATOM     26  C   UNL A   1      42.458  24.558  27.318  1.00  0.00     0.016 A 
ATOM     27  C   UNL A   1      43.460  27.173  27.450  1.00  0.00     0.010 A 
ATOM     28  C   UNL A   1      41.960  25.459  28.269  1.00  0.00     0.010 A 
ATOM     29  C   UNL A   1      42.466  26.769  28.350  1.00  0.00    -0.014 A 
BRANCH  29  30
ATOM     30  C   UNL A   1      42.012  27.677  29.436  1.00  0.00     0.031 A 
ATOM     31  C   UNL A   1      42.692  27.625  30.777  1.00  0.00     0.074 A 
ATOM     32  C   UNL A   1      40.987  28.529  29.245  1.00  0.00     0.049 A 
ATOM     33  N   UNL A   1      42.404  28.274  31.876  1.00  0.00    -0.248 NA
ATOM     34  C   UNL A   1      43.851  26.726  30.893  1.00  0.00     0.031 C 
ATOM     35  C   UNL A   1      40.257  28.714  27.993  1.00  0.00     0.029 A 
ATOM     36  N   UNL A   1      40.364  29.384  30.123  1.00  0.00    -0.354 N 
ATOM     37  C   UNL A   1      43.343  27.865  32.814  1.00  0.00     0.074 A 
ATOM     38  C   UNL A   1      44.196  26.892  32.164  1.00  0.00     0.031 C 
ATOM     39  C   UNL A   1      39.254  29.587  28.195  1.00  0.00     0.029 A 
ATOM     40  C   UNL A   1      39.265  30.016  29.592  1.00  0.00     0.049 A 
ATOM     41  H   UNL A   1      40.676  29.531  31.045  1.00  0.00     0.167 HD
ATOM     42  C   UNL A   1      43.490  28.273  34.096  1.00  0.00     0.037 A 
ATOM     43  C   UNL A   1      38.356  30.825  30.172  1.00  0.00     0.037 A 
ATOM     44  C   UNL A   1      42.659  29.251  34.747  1.00  0.00     0.049 A 
ATOM     45  C   UNL A   1      38.488  31.183  31.625  1.00  0.00     0.074 A 
ATOM     46  C   UNL A   1      42.794  29.783  36.019  1.00  0.00     0.029 A 
ATOM     47  N   UNL A   1      41.531  29.826  34.189  1.00  0.00    -0.354 N 
ATOM     48  N   UNL A   1      39.418  30.841  32.481  1.00  0.00    -0.248 NA
ATOM     49  C   UNL A   1      37.437  32.044  32.192  1.00  0.00     0.031 C 
ATOM     50  C   UNL A   1      41.715  30.642  36.251  1.00  0.00     0.029 A 
ATOM     51  C   UNL A   1      40.933  30.675  35.108  1.00  0.00     0.049 A 
ATOM     52  H   UNL A   1      41.202  29.658  33.277  1.00  0.00     0.167 HD
ATOM     53  C   UNL A   1      39.075  31.456  33.679  1.00  0.00     0.074 A 
ATOM     54  C   UNL A   1      37.859  32.201  33.438  1.00  0.00     0.031 C 
ATOM     55  C   UNL A   1      39.719  31.408  34.870  1.00  0.00     0.037 A 
BRANCH  42  56
ATOM     56  C   UNL A   1      44.596  27.662  34.900  1.00  0.00     0.057 A 
ATOM     57  C   UNL A   1      45.879  28.220  34.930  1.00  0.00     0.134 A 
ATOM     58  C   UNL A   1      44.350  26.552  35.718  1.00  0.00     0.134 A 
ATOM     59  F   UNL A   1      46.177  29.280  34.163  1.00  0.00    -0.206 F 
ATOM     60  C   UNL A   1      46.882  27.693  35.744  1.00  0.00     0.040 A 
ATOM     61  C   UNL A   1      45.339  26.026  36.548  1.00  0.00     0.040 A 
ATOM     62  F   UNL A   1      43.138  25.975  35.736  1.00  0.00    -0.206 F 
ATOM     63  C   UNL A   1      46.609  26.599  36.563  1.00  0.00     0.006 A 
ENDBRANCH  42  56
BRANCH  43  64
ATOM     64  C   UNL A   1      37.193  31.323  29.400  1.00  0.00     0.057 A 
ATOM     65  C   UNL A   1      36.073  30.521  29.162  1.00  0.00     0.134 A 
ATOM     66  C   UNL A   1      37.217  32.592  28.816  1.00  0.00     0.134 A 
ATOM     67  F   UNL A   1      36.018  29.275  29.653  1.00  0.00    -0.206 F 
ATOM     68  C   UNL A   1      35.016  30.968  28.365  1.00  0.00     0.040 A 
ATOM     69  C   UNL A   1      36.158  33.063  28.040  1.00  0.00     0.040 A 
ATOM     70  F   UNL A   1      38.288  33.381  28.966  1.00  0.00    -0.206 F 
ATOM     71  C   UNL A   1      35.054  32.245  27.808  1.00  0.00     0.006 A 
ENDBRANCH  43  64
BRANCH  55  72
ATOM     72  C   UNL A   1      39.133  32.193  36.003  1.00  0.00     0.057 A 
ATOM     73  C   UNL A   1      39.464  33.538  36.212  1.00  0.00     0.134 A 
ATOM     74  C   UNL A   1      38.196  31.613  36.868  1.00  0.00     0.134 A 
ATOM     75  F   UNL A   1      40.366  34.146  35.428  1.00  0.00    -0.206 F 
ATOM     76  C   UNL A   1      38.892  34.275  37.250  1.00  0.00     0.040 A 
ATOM     77  C   UNL A   1      37.602  32.346  37.896  1.00  0.00     0.040 A 
ATOM     78  F   UNL A   1      37.833  30.331  36.717  1.00  0.00    -0.206 F 
ATOM     79  C   UNL A   1      37.951  33.680  38.091  1.00  0.00     0.006 A 
ENDBRANCH  55  72
ENDBRANCH  29  30
ENDBRANCH  22  24
ENDBRANCH  21  22
ENDBRANCH  20  21
ENDBRANCH  19  20
ENDBRANCH  18  19
ENDBRANCH   2  18
TORSDOF 17
ENDMDL
MODEL 2
REMARK VINA RESULT:      -9.8      1.561      2.620
REMARK SMILES O=C(CCCCC(=O)N1CCC(CO)CC1)OCCOC(=O)c1ccc(-c2c3nc(c(-c4c(F)cccc4F)c4ccc([nH]4)c(-c4c(F)cccc4F)c4nc(c(-c5c(F)cccc5F)c5ccc2[nH]5)C=C4)C=C3)cc1
REMARK SMILES IDX 1 1 2 2 3 3 4 4 5 5 6 6 7 7 8 8 9 9 10 10 16 11 11 12 15 13
REMARK SMILES IDX 12 14 13 15 14 16 17 18 18 19 19 20 20 21 21 22 22 23 23 24
REMARK SMILES IDX 24 25 76 26 25 27 75 28 26 29 27 30 28 31 69 32 29 33 74 34
REMARK SMILES IDX 68 35 70 36 30 37 73 38 67 39 66 40 31 42 57 43 40 44 56 45
REMARK SMILES IDX 41 46 44 47 55 48 71 49 42 50 43 51 54 53 72 54 45 55 32 56
REMARK SMILES IDX 33 57 38 58 34 59 35 60 37 61 39 62 36 63 58 64 59 65 64 66
REMARK SMILES IDX 60 67 61 68 63 69 65 70 62 71 46 72 47 73 52 74 48 75 49 76
REMARK SMILES IDX 51 77 53 78 50 79
REMARK H PARENT 14 17 70 41 44 52
REMARK Flexibility Score: inf
ROOT
ATOM      1  O   UNL A   1      38.855  22.965  26.387  1.00  0.00    -0.252 OA
ATOM      2  C   UNL A   1      39.227  21.817  26.151  1.00  0.00     0.305 C 
ENDROOT
BRANCH   2   3
ATOM      3  C   UNL A   1      38.400  20.913  25.264  1.00  0.00     0.123 C 
BRANCH   3   4
ATOM      4  C   UNL A   1      36.973  21.396  25.018  1.00  0.00     0.012 C 
BRANCH   4   5
ATOM      5  C   UNL A   1      36.693  22.352  23.835  1.00  0.00     0.010 C 
BRANCH   5   6
ATOM      6  C   UNL A   1      36.049  23.719  24.066  1.00  0.00     0.100 C 
BRANCH   6   7
ATOM      7  C   UNL A   1      34.610  23.985  23.653  1.00  0.00     0.222 C 
ATOM      8  O   UNL A   1      34.351  24.410  22.527  1.00  0.00    -0.275 OA
ATOM      9  N   UNL A   1      33.636  23.474  24.493  1.00  0.00    -0.343 N 
ATOM     10  C   UNL A   1      32.464  22.833  23.911  1.00  0.00     0.120 C 
ATOM     11  C   UNL A   1      33.486  23.921  25.865  1.00  0.00     0.120 C 
ATOM     12  C   UNL A   1      31.230  23.717  24.004  1.00  0.00     0.027 C 
ATOM     13  C   UNL A   1      32.290  24.863  25.983  1.00  0.00     0.027 C 
ATOM     14  C   UNL A   1      31.009  24.208  25.445  1.00  0.00     0.018 C 
BRANCH  14  15
ATOM     15  C   UNL A   1      29.841  25.189  25.523  1.00  0.00     0.159 C 
BRANCH  15  16
ATOM     16  O   UNL A   1      29.185  25.087  26.777  1.00  0.00    -0.396 OA
ATOM     17  H   UNL A   1      29.388  24.228  27.180  1.00  0.00     0.210 HD
ENDBRANCH  15  16
ENDBRANCH  14  15
ENDBRANCH   6   7
ENDBRANCH   5   6
ENDBRANCH   4   5
ENDBRANCH   3   4
ENDBRANCH   2   3
BRANCH   2  18
ATOM     18  O   UNL A   1      40.330  21.317  26.753  1.00  0.00    -0.462 OA
BRANCH  18  19
ATOM     19  C   UNL A   1      41.393  20.656  26.046  1.00  0.00     0.274 C 
BRANCH  19  20
ATOM     20  C   UNL A   1      42.657  21.516  25.930  1.00  0.00     0.275 C 
BRANCH  20  21
ATOM     21  O   UNL A   1      42.484  22.627  25.029  1.00  0.00    -0.458 OA
BRANCH  21  22
ATOM     22  C   UNL A   1      43.386  23.630  25.171  1.00  0.00     0.338 C 
ATOM     23  O   UNL A   1      44.408  23.792  24.525  1.00  0.00    -0.246 OA
BRANCH  22  24
ATOM     24  C   UNL A   1      42.883  24.625  26.146  1.00  0.00     0.060 A 
ATOM     25  C   UNL A   1      43.518  25.871  26.201  1.00  0.00     0.016 A 
ATOM     26  C   UNL A   1      41.825  24.340  27.012  1.00  0.00     0.016 A 
ATOM     27  C   UNL A   1      43.103  26.833  27.129  1.00  0.00     0.010 A 
ATOM     28  C   UNL A   1      41.416  25.302  27.946  1.00  0.00     0.010 A 
ATOM     29  C   UNL A   1      42.060  26.549  28.020  1.00  0.00    -0.014 A 
BRANCH  29  30
ATOM     30  C   UNL A   1      41.694  27.515  29.089  1.00  0.00     0.031 A 
ATOM     31  C   UNL A   1      42.421  27.471  30.406  1.00  0.00     0.074 A 
ATOM     32  C   UNL A   1      40.707  28.412  28.907  1.00  0.00     0.049 A 
ATOM     33  N   UNL A   1      42.208  28.170  31.492  1.00  0.00    -0.248 NA
ATOM     34  C   UNL A   1      43.537  26.518  30.511  1.00  0.00     0.031 C 
ATOM     35  C   UNL A   1      39.940  28.593  27.676  1.00  0.00     0.029 A 
ATOM     36  N   UNL A   1      40.161  29.325  29.776  1.00  0.00    -0.354 N 
ATOM     37  C   UNL A   1      43.160  27.744  32.409  1.00  0.00     0.074 A 
ATOM     38  C   UNL A   1      43.938  26.708  31.761  1.00  0.00     0.031 C 
ATOM     39  C   UNL A   1      38.990  29.523  27.885  1.00  0.00     0.029 A 
ATOM     40  C   UNL A   1      39.076  29.996  29.265  1.00  0.00     0.049 A 
ATOM     41  H   UNL A   1      40.515  29.486  30.682  1.00  0.00     0.167 HD
ATOM     42  C   UNL A   1      43.376  28.185  33.670  1.00  0.00     0.037 A 
ATOM     43  C   UNL A   1      38.232  30.869  29.849  1.00  0.00     0.037 A 
ATOM     44  C   UNL A   1      42.620  29.225  34.316  1.00  0.00     0.049 A 
ATOM     45  C   UNL A   1      38.436  31.266  31.283  1.00  0.00     0.074 A 
ATOM     46  C   UNL A   1      42.830  29.791  35.563  1.00  0.00     0.029 A 
ATOM     47  N   UNL A   1      41.502  29.839  33.780  1.00  0.00    -0.354 N 
ATOM     48  N   UNL A   1      39.380  30.905  32.116  1.00  0.00    -0.248 NA
ATOM     49  C   UNL A   1      37.452  32.199  31.858  1.00  0.00     0.031 C 
ATOM     50  C   UNL A   1      41.806  30.711  35.804  1.00  0.00     0.029 A 
ATOM     51  C   UNL A   1      40.984  30.747  34.690  1.00  0.00     0.049 A 
ATOM     52  H   UNL A   1      41.131  29.659  32.887  1.00  0.00     0.167 HD
ATOM     53  C   UNL A   1      39.114  31.576  33.303  1.00  0.00     0.074 A 
ATOM     54  C   UNL A   1      37.928  32.374  33.082  1.00  0.00     0.031 C 
ATOM     55  C   UNL A   1      39.799  31.533  34.471  1.00  0.00     0.037 A 
BRANCH  42  56
ATOM     56  C   UNL A   1      44.480  27.544  34.453  1.00  0.00     0.057 A 
ATOM     57  C   UNL A   1      44.268  26.386  35.209  1.00  0.00     0.134 A 
ATOM     58  C   UNL A   1      45.786  28.044  34.380  1.00  0.00     0.134 A 
ATOM     59  F   UNL A   1      43.037  25.864  35.323  1.00  0.00    -0.206 F 
ATOM     60  C   UNL A   1      45.318  25.748  35.871  1.00  0.00     0.040 A 
ATOM     61  C   UNL A   1      46.847  27.407  35.022  1.00  0.00     0.040 A 
ATOM     62  F   UNL A   1      46.053  29.149  33.666  1.00  0.00    -0.206 F 
ATOM     63  C   UNL A   1      46.613  26.253  35.770  1.00  0.00     0.006 A 
ENDBRANCH  42  56
BRANCH  43  64
ATOM     64  C   UNL A   1      37.066  31.400  29.103  1.00  0.00     0.057 A 
ATOM     65  C   UNL A   1      37.046  32.708  28.609  1.00  0.00     0.134 A 
ATOM     66  C   UNL A   1      35.912  30.628  28.941  1.00  0.00     0.134 A 
ATOM     67  F   UNL A   1      38.104  33.512  28.782  1.00  0.00    -0.206 F 
ATOM     68  C   UNL A   1      35.913  33.228  27.979  1.00  0.00     0.040 A 
ATOM     69  C   UNL A   1      34.783  31.125  28.290  1.00  0.00     0.040 A 
ATOM     70  F   UNL A   1      35.858  29.389  29.442  1.00  0.00    -0.206 F 
ATOM     71  C   UNL A   1      34.780  32.433  27.812  1.00  0.00     0.006 A 
ENDBRANCH  43  64
BRANCH  55  72
ATOM     72  C   UNL A   1      39.297  32.384  35.597  1.00  0.00     0.057 A 
ATOM     73  C   UNL A   1      38.391  31.888  36.543  1.00  0.00     0.134 A 
ATOM     74  C   UNL A   1      39.754  33.697  35.763  1.00  0.00     0.134 A 
ATOM     75  F   UNL A   1      37.902  30.644  36.431  1.00  0.00    -0.206 F 
ATOM     76  C   UNL A   1      37.949  32.674  37.609  1.00  0.00     0.040 A 
ATOM     77  C   UNL A   1      39.336  34.485  36.837  1.00  0.00     0.040 A 
ATOM     78  F   UNL A   1      40.626  34.228  34.894  1.00  0.00    -0.206 F 
ATOM     79  C   UNL A   1      38.428  33.974  37.762  1.00  0.00     0.006 A 
ENDBRANCH  55  72
ENDBRANCH  29  30
ENDBRANCH  22  24
ENDBRANCH  21  22
ENDBRANCH  20  21
ENDBRANCH  19  20
ENDBRANCH  18  19
ENDBRANCH   2  18
TORSDOF 17
ENDMDL
MODEL 3
REMARK VINA RESULT:      -9.8      1.517      2.374
REMARK SMILES O=C(CCCCC(=O)N1CCC(CO)CC1)OCCOC(=O)c1ccc(-c2c3nc(c(-c4c(F)cccc4F)c4ccc([nH]4)c(-c4c(F)cccc4F)c4nc(c(-c5c(F)cccc5F)c5ccc2[nH]5)C=C4)C=C3)cc1
REMARK SMILES IDX 1 1 2 2 3 3 4 4 5 5 6 6 7 7 8 8 9 9 10 10 16 11 11 12 15 13
REMARK SMILES IDX 12 14 13 15 14 16 17 18 18 19 19 20 20 21 21 22 22 23 23 24
REMARK SMILES IDX 24 25 76 26 25 27 75 28 26 29 27 30 28 31 69 32 29 33 74 34
REMARK SMILES IDX 68 35 70 36 30 37 73 38 67 39 66 40 31 42 57 43 40 44 56 45
REMARK SMILES IDX 41 46 44 47 55 48 71 49 42 50 43 51 54 53 72 54 45 55 32 56
REMARK SMILES IDX 33 57 38 58 34 59 35 60 37 61 39 62 36 63 58 64 59 65 64 66
REMARK SMILES IDX 60 67 61 68 63 69 65 70 62 71 46 72 47 73 52 74 48 75 49 76
REMARK SMILES IDX 51 77 53 78 50 79
REMARK H PARENT 14 17 70 41 44 52
REMARK Flexibility Score: inf
ROOT
ATOM      1  O   UNL A   1      38.535  22.991  26.422  1.00  0.00    -0.252 OA
ATOM      2  C   UNL A   1      39.295  22.053  26.189  1.00  0.00     0.305 C 
ENDROOT
BRANCH   2   3
ATOM      3  C   UNL A   1      38.768  20.778  25.567  1.00  0.00     0.123 C 
BRANCH   3   4
ATOM      4  C   UNL A   1      37.534  20.963  24.687  1.00  0.00     0.012 C 
BRANCH   4   5
ATOM      5  C   UNL A   1      36.137  21.024  25.348  1.00  0.00     0.010 C 
BRANCH   5   6
ATOM      6  C   UNL A   1      34.868  20.827  24.520  1.00  0.00     0.100 C 
BRANCH   6   7
ATOM      7  C   UNL A   1      33.779  19.868  24.976  1.00  0.00     0.222 C 
ATOM      8  O   UNL A   1      32.863  20.260  25.699  1.00  0.00    -0.275 OA
ATOM      9  N   UNL A   1      33.735  18.649  24.323  1.00  0.00    -0.343 N 
ATOM     10  C   UNL A   1      32.444  18.100  23.934  1.00  0.00     0.120 C 
ATOM     11  C   UNL A   1      34.823  17.692  24.399  1.00  0.00     0.120 C 
ATOM     12  C   UNL A   1      32.021  16.951  24.837  1.00  0.00     0.027 C 
ATOM     13  C   UNL A   1      34.457  16.555  25.350  1.00  0.00     0.027 C 
ATOM     14  C   UNL A   1      33.132  15.892  24.942  1.00  0.00     0.018 C 
BRANCH  14  15
ATOM     15  C   UNL A   1      32.760  14.797  25.939  1.00  0.00     0.159 C 
BRANCH  15  16
ATOM     16  O   UNL A   1      33.333  13.556  25.555  1.00  0.00    -0.396 OA
ATOM     17  H   UNL A   1      34.300  13.628  25.567  1.00  0.00     0.210 HD
ENDBRANCH  15  16
ENDBRANCH  14  15
ENDBRANCH   6   7
ENDBRANCH   5   6
ENDBRANCH   4   5
ENDBRANCH   3   4
ENDBRANCH   2   3
BRANCH   2  18
ATOM     18  O   UNL A   1      40.592  22.112  26.566  1.00  0.00    -0.462 OA
BRANCH  18  19
ATOM     19  C   UNL A   1      41.581  21.145  26.174  1.00  0.00     0.274 C 
BRANCH  19  20
ATOM     20  C   UNL A   1      42.907  21.787  25.748  1.00  0.00     0.275 C 
BRANCH  20  21
ATOM     21  O   UNL A   1      42.718  23.067  25.114  1.00  0.00    -0.458 OA
BRANCH  21  22
ATOM     22  C   UNL A   1      43.653  24.003  25.416  1.00  0.00     0.338 C 
ATOM     23  O   UNL A   1      44.743  24.144  24.888  1.00  0.00    -0.246 OA
BRANCH  22  24
ATOM     24  C   UNL A   1      43.105  24.962  26.402  1.00  0.00     0.060 A 
ATOM     25  C   UNL A   1      43.700  26.226  26.491  1.00  0.00     0.016 A 
ATOM     26  C   UNL A   1      42.044  24.627  27.246  1.00  0.00     0.016 A 
ATOM     27  C   UNL A   1      43.242  27.156  27.430  1.00  0.00     0.010 A 
ATOM     28  C   UNL A   1      41.591  25.557  28.193  1.00  0.00     0.010 A 
ATOM     29  C   UNL A   1      42.195  26.823  28.300  1.00  0.00    -0.014 A 
BRANCH  29  30
ATOM     30  C   UNL A   1      41.784  27.755  29.382  1.00  0.00     0.031 A 
ATOM     31  C   UNL A   1      42.490  27.704  30.710  1.00  0.00     0.074 A 
ATOM     32  C   UNL A   1      40.775  28.628  29.202  1.00  0.00     0.049 A 
ATOM     33  N   UNL A   1      42.239  28.374  31.807  1.00  0.00    -0.248 NA
ATOM     34  C   UNL A   1      43.631  26.781  30.815  1.00  0.00     0.031 C 
ATOM     35  C   UNL A   1      40.024  28.813  27.962  1.00  0.00     0.029 A 
ATOM     36  N   UNL A   1      40.189  29.507  30.080  1.00  0.00    -0.354 N 
ATOM     37  C   UNL A   1      43.188  27.956  32.731  1.00  0.00     0.074 A 
ATOM     38  C   UNL A   1      44.005  26.956  32.076  1.00  0.00     0.031 C 
ATOM     39  C   UNL A   1      39.044  29.711  28.173  1.00  0.00     0.029 A 
ATOM     40  C   UNL A   1      39.094  30.157  29.563  1.00  0.00     0.049 A 
ATOM     41  H   UNL A   1      40.522  29.659  30.994  1.00  0.00     0.167 HD
ATOM     42  C   UNL A   1      43.370  28.377  34.004  1.00  0.00     0.037 A 
ATOM     43  C   UNL A   1      38.215  30.993  30.151  1.00  0.00     0.037 A 
ATOM     44  C   UNL A   1      42.574  29.381  34.659  1.00  0.00     0.049 A 
ATOM     45  C   UNL A   1      38.384  31.367  31.596  1.00  0.00     0.074 A 
ATOM     46  C   UNL A   1      42.746  29.926  35.920  1.00  0.00     0.029 A 
ATOM     47  N   UNL A   1      41.448  29.975  34.116  1.00  0.00    -0.354 N 
ATOM     48  N   UNL A   1      39.323  31.015  32.437  1.00  0.00    -0.248 NA
ATOM     49  C   UNL A   1      37.364  32.258  32.172  1.00  0.00     0.031 C 
ATOM     50  C   UNL A   1      41.692  30.812  36.162  1.00  0.00     0.029 A 
ATOM     51  C   UNL A   1      40.888  30.848  35.035  1.00  0.00     0.049 A 
ATOM     52  H   UNL A   1      41.096  29.803  33.213  1.00  0.00     0.167 HD
ATOM     53  C   UNL A   1      39.019  31.653  33.634  1.00  0.00     0.074 A 
ATOM     54  C   UNL A   1      37.815  32.422  33.408  1.00  0.00     0.031 C 
ATOM     55  C   UNL A   1      39.686  31.605  34.812  1.00  0.00     0.037 A 
BRANCH  42  56
ATOM     56  C   UNL A   1      44.478  27.751  34.793  1.00  0.00     0.057 A 
ATOM     57  C   UNL A   1      45.762  28.306  34.825  1.00  0.00     0.134 A 
ATOM     58  C   UNL A   1      44.232  26.630  35.596  1.00  0.00     0.134 A 
ATOM     59  F   UNL A   1      46.060  29.375  34.071  1.00  0.00    -0.206 F 
ATOM     60  C   UNL A   1      46.769  27.764  35.626  1.00  0.00     0.040 A 
ATOM     61  C   UNL A   1      45.224  26.090  36.414  1.00  0.00     0.040 A 
ATOM     62  F   UNL A   1      43.019  26.057  35.612  1.00  0.00    -0.206 F 
ATOM     63  C   UNL A   1      46.497  26.659  36.431  1.00  0.00     0.006 A 
ENDBRANCH  42  56
BRANCH  43  64
ATOM     64  C   UNL A   1      37.048  31.507  29.396  1.00  0.00     0.057 A 
ATOM     65  C   UNL A   1      35.925  30.712  29.150  1.00  0.00     0.134 A 
ATOM     66  C   UNL A   1      37.070  32.788  28.836  1.00  0.00     0.134 A 
ATOM     67  F   UNL A   1      35.871  29.456  29.617  1.00  0.00    -0.206 F 
ATOM     68  C   UNL A   1      34.864  31.175  28.368  1.00  0.00     0.040 A 
ATOM     69  C   UNL A   1      36.006  33.274  28.076  1.00  0.00     0.040 A 
ATOM     70  F   UNL A   1      38.142  33.572  28.994  1.00  0.00    -0.206 F 
ATOM     71  C   UNL A   1      34.900  32.463  27.835  1.00  0.00     0.006 A 
ENDBRANCH  43  64
BRANCH  55  72
ATOM     72  C   UNL A   1      39.140  32.418  35.946  1.00  0.00     0.057 A 
ATOM     73  C   UNL A   1      38.237  31.875  36.869  1.00  0.00     0.134 A 
ATOM     74  C   UNL A   1      39.553  33.741  36.143  1.00  0.00     0.134 A 
ATOM     75  F   UNL A   1      37.791  30.618  36.726  1.00  0.00    -0.206 F 
ATOM     76  C   UNL A   1      37.755  32.626  37.943  1.00  0.00     0.040 A 
ATOM     77  C   UNL A   1      39.095  34.494  37.225  1.00  0.00     0.040 A 
ATOM     78  F   UNL A   1      40.420  34.317  35.297  1.00  0.00    -0.206 F 
ATOM     79  C   UNL A   1      38.191  33.938  38.127  1.00  0.00     0.006 A 
ENDBRANCH  55  72
ENDBRANCH  29  30
ENDBRANCH  22  24
ENDBRANCH  21  22
ENDBRANCH  20  21
ENDBRANCH  19  20
ENDBRANCH  18  19
ENDBRANCH   2  18
TORSDOF 17
ENDMDL
