MODEL 1
REMARK VINA RESULT:     -11.8      0.000      0.000
REMARK SMILES Cc1cc(N(C)C2CCC(C)(C)CC2)cc(C(=O)OCCOC(=O)c2ccc(-c3c4nc(c(-c5c(F)cccc5F)c5ccc([nH]5)c(-c5c(F)cccc5F)c5nc(c(-c6c(F)cccc6F)c6ccc3[nH]6)C=C5)C=C4)cc2)c1N
REMARK SMILES IDX 20 1 19 2 17 3 18 4 16 5 1 6 2 7 3 8 79 9 4 10 15 11 80 12
REMARK SMILES IDX 5 15 6 16 7 17 8 18 14 19 9 20 13 21 10 22 11 23 12 24 21 25
REMARK SMILES IDX 22 26 23 27 24 28 25 29 26 30 78 31 27 32 77 33 28 34 29 35
REMARK SMILES IDX 30 36 71 37 31 38 76 39 70 40 72 41 32 42 75 43 69 44 68 45
REMARK SMILES IDX 33 47 59 48 42 49 58 50 43 51 46 52 57 53 73 54 44 55 45 56
REMARK SMILES IDX 56 58 74 59 47 60 34 61 35 62 40 63 36 64 37 65 39 66 41 67
REMARK SMILES IDX 38 68 60 69 61 70 66 71 62 72 63 73 65 74 67 75 64 76 48 77
REMARK SMILES IDX 49 78 54 79 50 80 51 81 53 82 55 83 52 84
REMARK H PARENT 80 13 80 14 72 46 46 57
REMARK Flexibility Score: inf
ROOT
ATOM      1  C   UNL A   1      32.223  29.193  25.233  1.00  0.00     0.275 C 
ENDROOT
BRANCH   1   2
ATOM      2  O   UNL A   1      31.237  28.144  25.327  1.00  0.00    -0.458 OA
BRANCH   2   3
ATOM      3  C   UNL A   1      31.445  27.300  26.365  1.00  0.00     0.340 C 
ATOM      4  O   UNL A   1      31.246  27.564  27.539  1.00  0.00    -0.246 OA
BRANCH   3   5
ATOM      5  C   UNL A   1      31.977  25.986  25.950  1.00  0.00     0.085 A 
ATOM      6  C   UNL A   1      30.425  22.629  26.602  1.00  0.00     0.047 C 
ATOM      7  C   UNL A   1      31.414  23.742  26.415  1.00  0.00    -0.025 A 
ATOM      8  C   UNL A   1      32.777  23.537  26.646  1.00  0.00     0.031 A 
ATOM      9  C   UNL A   1      31.068  24.941  25.823  1.00  0.00     0.049 A 
ATOM     10  C   UNL A   1      33.712  24.338  25.984  1.00  0.00     0.038 A 
ATOM     11  C   UNL A   1      33.336  25.681  25.924  1.00  0.00     0.043 A 
BRANCH   9  12
ATOM     12  N   UNL A   1      29.978  25.043  24.980  1.00  0.00    -0.398 N 
ATOM     13  H   UNL A   1      29.115  24.649  25.243  1.00  0.00     0.156 HD
ATOM     14  H   UNL A   1      30.066  25.508  24.118  1.00  0.00     0.156 HD
ENDBRANCH   9  12
BRANCH  10  15
ATOM     15  N   UNL A   1      34.819  23.810  25.316  1.00  0.00    -0.372 N 
ATOM     16  C   UNL A   1      36.142  24.122  25.865  1.00  0.00     0.144 C 
BRANCH  15  17
ATOM     17  C   UNL A   1      34.775  22.823  24.159  1.00  0.00     0.082 C 
ATOM     18  C   UNL A   1      35.489  21.486  24.318  1.00  0.00     0.025 C 
ATOM     19  C   UNL A   1      33.337  22.430  23.684  1.00  0.00     0.025 C 
ATOM     20  C   UNL A   1      34.806  20.670  25.413  1.00  0.00     0.008 C 
ATOM     21  C   UNL A   1      32.724  21.036  24.058  1.00  0.00     0.008 C 
ATOM     22  C   UNL A   1      33.547  20.012  24.887  1.00  0.00    -0.035 C 
ATOM     23  C   UNL A   1      32.713  19.499  26.083  1.00  0.00     0.011 C 
ATOM     24  C   UNL A   1      33.986  18.770  24.079  1.00  0.00     0.011 C 
ENDBRANCH  15  17
ENDBRANCH  10  15
ENDBRANCH   3   5
ENDBRANCH   2   3
ENDBRANCH   1   2
BRANCH   1  25
ATOM     25  C   UNL A   1      31.769  30.468  25.950  1.00  0.00     0.275 C 
BRANCH  25  26
ATOM     26  O   UNL A   1      32.372  30.618  27.255  1.00  0.00    -0.458 OA
BRANCH  26  27
ATOM     27  C   UNL A   1      33.137  31.717  27.405  1.00  0.00     0.338 C 
ATOM     28  O   UNL A   1      32.760  32.884  27.451  1.00  0.00    -0.246 OA
BRANCH  27  29
ATOM     29  C   UNL A   1      34.559  31.395  27.605  1.00  0.00     0.060 A 
ATOM     30  C   UNL A   1      34.877  30.075  27.886  1.00  0.00     0.016 A 
ATOM     31  C   UNL A   1      35.480  32.402  27.895  1.00  0.00     0.016 A 
ATOM     32  C   UNL A   1      36.004  29.790  28.653  1.00  0.00     0.010 A 
ATOM     33  C   UNL A   1      36.709  32.074  28.494  1.00  0.00     0.010 A 
ATOM     34  C   UNL A   1      36.970  30.766  28.937  1.00  0.00    -0.014 A 
BRANCH  34  35
ATOM     35  C   UNL A   1      38.216  30.399  29.691  1.00  0.00     0.031 A 
ATOM     36  C   UNL A   1      39.279  29.512  29.079  1.00  0.00     0.074 A 
ATOM     37  C   UNL A   1      38.421  30.881  30.938  1.00  0.00     0.049 A 
ATOM     38  N   UNL A   1      40.285  28.902  29.660  1.00  0.00    -0.248 NA
ATOM     39  C   UNL A   1      39.200  29.266  27.630  1.00  0.00     0.031 C 
ATOM     40  C   UNL A   1      37.528  31.792  31.659  1.00  0.00     0.029 A 
ATOM     41  N   UNL A   1      39.455  30.681  31.826  1.00  0.00    -0.354 N 
ATOM     42  C   UNL A   1      40.909  28.150  28.670  1.00  0.00     0.074 A 
ATOM     43  C   UNL A   1      40.173  28.384  27.445  1.00  0.00     0.031 C 
ATOM     44  C   UNL A   1      38.079  32.130  32.829  1.00  0.00     0.029 A 
ATOM     45  C   UNL A   1      39.278  31.333  33.024  1.00  0.00     0.049 A 
ATOM     46  H   UNL A   1      40.241  30.126  31.622  1.00  0.00     0.167 HD
ATOM     47  C   UNL A   1      41.989  27.334  28.776  1.00  0.00     0.037 A 
ATOM     48  C   UNL A   1      39.942  31.247  34.192  1.00  0.00     0.037 A 
ATOM     49  C   UNL A   1      42.753  27.154  29.988  1.00  0.00     0.049 A 
ATOM     50  C   UNL A   1      41.088  30.290  34.306  1.00  0.00     0.074 A 
ATOM     51  C   UNL A   1      43.863  26.352  30.197  1.00  0.00     0.029 A 
ATOM     52  N   UNL A   1      42.501  27.802  31.188  1.00  0.00    -0.354 N 
ATOM     53  N   UNL A   1      41.608  29.513  33.388  1.00  0.00    -0.248 NA
ATOM     54  C   UNL A   1      41.721  30.175  35.625  1.00  0.00     0.031 C 
ATOM     55  C   UNL A   1      44.251  26.476  31.535  1.00  0.00     0.029 A 
ATOM     56  C   UNL A   1      43.423  27.403  32.145  1.00  0.00     0.049 A 
ATOM     57  H   UNL A   1      41.775  28.449  31.338  1.00  0.00     0.167 HD
ATOM     58  C   UNL A   1      42.639  28.828  34.013  1.00  0.00     0.074 A 
ATOM     59  C   UNL A   1      42.687  29.300  35.382  1.00  0.00     0.031 C 
ATOM     60  C   UNL A   1      43.467  27.887  33.501  1.00  0.00     0.037 A 
BRANCH  47  61
ATOM     61  C   UNL A   1      42.397  26.533  27.568  1.00  0.00     0.057 A 
ATOM     62  C   UNL A   1      41.896  25.251  27.309  1.00  0.00     0.134 A 
ATOM     63  C   UNL A   1      43.261  27.088  26.612  1.00  0.00     0.134 A 
ATOM     64  F   UNL A   1      41.070  24.655  28.181  1.00  0.00    -0.206 F 
ATOM     65  C   UNL A   1      42.256  24.545  26.157  1.00  0.00     0.040 A 
ATOM     66  C   UNL A   1      43.603  26.405  25.444  1.00  0.00     0.040 A 
ATOM     67  F   UNL A   1      43.769  28.318  26.786  1.00  0.00    -0.206 F 
ATOM     68  C   UNL A   1      43.105  25.125  25.217  1.00  0.00     0.006 A 
ENDBRANCH  47  61
BRANCH  48  69
ATOM     69  C   UNL A   1      39.471  32.022  35.372  1.00  0.00     0.057 A 
ATOM     70  C   UNL A   1      38.540  31.488  36.269  1.00  0.00     0.134 A 
ATOM     71  C   UNL A   1      39.945  33.316  35.631  1.00  0.00     0.134 A 
ATOM     72  F   UNL A   1      38.029  30.265  36.065  1.00  0.00    -0.206 F 
ATOM     73  C   UNL A   1      38.089  32.216  37.372  1.00  0.00     0.040 A 
ATOM     74  C   UNL A   1      39.534  34.038  36.752  1.00  0.00     0.040 A 
ATOM     75  F   UNL A   1      40.840  33.888  34.812  1.00  0.00    -0.206 F 
ATOM     76  C   UNL A   1      38.595  33.490  37.621  1.00  0.00     0.006 A 
ENDBRANCH  48  69
BRANCH  60  77
ATOM     77  C   UNL A   1      44.528  27.348  34.414  1.00  0.00     0.057 A 
ATOM     78  C   UNL A   1      45.776  27.967  34.549  1.00  0.00     0.134 A 
ATOM     79  C   UNL A   1      44.291  26.194  35.173  1.00  0.00     0.134 A 
ATOM     80  F   UNL A   1      46.072  29.063  33.835  1.00  0.00    -0.206 F 
ATOM     81  C   UNL A   1      46.763  27.443  35.386  1.00  0.00     0.040 A 
ATOM     82  C   UNL A   1      45.258  25.678  36.036  1.00  0.00     0.040 A 
ATOM     83  F   UNL A   1      43.115  25.555  35.093  1.00  0.00    -0.206 F 
ATOM     84  C   UNL A   1      46.501  26.298  36.137  1.00  0.00     0.006 A 
ENDBRANCH  60  77
ENDBRANCH  34  35
ENDBRANCH  27  29
ENDBRANCH  26  27
ENDBRANCH  25  26
ENDBRANCH   1  25
TORSDOF 14
ENDMDL
MODEL 2
REMARK VINA RESULT:     -11.8      4.230      8.806
REMARK SMILES Cc1cc(N(C)C2CCC(C)(C)CC2)cc(C(=O)OCCOC(=O)c2ccc(-c3c4nc(c(-c5c(F)cccc5F)c5ccc([nH]5)c(-c5c(F)cccc5F)c5nc(c(-c6c(F)cccc6F)c6ccc3[nH]6)C=C5)C=C4)cc2)c1N
REMARK SMILES IDX 20 1 19 2 17 3 18 4 16 5 1 6 2 7 3 8 79 9 4 10 15 11 80 12
REMARK SMILES IDX 5 15 6 16 7 17 8 18 14 19 9 20 13 21 10 22 11 23 12 24 21 25
REMARK SMILES IDX 22 26 23 27 24 28 25 29 26 30 78 31 27 32 77 33 28 34 29 35
REMARK SMILES IDX 30 36 71 37 31 38 76 39 70 40 72 41 32 42 75 43 69 44 68 45
REMARK SMILES IDX 33 47 59 48 42 49 58 50 43 51 46 52 57 53 73 54 44 55 45 56
REMARK SMILES IDX 56 58 74 59 47 60 34 61 35 62 40 63 36 64 37 65 39 66 41 67
REMARK SMILES IDX 38 68 60 69 61 70 66 71 62 72 63 73 65 74 67 75 64 76 48 77
REMARK SMILES IDX 49 78 54 79 50 80 51 81 53 82 55 83 52 84
REMARK H PARENT 80 13 80 14 72 46 46 57
REMARK Flexibility Score: inf
ROOT
ATOM      1  C   UNL A   1      35.082  20.467  25.345  1.00  0.00     0.275 C 
ENDROOT
BRANCH   1   2
ATOM      2  O   UNL A   1      34.068  20.194  24.354  1.00  0.00    -0.458 OA
BRANCH   2   3
ATOM      3  C   UNL A   1      32.828  20.585  24.729  1.00  0.00     0.340 C 
ATOM      4  O   UNL A   1      31.924  19.837  25.063  1.00  0.00    -0.246 OA
BRANCH   3   5
ATOM      5  C   UNL A   1      32.638  22.049  24.678  1.00  0.00     0.085 A 
ATOM      6  C   UNL A   1      30.024  24.037  26.501  1.00  0.00     0.047 C 
ATOM      7  C   UNL A   1      30.982  23.538  25.459  1.00  0.00    -0.025 A 
ATOM      8  C   UNL A   1      31.021  24.114  24.186  1.00  0.00     0.031 A 
ATOM      9  C   UNL A   1      31.993  22.645  25.757  1.00  0.00     0.049 A 
ATOM     10  C   UNL A   1      32.201  24.050  23.441  1.00  0.00     0.038 A 
ATOM     11  C   UNL A   1      32.837  22.810  23.529  1.00  0.00     0.043 A 
BRANCH   9  12
ATOM     12  N   UNL A   1      32.477  22.504  27.043  1.00  0.00    -0.398 N 
ATOM     13  H   UNL A   1      31.893  22.150  27.752  1.00  0.00     0.156 HD
ATOM     14  H   UNL A   1      33.404  22.759  27.250  1.00  0.00     0.156 HD
ENDBRANCH   9  12
BRANCH  10  15
ATOM     15  N   UNL A   1      32.758  25.166  22.812  1.00  0.00    -0.372 N 
ATOM     16  C   UNL A   1      32.255  25.502  21.477  1.00  0.00     0.144 C 
BRANCH  15  17
ATOM     17  C   UNL A   1      33.733  26.150  23.443  1.00  0.00     0.082 C 
ATOM     18  C   UNL A   1      33.318  27.612  23.555  1.00  0.00     0.025 C 
ATOM     19  C   UNL A   1      34.201  25.777  24.888  1.00  0.00     0.025 C 
ATOM     20  C   UNL A   1      32.134  27.733  24.511  1.00  0.00     0.008 C 
ATOM     21  C   UNL A   1      33.627  26.534  26.136  1.00  0.00     0.008 C 
ATOM     22  C   UNL A   1      32.599  27.685  25.952  1.00  0.00    -0.035 C 
ATOM     23  C   UNL A   1      31.374  27.458  26.867  1.00  0.00     0.011 C 
ATOM     24  C   UNL A   1      33.165  29.081  26.295  1.00  0.00     0.011 C 
ENDBRANCH  15  17
ENDBRANCH  10  15
ENDBRANCH   3   5
ENDBRANCH   2   3
ENDBRANCH   1   2
BRANCH   1  25
ATOM     25  C   UNL A   1      36.493  20.235  24.795  1.00  0.00     0.275 C 
BRANCH  25  26
ATOM     26  O   UNL A   1      37.357  21.378  24.979  1.00  0.00    -0.458 OA
BRANCH  26  27
ATOM     27  C   UNL A   1      38.535  21.111  25.579  1.00  0.00     0.338 C 
ATOM     28  O   UNL A   1      39.246  20.125  25.411  1.00  0.00    -0.246 OA
BRANCH  27  29
ATOM     29  C   UNL A   1      38.985  22.203  26.456  1.00  0.00     0.060 A 
ATOM     30  C   UNL A   1      38.508  23.475  26.182  1.00  0.00     0.016 A 
ATOM     31  C   UNL A   1      40.122  22.050  27.251  1.00  0.00     0.016 A 
ATOM     32  C   UNL A   1      39.284  24.583  26.510  1.00  0.00     0.010 A 
ATOM     33  C   UNL A   1      40.787  23.186  27.745  1.00  0.00     0.010 A 
ATOM     34  C   UNL A   1      40.414  24.477  27.334  1.00  0.00    -0.014 A 
BRANCH  34  35
ATOM     35  C   UNL A   1      41.174  25.707  27.739  1.00  0.00     0.031 A 
ATOM     36  C   UNL A   1      40.544  26.778  28.604  1.00  0.00     0.074 A 
ATOM     37  C   UNL A   1      42.458  25.870  27.347  1.00  0.00     0.049 A 
ATOM     38  N   UNL A   1      40.959  27.999  28.844  1.00  0.00    -0.248 NA
ATOM     39  C   UNL A   1      39.281  26.441  29.281  1.00  0.00     0.031 C 
ATOM     40  C   UNL A   1      43.238  24.913  26.557  1.00  0.00     0.029 A 
ATOM     41  N   UNL A   1      43.347  26.898  27.569  1.00  0.00    -0.354 N 
ATOM     42  C   UNL A   1      39.979  28.595  29.633  1.00  0.00     0.074 A 
ATOM     43  C   UNL A   1      38.950  27.598  29.840  1.00  0.00     0.031 C 
ATOM     44  C   UNL A   1      44.493  25.355  26.426  1.00  0.00     0.029 A 
ATOM     45  C   UNL A   1      44.570  26.700  26.970  1.00  0.00     0.049 A 
ATOM     46  H   UNL A   1      43.128  27.695  28.101  1.00  0.00     0.167 HD
ATOM     47  C   UNL A   1      39.940  29.857  30.130  1.00  0.00     0.037 A 
ATOM     48  C   UNL A   1      45.618  27.525  26.789  1.00  0.00     0.037 A 
ATOM     49  C   UNL A   1      41.000  30.825  29.971  1.00  0.00     0.049 A 
ATOM     50  C   UNL A   1      45.525  28.935  27.286  1.00  0.00     0.074 A 
ATOM     51  C   UNL A   1      41.056  32.128  30.437  1.00  0.00     0.029 A 
ATOM     52  N   UNL A   1      42.197  30.588  29.313  1.00  0.00    -0.354 N 
ATOM     53  N   UNL A   1      44.553  29.513  27.947  1.00  0.00    -0.248 NA
ATOM     54  C   UNL A   1      46.661  29.815  26.987  1.00  0.00     0.031 C 
ATOM     55  C   UNL A   1      42.264  32.695  30.019  1.00  0.00     0.029 A 
ATOM     56  C   UNL A   1      42.990  31.726  29.345  1.00  0.00     0.049 A 
ATOM     57  H   UNL A   1      42.448  29.737  28.885  1.00  0.00     0.167 HD
ATOM     58  C   UNL A   1      44.967  30.821  28.158  1.00  0.00     0.074 A 
ATOM     59  C   UNL A   1      46.287  30.942  27.576  1.00  0.00     0.031 C 
ATOM     60  C   UNL A   1      44.307  31.832  28.771  1.00  0.00     0.037 A 
BRANCH  47  61
ATOM     61  C   UNL A   1      38.699  30.296  30.862  1.00  0.00     0.057 A 
ATOM     62  C   UNL A   1      38.549  30.151  32.246  1.00  0.00     0.134 A 
ATOM     63  C   UNL A   1      37.662  30.939  30.169  1.00  0.00     0.134 A 
ATOM     64  F   UNL A   1      39.497  29.541  32.973  1.00  0.00    -0.206 F 
ATOM     65  C   UNL A   1      37.407  30.608  32.910  1.00  0.00     0.040 A 
ATOM     66  C   UNL A   1      36.530  31.427  30.826  1.00  0.00     0.040 A 
ATOM     67  F   UNL A   1      37.742  31.128  28.843  1.00  0.00    -0.206 F 
ATOM     68  C   UNL A   1      36.397  31.255  32.201  1.00  0.00     0.006 A 
ENDBRANCH  47  61
BRANCH  48  69
ATOM     69  C   UNL A   1      46.803  27.062  26.016  1.00  0.00     0.057 A 
ATOM     70  C   UNL A   1      46.963  27.385  24.666  1.00  0.00     0.134 A 
ATOM     71  C   UNL A   1      47.805  26.285  26.615  1.00  0.00     0.134 A 
ATOM     72  F   UNL A   1      46.027  28.104  24.027  1.00  0.00    -0.206 F 
ATOM     73  C   UNL A   1      48.069  26.944  23.936  1.00  0.00     0.040 A 
ATOM     74  C   UNL A   1      48.936  25.874  25.909  1.00  0.00     0.040 A 
ATOM     75  F   UNL A   1      47.716  25.941  27.909  1.00  0.00    -0.206 F 
ATOM     76  C   UNL A   1      49.063  26.196  24.561  1.00  0.00     0.006 A 
ENDBRANCH  48  69
BRANCH  60  77
ATOM     77  C   UNL A   1      45.030  33.141  28.889  1.00  0.00     0.057 A 
ATOM     78  C   UNL A   1      44.904  34.149  27.926  1.00  0.00     0.134 A 
ATOM     79  C   UNL A   1      45.861  33.395  29.989  1.00  0.00     0.134 A 
ATOM     80  F   UNL A   1      44.140  33.960  26.840  1.00  0.00    -0.206 F 
ATOM     81  C   UNL A   1      45.600  35.354  28.037  1.00  0.00     0.040 A 
ATOM     82  C   UNL A   1      46.537  34.607  30.126  1.00  0.00     0.040 A 
ATOM     83  F   UNL A   1      46.021  32.473  30.949  1.00  0.00    -0.206 F 
ATOM     84  C   UNL A   1      46.414  35.587  29.144  1.00  0.00     0.006 A 
ENDBRANCH  60  77
ENDBRANCH  34  35
ENDBRANCH  27  29
ENDBRANCH  26  27
ENDBRANCH  25  26
ENDBRANCH   1  25
TORSDOF 14
ENDMDL
MODEL 3
REMARK VINA RESULT:     -11.7      4.116      8.883
REMARK SMILES Cc1cc(N(C)C2CCC(C)(C)CC2)cc(C(=O)OCCOC(=O)c2ccc(-c3c4nc(c(-c5c(F)cccc5F)c5ccc([nH]5)c(-c5c(F)cccc5F)c5nc(c(-c6c(F)cccc6F)c6ccc3[nH]6)C=C5)C=C4)cc2)c1N
REMARK SMILES IDX 20 1 19 2 17 3 18 4 16 5 1 6 2 7 3 8 79 9 4 10 15 11 80 12
REMARK SMILES IDX 5 15 6 16 7 17 8 18 14 19 9 20 13 21 10 22 11 23 12 24 21 25
REMARK SMILES IDX 22 26 23 27 24 28 25 29 26 30 78 31 27 32 77 33 28 34 29 35
REMARK SMILES IDX 30 36 71 37 31 38 76 39 70 40 72 41 32 42 75 43 69 44 68 45
REMARK SMILES IDX 33 47 59 48 42 49 58 50 43 51 46 52 57 53 73 54 44 55 45 56
REMARK SMILES IDX 56 58 74 59 47 60 34 61 35 62 40 63 36 64 37 65 39 66 41 67
REMARK SMILES IDX 38 68 60 69 61 70 66 71 62 72 63 73 65 74 67 75 64 76 48 77
REMARK SMILES IDX 49 78 54 79 50 80 51 81 53 82 55 83 52 84
REMARK H PARENT 80 13 80 14 72 46 46 57
REMARK Flexibility Score: inf
ROOT
ATOM      1  C   UNL A   1      35.364  21.413  24.633  1.00  0.00     0.275 C 
ENDROOT
BRANCH   1   2
ATOM      2  O   UNL A   1      34.902  22.223  25.735  1.00  0.00    -0.458 OA
BRANCH   2   3
ATOM      3  C   UNL A   1      33.569  22.457  25.710  1.00  0.00     0.340 C 
ATOM      4  O   UNL A   1      32.703  21.628  25.931  1.00  0.00    -0.246 OA
BRANCH   3   5
ATOM      5  C   UNL A   1      33.228  23.851  25.356  1.00  0.00     0.085 A 
ATOM      6  C   UNL A   1      33.252  25.363  21.918  1.00  0.00     0.047 C 
ATOM      7  C   UNL A   1      33.395  25.157  23.398  1.00  0.00    -0.025 A 
ATOM      8  C   UNL A   1      33.958  26.146  24.209  1.00  0.00     0.031 A 
ATOM      9  C   UNL A   1      32.807  24.092  24.053  1.00  0.00     0.049 A 
ATOM     10  C   UNL A   1      33.612  26.204  25.561  1.00  0.00     0.038 A 
ATOM     11  C   UNL A   1      33.537  24.945  26.160  1.00  0.00     0.043 A 
BRANCH   9  12
ATOM     12  N   UNL A   1      31.718  23.430  23.521  1.00  0.00    -0.398 N 
ATOM     13  H   UNL A   1      30.936  23.940  23.209  1.00  0.00     0.156 HD
ATOM     14  H   UNL A   1      31.725  22.448  23.454  1.00  0.00     0.156 HD
ENDBRANCH   9  12
BRANCH  10  15
ATOM     15  N   UNL A   1      33.223  27.389  26.191  1.00  0.00    -0.372 N 
ATOM     16  C   UNL A   1      34.289  28.257  26.699  1.00  0.00     0.144 C 
BRANCH  15  17
ATOM     17  C   UNL A   1      31.804  27.932  26.270  1.00  0.00     0.082 C 
ATOM     18  C   UNL A   1      31.477  29.220  25.524  1.00  0.00     0.025 C 
ATOM     19  C   UNL A   1      30.691  26.935  25.807  1.00  0.00     0.025 C 
ATOM     20  C   UNL A   1      31.609  28.987  24.021  1.00  0.00     0.008 C 
ATOM     21  C   UNL A   1      29.994  27.104  24.412  1.00  0.00     0.008 C 
ATOM     22  C   UNL A   1      30.383  28.282  23.477  1.00  0.00    -0.035 C 
ATOM     23  C   UNL A   1      30.695  27.756  22.058  1.00  0.00     0.011 C 
ATOM     24  C   UNL A   1      29.273  29.347  23.329  1.00  0.00     0.011 C 
ENDBRANCH  15  17
ENDBRANCH  10  15
ENDBRANCH   3   5
ENDBRANCH   2   3
ENDBRANCH   1   2
BRANCH   1  25
ATOM     25  C   UNL A   1      36.625  20.623  24.996  1.00  0.00     0.275 C 
BRANCH  25  26
ATOM     26  O   UNL A   1      37.834  21.398  24.836  1.00  0.00    -0.458 OA
BRANCH  26  27
ATOM     27  C   UNL A   1      38.839  21.064  25.670  1.00  0.00     0.338 C 
ATOM     28  O   UNL A   1      39.445  19.999  25.712  1.00  0.00    -0.246 OA
BRANCH  27  29
ATOM     29  C   UNL A   1      39.245  22.178  26.542  1.00  0.00     0.060 A 
ATOM     30  C   UNL A   1      38.739  23.433  26.246  1.00  0.00     0.016 A 
ATOM     31  C   UNL A   1      40.372  22.064  27.358  1.00  0.00     0.016 A 
ATOM     32  C   UNL A   1      39.480  24.566  26.573  1.00  0.00     0.010 A 
ATOM     33  C   UNL A   1      40.999  23.222  27.849  1.00  0.00     0.010 A 
ATOM     34  C   UNL A   1      40.598  24.499  27.417  1.00  0.00    -0.014 A 
BRANCH  34  35
ATOM     35  C   UNL A   1      41.318  25.753  27.820  1.00  0.00     0.031 A 
ATOM     36  C   UNL A   1      40.648  26.815  28.665  1.00  0.00     0.074 A 
ATOM     37  C   UNL A   1      42.604  25.947  27.446  1.00  0.00     0.049 A 
ATOM     38  N   UNL A   1      41.025  28.049  28.898  1.00  0.00    -0.248 NA
ATOM     39  C   UNL A   1      39.384  26.450  29.327  1.00  0.00     0.031 C 
ATOM     40  C   UNL A   1      43.421  25.004  26.676  1.00  0.00     0.029 A 
ATOM     41  N   UNL A   1      43.461  27.001  27.669  1.00  0.00    -0.354 N 
ATOM     42  C   UNL A   1      40.019  28.626  29.667  1.00  0.00     0.074 A 
ATOM     43  C   UNL A   1      39.013  27.603  29.869  1.00  0.00     0.031 C 
ATOM     44  C   UNL A   1      44.665  25.479  26.559  1.00  0.00     0.029 A 
ATOM     45  C   UNL A   1      44.697  26.831  27.090  1.00  0.00     0.049 A 
ATOM     46  H   UNL A   1      43.213  27.797  28.190  1.00  0.00     0.167 HD
ATOM     47  C   UNL A   1      39.938  29.891  30.151  1.00  0.00     0.037 A 
ATOM     48  C   UNL A   1      45.725  27.682  26.915  1.00  0.00     0.037 A 
ATOM     49  C   UNL A   1      40.973  30.886  29.997  1.00  0.00     0.049 A 
ATOM     50  C   UNL A   1      45.586  29.094  27.397  1.00  0.00     0.074 A 
ATOM     51  C   UNL A   1      40.987  32.195  30.450  1.00  0.00     0.029 A 
ATOM     52  N   UNL A   1      42.186  30.675  29.358  1.00  0.00    -0.354 N 
ATOM     53  N   UNL A   1      44.590  29.652  28.038  1.00  0.00    -0.248 NA
ATOM     54  C   UNL A   1      46.703  30.001  27.105  1.00  0.00     0.031 C 
ATOM     55  C   UNL A   1      42.185  32.790  30.043  1.00  0.00     0.029 A 
ATOM     56  C   UNL A   1      42.947  31.835  29.391  1.00  0.00     0.049 A 
ATOM     57  H   UNL A   1      42.466  29.828  28.943  1.00  0.00     0.167 HD
ATOM     58  C   UNL A   1      44.965  30.972  28.241  1.00  0.00     0.074 A 
ATOM     59  C   UNL A   1      46.290  31.124  27.677  1.00  0.00     0.031 C 
ATOM     60  C   UNL A   1      44.269  31.971  28.834  1.00  0.00     0.037 A 
BRANCH  47  61
ATOM     61  C   UNL A   1      38.675  30.303  30.860  1.00  0.00     0.057 A 
ATOM     62  C   UNL A   1      38.503  30.153  32.241  1.00  0.00     0.134 A 
ATOM     63  C   UNL A   1      37.637  30.926  30.149  1.00  0.00     0.134 A 
ATOM     64  F   UNL A   1      39.450  29.563  32.985  1.00  0.00    -0.206 F 
ATOM     65  C   UNL A   1      37.339  30.586  32.885  1.00  0.00     0.040 A 
ATOM     66  C   UNL A   1      36.484  31.388  30.785  1.00  0.00     0.040 A 
ATOM     67  F   UNL A   1      37.738  31.117  28.825  1.00  0.00    -0.206 F 
ATOM     68  C   UNL A   1      36.329  31.213  32.157  1.00  0.00     0.006 A 
ENDBRANCH  47  61
BRANCH  48  69
ATOM     69  C   UNL A   1      46.933  27.244  26.165  1.00  0.00     0.057 A 
ATOM     70  C   UNL A   1      47.026  27.400  24.779  1.00  0.00     0.134 A 
ATOM     71  C   UNL A   1      48.027  26.660  26.821  1.00  0.00     0.134 A 
ATOM     72  F   UNL A   1      46.004  27.928  24.089  1.00  0.00    -0.206 F 
ATOM     73  C   UNL A   1      48.154  26.981  24.071  1.00  0.00     0.040 A 
ATOM     74  C   UNL A   1      49.177  26.276  26.131  1.00  0.00     0.040 A 
ATOM     75  F   UNL A   1      48.006  26.482  28.151  1.00  0.00    -0.206 F 
ATOM     76  C   UNL A   1      49.237  26.427  24.749  1.00  0.00     0.006 A 
ENDBRANCH  48  69
BRANCH  60  77
ATOM     77  C   UNL A   1      44.955  33.300  28.949  1.00  0.00     0.057 A 
ATOM     78  C   UNL A   1      45.779  33.619  30.035  1.00  0.00     0.134 A 
ATOM     79  C   UNL A   1      44.791  34.271  27.952  1.00  0.00     0.134 A 
ATOM     80  F   UNL A   1      45.961  32.740  31.032  1.00  0.00    -0.206 F 
ATOM     81  C   UNL A   1      46.394  34.868  30.141  1.00  0.00     0.040 A 
ATOM     82  C   UNL A   1      45.425  35.511  28.032  1.00  0.00     0.040 A 
ATOM     83  F   UNL A   1      44.018  34.028  26.884  1.00  0.00    -0.206 F 
ATOM     84  C   UNL A   1      46.222  35.815  29.133  1.00  0.00     0.006 A 
ENDBRANCH  60  77
ENDBRANCH  34  35
ENDBRANCH  27  29
ENDBRANCH  26  27
ENDBRANCH  25  26
ENDBRANCH   1  25
TORSDOF 14
ENDMDL
