MODEL 1
REMARK VINA RESULT:     -12.0      0.000      0.000
REMARK SMILES CC(C)CCc1cc2c(cc1Cl)C=C(C(=O)OCCOC(=O)c1ccc(-c3c4nc(c(-c5c(F)cccc5F)c5ccc([nH]5)c(-c5c(F)cccc5F)c5nc(c(-c6c(F)cccc6F)c6ccc3[nH]6)C=C5)C=C4)cc1)[C@H](C(F)(F)F)O2
REMARK SMILES IDX 18 1 17 2 15 3 16 4 14 5 6 6 7 7 11 8 8 9 10 10 12 11 9 12
REMARK SMILES IDX 82 13 13 14 77 15 5 16 4 17 2 18 1 19 3 20 78 21 79 22 80 23
REMARK SMILES IDX 81 24 19 25 20 26 21 27 22 28 23 29 24 30 76 31 25 32 75 33
REMARK SMILES IDX 26 34 27 35 28 36 69 37 29 38 74 39 68 40 70 41 30 42 73 43
REMARK SMILES IDX 67 44 66 45 31 47 57 48 40 49 56 50 41 51 44 52 55 53 71 54
REMARK SMILES IDX 42 55 43 56 54 58 72 59 45 60 32 61 33 62 38 63 34 64 35 65
REMARK SMILES IDX 37 66 39 67 36 68 58 69 59 70 64 71 60 72 61 73 63 74 65 75
REMARK SMILES IDX 62 76 46 77 47 78 52 79 48 80 49 81 51 82 53 83 50 84
REMARK H PARENT 70 46 44 57
REMARK Flexibility Score: inf
ROOT
ATOM      1  C   UNL A   1      35.211  20.509  24.960  1.00  0.00     0.275 C 
ENDROOT
BRANCH   1   2
ATOM      2  O   UNL A   1      35.052  21.806  25.575  1.00  0.00    -0.459 OA
BRANCH   2   3
ATOM      3  C   UNL A   1      34.105  21.910  26.531  1.00  0.00     0.338 C 
ATOM      4  O   UNL A   1      33.906  21.125  27.441  1.00  0.00    -0.246 OA
BRANCH   3   5
ATOM      5  C   UNL A   1      33.394  23.199  26.401  1.00  0.00     0.087 C 
ATOM      6  C   UNL A   1      32.281  28.016  25.460  1.00  0.00    -0.026 A 
ATOM      7  C   UNL A   1      31.690  27.003  26.246  1.00  0.00     0.052 A 
ATOM      8  C   UNL A   1      33.393  27.685  24.670  1.00  0.00     0.045 A 
ATOM      9  C   UNL A   1      32.245  25.726  26.306  1.00  0.00     0.128 A 
ATOM     10  C   UNL A   1      33.968  26.417  24.762  1.00  0.00     0.032 A 
ATOM     11  Cl  UNL A   1      34.130  28.796  23.574  1.00  0.00    -0.084 Cl
ATOM     12  C   UNL A   1      33.418  25.456  25.611  1.00  0.00     0.019 A 
ATOM     13  O   UNL A   1      31.642  24.809  27.123  1.00  0.00    -0.475 OA
ATOM     14  C   UNL A   1      34.087  24.191  25.826  1.00  0.00     0.027 C 
ATOM     15  C   UNL A   1      32.000  23.399  26.940  1.00  0.00     0.316 C 
BRANCH   6  16
ATOM     16  C   UNL A   1      31.740  29.427  25.570  1.00  0.00     0.037 C 
BRANCH  16  17
ATOM     17  C   UNL A   1      32.158  30.126  26.877  1.00  0.00     0.008 C 
BRANCH  17  18
ATOM     18  C   UNL A   1      33.655  30.485  26.992  1.00  0.00    -0.017 C 
ATOM     19  C   UNL A   1      33.886  31.777  27.775  1.00  0.00     0.007 C 
ATOM     20  C   UNL A   1      34.415  29.340  27.668  1.00  0.00     0.007 C 
ENDBRANCH  17  18
ENDBRANCH  16  17
ENDBRANCH   6  16
BRANCH  15  21
ATOM     21  C   UNL A   1      30.884  22.671  26.169  1.00  0.00     0.430 C 
ATOM     22  F   UNL A   1      31.283  21.439  25.768  1.00  0.00    -0.167 F 
ATOM     23  F   UNL A   1      29.764  22.512  26.906  1.00  0.00    -0.167 F 
ATOM     24  F   UNL A   1      30.547  23.338  25.038  1.00  0.00    -0.167 F 
ENDBRANCH  15  21
ENDBRANCH   3   5
ENDBRANCH   2   3
ENDBRANCH   1   2
BRANCH   1  25
ATOM     25  C   UNL A   1      36.689  20.124  24.918  1.00  0.00     0.275 C 
BRANCH  25  26
ATOM     26  O   UNL A   1      37.481  21.245  25.351  1.00  0.00    -0.458 OA
BRANCH  26  27
ATOM     27  C   UNL A   1      38.728  20.958  25.791  1.00  0.00     0.338 C 
ATOM     28  O   UNL A   1      39.338  19.908  25.682  1.00  0.00    -0.246 OA
BRANCH  27  29
ATOM     29  C   UNL A   1      39.301  22.163  26.410  1.00  0.00     0.060 A 
ATOM     30  C   UNL A   1      40.443  22.091  27.196  1.00  0.00     0.016 A 
ATOM     31  C   UNL A   1      38.746  23.400  26.094  1.00  0.00     0.016 A 
ATOM     32  C   UNL A   1      41.013  23.275  27.682  1.00  0.00     0.010 A 
ATOM     33  C   UNL A   1      39.366  24.582  26.498  1.00  0.00     0.010 A 
ATOM     34  C   UNL A   1      40.503  24.538  27.312  1.00  0.00    -0.014 A 
BRANCH  34  35
ATOM     35  C   UNL A   1      41.197  25.791  27.729  1.00  0.00     0.031 A 
ATOM     36  C   UNL A   1      42.615  26.096  27.311  1.00  0.00     0.074 A 
ATOM     37  C   UNL A   1      40.551  26.662  28.533  1.00  0.00     0.049 A 
ATOM     38  N   UNL A   1      43.322  27.182  27.519  1.00  0.00    -0.248 NA
ATOM     39  C   UNL A   1      43.352  25.037  26.606  1.00  0.00     0.031 C 
ATOM     40  C   UNL A   1      39.229  26.445  29.125  1.00  0.00     0.029 A 
ATOM     41  N   UNL A   1      40.910  27.911  28.975  1.00  0.00    -0.354 N 
ATOM     42  C   UNL A   1      44.581  26.929  26.988  1.00  0.00     0.074 A 
ATOM     43  C   UNL A   1      44.563  25.565  26.506  1.00  0.00     0.031 C 
ATOM     44  C   UNL A   1      38.855  27.553  29.786  1.00  0.00     0.029 A 
ATOM     45  C   UNL A   1      39.918  28.546  29.685  1.00  0.00     0.049 A 
ATOM     46  H   UNL A   1      41.792  28.314  28.800  1.00  0.00     0.167 HD
ATOM     47  C   UNL A   1      45.645  27.761  26.875  1.00  0.00     0.037 A 
ATOM     48  C   UNL A   1      39.857  29.799  30.173  1.00  0.00     0.037 A 
ATOM     49  C   UNL A   1      45.656  29.134  27.312  1.00  0.00     0.049 A 
ATOM     50  C   UNL A   1      41.013  30.733  29.960  1.00  0.00     0.074 A 
ATOM     51  C   UNL A   1      46.648  30.086  27.154  1.00  0.00     0.029 A 
ATOM     52  N   UNL A   1      44.618  29.751  27.994  1.00  0.00    -0.354 N 
ATOM     53  N   UNL A   1      42.151  30.516  29.348  1.00  0.00    -0.248 NA
ATOM     54  C   UNL A   1      40.867  32.094  30.497  1.00  0.00     0.031 C 
ATOM     55  C   UNL A   1      46.222  31.273  27.764  1.00  0.00     0.029 A 
ATOM     56  C   UNL A   1      44.951  31.068  28.272  1.00  0.00     0.049 A 
ATOM     57  H   UNL A   1      43.769  29.318  28.243  1.00  0.00     0.167 HD
ATOM     58  C   UNL A   1      42.850  31.714  29.415  1.00  0.00     0.074 A 
ATOM     59  C   UNL A   1      41.995  32.662  30.098  1.00  0.00     0.031 C 
ATOM     60  C   UNL A   1      44.094  32.000  28.958  1.00  0.00     0.037 A 
BRANCH  47  61
ATOM     61  C   UNL A   1      46.883  27.216  26.219  1.00  0.00     0.057 A 
ATOM     62  C   UNL A   1      47.061  27.295  24.832  1.00  0.00     0.134 A 
ATOM     63  C   UNL A   1      47.890  26.583  26.962  1.00  0.00     0.134 A 
ATOM     64  F   UNL A   1      46.131  27.875  24.058  1.00  0.00    -0.206 F 
ATOM     65  C   UNL A   1      48.197  26.773  24.211  1.00  0.00     0.040 A 
ATOM     66  C   UNL A   1      49.043  26.082  26.355  1.00  0.00     0.040 A 
ATOM     67  F   UNL A   1      47.787  26.479  28.296  1.00  0.00    -0.206 F 
ATOM     68  C   UNL A   1      49.196  26.172  24.973  1.00  0.00     0.006 A 
ENDBRANCH  47  61
BRANCH  48  69
ATOM     69  C   UNL A   1      38.626  30.272  30.853  1.00  0.00     0.057 A 
ATOM     70  C   UNL A   1      38.469  30.178  32.239  1.00  0.00     0.134 A 
ATOM     71  C   UNL A   1      37.580  30.846  30.119  1.00  0.00     0.134 A 
ATOM     72  F   UNL A   1      39.431  29.630  32.995  1.00  0.00    -0.206 F 
ATOM     73  C   UNL A   1      37.314  30.640  32.874  1.00  0.00     0.040 A 
ATOM     74  C   UNL A   1      36.431  31.334  30.743  1.00  0.00     0.040 A 
ATOM     75  F   UNL A   1      37.682  30.978  28.789  1.00  0.00    -0.206 F 
ATOM     76  C   UNL A   1      36.295  31.228  32.126  1.00  0.00     0.006 A 
ENDBRANCH  48  69
BRANCH  60  77
ATOM     77  C   UNL A   1      44.589  33.397  29.178  1.00  0.00     0.057 A 
ATOM     78  C   UNL A   1      44.338  34.404  28.238  1.00  0.00     0.134 A 
ATOM     79  C   UNL A   1      45.310  33.749  30.328  1.00  0.00     0.134 A 
ATOM     80  F   UNL A   1      43.659  34.133  27.115  1.00  0.00    -0.206 F 
ATOM     81  C   UNL A   1      44.779  35.713  28.437  1.00  0.00     0.040 A 
ATOM     82  C   UNL A   1      45.734  35.060  30.549  1.00  0.00     0.040 A 
ATOM     83  F   UNL A   1      45.569  32.834  31.274  1.00  0.00    -0.206 F 
ATOM     84  C   UNL A   1      45.472  36.046  29.600  1.00  0.00     0.006 A 
ENDBRANCH  60  77
ENDBRANCH  34  35
ENDBRANCH  27  29
ENDBRANCH  26  27
ENDBRANCH  25  26
ENDBRANCH   1  25
TORSDOF 15
ENDMDL
MODEL 2
REMARK VINA RESULT:     -11.9      1.045      1.851
REMARK SMILES CC(C)CCc1cc2c(cc1Cl)C=C(C(=O)OCCOC(=O)c1ccc(-c3c4nc(c(-c5c(F)cccc5F)c5ccc([nH]5)c(-c5c(F)cccc5F)c5nc(c(-c6c(F)cccc6F)c6ccc3[nH]6)C=C5)C=C4)cc1)[C@H](C(F)(F)F)O2
REMARK SMILES IDX 18 1 17 2 15 3 16 4 14 5 6 6 7 7 11 8 8 9 10 10 12 11 9 12
REMARK SMILES IDX 82 13 13 14 77 15 5 16 4 17 2 18 1 19 3 20 78 21 79 22 80 23
REMARK SMILES IDX 81 24 19 25 20 26 21 27 22 28 23 29 24 30 76 31 25 32 75 33
REMARK SMILES IDX 26 34 27 35 28 36 69 37 29 38 74 39 68 40 70 41 30 42 73 43
REMARK SMILES IDX 67 44 66 45 31 47 57 48 40 49 56 50 41 51 44 52 55 53 71 54
REMARK SMILES IDX 42 55 43 56 54 58 72 59 45 60 32 61 33 62 38 63 34 64 35 65
REMARK SMILES IDX 37 66 39 67 36 68 58 69 59 70 64 71 60 72 61 73 63 74 65 75
REMARK SMILES IDX 62 76 46 77 47 78 52 79 48 80 49 81 51 82 53 83 50 84
REMARK H PARENT 70 46 44 57
REMARK Flexibility Score: inf
ROOT
ATOM      1  C   UNL A   1      34.997  21.063  25.309  1.00  0.00     0.275 C 
ENDROOT
BRANCH   1   2
ATOM      2  O   UNL A   1      35.080  22.351  25.958  1.00  0.00    -0.459 OA
BRANCH   2   3
ATOM      3  C   UNL A   1      34.140  22.622  26.887  1.00  0.00     0.338 C 
ATOM      4  O   UNL A   1      34.056  22.127  27.997  1.00  0.00    -0.246 OA
BRANCH   3   5
ATOM      5  C   UNL A   1      33.267  23.718  26.418  1.00  0.00     0.087 C 
ATOM      6  C   UNL A   1      31.585  28.047  24.479  1.00  0.00    -0.026 A 
ATOM      7  C   UNL A   1      31.027  27.062  25.322  1.00  0.00     0.052 A 
ATOM      8  C   UNL A   1      32.867  27.826  23.952  1.00  0.00     0.045 A 
ATOM      9  C   UNL A   1      31.761  25.937  25.695  1.00  0.00     0.128 A 
ATOM     10  C   UNL A   1      33.614  26.719  24.358  1.00  0.00     0.032 A 
ATOM     11  Cl  UNL A   1      33.611  28.890  22.815  1.00  0.00    -0.084 Cl
ATOM     12  C   UNL A   1      33.074  25.801  25.260  1.00  0.00     0.019 A 
ATOM     13  O   UNL A   1      31.169  25.047  26.550  1.00  0.00    -0.475 OA
ATOM     14  C   UNL A   1      33.886  24.732  25.800  1.00  0.00     0.027 C 
ATOM     15  C   UNL A   1      31.781  23.721  26.678  1.00  0.00     0.316 C 
BRANCH   6  16
ATOM     16  C   UNL A   1      30.811  29.328  24.250  1.00  0.00     0.037 C 
BRANCH  16  17
ATOM     17  C   UNL A   1      29.897  29.260  23.012  1.00  0.00     0.008 C 
BRANCH  17  18
ATOM     18  C   UNL A   1      28.589  30.076  23.103  1.00  0.00    -0.017 C 
ATOM     19  C   UNL A   1      28.787  31.418  23.807  1.00  0.00     0.007 C 
ATOM     20  C   UNL A   1      28.027  30.318  21.699  1.00  0.00     0.007 C 
ENDBRANCH  17  18
ENDBRANCH  16  17
ENDBRANCH   6  16
BRANCH  15  21
ATOM     21  C   UNL A   1      30.969  22.690  25.873  1.00  0.00     0.430 C 
ATOM     22  F   UNL A   1      29.808  22.377  26.500  1.00  0.00    -0.167 F 
ATOM     23  F   UNL A   1      30.653  23.131  24.637  1.00  0.00    -0.167 F 
ATOM     24  F   UNL A   1      31.645  21.522  25.739  1.00  0.00    -0.167 F 
ENDBRANCH  15  21
ENDBRANCH   3   5
ENDBRANCH   2   3
ENDBRANCH   1   2
BRANCH   1  25
ATOM     25  C   UNL A   1      36.398  20.527  25.019  1.00  0.00     0.275 C 
BRANCH  25  26
ATOM     26  O   UNL A   1      37.357  21.583  25.214  1.00  0.00    -0.458 OA
BRANCH  26  27
ATOM     27  C   UNL A   1      38.538  21.221  25.764  1.00  0.00     0.338 C 
ATOM     28  O   UNL A   1      39.069  20.123  25.743  1.00  0.00    -0.246 OA
BRANCH  27  29
ATOM     29  C   UNL A   1      39.156  22.403  26.383  1.00  0.00     0.060 A 
ATOM     30  C   UNL A   1      40.315  22.294  27.140  1.00  0.00     0.016 A 
ATOM     31  C   UNL A   1      38.624  23.657  26.096  1.00  0.00     0.016 A 
ATOM     32  C   UNL A   1      40.925  23.457  27.625  1.00  0.00     0.010 A 
ATOM     33  C   UNL A   1      39.282  24.819  26.500  1.00  0.00     0.010 A 
ATOM     34  C   UNL A   1      40.437  24.737  27.285  1.00  0.00    -0.014 A 
BRANCH  34  35
ATOM     35  C   UNL A   1      41.171  25.968  27.699  1.00  0.00     0.031 A 
ATOM     36  C   UNL A   1      42.576  26.255  27.228  1.00  0.00     0.074 A 
ATOM     37  C   UNL A   1      40.577  26.831  28.548  1.00  0.00     0.049 A 
ATOM     38  N   UNL A   1      43.312  27.323  27.431  1.00  0.00    -0.248 NA
ATOM     39  C   UNL A   1      43.263  25.200  26.470  1.00  0.00     0.031 C 
ATOM     40  C   UNL A   1      39.277  26.625  29.191  1.00  0.00     0.029 A 
ATOM     41  N   UNL A   1      40.977  28.063  29.002  1.00  0.00    -0.354 N 
ATOM     42  C   UNL A   1      44.543  27.060  26.841  1.00  0.00     0.074 A 
ATOM     43  C   UNL A   1      44.479  25.708  26.331  1.00  0.00     0.031 C 
ATOM     44  C   UNL A   1      38.951  27.724  29.891  1.00  0.00     0.029 A 
ATOM     45  C   UNL A   1      40.028  28.699  29.767  1.00  0.00     0.049 A 
ATOM     46  H   UNL A   1      41.858  28.453  28.800  1.00  0.00     0.167 HD
ATOM     47  C   UNL A   1      45.617  27.875  26.703  1.00  0.00     0.037 A 
ATOM     48  C   UNL A   1      40.011  29.942  30.285  1.00  0.00     0.037 A 
ATOM     49  C   UNL A   1      45.672  29.237  27.169  1.00  0.00     0.049 A 
ATOM     50  C   UNL A   1      41.175  30.859  30.044  1.00  0.00     0.074 A 
ATOM     51  C   UNL A   1      46.675  30.175  26.990  1.00  0.00     0.029 A 
ATOM     52  N   UNL A   1      44.675  29.858  27.907  1.00  0.00    -0.354 N 
ATOM     53  N   UNL A   1      42.282  30.636  29.380  1.00  0.00    -0.248 NA
ATOM     54  C   UNL A   1      41.077  32.210  30.616  1.00  0.00     0.031 C 
ATOM     55  C   UNL A   1      46.297  31.355  27.643  1.00  0.00     0.029 A 
ATOM     56  C   UNL A   1      45.044  31.161  28.199  1.00  0.00     0.049 A 
ATOM     57  H   UNL A   1      43.830  29.435  28.182  1.00  0.00     0.167 HD
ATOM     58  C   UNL A   1      43.006  31.819  29.444  1.00  0.00     0.074 A 
ATOM     59  C   UNL A   1      42.198  32.767  30.182  1.00  0.00     0.031 C 
ATOM     60  C   UNL A   1      44.235  32.093  28.942  1.00  0.00     0.037 A 
BRANCH  47  61
ATOM     61  C   UNL A   1      46.816  27.323  25.983  1.00  0.00     0.057 A 
ATOM     62  C   UNL A   1      46.957  27.467  24.597  1.00  0.00     0.134 A 
ATOM     63  C   UNL A   1      47.821  26.619  26.664  1.00  0.00     0.134 A 
ATOM     64  F   UNL A   1      46.028  28.117  23.881  1.00  0.00    -0.206 F 
ATOM     65  C   UNL A   1      48.056  26.939  23.917  1.00  0.00     0.040 A 
ATOM     66  C   UNL A   1      48.938  26.111  25.997  1.00  0.00     0.040 A 
ATOM     67  F   UNL A   1      47.751  26.450  27.992  1.00  0.00    -0.206 F 
ATOM     68  C   UNL A   1      49.055  26.267  24.618  1.00  0.00     0.006 A 
ENDBRANCH  47  61
BRANCH  48  69
ATOM     69  C   UNL A   1      38.818  30.422  31.026  1.00  0.00     0.057 A 
ATOM     70  C   UNL A   1      37.755  31.057  30.377  1.00  0.00     0.134 A 
ATOM     71  C   UNL A   1      38.716  30.238  32.411  1.00  0.00     0.134 A 
ATOM     72  F   UNL A   1      37.799  31.270  29.054  1.00  0.00    -0.206 F 
ATOM     73  C   UNL A   1      36.629  31.492  31.079  1.00  0.00     0.040 A 
ATOM     74  C   UNL A   1      37.586  30.647  33.121  1.00  0.00     0.040 A 
ATOM     75  F   UNL A   1      39.697  29.620  33.084  1.00  0.00    -0.206 F 
ATOM     76  C   UNL A   1      36.539  31.279  32.454  1.00  0.00     0.006 A 
ENDBRANCH  48  69
BRANCH  60  77
ATOM     77  C   UNL A   1      44.766  33.476  29.171  1.00  0.00     0.057 A 
ATOM     78  C   UNL A   1      44.493  34.508  28.266  1.00  0.00     0.134 A 
ATOM     79  C   UNL A   1      45.541  33.788  30.296  1.00  0.00     0.134 A 
ATOM     80  F   UNL A   1      43.761  34.275  27.167  1.00  0.00    -0.206 F 
ATOM     81  C   UNL A   1      44.967  35.804  28.475  1.00  0.00     0.040 A 
ATOM     82  C   UNL A   1      45.999  35.086  30.528  1.00  0.00     0.040 A 
ATOM     83  F   UNL A   1      45.823  32.846  31.210  1.00  0.00    -0.206 F 
ATOM     84  C   UNL A   1      45.715  36.098  29.614  1.00  0.00     0.006 A 
ENDBRANCH  60  77
ENDBRANCH  34  35
ENDBRANCH  27  29
ENDBRANCH  26  27
ENDBRANCH  25  26
ENDBRANCH   1  25
TORSDOF 15
ENDMDL
MODEL 3
REMARK VINA RESULT:     -11.8      4.005      9.120
REMARK SMILES CC(C)CCc1cc2c(cc1Cl)C=C(C(=O)OCCOC(=O)c1ccc(-c3c4nc(c(-c5c(F)cccc5F)c5ccc([nH]5)c(-c5c(F)cccc5F)c5nc(c(-c6c(F)cccc6F)c6ccc3[nH]6)C=C5)C=C4)cc1)[C@H](C(F)(F)F)O2
REMARK SMILES IDX 18 1 17 2 15 3 16 4 14 5 6 6 7 7 11 8 8 9 10 10 12 11 9 12
REMARK SMILES IDX 82 13 13 14 77 15 5 16 4 17 2 18 1 19 3 20 78 21 79 22 80 23
REMARK SMILES IDX 81 24 19 25 20 26 21 27 22 28 23 29 24 30 76 31 25 32 75 33
REMARK SMILES IDX 26 34 27 35 28 36 69 37 29 38 74 39 68 40 70 41 30 42 73 43
REMARK SMILES IDX 67 44 66 45 31 47 57 48 40 49 56 50 41 51 44 52 55 53 71 54
REMARK SMILES IDX 42 55 43 56 54 58 72 59 45 60 32 61 33 62 38 63 34 64 35 65
REMARK SMILES IDX 37 66 39 67 36 68 58 69 59 70 64 71 60 72 61 73 63 74 65 75
REMARK SMILES IDX 62 76 46 77 47 78 52 79 48 80 49 81 51 82 53 83 50 84
REMARK H PARENT 70 46 44 57
REMARK Flexibility Score: inf
ROOT
ATOM      1  C   UNL A   1      31.777  29.169  25.028  1.00  0.00     0.275 C 
ENDROOT
BRANCH   1   2
ATOM      2  O   UNL A   1      33.092  28.571  25.006  1.00  0.00    -0.459 OA
BRANCH   2   3
ATOM      3  C   UNL A   1      33.559  28.180  23.802  1.00  0.00     0.338 C 
ATOM      4  O   UNL A   1      34.003  28.904  22.929  1.00  0.00    -0.246 OA
BRANCH   3   5
ATOM      5  C   UNL A   1      33.575  26.705  23.720  1.00  0.00     0.087 C 
ATOM      6  C   UNL A   1      34.079  21.821  24.826  1.00  0.00    -0.026 A 
ATOM      7  C   UNL A   1      34.002  22.557  23.623  1.00  0.00     0.052 A 
ATOM      8  C   UNL A   1      33.918  22.508  26.040  1.00  0.00     0.045 A 
ATOM      9  C   UNL A   1      33.856  23.943  23.638  1.00  0.00     0.128 A 
ATOM     10  C   UNL A   1      33.811  23.899  26.052  1.00  0.00     0.032 A 
ATOM     11  Cl  UNL A   1      33.869  21.710  27.569  1.00  0.00    -0.084 Cl
ATOM     12  C   UNL A   1      33.822  24.615  24.854  1.00  0.00     0.019 A 
ATOM     13  O   UNL A   1      33.832  24.592  22.434  1.00  0.00    -0.475 OA
ATOM     14  C   UNL A   1      33.860  26.062  24.860  1.00  0.00     0.027 C 
ATOM     15  C   UNL A   1      33.348  25.976  22.419  1.00  0.00     0.316 C 
BRANCH   6  16
ATOM     16  C   UNL A   1      34.413  20.346  24.753  1.00  0.00     0.037 C 
BRANCH  16  17
ATOM     17  C   UNL A   1      33.160  19.452  24.708  1.00  0.00     0.008 C 
BRANCH  17  18
ATOM     18  C   UNL A   1      33.397  17.995  24.253  1.00  0.00    -0.017 C 
ATOM     19  C   UNL A   1      32.894  17.739  22.833  1.00  0.00     0.007 C 
ATOM     20  C   UNL A   1      34.890  17.661  24.329  1.00  0.00     0.007 C 
ENDBRANCH  17  18
ENDBRANCH  16  17
ENDBRANCH   6  16
BRANCH  15  21
ATOM     21  C   UNL A   1      31.906  26.020  21.882  1.00  0.00     0.430 C 
ATOM     22  F   UNL A   1      31.107  25.140  22.536  1.00  0.00    -0.167 F 
ATOM     23  F   UNL A   1      31.345  27.242  22.006  1.00  0.00    -0.167 F 
ATOM     24  F   UNL A   1      31.853  25.668  20.574  1.00  0.00    -0.167 F 
ENDBRANCH  15  21
ENDBRANCH   3   5
ENDBRANCH   2   3
ENDBRANCH   1   2
BRANCH   1  25
ATOM     25  C   UNL A   1      31.735  30.316  26.036  1.00  0.00     0.275 C 
BRANCH  25  26
ATOM     26  O   UNL A   1      33.013  30.979  26.048  1.00  0.00    -0.458 OA
BRANCH  26  27
ATOM     27  C   UNL A   1      33.274  31.749  27.129  1.00  0.00     0.338 C 
ATOM     28  O   UNL A   1      32.555  32.591  27.641  1.00  0.00    -0.246 OA
BRANCH  27  29
ATOM     29  C   UNL A   1      34.592  31.381  27.666  1.00  0.00     0.060 A 
ATOM     30  C   UNL A   1      35.546  32.349  27.953  1.00  0.00     0.016 A 
ATOM     31  C   UNL A   1      34.828  30.049  27.996  1.00  0.00     0.016 A 
ATOM     32  C   UNL A   1      36.749  31.964  28.558  1.00  0.00     0.010 A 
ATOM     33  C   UNL A   1      35.984  29.679  28.682  1.00  0.00     0.010 A 
ATOM     34  C   UNL A   1      36.972  30.630  28.961  1.00  0.00    -0.014 A 
BRANCH  34  35
ATOM     35  C   UNL A   1      38.201  30.259  29.721  1.00  0.00     0.031 A 
ATOM     36  C   UNL A   1      38.422  30.703  31.147  1.00  0.00     0.074 A 
ATOM     37  C   UNL A   1      39.159  29.537  29.105  1.00  0.00     0.049 A 
ATOM     38  N   UNL A   1      39.397  30.388  31.967  1.00  0.00    -0.248 NA
ATOM     39  C   UNL A   1      37.454  31.652  31.716  1.00  0.00     0.031 C 
ATOM     40  C   UNL A   1      39.148  29.147  27.693  1.00  0.00     0.029 A 
ATOM     41  N   UNL A   1      40.319  28.985  29.590  1.00  0.00    -0.354 N 
ATOM     42  C   UNL A   1      39.166  31.108  33.133  1.00  0.00     0.074 A 
ATOM     43  C   UNL A   1      37.998  31.927  32.893  1.00  0.00     0.031 C 
ATOM     44  C   UNL A   1      40.204  28.355  27.446  1.00  0.00     0.029 A 
ATOM     45  C   UNL A   1      40.978  28.202  28.672  1.00  0.00     0.049 A 
ATOM     46  H   UNL A   1      40.646  29.135  30.507  1.00  0.00     0.167 HD
ATOM     47  C   UNL A   1      39.839  31.070  34.310  1.00  0.00     0.037 A 
ATOM     48  C   UNL A   1      42.066  27.422  28.809  1.00  0.00     0.037 A 
ATOM     49  C   UNL A   1      40.976  30.225  34.571  1.00  0.00     0.049 A 
ATOM     50  C   UNL A   1      42.744  27.326  30.145  1.00  0.00     0.074 A 
ATOM     51  C   UNL A   1      41.664  30.040  35.759  1.00  0.00     0.029 A 
ATOM     52  N   UNL A   1      41.591  29.418  33.626  1.00  0.00    -0.354 N 
ATOM     53  N   UNL A   1      42.441  27.921  31.272  1.00  0.00    -0.248 NA
ATOM     54  C   UNL A   1      43.910  26.435  30.229  1.00  0.00     0.031 C 
ATOM     55  C   UNL A   1      42.713  29.142  35.525  1.00  0.00     0.029 A 
ATOM     56  C   UNL A   1      42.656  28.743  34.201  1.00  0.00     0.049 A 
ATOM     57  H   UNL A   1      41.313  29.337  32.685  1.00  0.00     0.167 HD
ATOM     58  C   UNL A   1      43.369  27.468  32.201  1.00  0.00     0.074 A 
ATOM     59  C   UNL A   1      44.225  26.525  31.513  1.00  0.00     0.031 C 
ATOM     60  C   UNL A   1      43.505  27.811  33.505  1.00  0.00     0.037 A 
BRANCH  47  61
ATOM     61  C   UNL A   1      39.337  31.948  35.423  1.00  0.00     0.057 A 
ATOM     62  C   UNL A   1      39.782  33.269  35.557  1.00  0.00     0.134 A 
ATOM     63  C   UNL A   1      38.432  31.472  36.383  1.00  0.00     0.134 A 
ATOM     64  F   UNL A   1      40.658  33.786  34.683  1.00  0.00    -0.206 F 
ATOM     65  C   UNL A   1      39.339  34.086  36.599  1.00  0.00     0.040 A 
ATOM     66  C   UNL A   1      37.961  32.288  37.413  1.00  0.00     0.040 A 
ATOM     67  F   UNL A   1      37.961  30.218  36.309  1.00  0.00    -0.206 F 
ATOM     68  C   UNL A   1      38.419  33.599  37.526  1.00  0.00     0.006 A 
ENDBRANCH  47  61
BRANCH  48  69
ATOM     69  C   UNL A   1      42.547  26.609  27.664  1.00  0.00     0.057 A 
ATOM     70  C   UNL A   1      43.483  27.105  26.751  1.00  0.00     0.134 A 
ATOM     71  C   UNL A   1      42.081  25.302  27.470  1.00  0.00     0.134 A 
ATOM     72  F   UNL A   1      43.959  28.351  26.878  1.00  0.00    -0.206 F 
ATOM     73  C   UNL A   1      43.943  26.328  25.686  1.00  0.00     0.040 A 
ATOM     74  C   UNL A   1      42.550  24.507  26.424  1.00  0.00     0.040 A 
ATOM     75  F   UNL A   1      41.196  24.768  28.323  1.00  0.00    -0.206 F 
ATOM     76  C   UNL A   1      43.482  25.022  25.525  1.00  0.00     0.006 A 
ENDBRANCH  48  69
BRANCH  60  77
ATOM     77  C   UNL A   1      44.615  27.149  34.265  1.00  0.00     0.057 A 
ATOM     78  C   UNL A   1      45.875  27.752  34.365  1.00  0.00     0.134 A 
ATOM     79  C   UNL A   1      44.433  25.916  34.905  1.00  0.00     0.134 A 
ATOM     80  F   UNL A   1      46.116  28.929  33.771  1.00  0.00    -0.206 F 
ATOM     81  C   UNL A   1      46.912  27.155  35.083  1.00  0.00     0.040 A 
ATOM     82  C   UNL A   1      45.456  25.322  35.646  1.00  0.00     0.040 A 
ATOM     83  F   UNL A   1      43.244  25.295  34.861  1.00  0.00    -0.206 F 
ATOM     84  C   UNL A   1      46.701  25.941  35.733  1.00  0.00     0.006 A 
ENDBRANCH  60  77
ENDBRANCH  34  35
ENDBRANCH  27  29
ENDBRANCH  26  27
ENDBRANCH  25  26
ENDBRANCH   1  25
TORSDOF 15
ENDMDL
