MODEL 1
REMARK VINA RESULT:     -11.7      0.000      0.000
REMARK SMILES C/C(=C(/F)C(=O)OCCOC(=O)c1ccc(-c2c3nc(c(-c4c(F)cccc4F)c4ccc([nH]4)c(-c4c(F)cccc4F)c4nc(c(-c5c(F)cccc5F)c5ccc2[nH]5)C=C4)C=C3)cc1)c1cccc(-n2cnnn2)c1
REMARK SMILES IDX 8 1 7 2 5 3 6 4 3 5 1 6 2 7 4 8 67 9 68 10 77 11 69 12 71 13
REMARK SMILES IDX 70 14 72 15 73 16 76 17 74 18 75 19 9 20 10 21 11 22 12 23
REMARK SMILES IDX 13 24 14 25 66 26 15 27 65 28 16 29 17 30 18 31 59 32 19 33
REMARK SMILES IDX 64 34 58 35 60 36 20 37 63 38 57 39 56 40 21 42 47 43 30 44
REMARK SMILES IDX 46 45 31 46 34 47 45 48 61 49 32 50 33 51 44 53 62 54 35 55
REMARK SMILES IDX 22 56 23 57 28 58 24 59 25 60 27 61 29 62 26 63 48 64 49 65
REMARK SMILES IDX 54 66 50 67 51 68 53 69 55 70 52 71 36 72 37 73 42 74 38 75
REMARK SMILES IDX 39 76 41 77 43 78 40 79
REMARK H PARENT 60 41 34 52
REMARK Flexibility Score: inf
ROOT
ATOM      1  C   UNL A   1      42.721  20.501  25.808  1.00  0.00     0.275 C 
ENDROOT
BRANCH   1   2
ATOM      2  O   UNL A   1      41.380  20.945  25.507  1.00  0.00    -0.457 OA
BRANCH   2   3
ATOM      3  C   UNL A   1      40.505  20.915  26.544  1.00  0.00     0.367 C 
ATOM      4  O   UNL A   1      40.675  20.325  27.601  1.00  0.00    -0.243 OA
BRANCH   3   5
ATOM      5  C   UNL A   1      39.301  21.728  26.229  1.00  0.00     0.211 C 
ATOM      6  C   UNL A   1      38.098  19.868  25.001  1.00  0.00     0.048 C 
ATOM      7  C   UNL A   1      38.250  21.271  25.523  1.00  0.00    -0.000 C 
ATOM      8  F   UNL A   1      39.330  22.994  26.701  1.00  0.00    -0.199 F 
BRANCH   7   9
ATOM      9  C   UNL A   1      37.116  22.127  25.109  1.00  0.00    -0.017 A 
ATOM     10  C   UNL A   1      36.987  22.500  23.767  1.00  0.00     0.008 A 
ATOM     11  C   UNL A   1      36.035  22.320  25.987  1.00  0.00     0.037 A 
ATOM     12  C   UNL A   1      35.773  22.997  23.291  1.00  0.00     0.003 A 
ATOM     13  C   UNL A   1      34.804  22.783  25.502  1.00  0.00     0.069 A 
ATOM     14  C   UNL A   1      34.676  23.114  24.148  1.00  0.00     0.028 A 
BRANCH  13  15
ATOM     15  N   UNL A   1      33.672  22.841  26.351  1.00  0.00    -0.201 N 
ATOM     16  C   UNL A   1      32.479  23.496  26.173  1.00  0.00     0.252 A 
ATOM     17  N   UNL A   1      33.637  22.241  27.562  1.00  0.00    -0.040 NA
ATOM     18  N   UNL A   1      31.733  23.342  27.242  1.00  0.00    -0.117 NA
ATOM     19  N   UNL A   1      32.471  22.570  28.100  1.00  0.00    -0.024 NA
ENDBRANCH  13  15
ENDBRANCH   7   9
ENDBRANCH   3   5
ENDBRANCH   2   3
ENDBRANCH   1   2
BRANCH   1  20
ATOM     20  C   UNL A   1      43.737  21.585  25.446  1.00  0.00     0.275 C 
BRANCH  20  21
ATOM     21  O   UNL A   1      43.042  22.757  24.980  1.00  0.00    -0.458 OA
BRANCH  21  22
ATOM     22  C   UNL A   1      43.741  23.918  24.999  1.00  0.00     0.338 C 
ATOM     23  O   UNL A   1      44.740  24.178  24.350  1.00  0.00    -0.246 OA
BRANCH  22  24
ATOM     24  C   UNL A   1      43.095  24.899  25.905  1.00  0.00     0.060 A 
ATOM     25  C   UNL A   1      43.307  26.264  25.746  1.00  0.00     0.016 A 
ATOM     26  C   UNL A   1      42.371  24.452  27.012  1.00  0.00     0.016 A 
ATOM     27  C   UNL A   1      42.939  27.155  26.761  1.00  0.00     0.010 A 
ATOM     28  C   UNL A   1      41.880  25.370  27.956  1.00  0.00     0.010 A 
ATOM     29  C   UNL A   1      42.204  26.737  27.882  1.00  0.00    -0.014 A 
BRANCH  29  30
ATOM     30  C   UNL A   1      41.820  27.692  28.978  1.00  0.00     0.031 A 
ATOM     31  C   UNL A   1      42.667  27.815  30.230  1.00  0.00     0.074 A 
ATOM     32  C   UNL A   1      40.728  28.485  28.885  1.00  0.00     0.049 A 
ATOM     33  N   UNL A   1      42.364  28.348  31.390  1.00  0.00    -0.248 NA
ATOM     34  C   UNL A   1      44.023  27.247  30.179  1.00  0.00     0.031 C 
ATOM     35  C   UNL A   1      39.814  28.554  27.746  1.00  0.00     0.029 A 
ATOM     36  N   UNL A   1      40.209  29.405  29.769  1.00  0.00    -0.354 N 
ATOM     37  C   UNL A   1      43.444  28.088  32.228  1.00  0.00     0.074 A 
ATOM     38  C   UNL A   1      44.422  27.373  31.437  1.00  0.00     0.031 C 
ATOM     39  C   UNL A   1      38.908  29.518  27.958  1.00  0.00     0.029 A 
ATOM     40  C   UNL A   1      39.079  30.039  29.308  1.00  0.00     0.049 A 
ATOM     41  H   UNL A   1      40.611  29.593  30.649  1.00  0.00     0.167 HD
ATOM     42  C   UNL A   1      43.600  28.406  33.538  1.00  0.00     0.037 A 
ATOM     43  C   UNL A   1      38.223  30.889  29.908  1.00  0.00     0.037 A 
ATOM     44  C   UNL A   1      42.683  29.214  34.299  1.00  0.00     0.049 A 
ATOM     45  C   UNL A   1      38.412  31.234  31.355  1.00  0.00     0.074 A 
ATOM     46  C   UNL A   1      42.769  29.601  35.628  1.00  0.00     0.029 A 
ATOM     47  N   UNL A   1      41.533  29.797  33.792  1.00  0.00    -0.354 N 
ATOM     48  N   UNL A   1      39.363  30.860  32.174  1.00  0.00    -0.248 NA
ATOM     49  C   UNL A   1      37.381  32.081  31.975  1.00  0.00     0.031 C 
ATOM     50  C   UNL A   1      41.660  30.398  35.928  1.00  0.00     0.029 A 
ATOM     51  C   UNL A   1      40.902  30.537  34.778  1.00  0.00     0.049 A 
ATOM     52  H   UNL A   1      41.212  29.700  32.865  1.00  0.00     0.167 HD
ATOM     53  C   UNL A   1      39.041  31.415  33.405  1.00  0.00     0.074 A 
ATOM     54  C   UNL A   1      37.825  32.176  33.220  1.00  0.00     0.031 C 
ATOM     55  C   UNL A   1      39.690  31.288  34.588  1.00  0.00     0.037 A 
BRANCH  42  56
ATOM     56  C   UNL A   1      44.796  27.848  34.257  1.00  0.00     0.057 A 
ATOM     57  C   UNL A   1      45.992  28.560  34.395  1.00  0.00     0.134 A 
ATOM     58  C   UNL A   1      44.716  26.593  34.878  1.00  0.00     0.134 A 
ATOM     59  F   UNL A   1      46.138  29.761  33.816  1.00  0.00    -0.206 F 
ATOM     60  C   UNL A   1      47.073  28.038  35.110  1.00  0.00     0.040 A 
ATOM     61  C   UNL A   1      45.781  26.071  35.615  1.00  0.00     0.040 A 
ATOM     62  F   UNL A   1      43.594  25.862  34.794  1.00  0.00    -0.206 F 
ATOM     63  C   UNL A   1      46.965  26.793  35.730  1.00  0.00     0.006 A 
ENDBRANCH  42  56
BRANCH  43  64
ATOM     64  C   UNL A   1      37.053  31.409  29.154  1.00  0.00     0.057 A 
ATOM     65  C   UNL A   1      35.923  30.614  28.936  1.00  0.00     0.134 A 
ATOM     66  C   UNL A   1      37.029  32.718  28.656  1.00  0.00     0.134 A 
ATOM     67  F   UNL A   1      35.899  29.343  29.360  1.00  0.00    -0.206 F 
ATOM     68  C   UNL A   1      34.806  31.106  28.256  1.00  0.00     0.040 A 
ATOM     69  C   UNL A   1      35.909  33.231  28.003  1.00  0.00     0.040 A 
ATOM     70  F   UNL A   1      38.083  33.529  28.829  1.00  0.00    -0.206 F 
ATOM     71  C   UNL A   1      34.793  32.422  27.799  1.00  0.00     0.006 A 
ENDBRANCH  43  64
BRANCH  55  72
ATOM     72  C   UNL A   1      39.102  32.003  35.766  1.00  0.00     0.057 A 
ATOM     73  C   UNL A   1      39.420  33.337  36.047  1.00  0.00     0.134 A 
ATOM     74  C   UNL A   1      38.198  31.356  36.617  1.00  0.00     0.134 A 
ATOM     75  F   UNL A   1      40.291  34.005  35.275  1.00  0.00    -0.206 F 
ATOM     76  C   UNL A   1      38.874  33.998  37.148  1.00  0.00     0.040 A 
ATOM     77  C   UNL A   1      37.631  32.012  37.710  1.00  0.00     0.040 A 
ATOM     78  F   UNL A   1      37.851  30.078  36.399  1.00  0.00    -0.206 F 
ATOM     79  C   UNL A   1      37.973  33.336  37.981  1.00  0.00     0.006 A 
ENDBRANCH  55  72
ENDBRANCH  29  30
ENDBRANCH  22  24
ENDBRANCH  21  22
ENDBRANCH  20  21
ENDBRANCH   1  20
TORSDOF 13
ENDMDL
MODEL 2
REMARK VINA RESULT:     -11.5      5.358     10.205
REMARK SMILES C/C(=C(/F)C(=O)OCCOC(=O)c1ccc(-c2c3nc(c(-c4c(F)cccc4F)c4ccc([nH]4)c(-c4c(F)cccc4F)c4nc(c(-c5c(F)cccc5F)c5ccc2[nH]5)C=C4)C=C3)cc1)c1cccc(-n2cnnn2)c1
REMARK SMILES IDX 8 1 7 2 5 3 6 4 3 5 1 6 2 7 4 8 67 9 68 10 77 11 69 12 71 13
REMARK SMILES IDX 70 14 72 15 73 16 76 17 74 18 75 19 9 20 10 21 11 22 12 23
REMARK SMILES IDX 13 24 14 25 66 26 15 27 65 28 16 29 17 30 18 31 59 32 19 33
REMARK SMILES IDX 64 34 58 35 60 36 20 37 63 38 57 39 56 40 21 42 47 43 30 44
REMARK SMILES IDX 46 45 31 46 34 47 45 48 61 49 32 50 33 51 44 53 62 54 35 55
REMARK SMILES IDX 22 56 23 57 28 58 24 59 25 60 27 61 29 62 26 63 48 64 49 65
REMARK SMILES IDX 54 66 50 67 51 68 53 69 55 70 52 71 36 72 37 73 42 74 38 75
REMARK SMILES IDX 39 76 41 77 43 78 40 79
REMARK H PARENT 60 41 34 52
REMARK Flexibility Score: inf
ROOT
ATOM      1  C   UNL A   1      34.158  34.129  29.624  1.00  0.00     0.275 C 
ENDROOT
BRANCH   1   2
ATOM      2  O   UNL A   1      33.612  32.907  29.081  1.00  0.00    -0.457 OA
BRANCH   2   3
ATOM      3  C   UNL A   1      34.251  32.411  27.992  1.00  0.00     0.367 C 
ATOM      4  O   UNL A   1      35.357  32.753  27.599  1.00  0.00    -0.243 OA
BRANCH   3   5
ATOM      5  C   UNL A   1      33.425  31.361  27.340  1.00  0.00     0.211 C 
ATOM      6  C   UNL A   1      35.158  29.531  27.599  1.00  0.00     0.048 C 
ATOM      7  C   UNL A   1      33.839  30.094  27.143  1.00  0.00    -0.000 C 
ATOM      8  F   UNL A   1      32.201  31.767  26.939  1.00  0.00    -0.199 F 
BRANCH   7   9
ATOM      9  C   UNL A   1      33.058  29.094  26.383  1.00  0.00    -0.017 A 
ATOM     10  C   UNL A   1      32.765  27.857  26.967  1.00  0.00     0.008 A 
ATOM     11  C   UNL A   1      32.380  29.485  25.215  1.00  0.00     0.037 A 
ATOM     12  C   UNL A   1      31.760  27.050  26.433  1.00  0.00     0.003 A 
ATOM     13  C   UNL A   1      31.345  28.693  24.699  1.00  0.00     0.069 A 
ATOM     14  C   UNL A   1      31.033  27.476  25.318  1.00  0.00     0.028 A 
BRANCH  13  15
ATOM     15  N   UNL A   1      30.562  29.149  23.611  1.00  0.00    -0.201 N 
ATOM     16  C   UNL A   1      30.549  28.726  22.305  1.00  0.00     0.252 A 
ATOM     17  N   UNL A   1      29.685  30.172  23.723  1.00  0.00    -0.040 NA
ATOM     18  N   UNL A   1      29.720  29.473  21.613  1.00  0.00    -0.117 NA
ATOM     19  N   UNL A   1      29.200  30.373  22.505  1.00  0.00    -0.024 NA
ENDBRANCH  13  15
ENDBRANCH   7   9
ENDBRANCH   3   5
ENDBRANCH   2   3
ENDBRANCH   1   2
BRANCH   1  20
ATOM     20  C   UNL A   1      34.408  33.982  31.125  1.00  0.00     0.275 C 
BRANCH  20  21
ATOM     21  O   UNL A   1      34.531  32.586  31.457  1.00  0.00    -0.458 OA
BRANCH  21  22
ATOM     22  C   UNL A   1      35.488  32.264  32.361  1.00  0.00     0.338 C 
ATOM     23  O   UNL A   1      35.482  32.525  33.553  1.00  0.00    -0.246 OA
BRANCH  22  24
ATOM     24  C   UNL A   1      36.571  31.482  31.716  1.00  0.00     0.060 A 
ATOM     25  C   UNL A   1      37.282  30.524  32.431  1.00  0.00     0.016 A 
ATOM     26  C   UNL A   1      36.976  31.795  30.417  1.00  0.00     0.016 A 
ATOM     27  C   UNL A   1      38.475  30.005  31.915  1.00  0.00     0.010 A 
ATOM     28  C   UNL A   1      38.095  31.161  29.852  1.00  0.00     0.010 A 
ATOM     29  C   UNL A   1      38.904  30.294  30.610  1.00  0.00    -0.014 A 
BRANCH  29  30
ATOM     30  C   UNL A   1      40.192  29.745  30.060  1.00  0.00     0.031 A 
ATOM     31  C   UNL A   1      41.453  30.587  30.055  1.00  0.00     0.074 A 
ATOM     32  C   UNL A   1      40.281  28.488  29.571  1.00  0.00     0.049 A 
ATOM     33  N   UNL A   1      42.565  30.415  29.380  1.00  0.00    -0.248 NA
ATOM     34  C   UNL A   1      41.458  31.789  30.903  1.00  0.00     0.031 C 
ATOM     35  C   UNL A   1      39.199  27.505  29.531  1.00  0.00     0.029 A 
ATOM     36  N   UNL A   1      41.349  27.811  29.023  1.00  0.00    -0.354 N 
ATOM     37  C   UNL A   1      43.351  31.533  29.641  1.00  0.00     0.074 A 
ATOM     38  C   UNL A   1      42.602  32.365  30.558  1.00  0.00     0.031 C 
ATOM     39  C   UNL A   1      39.673  26.336  29.076  1.00  0.00     0.029 A 
ATOM     40  C   UNL A   1      41.054  26.521  28.650  1.00  0.00     0.049 A 
ATOM     41  H   UNL A   1      42.241  28.214  28.910  1.00  0.00     0.167 HD
ATOM     42  C   UNL A   1      44.579  31.842  29.154  1.00  0.00     0.037 A 
ATOM     43  C   UNL A   1      41.772  25.598  27.979  1.00  0.00     0.037 A 
ATOM     44  C   UNL A   1      45.377  30.969  28.332  1.00  0.00     0.049 A 
ATOM     45  C   UNL A   1      43.128  25.954  27.450  1.00  0.00     0.074 A 
ATOM     46  C   UNL A   1      46.640  31.193  27.806  1.00  0.00     0.029 A 
ATOM     47  N   UNL A   1      45.012  29.688  27.952  1.00  0.00    -0.354 N 
ATOM     48  N   UNL A   1      43.798  27.071  27.583  1.00  0.00    -0.248 NA
ATOM     49  C   UNL A   1      43.809  24.937  26.635  1.00  0.00     0.031 C 
ATOM     50  C   UNL A   1      47.028  30.056  27.089  1.00  0.00     0.029 A 
ATOM     51  C   UNL A   1      46.022  29.111  27.199  1.00  0.00     0.049 A 
ATOM     52  H   UNL A   1      44.160  29.251  28.184  1.00  0.00     0.167 HD
ATOM     53  C   UNL A   1      44.972  26.897  26.864  1.00  0.00     0.074 A 
ATOM     54  C   UNL A   1      44.938  25.556  26.320  1.00  0.00     0.031 C 
ATOM     55  C   UNL A   1      45.980  27.779  26.658  1.00  0.00     0.037 A 
BRANCH  42  56
ATOM     56  C   UNL A   1      45.133  33.205  29.461  1.00  0.00     0.057 A 
ATOM     57  C   UNL A   1      44.871  34.323  28.661  1.00  0.00     0.134 A 
ATOM     58  C   UNL A   1      45.894  33.406  30.622  1.00  0.00     0.134 A 
ATOM     59  F   UNL A   1      44.159  34.197  27.531  1.00  0.00    -0.206 F 
ATOM     60  C   UNL A   1      45.359  35.588  28.995  1.00  0.00     0.040 A 
ATOM     61  C   UNL A   1      46.367  34.670  30.979  1.00  0.00     0.040 A 
ATOM     62  F   UNL A   1      46.173  32.379  31.438  1.00  0.00    -0.206 F 
ATOM     63  C   UNL A   1      46.102  35.766  30.162  1.00  0.00     0.006 A 
ENDBRANCH  42  56
BRANCH  43  64
ATOM     64  C   UNL A   1      41.176  24.267  27.696  1.00  0.00     0.057 A 
ATOM     65  C   UNL A   1      40.170  24.114  26.736  1.00  0.00     0.134 A 
ATOM     66  C   UNL A   1      41.615  23.114  28.362  1.00  0.00     0.134 A 
ATOM     67  F   UNL A   1      39.686  25.183  26.089  1.00  0.00    -0.206 F 
ATOM     68  C   UNL A   1      39.627  22.861  26.442  1.00  0.00     0.040 A 
ATOM     69  C   UNL A   1      41.104  21.854  28.056  1.00  0.00     0.040 A 
ATOM     70  F   UNL A   1      42.574  23.195  29.296  1.00  0.00    -0.206 F 
ATOM     71  C   UNL A   1      40.104  21.725  27.094  1.00  0.00     0.006 A 
ENDBRANCH  43  64
BRANCH  55  72
ATOM     72  C   UNL A   1      47.132  27.312  25.823  1.00  0.00     0.057 A 
ATOM     73  C   UNL A   1      48.206  26.610  26.383  1.00  0.00     0.134 A 
ATOM     74  C   UNL A   1      47.161  27.553  24.444  1.00  0.00     0.134 A 
ATOM     75  F   UNL A   1      48.242  26.362  27.701  1.00  0.00    -0.206 F 
ATOM     76  C   UNL A   1      49.280  26.180  25.603  1.00  0.00     0.040 A 
ATOM     77  C   UNL A   1      48.221  27.112  23.650  1.00  0.00     0.040 A 
ATOM     78  F   UNL A   1      46.160  28.217  23.847  1.00  0.00    -0.206 F 
ATOM     79  C   UNL A   1      49.287  26.428  24.231  1.00  0.00     0.006 A 
ENDBRANCH  55  72
ENDBRANCH  29  30
ENDBRANCH  22  24
ENDBRANCH  21  22
ENDBRANCH  20  21
ENDBRANCH   1  20
TORSDOF 13
ENDMDL
MODEL 3
REMARK VINA RESULT:     -11.4      4.659      9.270
REMARK SMILES C/C(=C(/F)C(=O)OCCOC(=O)c1ccc(-c2c3nc(c(-c4c(F)cccc4F)c4ccc([nH]4)c(-c4c(F)cccc4F)c4nc(c(-c5c(F)cccc5F)c5ccc2[nH]5)C=C4)C=C3)cc1)c1cccc(-n2cnnn2)c1
REMARK SMILES IDX 8 1 7 2 5 3 6 4 3 5 1 6 2 7 4 8 67 9 68 10 77 11 69 12 71 13
REMARK SMILES IDX 70 14 72 15 73 16 76 17 74 18 75 19 9 20 10 21 11 22 12 23
REMARK SMILES IDX 13 24 14 25 66 26 15 27 65 28 16 29 17 30 18 31 59 32 19 33
REMARK SMILES IDX 64 34 58 35 60 36 20 37 63 38 57 39 56 40 21 42 47 43 30 44
REMARK SMILES IDX 46 45 31 46 34 47 45 48 61 49 32 50 33 51 44 53 62 54 35 55
REMARK SMILES IDX 22 56 23 57 28 58 24 59 25 60 27 61 29 62 26 63 48 64 49 65
REMARK SMILES IDX 54 66 50 67 51 68 53 69 55 70 52 71 36 72 37 73 42 74 38 75
REMARK SMILES IDX 39 76 41 77 43 78 40 79
REMARK H PARENT 60 41 34 52
REMARK Flexibility Score: inf
ROOT
ATOM      1  C   UNL A   1      34.066  34.358  29.231  1.00  0.00     0.275 C 
ENDROOT
BRANCH   1   2
ATOM      2  O   UNL A   1      33.486  33.413  28.305  1.00  0.00    -0.457 OA
BRANCH   2   3
ATOM      3  C   UNL A   1      34.346  32.511  27.770  1.00  0.00     0.367 C 
ATOM      4  O   UNL A   1      35.550  32.673  27.628  1.00  0.00    -0.243 OA
BRANCH   3   5
ATOM      5  C   UNL A   1      33.624  31.267  27.395  1.00  0.00     0.211 C 
ATOM      6  C   UNL A   1      35.530  29.716  28.013  1.00  0.00     0.048 C 
ATOM      7  C   UNL A   1      34.160  30.034  27.477  1.00  0.00    -0.000 C 
ATOM      8  F   UNL A   1      32.364  31.453  26.945  1.00  0.00    -0.199 F 
BRANCH   7   9
ATOM      9  C   UNL A   1      33.478  28.818  26.983  1.00  0.00    -0.017 A 
ATOM     10  C   UNL A   1      32.265  28.424  27.560  1.00  0.00     0.008 A 
ATOM     11  C   UNL A   1      33.889  28.235  25.771  1.00  0.00     0.037 A 
ATOM     12  C   UNL A   1      31.441  27.510  26.902  1.00  0.00     0.003 A 
ATOM     13  C   UNL A   1      33.045  27.347  25.091  1.00  0.00     0.069 A 
ATOM     14  C   UNL A   1      31.815  26.992  25.659  1.00  0.00     0.028 A 
BRANCH  13  15
ATOM     15  N   UNL A   1      33.388  26.871  23.803  1.00  0.00    -0.201 N 
ATOM     16  C   UNL A   1      33.508  27.557  22.620  1.00  0.00     0.252 A 
ATOM     17  N   UNL A   1      33.620  25.563  23.547  1.00  0.00    -0.040 NA
ATOM     18  N   UNL A   1      33.774  26.713  21.651  1.00  0.00    -0.117 NA
ATOM     19  N   UNL A   1      33.829  25.478  22.240  1.00  0.00    -0.024 NA
ENDBRANCH  13  15
ENDBRANCH   7   9
ENDBRANCH   3   5
ENDBRANCH   2   3
ENDBRANCH   1   2
BRANCH   1  20
ATOM     20  C   UNL A   1      33.113  35.529  29.468  1.00  0.00     0.275 C 
BRANCH  20  21
ATOM     21  O   UNL A   1      32.271  35.241  30.599  1.00  0.00    -0.458 OA
BRANCH  21  22
ATOM     22  C   UNL A   1      32.595  35.856  31.763  1.00  0.00     0.338 C 
ATOM     23  O   UNL A   1      32.044  36.828  32.252  1.00  0.00    -0.246 OA
BRANCH  22  24
ATOM     24  C   UNL A   1      33.718  35.151  32.428  1.00  0.00     0.060 A 
ATOM     25  C   UNL A   1      34.976  35.735  32.516  1.00  0.00     0.016 A 
ATOM     26  C   UNL A   1      33.553  33.832  32.860  1.00  0.00     0.016 A 
ATOM     27  C   UNL A   1      36.086  34.963  32.876  1.00  0.00     0.010 A 
ATOM     28  C   UNL A   1      34.650  33.108  33.356  1.00  0.00     0.010 A 
ATOM     29  C   UNL A   1      35.952  33.638  33.320  1.00  0.00    -0.014 A 
BRANCH  29  30
ATOM     30  C   UNL A   1      37.147  32.805  33.696  1.00  0.00     0.031 A 
ATOM     31  C   UNL A   1      37.800  32.956  35.055  1.00  0.00     0.074 A 
ATOM     32  C   UNL A   1      37.668  31.884  32.854  1.00  0.00     0.049 A 
ATOM     33  N   UNL A   1      38.983  32.557  35.459  1.00  0.00    -0.248 NA
ATOM     34  C   UNL A   1      37.034  33.669  36.090  1.00  0.00     0.031 C 
ATOM     35  C   UNL A   1      37.157  31.551  31.525  1.00  0.00     0.029 A 
ATOM     36  N   UNL A   1      38.746  31.039  33.004  1.00  0.00    -0.354 N 
ATOM     37  C   UNL A   1      39.140  33.056  36.749  1.00  0.00     0.074 A 
ATOM     38  C   UNL A   1      37.921  33.765  37.072  1.00  0.00     0.031 C 
ATOM     39  C   UNL A   1      37.857  30.524  31.022  1.00  0.00     0.029 A 
ATOM     40  C   UNL A   1      38.962  30.219  31.922  1.00  0.00     0.049 A 
ATOM     41  H   UNL A   1      39.310  31.023  33.812  1.00  0.00     0.167 HD
ATOM     42  C   UNL A   1      40.205  32.943  37.581  1.00  0.00     0.037 A 
ATOM     43  C   UNL A   1      39.963  29.365  31.633  1.00  0.00     0.037 A 
ATOM     44  C   UNL A   1      41.374  32.145  37.312  1.00  0.00     0.049 A 
ATOM     45  C   UNL A   1      41.131  29.248  32.565  1.00  0.00     0.074 A 
ATOM     46  C   UNL A   1      42.495  31.958  38.106  1.00  0.00     0.029 A 
ATOM     47  N   UNL A   1      41.556  31.366  36.181  1.00  0.00    -0.354 N 
ATOM     48  N   UNL A   1      41.331  29.841  33.715  1.00  0.00    -0.248 NA
ATOM     49  C   UNL A   1      42.238  28.379  32.135  1.00  0.00     0.031 C 
ATOM     50  C   UNL A   1      43.363  31.084  37.444  1.00  0.00     0.029 A 
ATOM     51  C   UNL A   1      42.768  30.699  36.255  1.00  0.00     0.049 A 
ATOM     52  H   UNL A   1      40.916  31.296  35.435  1.00  0.00     0.167 HD
ATOM     53  C   UNL A   1      42.584  29.427  34.142  1.00  0.00     0.074 A 
ATOM     54  C   UNL A   1      43.089  28.509  33.143  1.00  0.00     0.031 C 
ATOM     55  C   UNL A   1      43.265  29.792  35.256  1.00  0.00     0.037 A 
BRANCH  42  56
ATOM     56  C   UNL A   1      40.183  33.732  38.860  1.00  0.00     0.057 A 
ATOM     57  C   UNL A   1      39.569  33.261  40.026  1.00  0.00     0.134 A 
ATOM     58  C   UNL A   1      40.849  34.964  38.934  1.00  0.00     0.134 A 
ATOM     59  F   UNL A   1      38.905  32.096  40.020  1.00  0.00    -0.206 F 
ATOM     60  C   UNL A   1      39.605  33.993  41.215  1.00  0.00     0.040 A 
ATOM     61  C   UNL A   1      40.912  35.693  40.122  1.00  0.00     0.040 A 
ATOM     62  F   UNL A   1      41.468  35.469  37.855  1.00  0.00    -0.206 F 
ATOM     63  C   UNL A   1      40.285  35.209  41.268  1.00  0.00     0.006 A 
ENDBRANCH  42  56
BRANCH  43  64
ATOM     64  C   UNL A   1      39.940  28.611  30.352  1.00  0.00     0.057 A 
ATOM     65  C   UNL A   1      39.274  27.386  30.245  1.00  0.00     0.134 A 
ATOM     66  C   UNL A   1      40.564  29.111  29.200  1.00  0.00     0.134 A 
ATOM     67  F   UNL A   1      38.687  26.841  31.320  1.00  0.00    -0.206 F 
ATOM     68  C   UNL A   1      39.222  26.687  29.037  1.00  0.00     0.040 A 
ATOM     69  C   UNL A   1      40.492  28.440  27.981  1.00  0.00     0.040 A 
ATOM     70  F   UNL A   1      41.222  30.279  29.239  1.00  0.00    -0.206 F 
ATOM     71  C   UNL A   1      39.821  27.222  27.897  1.00  0.00     0.006 A 
ENDBRANCH  43  64
BRANCH  55  72
ATOM     72  C   UNL A   1      44.618  29.182  35.456  1.00  0.00     0.057 A 
ATOM     73  C   UNL A   1      45.781  29.815  35.002  1.00  0.00     0.134 A 
ATOM     74  C   UNL A   1      44.761  27.959  36.122  1.00  0.00     0.134 A 
ATOM     75  F   UNL A   1      45.707  30.982  34.343  1.00  0.00    -0.206 F 
ATOM     76  C   UNL A   1      47.040  29.242  35.186  1.00  0.00     0.040 A 
ATOM     77  C   UNL A   1      46.016  27.385  36.328  1.00  0.00     0.040 A 
ATOM     78  F   UNL A   1      43.684  27.305  36.584  1.00  0.00    -0.206 F 
ATOM     79  C   UNL A   1      47.160  28.025  35.855  1.00  0.00     0.006 A 
ENDBRANCH  55  72
ENDBRANCH  29  30
ENDBRANCH  22  24
ENDBRANCH  21  22
ENDBRANCH  20  21
ENDBRANCH   1  20
TORSDOF 13
ENDMDL
