MODEL 1
REMARK VINA RESULT:     -10.3      0.000      0.000
REMARK SMILES CC(C)C[C@H]([NH2+]C[C@@](C)(O)C#Cc1ccccc1)C(=O)OCCOC(=O)c1ccc(-c2c3nc(c(-c4c(F)cccc4F)c4ccc([nH]4)c(-c4c(F)cccc4F)c4nc(c(-c5c(F)cccc5F)c5ccc2[nH]5)C=C4)C=C3)cc1
REMARK SMILES IDX 21 1 19 2 20 3 5 4 4 5 2 6 1 7 3 8 6 9 7 12 8 13 9 14 10 15
REMARK SMILES IDX 11 17 12 18 13 19 14 20 18 21 15 22 17 23 16 24 22 25 23 26
REMARK SMILES IDX 24 27 25 28 26 29 27 30 28 31 80 32 29 33 79 34 30 35 31 36
REMARK SMILES IDX 32 37 73 38 33 39 78 40 72 41 74 42 34 43 77 44 71 45 70 46
REMARK SMILES IDX 35 48 61 49 44 50 60 51 45 52 48 53 59 54 75 55 46 56 47 57
REMARK SMILES IDX 58 59 76 60 49 61 36 62 37 63 42 64 38 65 39 66 41 67 43 68
REMARK SMILES IDX 40 69 62 70 63 71 68 72 64 73 65 74 67 75 69 76 66 77 50 78
REMARK SMILES IDX 51 79 56 80 52 81 53 82 55 83 57 84 54 85
REMARK H PARENT 6 10 6 11 10 16 74 47 48 58
REMARK Flexibility Score: inf
ROOT
ATOM      1  O   UNL A   1      34.693  23.011  24.607  1.00  0.00    -0.458 OA
ENDROOT
BRANCH   1   2
ATOM      2  C   UNL A   1      33.484  22.641  24.101  1.00  0.00     0.364 C 
ATOM      3  O   UNL A   1      33.040  21.497  24.145  1.00  0.00    -0.245 OA
BRANCH   2   4
ATOM      4  C   UNL A   1      32.719  23.790  23.432  1.00  0.00     0.293 C 
BRANCH   4   5
ATOM      5  C   UNL A   1      33.421  25.160  23.549  1.00  0.00     0.080 C 
BRANCH   5   6
ATOM      6  C   UNL A   1      32.846  26.366  22.767  1.00  0.00    -0.011 C 
ATOM      7  C   UNL A   1      33.669  27.655  22.874  1.00  0.00     0.007 C 
ATOM      8  C   UNL A   1      32.766  26.001  21.280  1.00  0.00     0.007 C 
ENDBRANCH   5   6
ENDBRANCH   4   5
BRANCH   4   9
ATOM      9  N   UNL A   1      31.311  23.800  23.893  1.00  0.00    -0.331 N 
ATOM     10  H   UNL A   1      30.933  22.859  23.775  1.00  0.00     0.347 HD
ATOM     11  H   UNL A   1      30.832  24.503  23.330  1.00  0.00     0.347 HD
BRANCH   9  12
ATOM     12  C   UNL A   1      31.118  24.196  25.293  1.00  0.00     0.310 C 
BRANCH  12  13
ATOM     13  C   UNL A   1      30.302  25.510  25.552  1.00  0.00     0.171 C 
ATOM     14  C   UNL A   1      29.531  25.957  24.304  1.00  0.00     0.063 C 
BRANCH  13  15
ATOM     15  O   UNL A   1      29.333  25.233  26.576  1.00  0.00    -0.372 OA
ATOM     16  H   UNL A   1      29.589  25.686  27.395  1.00  0.00     0.212 HD
ENDBRANCH  13  15
BRANCH  13  17
ATOM     17  C   UNL A   1      31.148  26.625  26.035  1.00  0.00    -0.057 C 
ATOM     18  C   UNL A   1      31.869  27.528  26.363  1.00  0.00    -0.064 C 
BRANCH  18  19
ATOM     19  C   UNL A   1      32.793  28.571  26.719  1.00  0.00     0.025 A 
ATOM     20  C   UNL A   1      34.155  28.299  26.863  1.00  0.00     0.017 A 
ATOM     21  C   UNL A   1      32.328  29.862  26.976  1.00  0.00     0.017 A 
ATOM     22  C   UNL A   1      35.032  29.306  27.281  1.00  0.00     0.001 A 
ATOM     23  C   UNL A   1      33.200  30.869  27.394  1.00  0.00     0.001 A 
ATOM     24  C   UNL A   1      34.552  30.589  27.554  1.00  0.00     0.000 A 
ENDBRANCH  18  19
ENDBRANCH  13  17
ENDBRANCH  12  13
ENDBRANCH   9  12
ENDBRANCH   4   9
ENDBRANCH   2   4
ENDBRANCH   1   2
BRANCH   1  25
ATOM     25  C   UNL A   1      35.834  22.486  23.905  1.00  0.00     0.274 C 
BRANCH  25  26
ATOM     26  C   UNL A   1      36.459  21.259  24.589  1.00  0.00     0.275 C 
BRANCH  26  27
ATOM     27  O   UNL A   1      37.082  21.569  25.851  1.00  0.00    -0.458 OA
BRANCH  27  28
ATOM     28  C   UNL A   1      38.412  21.317  25.905  1.00  0.00     0.338 C 
ATOM     29  O   UNL A   1      38.982  20.339  25.457  1.00  0.00    -0.246 OA
BRANCH  28  30
ATOM     30  C   UNL A   1      39.140  22.485  26.424  1.00  0.00     0.060 A 
ATOM     31  C   UNL A   1      40.250  22.342  27.251  1.00  0.00     0.016 A 
ATOM     32  C   UNL A   1      38.698  23.758  26.044  1.00  0.00     0.016 A 
ATOM     33  C   UNL A   1      40.886  23.488  27.727  1.00  0.00     0.010 A 
ATOM     34  C   UNL A   1      39.319  24.901  26.529  1.00  0.00     0.010 A 
ATOM     35  C   UNL A   1      40.418  24.771  27.378  1.00  0.00    -0.014 A 
BRANCH  35  36
ATOM     36  C   UNL A   1      41.167  25.970  27.810  1.00  0.00     0.031 A 
ATOM     37  C   UNL A   1      42.586  26.201  27.395  1.00  0.00     0.074 A 
ATOM     38  C   UNL A   1      40.527  26.856  28.592  1.00  0.00     0.049 A 
ATOM     39  N   UNL A   1      43.311  27.283  27.522  1.00  0.00    -0.248 NA
ATOM     40  C   UNL A   1      43.290  25.071  26.773  1.00  0.00     0.031 C 
ATOM     41  C   UNL A   1      39.175  26.678  29.124  1.00  0.00     0.029 A 
ATOM     42  N   UNL A   1      40.911  28.089  29.045  1.00  0.00    -0.354 N 
ATOM     43  C   UNL A   1      44.548  26.977  26.972  1.00  0.00     0.074 A 
ATOM     44  C   UNL A   1      44.497  25.584  26.578  1.00  0.00     0.031 C 
ATOM     45  C   UNL A   1      38.810  27.797  29.766  1.00  0.00     0.029 A 
ATOM     46  C   UNL A   1      39.912  28.751  29.714  1.00  0.00     0.049 A 
ATOM     47  H   UNL A   1      41.810  28.463  28.905  1.00  0.00     0.167 HD
ATOM     48  C   UNL A   1      45.616  27.794  26.794  1.00  0.00     0.037 A 
ATOM     49  C   UNL A   1      39.884  30.002  30.206  1.00  0.00     0.037 A 
ATOM     50  C   UNL A   1      45.657  29.168  27.236  1.00  0.00     0.049 A 
ATOM     51  C   UNL A   1      41.089  30.879  30.020  1.00  0.00     0.074 A 
ATOM     52  C   UNL A   1      46.664  30.101  27.071  1.00  0.00     0.029 A 
ATOM     53  N   UNL A   1      44.649  29.795  27.959  1.00  0.00    -0.354 N 
ATOM     54  N   UNL A   1      42.212  30.625  29.393  1.00  0.00    -0.248 NA
ATOM     55  C   UNL A   1      41.013  32.223  30.603  1.00  0.00     0.031 C 
ATOM     56  C   UNL A   1      46.297  31.268  27.754  1.00  0.00     0.029 A 
ATOM     57  C   UNL A   1      45.027  31.090  28.280  1.00  0.00     0.049 A 
ATOM     58  H   UNL A   1      43.791  29.380  28.207  1.00  0.00     0.167 HD
ATOM     59  C   UNL A   1      42.969  31.784  29.483  1.00  0.00     0.074 A 
ATOM     60  C   UNL A   1      42.161  32.749  30.203  1.00  0.00     0.031 C 
ATOM     61  C   UNL A   1      44.218  32.032  29.014  1.00  0.00     0.037 A 
BRANCH  48  62
ATOM     62  C   UNL A   1      46.823  27.214  26.109  1.00  0.00     0.057 A 
ATOM     63  C   UNL A   1      46.987  27.321  24.722  1.00  0.00     0.134 A 
ATOM     64  C   UNL A   1      47.825  26.538  26.821  1.00  0.00     0.134 A 
ATOM     65  F   UNL A   1      46.062  27.939  23.972  1.00  0.00    -0.206 F 
ATOM     66  C   UNL A   1      48.106  26.796  24.073  1.00  0.00     0.040 A 
ATOM     67  C   UNL A   1      48.966  26.039  26.188  1.00  0.00     0.040 A 
ATOM     68  F   UNL A   1      47.736  26.394  28.152  1.00  0.00    -0.206 F 
ATOM     69  C   UNL A   1      49.107  26.165  24.808  1.00  0.00     0.006 A 
ENDBRANCH  48  62
BRANCH  49  70
ATOM     70  C   UNL A   1      38.658  30.510  30.869  1.00  0.00     0.057 A 
ATOM     71  C   UNL A   1      37.630  31.116  30.138  1.00  0.00     0.134 A 
ATOM     72  C   UNL A   1      38.485  30.398  32.254  1.00  0.00     0.134 A 
ATOM     73  F   UNL A   1      37.741  31.266  28.809  1.00  0.00    -0.206 F 
ATOM     74  C   UNL A   1      36.477  31.596  30.758  1.00  0.00     0.040 A 
ATOM     75  C   UNL A   1      37.324  30.845  32.883  1.00  0.00     0.040 A 
ATOM     76  F   UNL A   1      39.433  29.820  33.008  1.00  0.00    -0.206 F 
ATOM     77  C   UNL A   1      36.317  31.450  32.134  1.00  0.00     0.006 A 
ENDBRANCH  49  70
BRANCH  61  78
ATOM     78  C   UNL A   1      44.764  33.414  29.245  1.00  0.00     0.057 A 
ATOM     79  C   UNL A   1      45.566  33.685  30.362  1.00  0.00     0.134 A 
ATOM     80  C   UNL A   1      44.509  34.474  28.364  1.00  0.00     0.134 A 
ATOM     81  F   UNL A   1      45.842  32.722  31.254  1.00  0.00    -0.206 F 
ATOM     82  C   UNL A   1      46.101  34.954  30.587  1.00  0.00     0.040 A 
ATOM     83  C   UNL A   1      45.070  35.737  28.558  1.00  0.00     0.040 A 
ATOM     84  F   UNL A   1      43.760  34.282  27.267  1.00  0.00    -0.206 F 
ATOM     85  C   UNL A   1      45.866  35.980  29.676  1.00  0.00     0.006 A 
ENDBRANCH  61  78
ENDBRANCH  35  36
ENDBRANCH  28  30
ENDBRANCH  27  28
ENDBRANCH  26  27
ENDBRANCH  25  26
ENDBRANCH   1  25
TORSDOF 19
ENDMDL
MODEL 2
REMARK VINA RESULT:     -10.2      4.150      7.735
REMARK SMILES CC(C)C[C@H]([NH2+]C[C@@](C)(O)C#Cc1ccccc1)C(=O)OCCOC(=O)c1ccc(-c2c3nc(c(-c4c(F)cccc4F)c4ccc([nH]4)c(-c4c(F)cccc4F)c4nc(c(-c5c(F)cccc5F)c5ccc2[nH]5)C=C4)C=C3)cc1
REMARK SMILES IDX 21 1 19 2 20 3 5 4 4 5 2 6 1 7 3 8 6 9 7 12 8 13 9 14 10 15
REMARK SMILES IDX 11 17 12 18 13 19 14 20 18 21 15 22 17 23 16 24 22 25 23 26
REMARK SMILES IDX 24 27 25 28 26 29 27 30 28 31 80 32 29 33 79 34 30 35 31 36
REMARK SMILES IDX 32 37 73 38 33 39 78 40 72 41 74 42 34 43 77 44 71 45 70 46
REMARK SMILES IDX 35 48 61 49 44 50 60 51 45 52 48 53 59 54 75 55 46 56 47 57
REMARK SMILES IDX 58 59 76 60 49 61 36 62 37 63 42 64 38 65 39 66 41 67 43 68
REMARK SMILES IDX 40 69 62 70 63 71 68 72 64 73 65 74 67 75 69 76 66 77 50 78
REMARK SMILES IDX 51 79 56 80 52 81 53 82 55 83 57 84 54 85
REMARK H PARENT 6 10 6 11 10 16 74 47 48 58
REMARK Flexibility Score: inf
ROOT
ATOM      1  O   UNL A   1      36.839  23.347  24.947  1.00  0.00    -0.458 OA
ENDROOT
BRANCH   1   2
ATOM      2  C   UNL A   1      36.123  23.168  23.802  1.00  0.00     0.364 C 
ATOM      3  O   UNL A   1      36.625  22.947  22.704  1.00  0.00    -0.245 OA
BRANCH   2   4
ATOM      4  C   UNL A   1      34.607  23.295  23.997  1.00  0.00     0.293 C 
BRANCH   4   5
ATOM      5  C   UNL A   1      33.878  23.968  22.815  1.00  0.00     0.080 C 
BRANCH   5   6
ATOM      6  C   UNL A   1      33.090  25.275  23.066  1.00  0.00    -0.011 C 
ATOM      7  C   UNL A   1      33.691  26.526  22.414  1.00  0.00     0.007 C 
ATOM      8  C   UNL A   1      31.670  25.114  22.512  1.00  0.00     0.007 C 
ENDBRANCH   5   6
ENDBRANCH   4   5
BRANCH   4   9
ATOM      9  N   UNL A   1      34.314  23.916  25.311  1.00  0.00    -0.331 N 
ATOM     10  H   UNL A   1      33.824  24.795  25.143  1.00  0.00     0.347 HD
ATOM     11  H   UNL A   1      35.214  24.035  25.776  1.00  0.00     0.347 HD
BRANCH   9  12
ATOM     12  C   UNL A   1      33.491  23.102  26.212  1.00  0.00     0.310 C 
BRANCH  12  13
ATOM     13  C   UNL A   1      32.007  23.563  26.429  1.00  0.00     0.171 C 
ATOM     14  C   UNL A   1      31.043  22.842  25.480  1.00  0.00     0.063 C 
BRANCH  13  15
ATOM     15  O   UNL A   1      31.627  23.213  27.770  1.00  0.00    -0.372 OA
ATOM     16  H   UNL A   1      32.277  22.593  28.138  1.00  0.00     0.212 HD
ENDBRANCH  13  15
BRANCH  13  17
ATOM     17  C   UNL A   1      31.835  25.027  26.289  1.00  0.00    -0.057 C 
ATOM     18  C   UNL A   1      31.764  26.223  26.200  1.00  0.00    -0.064 C 
BRANCH  18  19
ATOM     19  C   UNL A   1      31.716  27.660  26.165  1.00  0.00     0.025 A 
ATOM     20  C   UNL A   1      31.316  28.332  25.009  1.00  0.00     0.017 A 
ATOM     21  C   UNL A   1      32.121  28.402  27.276  1.00  0.00     0.017 A 
ATOM     22  C   UNL A   1      31.344  29.731  24.964  1.00  0.00     0.001 A 
ATOM     23  C   UNL A   1      32.151  29.797  27.234  1.00  0.00     0.001 A 
ATOM     24  C   UNL A   1      31.769  30.462  26.074  1.00  0.00     0.000 A 
ENDBRANCH  18  19
ENDBRANCH  13  17
ENDBRANCH  12  13
ENDBRANCH   9  12
ENDBRANCH   4   9
ENDBRANCH   2   4
ENDBRANCH   1   2
BRANCH   1  25
ATOM     25  C   UNL A   1      37.560  22.189  25.403  1.00  0.00     0.274 C 
BRANCH  25  26
ATOM     26  C   UNL A   1      38.877  22.533  26.118  1.00  0.00     0.275 C 
BRANCH  26  27
ATOM     27  O   UNL A   1      39.066  23.949  26.306  1.00  0.00    -0.458 OA
BRANCH  27  28
ATOM     28  C   UNL A   1      40.300  24.305  26.738  1.00  0.00     0.338 C 
ATOM     29  O   UNL A   1      41.362  23.872  26.331  1.00  0.00    -0.246 OA
BRANCH  28  30
ATOM     30  C   UNL A   1      40.216  25.446  27.663  1.00  0.00     0.060 A 
ATOM     31  C   UNL A   1      39.299  25.469  28.709  1.00  0.00     0.016 A 
ATOM     32  C   UNL A   1      41.108  26.510  27.477  1.00  0.00     0.016 A 
ATOM     33  C   UNL A   1      39.255  26.589  29.540  1.00  0.00     0.010 A 
ATOM     34  C   UNL A   1      41.056  27.633  28.292  1.00  0.00     0.010 A 
ATOM     35  C   UNL A   1      40.124  27.679  29.330  1.00  0.00    -0.014 A 
BRANCH  35  36
ATOM     36  C   UNL A   1      40.131  28.808  30.283  1.00  0.00     0.031 A 
ATOM     37  C   UNL A   1      39.135  29.921  30.189  1.00  0.00     0.074 A 
ATOM     38  C   UNL A   1      41.066  28.802  31.249  1.00  0.00     0.049 A 
ATOM     39  N   UNL A   1      38.883  30.870  31.055  1.00  0.00    -0.248 NA
ATOM     40  C   UNL A   1      38.330  29.991  28.962  1.00  0.00     0.031 C 
ATOM     41  C   UNL A   1      42.136  27.811  31.370  1.00  0.00     0.029 A 
ATOM     42  N   UNL A   1      41.247  29.630  32.323  1.00  0.00    -0.354 N 
ATOM     43  C   UNL A   1      37.871  31.636  30.493  1.00  0.00     0.074 A 
ATOM     44  C   UNL A   1      37.608  31.083  29.180  1.00  0.00     0.031 C 
ATOM     45  C   UNL A   1      42.815  28.040  32.504  1.00  0.00     0.029 A 
ATOM     46  C   UNL A   1      42.246  29.210  33.165  1.00  0.00     0.049 A 
ATOM     47  H   UNL A   1      40.715  30.444  32.476  1.00  0.00     0.167 HD
ATOM     48  C   UNL A   1      37.211  32.688  31.038  1.00  0.00     0.037 A 
ATOM     49  C   UNL A   1      42.638  29.700  34.353  1.00  0.00     0.037 A 
ATOM     50  C   UNL A   1      37.521  33.247  32.331  1.00  0.00     0.049 A 
ATOM     51  C   UNL A   1      41.908  30.883  34.922  1.00  0.00     0.074 A 
ATOM     52  C   UNL A   1      36.892  34.281  33.002  1.00  0.00     0.029 A 
ATOM     53  N   UNL A   1      38.574  32.833  33.138  1.00  0.00    -0.354 N 
ATOM     54  N   UNL A   1      40.872  31.530  34.443  1.00  0.00    -0.248 NA
ATOM     55  C   UNL A   1      42.397  31.395  36.207  1.00  0.00     0.031 C 
ATOM     56  C   UNL A   1      37.606  34.538  34.180  1.00  0.00     0.029 A 
ATOM     57  C   UNL A   1      38.635  33.615  34.282  1.00  0.00     0.049 A 
ATOM     58  H   UNL A   1      39.187  32.092  32.928  1.00  0.00     0.167 HD
ATOM     59  C   UNL A   1      40.570  32.509  35.378  1.00  0.00     0.074 A 
ATOM     60  C   UNL A   1      41.517  32.350  36.464  1.00  0.00     0.031 C 
ATOM     61  C   UNL A   1      39.597  33.456  35.345  1.00  0.00     0.037 A 
BRANCH  48  62
ATOM     62  C   UNL A   1      36.104  33.303  30.225  1.00  0.00     0.057 A 
ATOM     63  C   UNL A   1      36.386  34.165  29.157  1.00  0.00     0.134 A 
ATOM     64  C   UNL A   1      34.753  33.048  30.502  1.00  0.00     0.134 A 
ATOM     65  F   UNL A   1      37.653  34.468  28.842  1.00  0.00    -0.206 F 
ATOM     66  C   UNL A   1      35.369  34.735  28.388  1.00  0.00     0.040 A 
ATOM     67  C   UNL A   1      33.729  33.585  29.718  1.00  0.00     0.040 A 
ATOM     68  F   UNL A   1      34.405  32.234  31.511  1.00  0.00    -0.206 F 
ATOM     69  C   UNL A   1      34.037  34.435  28.659  1.00  0.00     0.006 A 
ENDBRANCH  48  62
BRANCH  49  70
ATOM     70  C   UNL A   1      43.737  29.042  35.101  1.00  0.00     0.057 A 
ATOM     71  C   UNL A   1      45.077  29.370  34.866  1.00  0.00     0.134 A 
ATOM     72  C   UNL A   1      43.471  28.068  36.070  1.00  0.00     0.134 A 
ATOM     73  F   UNL A   1      45.400  30.284  33.939  1.00  0.00    -0.206 F 
ATOM     74  C   UNL A   1      46.113  28.752  35.566  1.00  0.00     0.040 A 
ATOM     75  C   UNL A   1      44.494  27.465  36.800  1.00  0.00     0.040 A 
ATOM     76  F   UNL A   1      42.205  27.717  36.344  1.00  0.00    -0.206 F 
ATOM     77  C   UNL A   1      45.822  27.804  36.545  1.00  0.00     0.006 A 
ENDBRANCH  49  70
BRANCH  61  78
ATOM     78  C   UNL A   1      39.500  34.367  36.538  1.00  0.00     0.057 A 
ATOM     79  C   UNL A   1      38.805  33.964  37.686  1.00  0.00     0.134 A 
ATOM     80  C   UNL A   1      40.100  35.633  36.560  1.00  0.00     0.134 A 
ATOM     81  F   UNL A   1      38.198  32.769  37.732  1.00  0.00    -0.206 F 
ATOM     82  C   UNL A   1      38.719  34.782  38.813  1.00  0.00     0.040 A 
ATOM     83  C   UNL A   1      40.052  36.444  37.695  1.00  0.00     0.040 A 
ATOM     84  F   UNL A   1      40.792  36.078  35.500  1.00  0.00    -0.206 F 
ATOM     85  C   UNL A   1      39.357  36.020  38.825  1.00  0.00     0.006 A 
ENDBRANCH  61  78
ENDBRANCH  35  36
ENDBRANCH  28  30
ENDBRANCH  27  28
ENDBRANCH  26  27
ENDBRANCH  25  26
ENDBRANCH   1  25
TORSDOF 19
ENDMDL
MODEL 3
REMARK VINA RESULT:     -10.2      3.827      8.983
REMARK SMILES CC(C)C[C@H]([NH2+]C[C@@](C)(O)C#Cc1ccccc1)C(=O)OCCOC(=O)c1ccc(-c2c3nc(c(-c4c(F)cccc4F)c4ccc([nH]4)c(-c4c(F)cccc4F)c4nc(c(-c5c(F)cccc5F)c5ccc2[nH]5)C=C4)C=C3)cc1
REMARK SMILES IDX 21 1 19 2 20 3 5 4 4 5 2 6 1 7 3 8 6 9 7 12 8 13 9 14 10 15
REMARK SMILES IDX 11 17 12 18 13 19 14 20 18 21 15 22 17 23 16 24 22 25 23 26
REMARK SMILES IDX 24 27 25 28 26 29 27 30 28 31 80 32 29 33 79 34 30 35 31 36
REMARK SMILES IDX 32 37 73 38 33 39 78 40 72 41 74 42 34 43 77 44 71 45 70 46
REMARK SMILES IDX 35 48 61 49 44 50 60 51 45 52 48 53 59 54 75 55 46 56 47 57
REMARK SMILES IDX 58 59 76 60 49 61 36 62 37 63 42 64 38 65 39 66 41 67 43 68
REMARK SMILES IDX 40 69 62 70 63 71 68 72 64 73 65 74 67 75 69 76 66 77 50 78
REMARK SMILES IDX 51 79 56 80 52 81 53 82 55 83 57 84 54 85
REMARK H PARENT 6 10 6 11 10 16 74 47 48 58
REMARK Flexibility Score: inf
ROOT
ATOM      1  O   UNL A   1      33.565  27.707  24.668  1.00  0.00    -0.458 OA
ENDROOT
BRANCH   1   2
ATOM      2  C   UNL A   1      33.461  26.627  23.844  1.00  0.00     0.364 C 
ATOM      3  O   UNL A   1      33.306  26.702  22.629  1.00  0.00    -0.245 OA
BRANCH   2   4
ATOM      4  C   UNL A   1      33.526  25.283  24.580  1.00  0.00     0.293 C 
BRANCH   4   5
ATOM      5  C   UNL A   1      33.954  24.101  23.684  1.00  0.00     0.080 C 
BRANCH   5   6
ATOM      6  C   UNL A   1      35.017  23.108  24.212  1.00  0.00    -0.011 C 
ATOM      7  C   UNL A   1      36.275  22.988  23.343  1.00  0.00     0.007 C 
ATOM      8  C   UNL A   1      35.471  23.559  25.605  1.00  0.00     0.007 C 
ENDBRANCH   5   6
ENDBRANCH   4   5
BRANCH   4   9
ATOM      9  N   UNL A   1      32.263  25.046  25.318  1.00  0.00    -0.331 N 
ATOM     10  H   UNL A   1      31.672  25.869  25.207  1.00  0.00     0.347 HD
ATOM     11  H   UNL A   1      32.529  24.865  26.286  1.00  0.00     0.347 HD
BRANCH   9  12
ATOM     12  C   UNL A   1      31.498  23.873  24.880  1.00  0.00     0.310 C 
BRANCH  12  13
ATOM     13  C   UNL A   1      31.372  22.686  25.899  1.00  0.00     0.171 C 
ATOM     14  C   UNL A   1      32.006  23.028  27.252  1.00  0.00     0.063 C 
BRANCH  13  15
ATOM     15  O   UNL A   1      29.974  22.451  26.130  1.00  0.00    -0.372 OA
ATOM     16  H   UNL A   1      29.778  21.510  25.994  1.00  0.00     0.212 HD
ENDBRANCH  13  15
BRANCH  13  17
ATOM     17  C   UNL A   1      31.954  21.425  25.385  1.00  0.00    -0.057 C 
ATOM     18  C   UNL A   1      32.451  20.440  24.911  1.00  0.00    -0.064 C 
BRANCH  18  19
ATOM     19  C   UNL A   1      33.021  19.284  24.272  1.00  0.00     0.025 A 
ATOM     20  C   UNL A   1      32.381  18.680  23.188  1.00  0.00     0.017 A 
ATOM     21  C   UNL A   1      34.200  18.722  24.763  1.00  0.00     0.017 A 
ATOM     22  C   UNL A   1      32.908  17.514  22.621  1.00  0.00     0.001 A 
ATOM     23  C   UNL A   1      34.729  17.558  24.201  1.00  0.00     0.001 A 
ATOM     24  C   UNL A   1      34.078  16.950  23.133  1.00  0.00     0.000 A 
ENDBRANCH  18  19
ENDBRANCH  13  17
ENDBRANCH  12  13
ENDBRANCH   9  12
ENDBRANCH   4   9
ENDBRANCH   2   4
ENDBRANCH   1   2
BRANCH   1  25
ATOM     25  C   UNL A   1      32.326  28.387  24.941  1.00  0.00     0.274 C 
BRANCH  25  26
ATOM     26  C   UNL A   1      32.512  29.868  25.309  1.00  0.00     0.275 C 
BRANCH  26  27
ATOM     27  O   UNL A   1      32.516  30.102  26.732  1.00  0.00    -0.458 OA
BRANCH  27  28
ATOM     28  C   UNL A   1      33.091  31.268  27.113  1.00  0.00     0.338 C 
ATOM     29  O   UNL A   1      32.579  32.372  27.084  1.00  0.00    -0.246 OA
BRANCH  28  30
ATOM     30  C   UNL A   1      34.389  31.018  27.760  1.00  0.00     0.060 A 
ATOM     31  C   UNL A   1      35.298  32.045  27.989  1.00  0.00     0.016 A 
ATOM     32  C   UNL A   1      34.680  29.709  28.164  1.00  0.00     0.016 A 
ATOM     33  C   UNL A   1      36.520  31.741  28.588  1.00  0.00     0.010 A 
ATOM     34  C   UNL A   1      35.902  29.400  28.746  1.00  0.00     0.010 A 
ATOM     35  C   UNL A   1      36.832  30.417  28.959  1.00  0.00    -0.014 A 
BRANCH  35  36
ATOM     36  C   UNL A   1      38.088  30.135  29.685  1.00  0.00     0.031 A 
ATOM     37  C   UNL A   1      38.319  30.629  31.078  1.00  0.00     0.074 A 
ATOM     38  C   UNL A   1      39.025  29.409  29.049  1.00  0.00     0.049 A 
ATOM     39  N   UNL A   1      39.271  30.304  31.916  1.00  0.00    -0.248 NA
ATOM     40  C   UNL A   1      37.374  31.628  31.595  1.00  0.00     0.031 C 
ATOM     41  C   UNL A   1      38.932  28.958  27.659  1.00  0.00     0.029 A 
ATOM     42  N   UNL A   1      40.214  28.899  29.494  1.00  0.00    -0.354 N 
ATOM     43  C   UNL A   1      39.026  31.035  33.070  1.00  0.00     0.074 A 
ATOM     44  C   UNL A   1      37.879  31.876  32.796  1.00  0.00     0.031 C 
ATOM     45  C   UNL A   1      39.982  28.169  27.388  1.00  0.00     0.029 A 
ATOM     46  C   UNL A   1      40.830  28.089  28.572  1.00  0.00     0.049 A 
ATOM     47  H   UNL A   1      40.589  29.092  30.383  1.00  0.00     0.167 HD
ATOM     48  C   UNL A   1      39.688  30.988  34.252  1.00  0.00     0.037 A 
ATOM     49  C   UNL A   1      41.942  27.342  28.685  1.00  0.00     0.037 A 
ATOM     50  C   UNL A   1      40.856  30.173  34.486  1.00  0.00     0.049 A 
ATOM     51  C   UNL A   1      42.672  27.327  29.997  1.00  0.00     0.074 A 
ATOM     52  C   UNL A   1      41.580  30.011  35.654  1.00  0.00     0.029 A 
ATOM     53  N   UNL A   1      41.489  29.403  33.517  1.00  0.00    -0.354 N 
ATOM     54  N   UNL A   1      42.369  27.927  31.124  1.00  0.00    -0.248 NA
ATOM     55  C   UNL A   1      43.895  26.520  30.054  1.00  0.00     0.031 C 
ATOM     56  C   UNL A   1      42.689  29.201  35.373  1.00  0.00     0.029 A 
ATOM     57  C   UNL A   1      42.615  28.795  34.050  1.00  0.00     0.049 A 
ATOM     58  H   UNL A   1      41.181  29.304  32.587  1.00  0.00     0.167 HD
ATOM     59  C   UNL A   1      43.349  27.550  32.031  1.00  0.00     0.074 A 
ATOM     60  C   UNL A   1      44.239  26.648  31.326  1.00  0.00     0.031 C 
ATOM     61  C   UNL A   1      43.501  27.915  33.329  1.00  0.00     0.037 A 
BRANCH  48  62
ATOM     62  C   UNL A   1      39.168  31.852  35.369  1.00  0.00     0.057 A 
ATOM     63  C   UNL A   1      38.265  31.346  36.312  1.00  0.00     0.134 A 
ATOM     64  C   UNL A   1      39.556  33.192  35.510  1.00  0.00     0.134 A 
ATOM     65  F   UNL A   1      37.835  30.078  36.234  1.00  0.00    -0.206 F 
ATOM     66  C   UNL A   1      37.781  32.134  37.359  1.00  0.00     0.040 A 
ATOM     67  C   UNL A   1      39.106  33.979  36.573  1.00  0.00     0.040 A 
ATOM     68  F   UNL A   1      40.417  33.747  34.643  1.00  0.00    -0.206 F 
ATOM     69  C   UNL A   1      38.213  33.450  37.500  1.00  0.00     0.006 A 
ENDBRANCH  48  62
BRANCH  49  70
ATOM     70  C   UNL A   1      42.396  26.512  27.542  1.00  0.00     0.057 A 
ATOM     71  C   UNL A   1      43.264  27.022  26.570  1.00  0.00     0.134 A 
ATOM     72  C   UNL A   1      41.972  25.186  27.397  1.00  0.00     0.134 A 
ATOM     73  F   UNL A   1      43.696  28.290  26.644  1.00  0.00    -0.206 F 
ATOM     74  C   UNL A   1      43.692  26.245  25.494  1.00  0.00     0.040 A 
ATOM     75  C   UNL A   1      42.417  24.388  26.344  1.00  0.00     0.040 A 
ATOM     76  F   UNL A   1      41.145  24.640  28.302  1.00  0.00    -0.206 F 
ATOM     77  C   UNL A   1      43.277  24.919  25.385  1.00  0.00     0.006 A 
ENDBRANCH  49  70
BRANCH  61  78
ATOM     78  C   UNL A   1      44.661  27.306  34.070  1.00  0.00     0.057 A 
ATOM     79  C   UNL A   1      44.524  26.069  34.712  1.00  0.00     0.134 A 
ATOM     80  C   UNL A   1      45.912  27.933  34.140  1.00  0.00     0.134 A 
ATOM     81  F   UNL A   1      43.351  25.416  34.695  1.00  0.00    -0.206 F 
ATOM     82  C   UNL A   1      45.590  25.473  35.387  1.00  0.00     0.040 A 
ATOM     83  C   UNL A   1      46.996  27.330  34.781  1.00  0.00     0.040 A 
ATOM     84  F   UNL A   1      46.118  29.114  33.537  1.00  0.00    -0.206 F 
ATOM     85  C   UNL A   1      46.834  26.097  35.410  1.00  0.00     0.006 A 
ENDBRANCH  61  78
ENDBRANCH  35  36
ENDBRANCH  28  30
ENDBRANCH  27  28
ENDBRANCH  26  27
ENDBRANCH  25  26
ENDBRANCH   1  25
TORSDOF 19
ENDMDL
