MODEL 1
REMARK VINA RESULT:      -9.9      0.000      0.000
REMARK SMILES COc1ccc(C[N@@H+](CC(=O)OCCOC(=O)c2ccc(-c3c4nc(c(-c5c(F)cccc5F)c5ccc([nH]5)c(-c5c(F)cccc5F)c5nc(c(-c6c(F)cccc6F)c6ccc3[nH]6)C=C5)C=C4)cc2)C(C)(C)C)cc1C#N
REMARK SMILES IDX 13 1 12 2 10 3 11 4 9 5 8 6 7 8 6 9 3 10 4 11 77 12 5 13
REMARK SMILES IDX 76 14 2 15 1 16 78 17 79 18 72 19 73 20 74 21 75 22 14 23
REMARK SMILES IDX 15 24 16 25 17 26 18 27 19 28 71 29 20 30 70 31 21 32 22 33
REMARK SMILES IDX 23 34 64 35 24 36 69 37 63 38 65 39 25 40 68 41 62 42 61 43
REMARK SMILES IDX 26 45 52 46 35 47 51 48 36 49 39 50 50 51 66 52 37 53 38 54
REMARK SMILES IDX 49 56 67 57 40 58 27 59 28 60 33 61 29 62 30 63 32 64 34 65
REMARK SMILES IDX 31 66 53 67 54 68 59 69 55 70 56 71 58 72 60 73 57 74 41 75
REMARK SMILES IDX 42 76 47 77 43 78 44 79 46 80 48 81 45 82
REMARK H PARENT 8 7 65 44 39 55
REMARK Flexibility Score: inf
ROOT
ATOM      1  C   UNL A   1      34.118  28.628  24.731  1.00  0.00     0.274 C 
ENDROOT
BRANCH   1   2
ATOM      2  O   UNL A   1      33.299  28.891  23.558  1.00  0.00    -0.458 OA
BRANCH   2   3
ATOM      3  C   UNL A   1      33.342  27.988  22.539  1.00  0.00     0.361 C 
ATOM      4  O   UNL A   1      34.205  28.017  21.658  1.00  0.00    -0.245 OA
BRANCH   3   5
ATOM      5  C   UNL A   1      32.272  26.867  22.559  1.00  0.00     0.387 C 
BRANCH   5   6
ATOM      6  N   UNL A   1      32.407  25.671  23.449  1.00  0.00    -0.318 N 
ATOM      7  H   UNL A   1      33.245  25.777  24.021  1.00  0.00     0.349 HD
BRANCH   6   8
ATOM      8  C   UNL A   1      32.621  24.488  22.605  1.00  0.00     0.299 C 
BRANCH   8   9
ATOM      9  C   UNL A   1      33.541  23.442  23.160  1.00  0.00     0.008 A 
ATOM     10  C   UNL A   1      35.032  21.620  24.663  1.00  0.00     0.136 A 
ATOM     11  C   UNL A   1      35.609  22.824  24.232  1.00  0.00     0.048 A 
ATOM     12  C   UNL A   1      33.721  21.299  24.290  1.00  0.00     0.094 A 
ATOM     13  C   UNL A   1      34.876  23.725  23.462  1.00  0.00     0.013 A 
ATOM     14  C   UNL A   1      32.996  22.201  23.512  1.00  0.00     0.033 A 
BRANCH  10  15
ATOM     15  O   UNL A   1      35.799  20.916  25.553  1.00  0.00    -0.495 OA
ATOM     16  C   UNL A   1      36.855  20.170  24.958  1.00  0.00     0.278 C 
ENDBRANCH  10  15
BRANCH  12  17
ATOM     17  C   UNL A   1      33.008  20.143  24.750  1.00  0.00     0.103 C 
ATOM     18  N   UNL A   1      32.383  19.233  25.101  1.00  0.00    -0.192 NA
ENDBRANCH  12  17
ENDBRANCH   8   9
ENDBRANCH   6   8
BRANCH   6  19
ATOM     19  C   UNL A   1      31.636  25.594  24.745  1.00  0.00     0.090 C 
ATOM     20  C   UNL A   1      32.482  25.510  26.048  1.00  0.00     0.078 C 
ATOM     21  C   UNL A   1      30.742  26.853  24.967  1.00  0.00     0.078 C 
ATOM     22  C   UNL A   1      30.540  24.488  24.728  1.00  0.00     0.078 C 
ENDBRANCH   6  19
ENDBRANCH   5   6
ENDBRANCH   3   5
ENDBRANCH   2   3
ENDBRANCH   1   2
BRANCH   1  23
ATOM     23  C   UNL A   1      33.464  29.177  26.029  1.00  0.00     0.275 C 
BRANCH  23  24
ATOM     24  O   UNL A   1      34.204  28.890  27.253  1.00  0.00    -0.458 OA
BRANCH  24  25
ATOM     25  C   UNL A   1      34.729  30.009  27.772  1.00  0.00     0.338 C 
ATOM     26  O   UNL A   1      34.139  31.073  27.827  1.00  0.00    -0.246 OA
BRANCH  25  27
ATOM     27  C   UNL A   1      36.061  30.067  28.344  1.00  0.00     0.060 A 
ATOM     28  C   UNL A   1      37.059  30.200  27.370  1.00  0.00     0.016 A 
ATOM     29  C   UNL A   1      36.344  29.478  29.575  1.00  0.00     0.016 A 
ATOM     30  C   UNL A   1      38.302  29.635  27.580  1.00  0.00     0.010 A 
ATOM     31  C   UNL A   1      37.658  29.065  29.842  1.00  0.00     0.010 A 
ATOM     32  C   UNL A   1      38.646  29.137  28.844  1.00  0.00    -0.014 A 
BRANCH  32  33
ATOM     33  C   UNL A   1      40.076  28.821  29.095  1.00  0.00     0.031 A 
ATOM     34  C   UNL A   1      41.011  29.778  29.775  1.00  0.00     0.074 A 
ATOM     35  C   UNL A   1      40.513  27.606  28.703  1.00  0.00     0.049 A 
ATOM     36  N   UNL A   1      42.297  29.654  29.987  1.00  0.00    -0.248 NA
ATOM     37  C   UNL A   1      40.442  31.042  30.265  1.00  0.00     0.031 C 
ATOM     38  C   UNL A   1      39.689  26.588  28.038  1.00  0.00     0.029 A 
ATOM     39  N   UNL A   1      41.738  27.005  28.817  1.00  0.00    -0.354 N 
ATOM     40  C   UNL A   1      42.701  30.831  30.603  1.00  0.00     0.074 A 
ATOM     41  C   UNL A   1      41.524  31.669  30.708  1.00  0.00     0.031 C 
ATOM     42  C   UNL A   1      40.407  25.473  27.869  1.00  0.00     0.029 A 
ATOM     43  C   UNL A   1      41.771  25.736  28.292  1.00  0.00     0.049 A 
ATOM     44  H   UNL A   1      42.517  27.439  29.234  1.00  0.00     0.167 HD
ATOM     45  C   UNL A   1      43.941  31.171  31.038  1.00  0.00     0.037 A 
ATOM     46  C   UNL A   1      42.794  24.885  28.114  1.00  0.00     0.037 A 
ATOM     47  C   UNL A   1      45.100  30.316  30.925  1.00  0.00     0.049 A 
ATOM     48  C   UNL A   1      44.156  25.310  28.559  1.00  0.00     0.074 A 
ATOM     49  C   UNL A   1      46.399  30.561  31.339  1.00  0.00     0.029 A 
ATOM     50  N   UNL A   1      45.100  29.049  30.356  1.00  0.00    -0.354 N 
ATOM     51  N   UNL A   1      44.527  26.432  29.126  1.00  0.00    -0.248 NA
ATOM     52  C   UNL A   1      45.243  24.352  28.340  1.00  0.00     0.031 C 
ATOM     53  C   UNL A   1      47.194  29.474  30.961  1.00  0.00     0.029 A 
ATOM     54  C   UNL A   1      46.379  28.512  30.388  1.00  0.00     0.049 A 
ATOM     55  H   UNL A   1      44.309  28.598  29.983  1.00  0.00     0.167 HD
ATOM     56  C   UNL A   1      45.887  26.304  29.362  1.00  0.00     0.074 A 
ATOM     57  C   UNL A   1      46.264  24.984  28.895  1.00  0.00     0.031 C 
ATOM     58  C   UNL A   1      46.744  27.197  29.916  1.00  0.00     0.037 A 
BRANCH  45  59
ATOM     59  C   UNL A   1      44.118  32.540  31.639  1.00  0.00     0.057 A 
ATOM     60  C   UNL A   1      44.009  32.773  33.017  1.00  0.00     0.134 A 
ATOM     61  C   UNL A   1      44.434  33.641  30.828  1.00  0.00     0.134 A 
ATOM     62  F   UNL A   1      43.705  31.771  33.855  1.00  0.00    -0.206 F 
ATOM     63  C   UNL A   1      44.171  34.052  33.560  1.00  0.00     0.040 A 
ATOM     64  C   UNL A   1      44.631  34.915  31.363  1.00  0.00     0.040 A 
ATOM     65  F   UNL A   1      44.567  33.494  29.501  1.00  0.00    -0.206 F 
ATOM     66  C   UNL A   1      44.489  35.127  32.732  1.00  0.00     0.006 A 
ENDBRANCH  45  59
BRANCH  46  67
ATOM     67  C   UNL A   1      42.560  23.575  27.456  1.00  0.00     0.057 A 
ATOM     68  C   UNL A   1      42.646  23.434  26.067  1.00  0.00     0.134 A 
ATOM     69  C   UNL A   1      42.261  22.427  28.203  1.00  0.00     0.134 A 
ATOM     70  F   UNL A   1      42.921  24.496  25.296  1.00  0.00    -0.206 F 
ATOM     71  C   UNL A   1      42.415  22.207  25.443  1.00  0.00     0.040 A 
ATOM     72  C   UNL A   1      42.068  21.187  27.595  1.00  0.00     0.040 A 
ATOM     73  F   UNL A   1      42.185  22.490  29.541  1.00  0.00    -0.206 F 
ATOM     74  C   UNL A   1      42.132  21.079  26.210  1.00  0.00     0.006 A 
ENDBRANCH  46  67
BRANCH  58  75
ATOM     75  C   UNL A   1      48.163  26.737  30.104  1.00  0.00     0.057 A 
ATOM     76  C   UNL A   1      49.168  26.997  29.162  1.00  0.00     0.134 A 
ATOM     77  C   UNL A   1      48.520  25.998  31.239  1.00  0.00     0.134 A 
ATOM     78  F   UNL A   1      48.891  27.686  28.044  1.00  0.00    -0.206 F 
ATOM     79  C   UNL A   1      50.460  26.494  29.317  1.00  0.00     0.040 A 
ATOM     80  C   UNL A   1      49.818  25.526  31.425  1.00  0.00     0.040 A 
ATOM     81  F   UNL A   1      47.611  25.720  32.187  1.00  0.00    -0.206 F 
ATOM     82  C   UNL A   1      50.790  25.759  30.454  1.00  0.00     0.006 A 
ENDBRANCH  58  75
ENDBRANCH  32  33
ENDBRANCH  25  27
ENDBRANCH  24  25
ENDBRANCH  23  24
ENDBRANCH   1  23
TORSDOF 17
ENDMDL
MODEL 2
REMARK VINA RESULT:      -9.8      3.075      4.311
REMARK SMILES COc1ccc(C[N@@H+](CC(=O)OCCOC(=O)c2ccc(-c3c4nc(c(-c5c(F)cccc5F)c5ccc([nH]5)c(-c5c(F)cccc5F)c5nc(c(-c6c(F)cccc6F)c6ccc3[nH]6)C=C5)C=C4)cc2)C(C)(C)C)cc1C#N
REMARK SMILES IDX 13 1 12 2 10 3 11 4 9 5 8 6 7 8 6 9 3 10 4 11 77 12 5 13
REMARK SMILES IDX 76 14 2 15 1 16 78 17 79 18 72 19 73 20 74 21 75 22 14 23
REMARK SMILES IDX 15 24 16 25 17 26 18 27 19 28 71 29 20 30 70 31 21 32 22 33
REMARK SMILES IDX 23 34 64 35 24 36 69 37 63 38 65 39 25 40 68 41 62 42 61 43
REMARK SMILES IDX 26 45 52 46 35 47 51 48 36 49 39 50 50 51 66 52 37 53 38 54
REMARK SMILES IDX 49 56 67 57 40 58 27 59 28 60 33 61 29 62 30 63 32 64 34 65
REMARK SMILES IDX 31 66 53 67 54 68 59 69 55 70 56 71 58 72 60 73 57 74 41 75
REMARK SMILES IDX 42 76 47 77 43 78 44 79 46 80 48 81 45 82
REMARK H PARENT 8 7 65 44 39 55
REMARK Flexibility Score: inf
ROOT
ATOM      1  C   UNL A   1      32.879  29.039  24.578  1.00  0.00     0.274 C 
ENDROOT
BRANCH   1   2
ATOM      2  O   UNL A   1      32.641  29.114  23.145  1.00  0.00    -0.458 OA
BRANCH   2   3
ATOM      3  C   UNL A   1      33.267  28.203  22.349  1.00  0.00     0.361 C 
ATOM      4  O   UNL A   1      34.435  28.335  21.975  1.00  0.00    -0.245 OA
BRANCH   3   5
ATOM      5  C   UNL A   1      32.454  26.940  21.966  1.00  0.00     0.387 C 
BRANCH   5   6
ATOM      6  N   UNL A   1      32.362  25.760  22.882  1.00  0.00    -0.318 N 
ATOM      7  H   UNL A   1      32.885  25.961  23.734  1.00  0.00     0.349 HD
BRANCH   6   8
ATOM      8  C   UNL A   1      33.029  24.621  22.237  1.00  0.00     0.299 C 
BRANCH   8   9
ATOM      9  C   UNL A   1      33.719  23.657  23.156  1.00  0.00     0.008 A 
ATOM     10  C   UNL A   1      34.603  21.974  25.202  1.00  0.00     0.136 A 
ATOM     11  C   UNL A   1      35.221  23.215  24.987  1.00  0.00     0.048 A 
ATOM     12  C   UNL A   1      33.577  21.547  24.352  1.00  0.00     0.094 A 
ATOM     13  C   UNL A   1      34.798  24.048  23.953  1.00  0.00     0.013 A 
ATOM     14  C   UNL A   1      33.165  22.381  23.313  1.00  0.00     0.033 A 
BRANCH  10  15
ATOM     15  O   UNL A   1      34.996  21.343  26.352  1.00  0.00    -0.495 OA
ATOM     16  C   UNL A   1      34.249  21.706  27.508  1.00  0.00     0.278 C 
ENDBRANCH  10  15
BRANCH  12  17
ATOM     17  C   UNL A   1      32.820  20.343  24.537  1.00  0.00     0.103 C 
ATOM     18  N   UNL A   1      32.223  19.373  24.744  1.00  0.00    -0.192 NA
ENDBRANCH  12  17
ENDBRANCH   8   9
ENDBRANCH   6   8
BRANCH   6  19
ATOM     19  C   UNL A   1      31.155  25.576  23.770  1.00  0.00     0.090 C 
ATOM     20  C   UNL A   1      31.414  25.607  25.304  1.00  0.00     0.078 C 
ATOM     21  C   UNL A   1      30.094  26.699  23.552  1.00  0.00     0.078 C 
ATOM     22  C   UNL A   1      30.307  24.329  23.381  1.00  0.00     0.078 C 
ENDBRANCH   6  19
ENDBRANCH   5   6
ENDBRANCH   3   5
ENDBRANCH   2   3
ENDBRANCH   1   2
BRANCH   1  23
ATOM     23  C   UNL A   1      31.874  29.911  25.379  1.00  0.00     0.275 C 
BRANCH  23  24
ATOM     24  O   UNL A   1      32.143  29.994  26.810  1.00  0.00    -0.458 OA
BRANCH  24  25
ATOM     25  C   UNL A   1      32.872  31.079  27.102  1.00  0.00     0.338 C 
ATOM     26  O   UNL A   1      32.423  32.210  27.130  1.00  0.00    -0.246 OA
BRANCH  25  27
ATOM     27  C   UNL A   1      34.283  31.019  27.434  1.00  0.00     0.060 A 
ATOM     28  C   UNL A   1      34.705  29.723  27.761  1.00  0.00     0.016 A 
ATOM     29  C   UNL A   1      34.953  32.132  27.940  1.00  0.00     0.016 A 
ATOM     30  C   UNL A   1      35.714  29.543  28.685  1.00  0.00     0.010 A 
ATOM     31  C   UNL A   1      36.088  31.934  28.740  1.00  0.00     0.010 A 
ATOM     32  C   UNL A   1      36.474  30.637  29.123  1.00  0.00    -0.014 A 
BRANCH  32  33
ATOM     33  C   UNL A   1      37.724  30.352  29.874  1.00  0.00     0.031 A 
ATOM     34  C   UNL A   1      37.941  30.803  31.289  1.00  0.00     0.074 A 
ATOM     35  C   UNL A   1      38.673  29.637  29.235  1.00  0.00     0.049 A 
ATOM     36  N   UNL A   1      39.014  30.685  32.030  1.00  0.00    -0.248 NA
ATOM     37  C   UNL A   1      36.825  31.490  31.956  1.00  0.00     0.031 C 
ATOM     38  C   UNL A   1      38.569  29.138  27.858  1.00  0.00     0.029 A 
ATOM     39  N   UNL A   1      39.898  29.186  29.650  1.00  0.00    -0.354 N 
ATOM     40  C   UNL A   1      38.720  31.306  33.237  1.00  0.00     0.074 A 
ATOM     41  C   UNL A   1      37.371  31.825  33.117  1.00  0.00     0.031 C 
ATOM     42  C   UNL A   1      39.642  28.396  27.569  1.00  0.00     0.029 A 
ATOM     43  C   UNL A   1      40.568  28.473  28.685  1.00  0.00     0.049 A 
ATOM     44  H   UNL A   1      40.262  29.356  30.548  1.00  0.00     0.167 HD
ATOM     45  C   UNL A   1      39.506  31.429  34.335  1.00  0.00     0.037 A 
ATOM     46  C   UNL A   1      41.815  27.974  28.668  1.00  0.00     0.037 A 
ATOM     47  C   UNL A   1      40.847  30.900  34.432  1.00  0.00     0.049 A 
ATOM     48  C   UNL A   1      42.673  28.168  29.876  1.00  0.00     0.074 A 
ATOM     49  C   UNL A   1      41.726  30.962  35.500  1.00  0.00     0.029 A 
ATOM     50  N   UNL A   1      41.505  30.211  33.420  1.00  0.00    -0.354 N 
ATOM     51  N   UNL A   1      42.387  28.772  31.004  1.00  0.00    -0.248 NA
ATOM     52  C   UNL A   1      44.027  27.613  29.810  1.00  0.00     0.031 C 
ATOM     53  C   UNL A   1      42.934  30.371  35.113  1.00  0.00     0.029 A 
ATOM     54  C   UNL A   1      42.783  29.864  33.832  1.00  0.00     0.049 A 
ATOM     55  H   UNL A   1      41.120  30.000  32.539  1.00  0.00     0.167 HD
ATOM     56  C   UNL A   1      43.517  28.642  31.798  1.00  0.00     0.074 A 
ATOM     57  C   UNL A   1      44.479  27.882  31.025  1.00  0.00     0.031 C 
ATOM     58  C   UNL A   1      43.735  29.108  33.052  1.00  0.00     0.037 A 
BRANCH  45  59
ATOM     59  C   UNL A   1      38.954  32.196  35.508  1.00  0.00     0.057 A 
ATOM     60  C   UNL A   1      38.239  31.574  36.540  1.00  0.00     0.134 A 
ATOM     61  C   UNL A   1      39.168  33.578  35.621  1.00  0.00     0.134 A 
ATOM     62  F   UNL A   1      37.991  30.257  36.499  1.00  0.00    -0.206 F 
ATOM     63  C   UNL A   1      37.727  32.301  37.620  1.00  0.00     0.040 A 
ATOM     64  C   UNL A   1      38.691  34.308  36.711  1.00  0.00     0.040 A 
ATOM     65  F   UNL A   1      39.854  34.241  34.678  1.00  0.00    -0.206 F 
ATOM     66  C   UNL A   1      37.959  33.672  37.710  1.00  0.00     0.006 A 
ENDBRANCH  45  59
BRANCH  46  67
ATOM     67  C   UNL A   1      42.317  27.283  27.454  1.00  0.00     0.057 A 
ATOM     68  C   UNL A   1      42.193  25.899  27.303  1.00  0.00     0.134 A 
ATOM     69  C   UNL A   1      42.920  27.995  26.407  1.00  0.00     0.134 A 
ATOM     70  F   UNL A   1      41.633  25.160  28.271  1.00  0.00    -0.206 F 
ATOM     71  C   UNL A   1      42.674  25.243  26.168  1.00  0.00     0.040 A 
ATOM     72  C   UNL A   1      43.370  27.358  25.251  1.00  0.00     0.040 A 
ATOM     73  F   UNL A   1      43.051  29.328  26.481  1.00  0.00    -0.206 F 
ATOM     74  C   UNL A   1      43.259  25.975  25.136  1.00  0.00     0.006 A 
ENDBRANCH  46  67
BRANCH  58  75
ATOM     75  C   UNL A   1      45.049  28.744  33.683  1.00  0.00     0.057 A 
ATOM     76  C   UNL A   1      45.226  27.569  34.426  1.00  0.00     0.134 A 
ATOM     77  C   UNL A   1      46.150  29.602  33.564  1.00  0.00     0.134 A 
ATOM     78  F   UNL A   1      44.209  26.710  34.594  1.00  0.00    -0.206 F 
ATOM     79  C   UNL A   1      46.432  27.288  35.070  1.00  0.00     0.040 A 
ATOM     80  C   UNL A   1      47.373  29.311  34.167  1.00  0.00     0.040 A 
ATOM     81  F   UNL A   1      46.056  30.740  32.858  1.00  0.00    -0.206 F 
ATOM     82  C   UNL A   1      47.512  28.159  34.937  1.00  0.00     0.006 A 
ENDBRANCH  58  75
ENDBRANCH  32  33
ENDBRANCH  25  27
ENDBRANCH  24  25
ENDBRANCH  23  24
ENDBRANCH   1  23
TORSDOF 17
ENDMDL
MODEL 3
REMARK VINA RESULT:      -9.8      3.720      5.117
REMARK SMILES COc1ccc(C[N@@H+](CC(=O)OCCOC(=O)c2ccc(-c3c4nc(c(-c5c(F)cccc5F)c5ccc([nH]5)c(-c5c(F)cccc5F)c5nc(c(-c6c(F)cccc6F)c6ccc3[nH]6)C=C5)C=C4)cc2)C(C)(C)C)cc1C#N
REMARK SMILES IDX 13 1 12 2 10 3 11 4 9 5 8 6 7 8 6 9 3 10 4 11 77 12 5 13
REMARK SMILES IDX 76 14 2 15 1 16 78 17 79 18 72 19 73 20 74 21 75 22 14 23
REMARK SMILES IDX 15 24 16 25 17 26 18 27 19 28 71 29 20 30 70 31 21 32 22 33
REMARK SMILES IDX 23 34 64 35 24 36 69 37 63 38 65 39 25 40 68 41 62 42 61 43
REMARK SMILES IDX 26 45 52 46 35 47 51 48 36 49 39 50 50 51 66 52 37 53 38 54
REMARK SMILES IDX 49 56 67 57 40 58 27 59 28 60 33 61 29 62 30 63 32 64 34 65
REMARK SMILES IDX 31 66 53 67 54 68 59 69 55 70 56 71 58 72 60 73 57 74 41 75
REMARK SMILES IDX 42 76 47 77 43 78 44 79 46 80 48 81 45 82
REMARK H PARENT 8 7 65 44 39 55
REMARK Flexibility Score: inf
ROOT
ATOM      1  C   UNL A   1      31.435  31.246  26.248  1.00  0.00     0.274 C 
ENDROOT
BRANCH   1   2
ATOM      2  O   UNL A   1      32.663  30.465  26.206  1.00  0.00    -0.458 OA
BRANCH   2   3
ATOM      3  C   UNL A   1      32.611  29.178  26.649  1.00  0.00     0.361 C 
ATOM      4  O   UNL A   1      33.455  28.701  27.410  1.00  0.00    -0.245 OA
BRANCH   3   5
ATOM      5  C   UNL A   1      31.395  28.334  26.188  1.00  0.00     0.387 C 
BRANCH   5   6
ATOM      6  N   UNL A   1      31.468  27.447  24.985  1.00  0.00    -0.318 N 
ATOM      7  H   UNL A   1      30.933  26.598  25.167  1.00  0.00     0.349 HD
BRANCH   6   8
ATOM      8  C   UNL A   1      32.865  27.033  24.799  1.00  0.00     0.299 C 
BRANCH   8   9
ATOM      9  C   UNL A   1      33.203  25.641  25.242  1.00  0.00     0.008 A 
ATOM     10  C   UNL A   1      33.962  22.971  25.555  1.00  0.00     0.136 A 
ATOM     11  C   UNL A   1      32.604  23.323  25.510  1.00  0.00     0.048 A 
ATOM     12  C   UNL A   1      34.945  23.967  25.502  1.00  0.00     0.094 A 
ATOM     13  C   UNL A   1      32.221  24.656  25.378  1.00  0.00     0.013 A 
ATOM     14  C   UNL A   1      34.554  25.300  25.379  1.00  0.00     0.033 A 
BRANCH  10  15
ATOM     15  O   UNL A   1      34.195  21.623  25.509  1.00  0.00    -0.495 OA
ATOM     16  C   UNL A   1      33.059  20.840  25.158  1.00  0.00     0.278 C 
ENDBRANCH  10  15
BRANCH  12  17
ATOM     17  C   UNL A   1      36.355  23.711  25.449  1.00  0.00     0.103 C 
ATOM     18  N   UNL A   1      37.496  23.520  25.462  1.00  0.00    -0.192 NA
ENDBRANCH  12  17
ENDBRANCH   8   9
ENDBRANCH   6   8
BRANCH   6  19
ATOM     19  C   UNL A   1      30.544  27.675  23.813  1.00  0.00     0.090 C 
ATOM     20  C   UNL A   1      30.172  29.154  23.504  1.00  0.00     0.078 C 
ATOM     21  C   UNL A   1      31.160  27.163  22.475  1.00  0.00     0.078 C 
ATOM     22  C   UNL A   1      29.265  26.789  23.875  1.00  0.00     0.078 C 
ENDBRANCH   6  19
ENDBRANCH   5   6
ENDBRANCH   3   5
ENDBRANCH   2   3
ENDBRANCH   1   2
BRANCH   1  23
ATOM     23  C   UNL A   1      31.716  32.755  26.480  1.00  0.00     0.275 C 
BRANCH  23  24
ATOM     24  O   UNL A   1      31.931  33.128  27.874  1.00  0.00    -0.458 OA
BRANCH  24  25
ATOM     25  C   UNL A   1      33.052  33.850  28.013  1.00  0.00     0.338 C 
ATOM     26  O   UNL A   1      33.087  35.065  27.959  1.00  0.00    -0.246 OA
BRANCH  25  27
ATOM     27  C   UNL A   1      34.352  33.254  28.259  1.00  0.00     0.060 A 
ATOM     28  C   UNL A   1      34.260  31.948  28.759  1.00  0.00     0.016 A 
ATOM     29  C   UNL A   1      35.466  34.045  28.540  1.00  0.00     0.016 A 
ATOM     30  C   UNL A   1      35.220  31.479  29.634  1.00  0.00     0.010 A 
ATOM     31  C   UNL A   1      36.517  33.493  29.287  1.00  0.00     0.010 A 
ATOM     32  C   UNL A   1      36.399  32.207  29.844  1.00  0.00    -0.014 A 
BRANCH  32  33
ATOM     33  C   UNL A   1      37.514  31.524  30.549  1.00  0.00     0.031 A 
ATOM     34  C   UNL A   1      37.828  31.767  31.996  1.00  0.00     0.074 A 
ATOM     35  C   UNL A   1      38.240  30.639  29.835  1.00  0.00     0.049 A 
ATOM     36  N   UNL A   1      38.819  31.292  32.710  1.00  0.00    -0.248 NA
ATOM     37  C   UNL A   1      36.934  32.668  32.738  1.00  0.00     0.031 C 
ATOM     38  C   UNL A   1      38.020  30.315  28.419  1.00  0.00     0.029 A 
ATOM     39  N   UNL A   1      39.290  29.834  30.190  1.00  0.00    -0.354 N 
ATOM     40  C   UNL A   1      38.691  31.857  33.971  1.00  0.00     0.074 A 
ATOM     41  C   UNL A   1      37.538  32.733  33.918  1.00  0.00     0.031 C 
ATOM     42  C   UNL A   1      38.854  29.338  28.050  1.00  0.00     0.029 A 
ATOM     43  C   UNL A   1      39.751  29.057  29.155  1.00  0.00     0.049 A 
ATOM     44  H   UNL A   1      39.676  29.815  31.096  1.00  0.00     0.167 HD
ATOM     45  C   UNL A   1      39.467  31.659  35.066  1.00  0.00     0.037 A 
ATOM     46  C   UNL A   1      40.815  28.240  29.076  1.00  0.00     0.037 A 
ATOM     47  C   UNL A   1      40.612  30.777  35.096  1.00  0.00     0.049 A 
ATOM     48  C   UNL A   1      41.678  28.081  30.286  1.00  0.00     0.074 A 
ATOM     49  C   UNL A   1      41.461  30.499  36.154  1.00  0.00     0.029 A 
ATOM     50  N   UNL A   1      41.069  30.031  34.017  1.00  0.00    -0.354 N 
ATOM     51  N   UNL A   1      41.555  28.634  31.468  1.00  0.00    -0.248 NA
ATOM     52  C   UNL A   1      42.830  27.185  30.151  1.00  0.00     0.031 C 
ATOM     53  C   UNL A   1      42.466  29.639  35.698  1.00  0.00     0.029 A 
ATOM     54  C   UNL A   1      42.198  29.312  34.378  1.00  0.00     0.049 A 
ATOM     55  H   UNL A   1      40.652  30.015  33.125  1.00  0.00     0.167 HD
ATOM     56  C   UNL A   1      42.596  28.129  32.231  1.00  0.00     0.074 A 
ATOM     57  C   UNL A   1      43.323  27.208  31.379  1.00  0.00     0.031 C 
ATOM     58  C   UNL A   1      42.918  28.400  33.520  1.00  0.00     0.037 A 
BRANCH  45  59
ATOM     59  C   UNL A   1      39.131  32.437  36.311  1.00  0.00     0.057 A 
ATOM     60  C   UNL A   1      38.245  31.951  37.282  1.00  0.00     0.134 A 
ATOM     61  C   UNL A   1      39.729  33.682  36.558  1.00  0.00     0.134 A 
ATOM     62  F   UNL A   1      37.632  30.770  37.114  1.00  0.00    -0.206 F 
ATOM     63  C   UNL A   1      37.939  32.688  38.430  1.00  0.00     0.040 A 
ATOM     64  C   UNL A   1      39.457  34.411  37.717  1.00  0.00     0.040 A 
ATOM     65  F   UNL A   1      40.598  34.207  35.680  1.00  0.00    -0.206 F 
ATOM     66  C   UNL A   1      38.550  33.919  38.653  1.00  0.00     0.006 A 
ENDBRANCH  45  59
BRANCH  46  67
ATOM     67  C   UNL A   1      41.125  27.553  27.798  1.00  0.00     0.057 A 
ATOM     68  C   UNL A   1      41.896  28.172  26.809  1.00  0.00     0.134 A 
ATOM     69  C   UNL A   1      40.670  26.252  27.541  1.00  0.00     0.134 A 
ATOM     70  F   UNL A   1      42.355  29.419  26.991  1.00  0.00    -0.206 F 
ATOM     71  C   UNL A   1      42.181  27.533  25.600  1.00  0.00     0.040 A 
ATOM     72  C   UNL A   1      40.981  25.588  26.354  1.00  0.00     0.040 A 
ATOM     73  F   UNL A   1      39.943  25.594  28.457  1.00  0.00    -0.206 F 
ATOM     74  C   UNL A   1      41.728  26.235  25.375  1.00  0.00     0.006 A 
ENDBRANCH  46  67
BRANCH  58  75
ATOM     75  C   UNL A   1      44.075  27.635  34.098  1.00  0.00     0.057 A 
ATOM     76  C   UNL A   1      43.918  26.383  34.709  1.00  0.00     0.134 A 
ATOM     77  C   UNL A   1      45.366  28.176  34.061  1.00  0.00     0.134 A 
ATOM     78  F   UNL A   1      42.705  25.814  34.793  1.00  0.00    -0.206 F 
ATOM     79  C   UNL A   1      44.992  25.725  35.309  1.00  0.00     0.040 A 
ATOM     80  C   UNL A   1      46.455  27.508  34.620  1.00  0.00     0.040 A 
ATOM     81  F   UNL A   1      45.592  29.366  33.483  1.00  0.00    -0.206 F 
ATOM     82  C   UNL A   1      46.267  26.286  35.261  1.00  0.00     0.006 A 
ENDBRANCH  58  75
ENDBRANCH  32  33
ENDBRANCH  25  27
ENDBRANCH  24  25
ENDBRANCH  23  24
ENDBRANCH   1  23
TORSDOF 17
ENDMDL
