MODEL 1
REMARK VINA RESULT:     -12.3      0.000      0.000
REMARK SMILES Cc1cc(Nc2ccc(C(=O)OCCOC(=O)c3ccc(-c4c5nc(c(-c6c(F)cccc6F)c6ccc([nH]6)c(-c6c(F)cccc6F)c6nc(c(-c7c(F)cccc7F)c7ccc4[nH]7)C=C6)C=C5)cc3)cc2)nc(-n2nc(C)cc2C)n1
REMARK SMILES IDX 13 1 12 2 10 3 11 4 9 5 6 6 7 7 73 8 8 9 72 10 5 11 4 13
REMARK SMILES IDX 1 14 2 15 3 16 83 17 75 18 74 19 76 20 77 21 81 22 78 23
REMARK SMILES IDX 80 24 82 25 79 26 14 27 15 28 16 29 17 30 18 31 19 32 71 33
REMARK SMILES IDX 20 34 70 35 21 36 22 37 23 38 64 39 24 40 69 41 63 42 65 43
REMARK SMILES IDX 25 44 68 45 62 46 61 47 26 49 52 50 35 51 51 52 36 53 39 54
REMARK SMILES IDX 50 55 66 56 37 57 38 58 49 60 67 61 40 62 27 63 28 64 33 65
REMARK SMILES IDX 29 66 30 67 32 68 34 69 31 70 53 71 54 72 59 73 55 74 56 75
REMARK SMILES IDX 58 76 60 77 57 78 41 79 42 80 47 81 43 82 44 83 46 84 48 85
REMARK SMILES IDX 45 86
REMARK H PARENT 5 12 65 48 39 59
REMARK Flexibility Score: inf
ROOT
ATOM      1  C   UNL A   1      34.151  34.511  29.139  1.00  0.00     0.275 C 
ENDROOT
BRANCH   1   2
ATOM      2  O   UNL A   1      34.246  33.441  28.178  1.00  0.00    -0.458 OA
BRANCH   2   3
ATOM      3  C   UNL A   1      33.063  32.996  27.688  1.00  0.00     0.338 C 
ATOM      4  O   UNL A   1      32.065  33.668  27.481  1.00  0.00    -0.246 OA
BRANCH   3   5
ATOM      5  C   UNL A   1      33.147  31.563  27.327  1.00  0.00     0.060 A 
ATOM      6  C   UNL A   1      33.136  28.795  26.852  1.00  0.00     0.040 A 
ATOM      7  C   UNL A   1      31.979  29.543  26.646  1.00  0.00     0.027 A 
ATOM      8  C   UNL A   1      34.308  29.453  27.265  1.00  0.00     0.027 A 
ATOM      9  C   UNL A   1      31.979  30.909  26.918  1.00  0.00     0.018 A 
ATOM     10  C   UNL A   1      34.327  30.836  27.479  1.00  0.00     0.018 A 
BRANCH   6  11
ATOM     11  N   UNL A   1      33.040  27.391  26.862  1.00  0.00    -0.340 N 
ATOM     12  H   UNL A   1      32.865  26.940  27.720  1.00  0.00     0.168 HD
BRANCH  11  13
ATOM     13  C   UNL A   1      33.183  26.598  25.707  1.00  0.00     0.136 A 
ATOM     14  C   UNL A   1      33.513  26.946  21.995  1.00  0.00     0.067 C 
ATOM     15  C   UNL A   1      33.517  26.396  23.389  1.00  0.00     0.045 A 
ATOM     16  C   UNL A   1      33.244  27.207  24.472  1.00  0.00     0.070 A 
ATOM     17  N   UNL A   1      33.779  25.082  23.520  1.00  0.00    -0.216 NA
ATOM     18  C   UNL A   1      33.630  24.553  24.755  1.00  0.00     0.252 A 
ATOM     19  N   UNL A   1      33.312  25.269  25.843  1.00  0.00    -0.194 NA
BRANCH  18  20
ATOM     20  N   UNL A   1      33.877  23.151  24.935  1.00  0.00    -0.203 N 
ATOM     21  N   UNL A   1      32.900  22.215  24.745  1.00  0.00    -0.170 NA
ATOM     22  C   UNL A   1      35.071  22.559  25.322  1.00  0.00     0.045 A 
ATOM     23  C   UNL A   1      33.534  21.041  24.826  1.00  0.00     0.060 A 
ATOM     24  C   UNL A   1      34.879  21.199  25.216  1.00  0.00     0.049 A 
ATOM     25  C   UNL A   1      36.227  23.334  25.832  1.00  0.00     0.067 C 
ATOM     26  C   UNL A   1      32.811  19.778  24.538  1.00  0.00     0.069 C 
ENDBRANCH  18  20
ENDBRANCH  11  13
ENDBRANCH   6  11
ENDBRANCH   3   5
ENDBRANCH   2   3
ENDBRANCH   1   2
BRANCH   1  27
ATOM     27  C   UNL A   1      34.113  33.969  30.568  1.00  0.00     0.275 C 
BRANCH  27  28
ATOM     28  O   UNL A   1      34.489  32.580  30.591  1.00  0.00    -0.458 OA
BRANCH  28  29
ATOM     29  C   UNL A   1      35.279  32.205  31.622  1.00  0.00     0.338 C 
ATOM     30  O   UNL A   1      35.099  32.398  32.812  1.00  0.00    -0.246 OA
BRANCH  29  31
ATOM     31  C   UNL A   1      36.453  31.482  31.110  1.00  0.00     0.060 A 
ATOM     32  C   UNL A   1      37.231  30.739  31.991  1.00  0.00     0.016 A 
ATOM     33  C   UNL A   1      36.865  31.654  29.792  1.00  0.00     0.016 A 
ATOM     34  C   UNL A   1      38.479  30.262  31.601  1.00  0.00     0.010 A 
ATOM     35  C   UNL A   1      38.059  31.067  29.365  1.00  0.00     0.010 A 
ATOM     36  C   UNL A   1      38.901  30.395  30.273  1.00  0.00    -0.014 A 
BRANCH  36  37
ATOM     37  C   UNL A   1      40.210  29.846  29.822  1.00  0.00     0.031 A 
ATOM     38  C   UNL A   1      41.407  30.751  29.705  1.00  0.00     0.074 A 
ATOM     39  C   UNL A   1      40.328  28.548  29.477  1.00  0.00     0.049 A 
ATOM     40  N   UNL A   1      42.539  30.555  29.079  1.00  0.00    -0.248 NA
ATOM     41  C   UNL A   1      41.303  32.063  30.364  1.00  0.00     0.031 C 
ATOM     42  C   UNL A   1      39.274  27.538  29.582  1.00  0.00     0.029 A 
ATOM     43  N   UNL A   1      41.392  27.859  28.943  1.00  0.00    -0.354 N 
ATOM     44  C   UNL A   1      43.250  31.742  29.203  1.00  0.00     0.074 A 
ATOM     45  C   UNL A   1      42.426  32.649  29.972  1.00  0.00     0.031 C 
ATOM     46  C   UNL A   1      39.740  26.364  29.140  1.00  0.00     0.029 A 
ATOM     47  C   UNL A   1      41.091  26.557  28.626  1.00  0.00     0.049 A 
ATOM     48  H   UNL A   1      42.280  28.260  28.802  1.00  0.00     0.167 HD
ATOM     49  C   UNL A   1      44.475  32.047  28.709  1.00  0.00     0.037 A 
ATOM     50  C   UNL A   1      41.788  25.634  27.937  1.00  0.00     0.037 A 
ATOM     51  C   UNL A   1      45.312  31.118  27.994  1.00  0.00     0.049 A 
ATOM     52  C   UNL A   1      43.133  25.992  27.381  1.00  0.00     0.074 A 
ATOM     53  C   UNL A   1      46.583  31.316  27.483  1.00  0.00     0.029 A 
ATOM     54  N   UNL A   1      44.966  29.806  27.703  1.00  0.00    -0.354 N 
ATOM     55  N   UNL A   1      43.776  27.132  27.453  1.00  0.00    -0.248 NA
ATOM     56  C   UNL A   1      43.842  24.946  26.633  1.00  0.00     0.031 C 
ATOM     57  C   UNL A   1      46.991  30.137  26.850  1.00  0.00     0.029 A 
ATOM     58  C   UNL A   1      45.991  29.189  27.005  1.00  0.00     0.049 A 
ATOM     59  H   UNL A   1      44.116  29.378  27.954  1.00  0.00     0.167 HD
ATOM     60  C   UNL A   1      44.968  26.941  26.769  1.00  0.00     0.074 A 
ATOM     61  C   UNL A   1      44.964  25.568  26.301  1.00  0.00     0.031 C 
ATOM     62  C   UNL A   1      45.972  27.823  26.547  1.00  0.00     0.037 A 
BRANCH  49  63
ATOM     63  C   UNL A   1      44.957  33.458  28.881  1.00  0.00     0.057 A 
ATOM     64  C   UNL A   1      45.718  33.864  29.984  1.00  0.00     0.134 A 
ATOM     65  C   UNL A   1      44.657  34.428  27.914  1.00  0.00     0.134 A 
ATOM     66  F   UNL A   1      46.028  32.990  30.954  1.00  0.00    -0.206 F 
ATOM     67  C   UNL A   1      46.135  35.189  30.136  1.00  0.00     0.040 A 
ATOM     68  C   UNL A   1      45.092  35.748  28.041  1.00  0.00     0.040 A 
ATOM     69  F   UNL A   1      43.939  34.107  26.827  1.00  0.00    -0.206 F 
ATOM     70  C   UNL A   1      45.825  36.134  29.160  1.00  0.00     0.006 A 
ENDBRANCH  49  63
BRANCH  50  71
ATOM     71  C   UNL A   1      41.179  24.304  27.690  1.00  0.00     0.057 A 
ATOM     72  C   UNL A   1      40.182  24.130  26.726  1.00  0.00     0.134 A 
ATOM     73  C   UNL A   1      41.627  23.164  28.372  1.00  0.00     0.134 A 
ATOM     74  F   UNL A   1      39.700  25.187  26.056  1.00  0.00    -0.206 F 
ATOM     75  C   UNL A   1      39.656  22.869  26.442  1.00  0.00     0.040 A 
ATOM     76  C   UNL A   1      41.128  21.894  28.081  1.00  0.00     0.040 A 
ATOM     77  F   UNL A   1      42.586  23.266  29.303  1.00  0.00    -0.206 F 
ATOM     78  C   UNL A   1      40.138  21.744  27.112  1.00  0.00     0.006 A 
ENDBRANCH  50  71
BRANCH  62  79
ATOM     79  C   UNL A   1      47.163  27.322  25.789  1.00  0.00     0.057 A 
ATOM     80  C   UNL A   1      48.199  26.623  26.421  1.00  0.00     0.134 A 
ATOM     81  C   UNL A   1      47.255  27.509  24.404  1.00  0.00     0.134 A 
ATOM     82  F   UNL A   1      48.176  26.427  27.747  1.00  0.00    -0.206 F 
ATOM     83  C   UNL A   1      49.293  26.140  25.701  1.00  0.00     0.040 A 
ATOM     84  C   UNL A   1      48.333  27.012  23.672  1.00  0.00     0.040 A 
ATOM     85  F   UNL A   1      46.291  28.166  23.740  1.00  0.00    -0.206 F 
ATOM     86  C   UNL A   1      49.358  26.328  24.321  1.00  0.00     0.006 A 
ENDBRANCH  62  79
ENDBRANCH  36  37
ENDBRANCH  29  31
ENDBRANCH  28  29
ENDBRANCH  27  28
ENDBRANCH   1  27
TORSDOF 14
ENDMDL
MODEL 2
REMARK VINA RESULT:     -12.0      5.121      9.963
REMARK SMILES Cc1cc(Nc2ccc(C(=O)OCCOC(=O)c3ccc(-c4c5nc(c(-c6c(F)cccc6F)c6ccc([nH]6)c(-c6c(F)cccc6F)c6nc(c(-c7c(F)cccc7F)c7ccc4[nH]7)C=C6)C=C5)cc3)cc2)nc(-n2nc(C)cc2C)n1
REMARK SMILES IDX 13 1 12 2 10 3 11 4 9 5 6 6 7 7 73 8 8 9 72 10 5 11 4 13
REMARK SMILES IDX 1 14 2 15 3 16 83 17 75 18 74 19 76 20 77 21 81 22 78 23
REMARK SMILES IDX 80 24 82 25 79 26 14 27 15 28 16 29 17 30 18 31 19 32 71 33
REMARK SMILES IDX 20 34 70 35 21 36 22 37 23 38 64 39 24 40 69 41 63 42 65 43
REMARK SMILES IDX 25 44 68 45 62 46 61 47 26 49 52 50 35 51 51 52 36 53 39 54
REMARK SMILES IDX 50 55 66 56 37 57 38 58 49 60 67 61 40 62 27 63 28 64 33 65
REMARK SMILES IDX 29 66 30 67 32 68 34 69 31 70 53 71 54 72 59 73 55 74 56 75
REMARK SMILES IDX 58 76 60 77 57 78 41 79 42 80 47 81 43 82 44 83 46 84 48 85
REMARK SMILES IDX 45 86
REMARK H PARENT 5 12 65 48 39 59
REMARK Flexibility Score: inf
ROOT
ATOM      1  C   UNL A   1      42.370  20.185  26.237  1.00  0.00     0.275 C 
ENDROOT
BRANCH   1   2
ATOM      2  O   UNL A   1      41.068  20.620  26.676  1.00  0.00    -0.458 OA
BRANCH   2   3
ATOM      3  C   UNL A   1      40.022  20.110  25.981  1.00  0.00     0.338 C 
ATOM      4  O   UNL A   1      39.901  18.959  25.592  1.00  0.00    -0.246 OA
BRANCH   3   5
ATOM      5  C   UNL A   1      38.954  21.122  25.817  1.00  0.00     0.060 A 
ATOM      6  C   UNL A   1      37.004  23.060  25.244  1.00  0.00     0.040 A 
ATOM      7  C   UNL A   1      36.911  21.789  24.682  1.00  0.00     0.027 A 
ATOM      8  C   UNL A   1      38.065  23.339  26.124  1.00  0.00     0.027 A 
ATOM      9  C   UNL A   1      37.899  20.843  24.939  1.00  0.00     0.018 A 
ATOM     10  C   UNL A   1      39.026  22.370  26.433  1.00  0.00     0.018 A 
BRANCH   6  11
ATOM     11  N   UNL A   1      36.176  24.083  24.744  1.00  0.00    -0.340 N 
ATOM     12  H   UNL A   1      36.540  24.685  24.055  1.00  0.00     0.168 HD
BRANCH  11  13
ATOM     13  C   UNL A   1      34.853  24.289  25.181  1.00  0.00     0.136 A 
ATOM     14  C   UNL A   1      32.283  22.742  27.420  1.00  0.00     0.067 C 
ATOM     15  C   UNL A   1      33.031  23.703  26.546  1.00  0.00     0.045 A 
ATOM     16  C   UNL A   1      34.278  23.383  26.047  1.00  0.00     0.070 A 
ATOM     17  N   UNL A   1      32.419  24.869  26.265  1.00  0.00    -0.216 NA
ATOM     18  C   UNL A   1      33.020  25.667  25.356  1.00  0.00     0.252 A 
ATOM     19  N   UNL A   1      34.204  25.396  24.787  1.00  0.00    -0.194 NA
BRANCH  18  20
ATOM     20  N   UNL A   1      32.390  26.909  25.010  1.00  0.00    -0.203 N 
ATOM     21  N   UNL A   1      31.696  27.066  23.844  1.00  0.00    -0.170 NA
ATOM     22  C   UNL A   1      32.398  28.081  25.753  1.00  0.00     0.045 A 
ATOM     23  C   UNL A   1      31.116  28.267  23.953  1.00  0.00     0.060 A 
ATOM     24  C   UNL A   1      31.548  28.952  25.107  1.00  0.00     0.049 A 
ATOM     25  C   UNL A   1      33.270  28.282  26.935  1.00  0.00     0.067 C 
ATOM     26  C   UNL A   1      30.162  28.735  22.919  1.00  0.00     0.069 C 
ENDBRANCH  18  20
ENDBRANCH  11  13
ENDBRANCH   6  11
ENDBRANCH   3   5
ENDBRANCH   2   3
ENDBRANCH   1   2
BRANCH   1  27
ATOM     27  C   UNL A   1      43.156  21.338  25.613  1.00  0.00     0.275 C 
BRANCH  27  28
ATOM     28  O   UNL A   1      42.386  22.554  25.655  1.00  0.00    -0.458 OA
BRANCH  28  29
ATOM     29  C   UNL A   1      43.073  23.689  25.394  1.00  0.00     0.338 C 
ATOM     30  O   UNL A   1      43.732  23.954  24.404  1.00  0.00    -0.246 OA
BRANCH  29  31
ATOM     31  C   UNL A   1      42.912  24.633  26.510  1.00  0.00     0.060 A 
ATOM     32  C   UNL A   1      42.010  24.336  27.527  1.00  0.00     0.016 A 
ATOM     33  C   UNL A   1      43.542  25.872  26.478  1.00  0.00     0.016 A 
ATOM     34  C   UNL A   1      41.642  25.310  28.450  1.00  0.00     0.010 A 
ATOM     35  C   UNL A   1      43.267  26.807  27.481  1.00  0.00     0.010 A 
ATOM     36  C   UNL A   1      42.285  26.552  28.458  1.00  0.00    -0.014 A 
BRANCH  36  37
ATOM     37  C   UNL A   1      41.943  27.590  29.470  1.00  0.00     0.031 A 
ATOM     38  C   UNL A   1      42.704  27.659  30.767  1.00  0.00     0.074 A 
ATOM     39  C   UNL A   1      40.926  28.449  29.256  1.00  0.00     0.049 A 
ATOM     40  N   UNL A   1      42.398  28.279  31.878  1.00  0.00    -0.248 NA
ATOM     41  C   UNL A   1      43.968  26.910  30.825  1.00  0.00     0.031 C 
ATOM     42  C   UNL A   1      40.129  28.538  28.031  1.00  0.00     0.029 A 
ATOM     43  N   UNL A   1      40.374  29.403  30.078  1.00  0.00    -0.354 N 
ATOM     44  C   UNL A   1      43.389  27.934  32.788  1.00  0.00     0.074 A 
ATOM     45  C   UNL A   1      44.311  27.059  32.097  1.00  0.00     0.031 C 
ATOM     46  C   UNL A   1      39.202  29.494  28.175  1.00  0.00     0.029 A 
ATOM     47  C   UNL A   1      39.271  30.016  29.535  1.00  0.00     0.049 A 
ATOM     48  H   UNL A   1      40.734  29.625  30.967  1.00  0.00     0.167 HD
ATOM     49  C   UNL A   1      43.509  28.306  34.086  1.00  0.00     0.037 A 
ATOM     50  C   UNL A   1      38.368  30.851  30.082  1.00  0.00     0.037 A 
ATOM     51  C   UNL A   1      42.618  29.224  34.749  1.00  0.00     0.049 A 
ATOM     52  C   UNL A   1      38.504  31.240  31.523  1.00  0.00     0.074 A 
ATOM     53  C   UNL A   1      42.672  29.694  36.050  1.00  0.00     0.029 A 
ATOM     54  N   UNL A   1      41.517  29.823  34.155  1.00  0.00    -0.354 N 
ATOM     55  N   UNL A   1      39.410  30.867  32.393  1.00  0.00    -0.248 NA
ATOM     56  C   UNL A   1      37.485  32.148  32.065  1.00  0.00     0.031 C 
ATOM     57  C   UNL A   1      41.584  30.549  36.254  1.00  0.00     0.029 A 
ATOM     58  C   UNL A   1      40.875  30.646  35.066  1.00  0.00     0.049 A 
ATOM     59  H   UNL A   1      41.233  29.684  33.223  1.00  0.00     0.167 HD
ATOM     60  C   UNL A   1      39.078  31.499  33.583  1.00  0.00     0.074 A 
ATOM     61  C   UNL A   1      37.893  32.292  33.318  1.00  0.00     0.031 C 
ATOM     62  C   UNL A   1      39.698  31.428  34.785  1.00  0.00     0.037 A 
BRANCH  49  63
ATOM     63  C   UNL A   1      44.614  27.680  34.886  1.00  0.00     0.057 A 
ATOM     64  C   UNL A   1      45.883  28.262  35.002  1.00  0.00     0.134 A 
ATOM     65  C   UNL A   1      44.398  26.469  35.559  1.00  0.00     0.134 A 
ATOM     66  F   UNL A   1      46.161  29.413  34.372  1.00  0.00    -0.206 F 
ATOM     67  C   UNL A   1      46.904  27.648  35.730  1.00  0.00     0.040 A 
ATOM     68  C   UNL A   1      45.403  25.860  36.312  1.00  0.00     0.040 A 
ATOM     69  F   UNL A   1      43.204  25.859  35.497  1.00  0.00    -0.206 F 
ATOM     70  C   UNL A   1      46.664  26.445  36.392  1.00  0.00     0.006 A 
ENDBRANCH  49  63
BRANCH  50  71
ATOM     71  C   UNL A   1      37.223  31.317  29.261  1.00  0.00     0.057 A 
ATOM     72  C   UNL A   1      36.091  30.518  29.077  1.00  0.00     0.134 A 
ATOM     73  C   UNL A   1      37.211  32.598  28.693  1.00  0.00     0.134 A 
ATOM     74  F   UNL A   1      36.052  29.275  29.580  1.00  0.00    -0.206 F 
ATOM     75  C   UNL A   1      34.983  30.978  28.364  1.00  0.00     0.040 A 
ATOM     76  C   UNL A   1      36.102  33.081  28.000  1.00  0.00     0.040 A 
ATOM     77  F   UNL A   1      38.266  33.413  28.841  1.00  0.00    -0.206 F 
ATOM     78  C   UNL A   1      34.982  32.269  27.833  1.00  0.00     0.006 A 
ENDBRANCH  50  71
BRANCH  62  79
ATOM     79  C   UNL A   1      39.123  32.250  35.898  1.00  0.00     0.057 A 
ATOM     80  C   UNL A   1      38.217  31.713  36.821  1.00  0.00     0.134 A 
ATOM     81  C   UNL A   1      39.512  33.585  36.070  1.00  0.00     0.134 A 
ATOM     82  F   UNL A   1      37.795  30.446  36.700  1.00  0.00    -0.206 F 
ATOM     83  C   UNL A   1      37.707  32.481  37.869  1.00  0.00     0.040 A 
ATOM     84  C   UNL A   1      39.024  34.355  37.125  1.00  0.00     0.040 A 
ATOM     85  F   UNL A   1      40.381  34.156  35.222  1.00  0.00    -0.206 F 
ATOM     86  C   UNL A   1      38.115  33.805  38.027  1.00  0.00     0.006 A 
ENDBRANCH  62  79
ENDBRANCH  36  37
ENDBRANCH  29  31
ENDBRANCH  28  29
ENDBRANCH  27  28
ENDBRANCH   1  27
TORSDOF 14
ENDMDL
MODEL 3
REMARK VINA RESULT:     -12.0      5.072      9.814
REMARK SMILES Cc1cc(Nc2ccc(C(=O)OCCOC(=O)c3ccc(-c4c5nc(c(-c6c(F)cccc6F)c6ccc([nH]6)c(-c6c(F)cccc6F)c6nc(c(-c7c(F)cccc7F)c7ccc4[nH]7)C=C6)C=C5)cc3)cc2)nc(-n2nc(C)cc2C)n1
REMARK SMILES IDX 13 1 12 2 10 3 11 4 9 5 6 6 7 7 73 8 8 9 72 10 5 11 4 13
REMARK SMILES IDX 1 14 2 15 3 16 83 17 75 18 74 19 76 20 77 21 81 22 78 23
REMARK SMILES IDX 80 24 82 25 79 26 14 27 15 28 16 29 17 30 18 31 19 32 71 33
REMARK SMILES IDX 20 34 70 35 21 36 22 37 23 38 64 39 24 40 69 41 63 42 65 43
REMARK SMILES IDX 25 44 68 45 62 46 61 47 26 49 52 50 35 51 51 52 36 53 39 54
REMARK SMILES IDX 50 55 66 56 37 57 38 58 49 60 67 61 40 62 27 63 28 64 33 65
REMARK SMILES IDX 29 66 30 67 32 68 34 69 31 70 53 71 54 72 59 73 55 74 56 75
REMARK SMILES IDX 58 76 60 77 57 78 41 79 42 80 47 81 43 82 44 83 46 84 48 85
REMARK SMILES IDX 45 86
REMARK H PARENT 5 12 65 48 39 59
REMARK Flexibility Score: inf
ROOT
ATOM      1  C   UNL A   1      42.476  20.599  26.552  1.00  0.00     0.275 C 
ENDROOT
BRANCH   1   2
ATOM      2  O   UNL A   1      41.127  21.046  26.790  1.00  0.00    -0.458 OA
BRANCH   2   3
ATOM      3  C   UNL A   1      40.171  20.411  26.069  1.00  0.00     0.338 C 
ATOM      4  O   UNL A   1      40.158  19.229  25.763  1.00  0.00    -0.246 OA
BRANCH   3   5
ATOM      5  C   UNL A   1      39.049  21.326  25.760  1.00  0.00     0.060 A 
ATOM      6  C   UNL A   1      36.856  23.051  25.441  1.00  0.00     0.040 A 
ATOM      7  C   UNL A   1      37.975  23.469  26.159  1.00  0.00     0.027 A 
ATOM      8  C   UNL A   1      36.862  21.773  24.856  1.00  0.00     0.027 A 
ATOM      9  C   UNL A   1      39.044  22.598  26.346  1.00  0.00     0.018 A 
ATOM     10  C   UNL A   1      37.961  20.918  24.990  1.00  0.00     0.018 A 
BRANCH   6  11
ATOM     11  N   UNL A   1      35.679  23.820  25.516  1.00  0.00    -0.340 N 
ATOM     12  H   UNL A   1      35.758  24.801  25.490  1.00  0.00     0.168 HD
BRANCH  11  13
ATOM     13  C   UNL A   1      34.394  23.255  25.625  1.00  0.00     0.136 A 
ATOM     14  C   UNL A   1      30.886  24.222  26.500  1.00  0.00     0.067 C 
ATOM     15  C   UNL A   1      32.082  23.477  25.992  1.00  0.00     0.045 A 
ATOM     16  C   UNL A   1      33.340  24.046  26.031  1.00  0.00     0.070 A 
ATOM     17  N   UNL A   1      31.867  22.234  25.522  1.00  0.00    -0.216 NA
ATOM     18  C   UNL A   1      32.961  21.505  25.211  1.00  0.00     0.252 A 
ATOM     19  N   UNL A   1      34.217  21.971  25.276  1.00  0.00    -0.194 NA
BRANCH  18  20
ATOM     20  N   UNL A   1      32.778  20.166  24.727  1.00  0.00    -0.203 N 
ATOM     21  N   UNL A   1      33.074  19.075  25.495  1.00  0.00    -0.170 NA
ATOM     22  C   UNL A   1      32.314  19.789  23.475  1.00  0.00     0.045 A 
ATOM     23  C   UNL A   1      32.615  18.032  24.793  1.00  0.00     0.060 A 
ATOM     24  C   UNL A   1      32.163  18.420  23.516  1.00  0.00     0.049 A 
ATOM     25  C   UNL A   1      32.149  20.746  22.355  1.00  0.00     0.067 C 
ATOM     26  C   UNL A   1      32.642  16.668  25.375  1.00  0.00     0.069 C 
ENDBRANCH  18  20
ENDBRANCH  11  13
ENDBRANCH   6  11
ENDBRANCH   3   5
ENDBRANCH   2   3
ENDBRANCH   1   2
BRANCH   1  27
ATOM     27  C   UNL A   1      43.117  21.367  25.396  1.00  0.00     0.275 C 
BRANCH  27  28
ATOM     28  O   UNL A   1      42.441  22.620  25.187  1.00  0.00    -0.458 OA
BRANCH  28  29
ATOM     29  C   UNL A   1      43.235  23.714  25.161  1.00  0.00     0.338 C 
ATOM     30  O   UNL A   1      44.229  23.903  24.482  1.00  0.00    -0.246 OA
BRANCH  29  31
ATOM     31  C   UNL A   1      42.720  24.722  26.101  1.00  0.00     0.060 A 
ATOM     32  C   UNL A   1      43.103  26.051  25.950  1.00  0.00     0.016 A 
ATOM     33  C   UNL A   1      41.978  24.333  27.211  1.00  0.00     0.016 A 
ATOM     34  C   UNL A   1      42.853  26.976  26.959  1.00  0.00     0.010 A 
ATOM     35  C   UNL A   1      41.616  25.290  28.164  1.00  0.00     0.010 A 
ATOM     36  C   UNL A   1      42.080  26.617  28.070  1.00  0.00    -0.014 A 
BRANCH  36  37
ATOM     37  C   UNL A   1      41.756  27.606  29.135  1.00  0.00     0.031 A 
ATOM     38  C   UNL A   1      42.528  27.602  30.427  1.00  0.00     0.074 A 
ATOM     39  C   UNL A   1      40.747  28.485  28.972  1.00  0.00     0.049 A 
ATOM     40  N   UNL A   1      42.237  28.168  31.571  1.00  0.00    -0.248 NA
ATOM     41  C   UNL A   1      43.785  26.838  30.437  1.00  0.00     0.031 C 
ATOM     42  C   UNL A   1      39.942  28.643  27.760  1.00  0.00     0.029 A 
ATOM     43  N   UNL A   1      40.212  29.402  29.846  1.00  0.00    -0.354 N 
ATOM     44  C   UNL A   1      43.232  27.768  32.454  1.00  0.00     0.074 A 
ATOM     45  C   UNL A   1      44.139  26.919  31.712  1.00  0.00     0.031 C 
ATOM     46  C   UNL A   1      39.025  29.599  27.960  1.00  0.00     0.029 A 
ATOM     47  C   UNL A   1      39.111  30.052  29.343  1.00  0.00     0.049 A 
ATOM     48  H   UNL A   1      40.581  29.575  30.742  1.00  0.00     0.167 HD
ATOM     49  C   UNL A   1      43.366  28.073  33.768  1.00  0.00     0.037 A 
ATOM     50  C   UNL A   1      38.221  30.867  29.939  1.00  0.00     0.037 A 
ATOM     51  C   UNL A   1      42.489  28.965  34.484  1.00  0.00     0.049 A 
ATOM     52  C   UNL A   1      38.372  31.182  31.396  1.00  0.00     0.074 A 
ATOM     53  C   UNL A   1      42.558  29.369  35.806  1.00  0.00     0.029 A 
ATOM     54  N   UNL A   1      41.390  29.605  33.929  1.00  0.00    -0.354 N 
ATOM     55  N   UNL A   1      39.281  30.757  32.239  1.00  0.00    -0.248 NA
ATOM     56  C   UNL A   1      37.366  32.072  31.991  1.00  0.00     0.031 C 
ATOM     57  C   UNL A   1      41.480  30.224  36.061  1.00  0.00     0.029 A 
ATOM     58  C   UNL A   1      40.764  30.387  34.886  1.00  0.00     0.049 A 
ATOM     59  H   UNL A   1      41.097  29.515  32.993  1.00  0.00     0.167 HD
ATOM     60  C   UNL A   1      38.965  31.331  33.462  1.00  0.00     0.074 A 
ATOM     61  C   UNL A   1      37.786  32.149  33.246  1.00  0.00     0.031 C 
ATOM     62  C   UNL A   1      39.592  31.194  34.654  1.00  0.00     0.037 A 
BRANCH  49  63
ATOM     63  C   UNL A   1      44.471  27.397  34.526  1.00  0.00     0.057 A 
ATOM     64  C   UNL A   1      45.743  27.963  34.668  1.00  0.00     0.134 A 
ATOM     65  C   UNL A   1      44.249  26.152  35.132  1.00  0.00     0.134 A 
ATOM     66  F   UNL A   1      46.026  29.146  34.101  1.00  0.00    -0.206 F 
ATOM     67  C   UNL A   1      46.764  27.304  35.356  1.00  0.00     0.040 A 
ATOM     68  C   UNL A   1      45.253  25.495  35.845  1.00  0.00     0.040 A 
ATOM     69  F   UNL A   1      43.051  25.554  35.043  1.00  0.00    -0.206 F 
ATOM     70  C   UNL A   1      46.519  26.067  35.951  1.00  0.00     0.006 A 
ENDBRANCH  49  63
BRANCH  50  71
ATOM     71  C   UNL A   1      37.074  31.385  29.152  1.00  0.00     0.057 A 
ATOM     72  C   UNL A   1      35.938  30.603  28.926  1.00  0.00     0.134 A 
ATOM     73  C   UNL A   1      37.066  32.697  28.660  1.00  0.00     0.134 A 
ATOM     74  F   UNL A   1      35.896  29.333  29.355  1.00  0.00    -0.206 F 
ATOM     75  C   UNL A   1      34.829  31.109  28.246  1.00  0.00     0.040 A 
ATOM     76  C   UNL A   1      35.955  33.225  28.001  1.00  0.00     0.040 A 
ATOM     77  F   UNL A   1      38.125  33.498  28.851  1.00  0.00    -0.206 F 
ATOM     78  C   UNL A   1      34.832  32.428  27.792  1.00  0.00     0.006 A 
ENDBRANCH  50  71
BRANCH  62  79
ATOM     79  C   UNL A   1      39.035  31.965  35.811  1.00  0.00     0.057 A 
ATOM     80  C   UNL A   1      38.183  31.372  36.751  1.00  0.00     0.134 A 
ATOM     81  C   UNL A   1      39.387  33.307  36.008  1.00  0.00     0.134 A 
ATOM     82  F   UNL A   1      37.797  30.095  36.609  1.00  0.00    -0.206 F 
ATOM     83  C   UNL A   1      37.689  32.093  37.840  1.00  0.00     0.040 A 
ATOM     84  C   UNL A   1      38.915  34.030  37.103  1.00  0.00     0.040 A 
ATOM     85  F   UNL A   1      40.204  33.930  35.145  1.00  0.00    -0.206 F 
ATOM     86  C   UNL A   1      38.060  33.424  38.021  1.00  0.00     0.006 A 
ENDBRANCH  62  79
ENDBRANCH  36  37
ENDBRANCH  29  31
ENDBRANCH  28  29
ENDBRANCH  27  28
ENDBRANCH   1  27
TORSDOF 14
ENDMDL
