MODEL 1
REMARK VINA RESULT:      -9.6      0.000      0.000
REMARK SMILES COC[C@@H](C)CC(=O)N1CCSC[C@@H]1CC(=O)OCCOC(=O)c1ccc(-c2c3nc(c(-c4c(F)cccc4F)c4ccc([nH]4)c(-c4c(F)cccc4F)c4nc(c(-c5c(F)cccc5F)c5ccc2[nH]5)C=C4)C=C3)cc1
REMARK SMILES IDX 16 1 17 2 15 3 14 4 9 5 10 6 11 7 13 8 12 9 7 10 8 11 6 12
REMARK SMILES IDX 4 13 5 14 3 15 2 16 1 17 18 18 19 19 20 20 21 21 22 22 23 23
REMARK SMILES IDX 24 24 25 25 77 26 26 27 76 28 27 29 28 30 29 31 70 32 30 33
REMARK SMILES IDX 75 34 69 35 71 36 31 37 74 38 68 39 67 40 32 42 58 43 41 44
REMARK SMILES IDX 57 45 42 46 45 47 56 48 72 49 43 50 44 51 55 53 73 54 46 55
REMARK SMILES IDX 33 56 34 57 39 58 35 59 36 60 38 61 40 62 37 63 59 64 60 65
REMARK SMILES IDX 65 66 61 67 62 68 64 69 66 70 63 71 47 72 48 73 53 74 49 75
REMARK SMILES IDX 50 76 52 77 54 78 51 79
REMARK H PARENT 71 41 45 52
REMARK Flexibility Score: inf
ROOT
ATOM      1  C   UNL A   1      36.956  22.565  25.054  1.00  0.00     0.308 C 
ATOM      2  O   UNL A   1      37.343  23.728  25.144  1.00  0.00    -0.252 OA
ENDROOT
BRANCH   1   3
ATOM      3  C   UNL A   1      35.726  22.232  24.249  1.00  0.00     0.148 C 
BRANCH   3   4
ATOM      4  C   UNL A   1      34.380  22.030  24.965  1.00  0.00     0.106 C 
ATOM      5  N   UNL A   1      33.332  21.366  24.145  1.00  0.00    -0.337 N 
ATOM      6  C   UNL A   1      32.828  22.107  22.983  1.00  0.00     0.130 C 
ATOM      7  C   UNL A   1      32.266  23.498  23.308  1.00  0.00     0.091 C 
ATOM      8  C   UNL A   1      33.875  23.386  25.517  1.00  0.00     0.095 C 
ATOM      9  S   UNL A   1      33.453  24.562  24.184  1.00  0.00    -0.158 SA
BRANCH   5  10
ATOM     10  C   UNL A   1      32.452  20.530  24.831  1.00  0.00     0.223 C 
ATOM     11  O   UNL A   1      31.452  20.990  25.391  1.00  0.00    -0.275 OA
BRANCH  10  12
ATOM     12  C   UNL A   1      32.866  19.080  25.080  1.00  0.00     0.106 C 
BRANCH  12  13
ATOM     13  C   UNL A   1      33.649  18.310  24.007  1.00  0.00     0.021 C 
ATOM     14  C   UNL A   1      32.678  17.915  22.875  1.00  0.00     0.010 C 
BRANCH  13  15
ATOM     15  C   UNL A   1      34.298  17.008  24.508  1.00  0.00     0.163 C 
BRANCH  15  16
ATOM     16  O   UNL A   1      33.585  16.552  25.665  1.00  0.00    -0.384 OA
ATOM     17  C   UNL A   1      32.906  15.325  25.429  1.00  0.00     0.194 C 
ENDBRANCH  15  16
ENDBRANCH  13  15
ENDBRANCH  12  13
ENDBRANCH  10  12
ENDBRANCH   5  10
ENDBRANCH   3   4
ENDBRANCH   1   3
BRANCH   1  18
ATOM     18  O   UNL A   1      37.538  21.521  25.688  1.00  0.00    -0.462 OA
BRANCH  18  19
ATOM     19  C   UNL A   1      37.415  20.253  25.006  1.00  0.00     0.274 C 
BRANCH  19  20
ATOM     20  C   UNL A   1      38.741  19.494  24.880  1.00  0.00     0.275 C 
BRANCH  20  21
ATOM     21  O   UNL A   1      39.375  19.270  26.156  1.00  0.00    -0.458 OA
BRANCH  21  22
ATOM     22  C   UNL A   1      40.685  19.588  26.148  1.00  0.00     0.338 C 
ATOM     23  O   UNL A   1      41.596  18.867  25.790  1.00  0.00    -0.246 OA
BRANCH  22  24
ATOM     24  C   UNL A   1      40.975  20.944  26.618  1.00  0.00     0.060 A 
ATOM     25  C   UNL A   1      41.271  21.936  25.683  1.00  0.00     0.016 A 
ATOM     26  C   UNL A   1      41.234  21.145  27.976  1.00  0.00     0.016 A 
ATOM     27  C   UNL A   1      41.858  23.126  26.102  1.00  0.00     0.010 A 
ATOM     28  C   UNL A   1      41.777  22.360  28.402  1.00  0.00     0.010 A 
ATOM     29  C   UNL A   1      42.103  23.352  27.465  1.00  0.00    -0.014 A 
BRANCH  29  30
ATOM     30  C   UNL A   1      42.569  24.686  27.902  1.00  0.00     0.031 A 
ATOM     31  C   UNL A   1      44.021  25.045  27.965  1.00  0.00     0.074 A 
ATOM     32  C   UNL A   1      41.626  25.587  28.235  1.00  0.00     0.049 A 
ATOM     33  N   UNL A   1      44.567  26.176  28.338  1.00  0.00    -0.248 NA
ATOM     34  C   UNL A   1      44.986  24.012  27.564  1.00  0.00     0.031 C 
ATOM     35  C   UNL A   1      40.184  25.337  28.205  1.00  0.00     0.029 A 
ATOM     36  N   UNL A   1      41.735  26.887  28.647  1.00  0.00    -0.354 N 
ATOM     37  C   UNL A   1      45.938  25.992  28.230  1.00  0.00     0.074 A 
ATOM     38  C   UNL A   1      46.143  24.635  27.763  1.00  0.00     0.031 C 
ATOM     39  C   UNL A   1      39.540  26.456  28.564  1.00  0.00     0.029 A 
ATOM     40  C   UNL A   1      40.524  27.485  28.882  1.00  0.00     0.049 A 
ATOM     41  H   UNL A   1      42.598  27.348  28.765  1.00  0.00     0.167 HD
ATOM     42  C   UNL A   1      46.927  26.879  28.496  1.00  0.00     0.037 A 
ATOM     43  C   UNL A   1      40.232  28.721  29.318  1.00  0.00     0.037 A 
ATOM     44  C   UNL A   1      46.715  28.234  28.942  1.00  0.00     0.049 A 
ATOM     45  C   UNL A   1      41.344  29.677  29.608  1.00  0.00     0.074 A 
ATOM     46  C   UNL A   1      47.656  29.217  29.199  1.00  0.00     0.029 A 
ATOM     47  N   UNL A   1      45.473  28.796  29.200  1.00  0.00    -0.354 N 
ATOM     48  N   UNL A   1      42.636  29.489  29.497  1.00  0.00    -0.248 NA
ATOM     49  C   UNL A   1      40.961  31.009  30.089  1.00  0.00     0.031 C 
ATOM     50  C   UNL A   1      46.985  30.365  29.639  1.00  0.00     0.029 A 
ATOM     51  C   UNL A   1      45.625  30.105  29.631  1.00  0.00     0.049 A 
ATOM     52  H   UNL A   1      44.611  28.333  29.092  1.00  0.00     0.167 HD
ATOM     53  C   UNL A   1      43.225  30.676  29.901  1.00  0.00     0.074 A 
ATOM     54  C   UNL A   1      42.146  31.586  30.239  1.00  0.00     0.031 C 
ATOM     55  C   UNL A   1      44.541  30.983  29.991  1.00  0.00     0.037 A 
BRANCH  42  56
ATOM     56  C   UNL A   1      48.341  26.412  28.326  1.00  0.00     0.057 A 
ATOM     57  C   UNL A   1      49.030  25.761  29.355  1.00  0.00     0.134 A 
ATOM     58  C   UNL A   1      48.996  26.556  27.096  1.00  0.00     0.134 A 
ATOM     59  F   UNL A   1      48.459  25.596  30.558  1.00  0.00    -0.206 F 
ATOM     60  C   UNL A   1      50.326  25.274  29.169  1.00  0.00     0.040 A 
ATOM     61  C   UNL A   1      50.285  26.063  26.894  1.00  0.00     0.040 A 
ATOM     62  F   UNL A   1      48.386  27.167  26.069  1.00  0.00    -0.206 F 
ATOM     63  C   UNL A   1      50.955  25.419  27.933  1.00  0.00     0.006 A 
ENDBRANCH  42  56
BRANCH  43  64
ATOM     64  C   UNL A   1      38.814  29.096  29.503  1.00  0.00     0.057 A 
ATOM     65  C   UNL A   1      38.201  28.997  30.755  1.00  0.00     0.134 A 
ATOM     66  C   UNL A   1      38.070  29.643  28.451  1.00  0.00     0.134 A 
ATOM     67  F   UNL A   1      38.868  28.475  31.794  1.00  0.00    -0.206 F 
ATOM     68  C   UNL A   1      36.895  29.440  30.960  1.00  0.00     0.040 A 
ATOM     69  C   UNL A   1      36.768  30.104  28.646  1.00  0.00     0.040 A 
ATOM     70  F   UNL A   1      38.614  29.773  27.234  1.00  0.00    -0.206 F 
ATOM     71  C   UNL A   1      36.178  30.005  29.905  1.00  0.00     0.006 A 
ENDBRANCH  43  64
BRANCH  55  72
ATOM     72  C   UNL A   1      44.871  32.352  30.493  1.00  0.00     0.057 A 
ATOM     73  C   UNL A   1      45.076  32.594  31.857  1.00  0.00     0.134 A 
ATOM     74  C   UNL A   1      44.975  33.436  29.615  1.00  0.00     0.134 A 
ATOM     75  F   UNL A   1      44.972  31.595  32.746  1.00  0.00    -0.206 F 
ATOM     76  C   UNL A   1      45.355  33.875  32.334  1.00  0.00     0.040 A 
ATOM     77  C   UNL A   1      45.267  34.719  30.078  1.00  0.00     0.040 A 
ATOM     78  F   UNL A   1      44.786  33.266  28.298  1.00  0.00    -0.206 F 
ATOM     79  C   UNL A   1      45.452  34.942  31.442  1.00  0.00     0.006 A 
ENDBRANCH  55  72
ENDBRANCH  29  30
ENDBRANCH  22  24
ENDBRANCH  21  22
ENDBRANCH  20  21
ENDBRANCH  19  20
ENDBRANCH  18  19
ENDBRANCH   1  18
TORSDOF 17
ENDMDL
MODEL 2
REMARK VINA RESULT:      -9.5      0.793      6.428
REMARK SMILES COC[C@@H](C)CC(=O)N1CCSC[C@@H]1CC(=O)OCCOC(=O)c1ccc(-c2c3nc(c(-c4c(F)cccc4F)c4ccc([nH]4)c(-c4c(F)cccc4F)c4nc(c(-c5c(F)cccc5F)c5ccc2[nH]5)C=C4)C=C3)cc1
REMARK SMILES IDX 16 1 17 2 15 3 14 4 9 5 10 6 11 7 13 8 12 9 7 10 8 11 6 12
REMARK SMILES IDX 4 13 5 14 3 15 2 16 1 17 18 18 19 19 20 20 21 21 22 22 23 23
REMARK SMILES IDX 24 24 25 25 77 26 26 27 76 28 27 29 28 30 29 31 70 32 30 33
REMARK SMILES IDX 75 34 69 35 71 36 31 37 74 38 68 39 67 40 32 42 58 43 41 44
REMARK SMILES IDX 57 45 42 46 45 47 56 48 72 49 43 50 44 51 55 53 73 54 46 55
REMARK SMILES IDX 33 56 34 57 39 58 35 59 36 60 38 61 40 62 37 63 59 64 60 65
REMARK SMILES IDX 65 66 61 67 62 68 64 69 66 70 63 71 47 72 48 73 53 74 49 75
REMARK SMILES IDX 50 76 52 77 54 78 51 79
REMARK H PARENT 71 41 45 52
REMARK Flexibility Score: inf
ROOT
ATOM      1  C   UNL A   1      36.781  22.514  24.286  1.00  0.00     0.308 C 
ATOM      2  O   UNL A   1      36.667  22.613  23.066  1.00  0.00    -0.252 OA
ENDROOT
BRANCH   1   3
ATOM      3  C   UNL A   1      35.805  23.207  25.201  1.00  0.00     0.148 C 
BRANCH   3   4
ATOM      4  C   UNL A   1      34.544  22.462  25.671  1.00  0.00     0.106 C 
ATOM      5  N   UNL A   1      33.699  21.915  24.577  1.00  0.00    -0.337 N 
ATOM      6  C   UNL A   1      33.038  22.886  23.698  1.00  0.00     0.130 C 
ATOM      7  C   UNL A   1      32.146  23.901  24.428  1.00  0.00     0.091 C 
ATOM      8  C   UNL A   1      33.715  23.377  26.606  1.00  0.00     0.095 C 
ATOM      9  S   UNL A   1      33.026  24.822  25.726  1.00  0.00    -0.158 SA
BRANCH   5  10
ATOM     10  C   UNL A   1      33.048  20.711  24.844  1.00  0.00     0.223 C 
ATOM     11  O   UNL A   1      31.875  20.702  25.229  1.00  0.00    -0.275 OA
BRANCH  10  12
ATOM     12  C   UNL A   1      33.873  19.426  24.883  1.00  0.00     0.106 C 
BRANCH  12  13
ATOM     13  C   UNL A   1      33.418  18.197  24.081  1.00  0.00     0.021 C 
ATOM     14  C   UNL A   1      32.507  18.668  22.929  1.00  0.00     0.010 C 
BRANCH  13  15
ATOM     15  C   UNL A   1      32.608  17.173  24.896  1.00  0.00     0.163 C 
BRANCH  15  16
ATOM     16  O   UNL A   1      33.045  15.854  24.546  1.00  0.00    -0.384 OA
ATOM     17  C   UNL A   1      32.633  14.882  25.499  1.00  0.00     0.194 C 
ENDBRANCH  15  16
ENDBRANCH  13  15
ENDBRANCH  12  13
ENDBRANCH  10  12
ENDBRANCH   5  10
ENDBRANCH   3   4
ENDBRANCH   1   3
BRANCH   1  18
ATOM     18  O   UNL A   1      37.784  21.847  24.902  1.00  0.00    -0.462 OA
BRANCH  18  19
ATOM     19  C   UNL A   1      37.607  20.415  24.972  1.00  0.00     0.274 C 
BRANCH  19  20
ATOM     20  C   UNL A   1      38.921  19.629  24.902  1.00  0.00     0.275 C 
BRANCH  20  21
ATOM     21  O   UNL A   1      39.572  19.524  26.185  1.00  0.00    -0.458 OA
BRANCH  21  22
ATOM     22  C   UNL A   1      40.914  19.617  26.095  1.00  0.00     0.338 C 
ATOM     23  O   UNL A   1      41.661  18.779  25.628  1.00  0.00    -0.246 OA
BRANCH  22  24
ATOM     24  C   UNL A   1      41.464  20.868  26.618  1.00  0.00     0.060 A 
ATOM     25  C   UNL A   1      41.234  21.205  27.952  1.00  0.00     0.016 A 
ATOM     26  C   UNL A   1      41.947  21.821  25.717  1.00  0.00     0.016 A 
ATOM     27  C   UNL A   1      41.457  22.508  28.384  1.00  0.00     0.010 A 
ATOM     28  C   UNL A   1      42.218  23.117  26.162  1.00  0.00     0.010 A 
ATOM     29  C   UNL A   1      41.962  23.470  27.496  1.00  0.00    -0.014 A 
BRANCH  29  30
ATOM     30  C   UNL A   1      42.351  24.798  28.017  1.00  0.00     0.031 A 
ATOM     31  C   UNL A   1      41.346  25.876  28.289  1.00  0.00     0.074 A 
ATOM     32  C   UNL A   1      43.658  25.007  28.256  1.00  0.00     0.049 A 
ATOM     33  N   UNL A   1      41.552  27.088  28.739  1.00  0.00    -0.248 NA
ATOM     34  C   UNL A   1      39.936  25.560  28.023  1.00  0.00     0.031 C 
ATOM     35  C   UNL A   1      44.718  24.022  28.027  1.00  0.00     0.029 A 
ATOM     36  N   UNL A   1      44.316  26.100  28.752  1.00  0.00    -0.354 N 
ATOM     37  C   UNL A   1      40.302  27.689  28.801  1.00  0.00     0.074 A 
ATOM     38  C   UNL A   1      39.343  26.708  28.333  1.00  0.00     0.031 C 
ATOM     39  C   UNL A   1      45.891  24.548  28.402  1.00  0.00     0.029 A 
ATOM     40  C   UNL A   1      45.670  25.915  28.860  1.00  0.00     0.049 A 
ATOM     41  H   UNL A   1      43.862  26.936  29.005  1.00  0.00     0.167 HD
ATOM     42  C   UNL A   1      39.993  28.943  29.212  1.00  0.00     0.037 A 
ATOM     43  C   UNL A   1      46.635  26.754  29.271  1.00  0.00     0.037 A 
ATOM     44  C   UNL A   1      40.952  29.906  29.694  1.00  0.00     0.049 A 
ATOM     45  C   UNL A   1      46.265  28.133  29.714  1.00  0.00     0.074 A 
ATOM     46  C   UNL A   1      40.726  31.188  30.169  1.00  0.00     0.029 A 
ATOM     47  N   UNL A   1      42.321  29.695  29.760  1.00  0.00    -0.354 N 
ATOM     48  N   UNL A   1      45.078  28.685  29.770  1.00  0.00    -0.248 NA
ATOM     49  C   UNL A   1      47.364  29.006  30.144  1.00  0.00     0.031 C 
ATOM     50  C   UNL A   1      41.961  31.761  30.496  1.00  0.00     0.029 A 
ATOM     51  C   UNL A   1      42.954  30.827  30.249  1.00  0.00     0.049 A 
ATOM     52  H   UNL A   1      42.777  28.862  29.498  1.00  0.00     0.167 HD
ATOM     53  C   UNL A   1      45.284  29.975  30.234  1.00  0.00     0.074 A 
ATOM     54  C   UNL A   1      46.710  30.114  30.465  1.00  0.00     0.031 C 
ATOM     55  C   UNL A   1      44.375  30.956  30.443  1.00  0.00     0.037 A 
BRANCH  42  56
ATOM     56  C   UNL A   1      38.556  29.358  29.148  1.00  0.00     0.057 A 
ATOM     57  C   UNL A   1      37.742  29.378  30.287  1.00  0.00     0.134 A 
ATOM     58  C   UNL A   1      37.997  29.809  27.944  1.00  0.00     0.134 A 
ATOM     59  F   UNL A   1      38.217  28.954  31.468  1.00  0.00    -0.206 F 
ATOM     60  C   UNL A   1      36.421  29.825  30.230  1.00  0.00     0.040 A 
ATOM     61  C   UNL A   1      36.682  30.270  27.878  1.00  0.00     0.040 A 
ATOM     62  F   UNL A   1      38.727  29.820  26.819  1.00  0.00    -0.206 F 
ATOM     63  C   UNL A   1      35.888  30.278  29.023  1.00  0.00     0.006 A 
ENDBRANCH  42  56
BRANCH  43  64
ATOM     64  C   UNL A   1      48.037  26.287  29.265  1.00  0.00     0.057 A 
ATOM     65  C   UNL A   1      48.856  26.482  28.150  1.00  0.00     0.134 A 
ATOM     66  C   UNL A   1      48.611  25.716  30.407  1.00  0.00     0.134 A 
ATOM     67  F   UNL A   1      48.354  27.020  27.029  1.00  0.00    -0.206 F 
ATOM     68  C   UNL A   1      50.206  26.133  28.171  1.00  0.00     0.040 A 
ATOM     69  C   UNL A   1      49.963  25.377  30.447  1.00  0.00     0.040 A 
ATOM     70  F   UNL A   1      47.874  25.520  31.508  1.00  0.00    -0.206 F 
ATOM     71  C   UNL A   1      50.765  25.588  29.327  1.00  0.00     0.006 A 
ENDBRANCH  43  64
BRANCH  55  72
ATOM     72  C   UNL A   1      44.912  32.266  30.927  1.00  0.00     0.057 A 
ATOM     73  C   UNL A   1      45.278  33.275  30.028  1.00  0.00     0.134 A 
ATOM     74  C   UNL A   1      45.073  32.518  32.294  1.00  0.00     0.134 A 
ATOM     75  F   UNL A   1      45.161  33.082  28.706  1.00  0.00    -0.206 F 
ATOM     76  C   UNL A   1      45.807  34.487  30.473  1.00  0.00     0.040 A 
ATOM     77  C   UNL A   1      45.588  33.731  32.751  1.00  0.00     0.040 A 
ATOM     78  F   UNL A   1      44.742  31.588  33.202  1.00  0.00    -0.206 F 
ATOM     79  C   UNL A   1      45.962  34.718  31.840  1.00  0.00     0.006 A 
ENDBRANCH  55  72
ENDBRANCH  29  30
ENDBRANCH  22  24
ENDBRANCH  21  22
ENDBRANCH  20  21
ENDBRANCH  19  20
ENDBRANCH  18  19
ENDBRANCH   1  18
TORSDOF 17
ENDMDL
MODEL 3
REMARK VINA RESULT:      -9.4      5.702      9.626
REMARK SMILES COC[C@@H](C)CC(=O)N1CCSC[C@@H]1CC(=O)OCCOC(=O)c1ccc(-c2c3nc(c(-c4c(F)cccc4F)c4ccc([nH]4)c(-c4c(F)cccc4F)c4nc(c(-c5c(F)cccc5F)c5ccc2[nH]5)C=C4)C=C3)cc1
REMARK SMILES IDX 16 1 17 2 15 3 14 4 9 5 10 6 11 7 13 8 12 9 7 10 8 11 6 12
REMARK SMILES IDX 4 13 5 14 3 15 2 16 1 17 18 18 19 19 20 20 21 21 22 22 23 23
REMARK SMILES IDX 24 24 25 25 77 26 26 27 76 28 27 29 28 30 29 31 70 32 30 33
REMARK SMILES IDX 75 34 69 35 71 36 31 37 74 38 68 39 67 40 32 42 58 43 41 44
REMARK SMILES IDX 57 45 42 46 45 47 56 48 72 49 43 50 44 51 55 53 73 54 46 55
REMARK SMILES IDX 33 56 34 57 39 58 35 59 36 60 38 61 40 62 37 63 59 64 60 65
REMARK SMILES IDX 65 66 61 67 62 68 64 69 66 70 63 71 47 72 48 73 53 74 49 75
REMARK SMILES IDX 50 76 52 77 54 78 51 79
REMARK H PARENT 71 41 45 52
REMARK Flexibility Score: inf
ROOT
ATOM      1  C   UNL A   1      32.552  29.330  27.104  1.00  0.00     0.308 C 
ATOM      2  O   UNL A   1      33.507  29.037  27.820  1.00  0.00    -0.252 OA
ENDROOT
BRANCH   1   3
ATOM      3  C   UNL A   1      31.839  28.264  26.312  1.00  0.00     0.148 C 
BRANCH   3   4
ATOM      4  C   UNL A   1      31.743  28.391  24.782  1.00  0.00     0.106 C 
ATOM      5  N   UNL A   1      30.393  28.122  24.218  1.00  0.00    -0.337 N 
ATOM      6  C   UNL A   1      29.884  26.751  24.335  1.00  0.00     0.130 C 
ATOM      7  C   UNL A   1      30.797  25.678  23.726  1.00  0.00     0.091 C 
ATOM      8  C   UNL A   1      32.810  27.488  24.116  1.00  0.00     0.095 C 
ATOM      9  S   UNL A   1      32.487  25.712  24.398  1.00  0.00    -0.158 SA
BRANCH   5  10
ATOM     10  C   UNL A   1      30.034  28.869  23.097  1.00  0.00     0.223 C 
ATOM     11  O   UNL A   1      30.240  28.437  21.960  1.00  0.00    -0.275 OA
BRANCH  10  12
ATOM     12  C   UNL A   1      29.604  30.323  23.294  1.00  0.00     0.106 C 
BRANCH  12  13
ATOM     13  C   UNL A   1      28.122  30.662  23.511  1.00  0.00     0.021 C 
ATOM     14  C   UNL A   1      27.265  29.502  22.965  1.00  0.00     0.010 C 
BRANCH  13  15
ATOM     15  C   UNL A   1      27.652  31.937  22.789  1.00  0.00     0.163 C 
BRANCH  15  16
ATOM     16  O   UNL A   1      28.598  32.264  21.763  1.00  0.00    -0.384 OA
ATOM     17  C   UNL A   1      28.028  32.185  20.463  1.00  0.00     0.194 C 
ENDBRANCH  15  16
ENDBRANCH  13  15
ENDBRANCH  12  13
ENDBRANCH  10  12
ENDBRANCH   5  10
ENDBRANCH   3   4
ENDBRANCH   1   3
BRANCH   1  18
ATOM     18  O   UNL A   1      32.101  30.593  26.920  1.00  0.00    -0.462 OA
BRANCH  18  19
ATOM     19  C   UNL A   1      33.016  31.630  27.337  1.00  0.00     0.274 C 
BRANCH  19  20
ATOM     20  C   UNL A   1      32.438  33.045  27.214  1.00  0.00     0.275 C 
BRANCH  20  21
ATOM     21  O   UNL A   1      32.372  33.728  28.482  1.00  0.00    -0.458 OA
BRANCH  21  22
ATOM     22  C   UNL A   1      33.404  34.575  28.670  1.00  0.00     0.338 C 
ATOM     23  O   UNL A   1      33.453  35.736  28.310  1.00  0.00    -0.246 OA
BRANCH  22  24
ATOM     24  C   UNL A   1      34.538  33.989  29.385  1.00  0.00     0.060 A 
ATOM     25  C   UNL A   1      35.829  34.213  28.908  1.00  0.00     0.016 A 
ATOM     26  C   UNL A   1      34.294  32.997  30.338  1.00  0.00     0.016 A 
ATOM     27  C   UNL A   1      36.880  33.422  29.361  1.00  0.00     0.010 A 
ATOM     28  C   UNL A   1      35.356  32.236  30.830  1.00  0.00     0.010 A 
ATOM     29  C   UNL A   1      36.654  32.437  30.334  1.00  0.00    -0.014 A 
BRANCH  29  30
ATOM     30  C   UNL A   1      37.809  31.726  30.923  1.00  0.00     0.031 A 
ATOM     31  C   UNL A   1      38.571  30.677  30.171  1.00  0.00     0.074 A 
ATOM     32  C   UNL A   1      38.170  32.068  32.173  1.00  0.00     0.049 A 
ATOM     33  N   UNL A   1      39.599  29.971  30.571  1.00  0.00    -0.248 NA
ATOM     34  C   UNL A   1      38.128  30.378  28.803  1.00  0.00     0.031 C 
ATOM     35  C   UNL A   1      37.496  33.079  32.990  1.00  0.00     0.029 A 
ATOM     36  N   UNL A   1      39.190  31.619  32.967  1.00  0.00    -0.354 N 
ATOM     37  C   UNL A   1      39.922  29.134  29.513  1.00  0.00     0.074 A 
ATOM     38  C   UNL A   1      38.973  29.415  28.453  1.00  0.00     0.031 C 
ATOM     39  C   UNL A   1      38.134  33.188  34.163  1.00  0.00     0.029 A 
ATOM     40  C   UNL A   1      39.234  32.232  34.192  1.00  0.00     0.049 A 
ATOM     41  H   UNL A   1      39.829  30.923  32.687  1.00  0.00     0.167 HD
ATOM     42  C   UNL A   1      40.919  28.220  29.440  1.00  0.00     0.037 A 
ATOM     43  C   UNL A   1      40.060  32.040  35.234  1.00  0.00     0.037 A 
ATOM     44  C   UNL A   1      41.870  27.960  30.492  1.00  0.00     0.049 A 
ATOM     45  C   UNL A   1      41.149  31.021  35.127  1.00  0.00     0.074 A 
ATOM     46  C   UNL A   1      42.940  27.079  30.493  1.00  0.00     0.029 A 
ATOM     47  N   UNL A   1      41.865  28.579  31.734  1.00  0.00    -0.354 N 
ATOM     48  N   UNL A   1      41.443  30.240  34.117  1.00  0.00    -0.248 NA
ATOM     49  C   UNL A   1      42.013  30.852  36.302  1.00  0.00     0.031 C 
ATOM     50  C   UNL A   1      43.565  27.146  31.745  1.00  0.00     0.029 A 
ATOM     51  C   UNL A   1      42.900  28.086  32.514  1.00  0.00     0.049 A 
ATOM     52  H   UNL A   1      41.221  29.267  32.019  1.00  0.00     0.167 HD
ATOM     53  C   UNL A   1      42.523  29.478  34.534  1.00  0.00     0.074 A 
ATOM     54  C   UNL A   1      42.845  29.908  35.882  1.00  0.00     0.031 C 
ATOM     55  C   UNL A   1      43.185  28.505  33.863  1.00  0.00     0.037 A 
BRANCH  42  56
ATOM     56  C   UNL A   1      41.031  27.415  28.182  1.00  0.00     0.057 A 
ATOM     57  C   UNL A   1      40.323  26.220  28.005  1.00  0.00     0.134 A 
ATOM     58  C   UNL A   1      41.804  27.876  27.108  1.00  0.00     0.134 A 
ATOM     59  F   UNL A   1      39.570  25.724  28.998  1.00  0.00    -0.206 F 
ATOM     60  C   UNL A   1      40.385  25.509  26.806  1.00  0.00     0.040 A 
ATOM     61  C   UNL A   1      41.864  27.180  25.900  1.00  0.00     0.040 A 
ATOM     62  F   UNL A   1      42.502  29.017  27.213  1.00  0.00    -0.206 F 
ATOM     63  C   UNL A   1      41.153  25.990  25.746  1.00  0.00     0.006 A 
ENDBRANCH  42  56
BRANCH  43  64
ATOM     64  C   UNL A   1      39.860  32.842  36.460  1.00  0.00     0.057 A 
ATOM     65  C   UNL A   1      40.581  34.019  36.676  1.00  0.00     0.134 A 
ATOM     66  C   UNL A   1      38.880  32.492  37.397  1.00  0.00     0.134 A 
ATOM     67  F   UNL A   1      41.534  34.395  35.811  1.00  0.00    -0.206 F 
ATOM     68  C   UNL A   1      40.328  34.831  37.781  1.00  0.00     0.040 A 
ATOM     69  C   UNL A   1      38.607  33.303  38.498  1.00  0.00     0.040 A 
ATOM     70  F   UNL A   1      38.151  31.380  37.231  1.00  0.00    -0.206 F 
ATOM     71  C   UNL A   1      39.331  34.479  38.690  1.00  0.00     0.006 A 
ENDBRANCH  43  64
BRANCH  55  72
ATOM     72  C   UNL A   1      44.304  27.836  34.595  1.00  0.00     0.057 A 
ATOM     73  C   UNL A   1      44.087  26.673  35.344  1.00  0.00     0.134 A 
ATOM     74  C   UNL A   1      45.601  28.359  34.562  1.00  0.00     0.134 A 
ATOM     75  F   UNL A   1      42.860  26.137  35.425  1.00  0.00    -0.206 F 
ATOM     76  C   UNL A   1      45.121  26.063  36.053  1.00  0.00     0.040 A 
ATOM     77  C   UNL A   1      46.646  27.749  35.255  1.00  0.00     0.040 A 
ATOM     78  F   UNL A   1      45.869  29.473  33.863  1.00  0.00    -0.206 F 
ATOM     79  C   UNL A   1      46.407  26.601  36.008  1.00  0.00     0.006 A 
ENDBRANCH  55  72
ENDBRANCH  29  30
ENDBRANCH  22  24
ENDBRANCH  21  22
ENDBRANCH  20  21
ENDBRANCH  19  20
ENDBRANCH  18  19
ENDBRANCH   1  18
TORSDOF 17
ENDMDL
