MODEL 1
REMARK VINA RESULT:     -10.7      0.000      0.000
REMARK SMILES O=C(OCCOC(=O)c1cnc(-c2ccccc2Cl)nc1)c1ccc(-c2c3nc(c(-c4c(F)cccc4F)c4ccc([nH]4)c(-c4c(F)cccc4F)c4nc(c(-c5c(F)cccc5F)c5ccc2[nH]5)C=C4)C=C3)cc1
REMARK SMILES IDX 4 1 3 2 2 3 1 4 22 5 23 6 75 7 24 8 74 9 25 10 26 11 27 12
REMARK SMILES IDX 68 13 28 14 73 15 67 16 69 17 29 18 72 19 66 20 65 21 30 23
REMARK SMILES IDX 56 24 39 25 55 26 40 27 43 28 54 29 70 30 41 31 42 32 53 34
REMARK SMILES IDX 71 35 44 36 31 37 32 38 37 39 33 40 34 41 36 42 38 43 35 44
REMARK SMILES IDX 57 45 58 46 63 47 59 48 60 49 62 50 64 51 61 52 45 53 46 54
REMARK SMILES IDX 51 55 47 56 48 57 50 58 52 59 49 60 5 61 6 62 7 63 8 64 9 65
REMARK SMILES IDX 10 66 21 67 11 68 20 69 12 70 13 71 14 72 18 73 15 74 17 75
REMARK SMILES IDX 19 76 16 77
REMARK H PARENT 69 22 43 33
REMARK Flexibility Score: inf
ROOT
ATOM      1  C   UNL A   1      42.791  18.097  26.507  1.00  0.00     0.275 C 
ENDROOT
BRANCH   1   2
ATOM      2  O   UNL A   1      41.679  18.595  25.745  1.00  0.00    -0.458 OA
BRANCH   2   3
ATOM      3  C   UNL A   1      40.837  19.619  26.005  1.00  0.00     0.338 C 
ATOM      4  O   UNL A   1      39.696  19.587  25.546  1.00  0.00    -0.246 OA
BRANCH   3   5
ATOM      5  C   UNL A   1      41.257  20.869  26.706  1.00  0.00     0.060 A 
ATOM      6  C   UNL A   1      41.138  21.129  28.073  1.00  0.00     0.016 A 
ATOM      7  C   UNL A   1      41.755  21.892  25.885  1.00  0.00     0.016 A 
ATOM      8  C   UNL A   1      41.566  22.348  28.618  1.00  0.00     0.010 A 
ATOM      9  C   UNL A   1      42.173  23.110  26.426  1.00  0.00     0.010 A 
ATOM     10  C   UNL A   1      42.081  23.355  27.797  1.00  0.00    -0.014 A 
BRANCH  10  11
ATOM     11  C   UNL A   1      42.376  24.699  28.356  1.00  0.00     0.031 A 
ATOM     12  C   UNL A   1      43.784  25.027  28.763  1.00  0.00     0.074 A 
ATOM     13  C   UNL A   1      41.413  25.633  28.470  1.00  0.00     0.049 A 
ATOM     14  N   UNL A   1      44.290  26.175  29.136  1.00  0.00    -0.248 NA
ATOM     15  C   UNL A   1      44.756  23.922  28.731  1.00  0.00     0.031 C 
ATOM     16  C   UNL A   1      40.010  25.442  28.119  1.00  0.00     0.029 A 
ATOM     17  N   UNL A   1      41.468  26.931  28.914  1.00  0.00    -0.354 N 
ATOM     18  C   UNL A   1      45.640  25.936  29.348  1.00  0.00     0.074 A 
ATOM     19  C   UNL A   1      45.861  24.522  29.140  1.00  0.00     0.031 C 
ATOM     20  C   UNL A   1      39.327  26.568  28.382  1.00  0.00     0.029 A 
ATOM     21  C   UNL A   1      40.253  27.574  28.892  1.00  0.00     0.049 A 
ATOM     22  H   UNL A   1      42.299  27.361  29.219  1.00  0.00     0.167 HD
ATOM     23  C   UNL A   1      46.620  26.820  29.647  1.00  0.00     0.037 A 
ATOM     24  C   UNL A   1      39.930  28.839  29.222  1.00  0.00     0.037 A 
ATOM     25  C   UNL A   1      46.400  28.220  29.877  1.00  0.00     0.049 A 
ATOM     26  C   UNL A   1      41.024  29.793  29.616  1.00  0.00     0.074 A 
ATOM     27  C   UNL A   1      47.326  29.206  30.169  1.00  0.00     0.029 A 
ATOM     28  N   UNL A   1      45.154  28.830  29.853  1.00  0.00    -0.354 N 
ATOM     29  N   UNL A   1      42.314  29.577  29.707  1.00  0.00    -0.248 NA
ATOM     30  C   UNL A   1      40.624  31.175  29.916  1.00  0.00     0.031 C 
ATOM     31  C   UNL A   1      46.634  30.408  30.356  1.00  0.00     0.029 A 
ATOM     32  C   UNL A   1      45.283  30.177  30.144  1.00  0.00     0.049 A 
ATOM     33  H   UNL A   1      44.305  28.372  29.659  1.00  0.00     0.167 HD
ATOM     34  C   UNL A   1      42.884  30.803  30.022  1.00  0.00     0.074 A 
ATOM     35  C   UNL A   1      41.798  31.758  30.113  1.00  0.00     0.031 C 
ATOM     36  C   UNL A   1      44.190  31.114  30.206  1.00  0.00     0.037 A 
BRANCH  23  37
ATOM     37  C   UNL A   1      48.011  26.269  29.730  1.00  0.00     0.057 A 
ATOM     38  C   UNL A   1      48.497  25.695  30.913  1.00  0.00     0.134 A 
ATOM     39  C   UNL A   1      48.886  26.352  28.642  1.00  0.00     0.134 A 
ATOM     40  F   UNL A   1      47.711  25.605  31.998  1.00  0.00    -0.206 F 
ATOM     41  C   UNL A   1      49.818  25.260  31.024  1.00  0.00     0.040 A 
ATOM     42  C   UNL A   1      50.203  25.900  28.734  1.00  0.00     0.040 A 
ATOM     43  F   UNL A   1      48.483  26.892  27.482  1.00  0.00    -0.206 F 
ATOM     44  C   UNL A   1      50.675  25.362  29.930  1.00  0.00     0.006 A 
ENDBRANCH  23  37
BRANCH  24  45
ATOM     45  C   UNL A   1      38.522  29.304  29.125  1.00  0.00     0.057 A 
ATOM     46  C   UNL A   1      37.675  29.285  30.239  1.00  0.00     0.134 A 
ATOM     47  C   UNL A   1      37.983  29.750  27.913  1.00  0.00     0.134 A 
ATOM     48  F   UNL A   1      38.129  28.851  31.425  1.00  0.00    -0.206 F 
ATOM     49  C   UNL A   1      36.337  29.672  30.149  1.00  0.00     0.040 A 
ATOM     50  C   UNL A   1      36.651  30.159  27.812  1.00  0.00     0.040 A 
ATOM     51  F   UNL A   1      38.740  29.792  26.808  1.00  0.00    -0.206 F 
ATOM     52  C   UNL A   1      35.821  30.112  28.932  1.00  0.00     0.006 A 
ENDBRANCH  24  45
BRANCH  36  53
ATOM     53  C   UNL A   1      44.523  32.551  30.468  1.00  0.00     0.057 A 
ATOM     54  C   UNL A   1      44.638  33.060  31.767  1.00  0.00     0.134 A 
ATOM     55  C   UNL A   1      44.772  33.425  29.403  1.00  0.00     0.134 A 
ATOM     56  F   UNL A   1      44.398  32.275  32.829  1.00  0.00    -0.206 F 
ATOM     57  C   UNL A   1      44.975  34.394  31.997  1.00  0.00     0.040 A 
ATOM     58  C   UNL A   1      45.131  34.756  29.621  1.00  0.00     0.040 A 
ATOM     59  F   UNL A   1      44.682  32.997  28.134  1.00  0.00    -0.206 F 
ATOM     60  C   UNL A   1      45.229  35.243  30.922  1.00  0.00     0.006 A 
ENDBRANCH  36  53
ENDBRANCH  10  11
ENDBRANCH   3   5
ENDBRANCH   2   3
ENDBRANCH   1   2
BRANCH   1  61
ATOM     61  C   UNL A   1      44.163  18.518  25.980  1.00  0.00     0.275 C 
BRANCH  61  62
ATOM     62  O   UNL A   1      44.135  19.027  24.636  1.00  0.00    -0.458 OA
BRANCH  62  63
ATOM     63  C   UNL A   1      45.314  19.524  24.179  1.00  0.00     0.341 C 
ATOM     64  O   UNL A   1      46.192  18.911  23.599  1.00  0.00    -0.246 OA
BRANCH  63  65
ATOM     65  C   UNL A   1      45.372  20.967  24.410  1.00  0.00     0.096 A 
ATOM     66  C   UNL A   1      46.032  21.531  25.472  1.00  0.00     0.131 A 
ATOM     67  C   UNL A   1      44.759  21.852  23.552  1.00  0.00     0.131 A 
ATOM     68  N   UNL A   1      46.061  22.864  25.702  1.00  0.00    -0.236 NA
ATOM     69  N   UNL A   1      44.729  23.193  23.754  1.00  0.00    -0.236 NA
ATOM     70  C   UNL A   1      45.366  23.652  24.848  1.00  0.00     0.160 A 
BRANCH  70  71
ATOM     71  C   UNL A   1      45.397  25.098  25.113  1.00  0.00     0.038 A 
ATOM     72  C   UNL A   1      44.184  25.752  25.422  1.00  0.00     0.013 A 
ATOM     73  C   UNL A   1      46.552  25.899  25.050  1.00  0.00     0.052 A 
ATOM     74  C   UNL A   1      44.121  27.132  25.640  1.00  0.00     0.001 A 
ATOM     75  C   UNL A   1      46.483  27.288  25.238  1.00  0.00     0.021 A 
ATOM     76  Cl  UNL A   1      48.129  25.272  24.731  1.00  0.00    -0.084 Cl
ATOM     77  C   UNL A   1      45.271  27.903  25.535  1.00  0.00     0.002 A 
ENDBRANCH  70  71
ENDBRANCH  63  65
ENDBRANCH  62  63
ENDBRANCH  61  62
ENDBRANCH   1  61
TORSDOF 12
ENDMDL
MODEL 2
REMARK VINA RESULT:     -10.6      6.179     11.992
REMARK SMILES O=C(OCCOC(=O)c1cnc(-c2ccccc2Cl)nc1)c1ccc(-c2c3nc(c(-c4c(F)cccc4F)c4ccc([nH]4)c(-c4c(F)cccc4F)c4nc(c(-c5c(F)cccc5F)c5ccc2[nH]5)C=C4)C=C3)cc1
REMARK SMILES IDX 4 1 3 2 2 3 1 4 22 5 23 6 75 7 24 8 74 9 25 10 26 11 27 12
REMARK SMILES IDX 68 13 28 14 73 15 67 16 69 17 29 18 72 19 66 20 65 21 30 23
REMARK SMILES IDX 56 24 39 25 55 26 40 27 43 28 54 29 70 30 41 31 42 32 53 34
REMARK SMILES IDX 71 35 44 36 31 37 32 38 37 39 33 40 34 41 36 42 38 43 35 44
REMARK SMILES IDX 57 45 58 46 63 47 59 48 60 49 62 50 64 51 61 52 45 53 46 54
REMARK SMILES IDX 51 55 47 56 48 57 50 58 52 59 49 60 5 61 6 62 7 63 8 64 9 65
REMARK SMILES IDX 10 66 21 67 11 68 20 69 12 70 13 71 14 72 18 73 15 74 17 75
REMARK SMILES IDX 19 76 16 77
REMARK H PARENT 69 22 43 33
REMARK Flexibility Score: inf
ROOT
ATOM      1  C   UNL A   1      33.230  36.647  28.826  1.00  0.00     0.275 C 
ENDROOT
BRANCH   1   2
ATOM      2  O   UNL A   1      32.574  35.395  28.565  1.00  0.00    -0.458 OA
BRANCH   2   3
ATOM      3  C   UNL A   1      33.093  34.201  28.203  1.00  0.00     0.338 C 
ATOM      4  O   UNL A   1      32.376  33.388  27.622  1.00  0.00    -0.246 OA
BRANCH   3   5
ATOM      5  C   UNL A   1      34.460  33.748  28.597  1.00  0.00     0.060 A 
ATOM      6  C   UNL A   1      35.658  34.092  27.966  1.00  0.00     0.016 A 
ATOM      7  C   UNL A   1      34.519  32.838  29.663  1.00  0.00     0.016 A 
ATOM      8  C   UNL A   1      36.887  33.598  28.427  1.00  0.00     0.010 A 
ATOM      9  C   UNL A   1      35.742  32.338  30.117  1.00  0.00     0.010 A 
ATOM     10  C   UNL A   1      36.940  32.708  29.503  1.00  0.00    -0.014 A 
BRANCH  10  11
ATOM     11  C   UNL A   1      38.224  32.062  29.878  1.00  0.00     0.031 A 
ATOM     12  C   UNL A   1      39.129  32.751  30.857  1.00  0.00     0.074 A 
ATOM     13  C   UNL A   1      38.569  30.858  29.382  1.00  0.00     0.049 A 
ATOM     14  N   UNL A   1      40.219  32.306  31.430  1.00  0.00    -0.248 NA
ATOM     15  C   UNL A   1      38.752  34.116  31.259  1.00  0.00     0.031 C 
ATOM     16  C   UNL A   1      37.785  30.088  28.422  1.00  0.00     0.029 A 
ATOM     17  N   UNL A   1      39.668  30.071  29.617  1.00  0.00    -0.354 N 
ATOM     18  C   UNL A   1      40.633  33.321  32.281  1.00  0.00     0.074 A 
ATOM     19  C   UNL A   1      39.728  34.432  32.093  1.00  0.00     0.031 C 
ATOM     20  C   UNL A   1      38.436  28.951  28.127  1.00  0.00     0.029 A 
ATOM     21  C   UNL A   1      39.670  28.896  28.903  1.00  0.00     0.049 A 
ATOM     22  H   UNL A   1      40.388  30.324  30.239  1.00  0.00     0.167 HD
ATOM     23  C   UNL A   1      41.651  33.315  33.172  1.00  0.00     0.037 A 
ATOM     24  C   UNL A   1      40.555  27.881  28.897  1.00  0.00     0.037 A 
ATOM     25  C   UNL A   1      42.567  32.222  33.344  1.00  0.00     0.049 A 
ATOM     26  C   UNL A   1      41.718  27.920  29.848  1.00  0.00     0.074 A 
ATOM     27  C   UNL A   1      43.622  32.106  34.231  1.00  0.00     0.029 A 
ATOM     28  N   UNL A   1      42.539  31.054  32.596  1.00  0.00    -0.354 N 
ATOM     29  N   UNL A   1      42.036  28.841  30.726  1.00  0.00    -0.248 NA
ATOM     30  C   UNL A   1      42.625  26.763  29.837  1.00  0.00     0.031 C 
ATOM     31  C   UNL A   1      44.254  30.881  33.995  1.00  0.00     0.029 A 
ATOM     32  C   UNL A   1      43.571  30.219  32.988  1.00  0.00     0.049 A 
ATOM     33  H   UNL A   1      41.883  30.851  31.891  1.00  0.00     0.167 HD
ATOM     34  C   UNL A   1      43.144  28.353  31.405  1.00  0.00     0.074 A 
ATOM     35  C   UNL A   1      43.448  27.057  30.833  1.00  0.00     0.031 C 
ATOM     36  C   UNL A   1      43.840  28.921  32.421  1.00  0.00     0.037 A 
BRANCH  23  37
ATOM     37  C   UNL A   1      41.800  34.541  34.021  1.00  0.00     0.057 A 
ATOM     38  C   UNL A   1      42.397  35.706  33.518  1.00  0.00     0.134 A 
ATOM     39  C   UNL A   1      41.391  34.547  35.358  1.00  0.00     0.134 A 
ATOM     40  F   UNL A   1      42.829  35.755  32.247  1.00  0.00    -0.206 F 
ATOM     41  C   UNL A   1      42.617  36.821  34.327  1.00  0.00     0.040 A 
ATOM     42  C   UNL A   1      41.587  35.663  36.172  1.00  0.00     0.040 A 
ATOM     43  F   UNL A   1      40.816  33.463  35.900  1.00  0.00    -0.206 F 
ATOM     44  C   UNL A   1      42.210  36.801  35.659  1.00  0.00     0.006 A 
ENDBRANCH  23  37
BRANCH  24  45
ATOM     45  C   UNL A   1      40.340  26.705  28.014  1.00  0.00     0.057 A 
ATOM     46  C   UNL A   1      39.532  25.635  28.416  1.00  0.00     0.134 A 
ATOM     47  C   UNL A   1      40.958  26.610  26.762  1.00  0.00     0.134 A 
ATOM     48  F   UNL A   1      38.927  25.659  29.613  1.00  0.00    -0.206 F 
ATOM     49  C   UNL A   1      39.363  24.503  27.617  1.00  0.00     0.040 A 
ATOM     50  C   UNL A   1      40.783  25.492  25.943  1.00  0.00     0.040 A 
ATOM     51  F   UNL A   1      41.745  27.600  26.317  1.00  0.00    -0.206 F 
ATOM     52  C   UNL A   1      39.989  24.430  26.374  1.00  0.00     0.006 A 
ENDBRANCH  24  45
BRANCH  36  53
ATOM     53  C   UNL A   1      44.959  28.123  33.015  1.00  0.00     0.057 A 
ATOM     54  C   UNL A   1      46.283  28.266  32.581  1.00  0.00     0.134 A 
ATOM     55  C   UNL A   1      44.712  27.231  34.066  1.00  0.00     0.134 A 
ATOM     56  F   UNL A   1      46.581  29.095  31.568  1.00  0.00    -0.206 F 
ATOM     57  C   UNL A   1      47.320  27.536  33.161  1.00  0.00     0.040 A 
ATOM     58  C   UNL A   1      45.745  26.512  34.669  1.00  0.00     0.040 A 
ATOM     59  F   UNL A   1      43.466  27.053  34.530  1.00  0.00    -0.206 F 
ATOM     60  C   UNL A   1      47.052  26.661  34.213  1.00  0.00     0.006 A 
ENDBRANCH  36  53
ENDBRANCH  10  11
ENDBRANCH   3   5
ENDBRANCH   2   3
ENDBRANCH   1   2
BRANCH   1  61
ATOM     61  C   UNL A   1      33.170  37.104  30.284  1.00  0.00     0.275 C 
BRANCH  61  62
ATOM     62  O   UNL A   1      32.453  36.204  31.144  1.00  0.00    -0.458 OA
BRANCH  62  63
ATOM     63  C   UNL A   1      32.728  36.324  32.469  1.00  0.00     0.341 C 
ATOM     64  O   UNL A   1      32.175  37.058  33.269  1.00  0.00    -0.246 OA
BRANCH  63  65
ATOM     65  C   UNL A   1      33.764  35.366  32.853  1.00  0.00     0.096 A 
ATOM     66  C   UNL A   1      35.079  35.714  33.034  1.00  0.00     0.131 A 
ATOM     67  C   UNL A   1      33.466  34.039  33.064  1.00  0.00     0.131 A 
ATOM     68  N   UNL A   1      36.042  34.823  33.360  1.00  0.00    -0.236 NA
ATOM     69  N   UNL A   1      34.398  33.099  33.359  1.00  0.00    -0.236 NA
ATOM     70  C   UNL A   1      35.670  33.526  33.473  1.00  0.00     0.160 A 
BRANCH  70  71
ATOM     71  C   UNL A   1      36.727  32.565  33.819  1.00  0.00     0.038 A 
ATOM     72  C   UNL A   1      36.806  31.357  33.090  1.00  0.00     0.013 A 
ATOM     73  C   UNL A   1      37.661  32.742  34.856  1.00  0.00     0.052 A 
ATOM     74  C   UNL A   1      37.751  30.372  33.388  1.00  0.00     0.001 A 
ATOM     75  C   UNL A   1      38.589  31.738  35.175  1.00  0.00     0.021 A 
ATOM     76  Cl  UNL A   1      37.749  34.168  35.826  1.00  0.00    -0.084 Cl
ATOM     77  C   UNL A   1      38.636  30.557  34.442  1.00  0.00     0.002 A 
ENDBRANCH  70  71
ENDBRANCH  63  65
ENDBRANCH  62  63
ENDBRANCH  61  62
ENDBRANCH   1  61
TORSDOF 12
ENDMDL
MODEL 3
REMARK VINA RESULT:     -10.3      0.709      6.613
REMARK SMILES O=C(OCCOC(=O)c1cnc(-c2ccccc2Cl)nc1)c1ccc(-c2c3nc(c(-c4c(F)cccc4F)c4ccc([nH]4)c(-c4c(F)cccc4F)c4nc(c(-c5c(F)cccc5F)c5ccc2[nH]5)C=C4)C=C3)cc1
REMARK SMILES IDX 4 1 3 2 2 3 1 4 22 5 23 6 75 7 24 8 74 9 25 10 26 11 27 12
REMARK SMILES IDX 68 13 28 14 73 15 67 16 69 17 29 18 72 19 66 20 65 21 30 23
REMARK SMILES IDX 56 24 39 25 55 26 40 27 43 28 54 29 70 30 41 31 42 32 53 34
REMARK SMILES IDX 71 35 44 36 31 37 32 38 37 39 33 40 34 41 36 42 38 43 35 44
REMARK SMILES IDX 57 45 58 46 63 47 59 48 60 49 62 50 64 51 61 52 45 53 46 54
REMARK SMILES IDX 51 55 47 56 48 57 50 58 52 59 49 60 5 61 6 62 7 63 8 64 9 65
REMARK SMILES IDX 10 66 21 67 11 68 20 69 12 70 13 71 14 72 18 73 15 74 17 75
REMARK SMILES IDX 19 76 16 77
REMARK H PARENT 69 22 43 33
REMARK Flexibility Score: inf
ROOT
ATOM      1  C   UNL A   1      42.632  18.163  26.358  1.00  0.00     0.275 C 
ENDROOT
BRANCH   1   2
ATOM      2  O   UNL A   1      41.540  18.820  25.693  1.00  0.00    -0.458 OA
BRANCH   2   3
ATOM      3  C   UNL A   1      40.745  19.827  26.115  1.00  0.00     0.338 C 
ATOM      4  O   UNL A   1      39.543  19.789  25.856  1.00  0.00    -0.246 OA
BRANCH   3   5
ATOM      5  C   UNL A   1      41.266  21.068  26.761  1.00  0.00     0.060 A 
ATOM      6  C   UNL A   1      41.159  21.402  28.113  1.00  0.00     0.016 A 
ATOM      7  C   UNL A   1      41.857  22.004  25.899  1.00  0.00     0.016 A 
ATOM      8  C   UNL A   1      41.687  22.605  28.606  1.00  0.00     0.010 A 
ATOM      9  C   UNL A   1      42.375  23.206  26.388  1.00  0.00     0.010 A 
ATOM     10  C   UNL A   1      42.293  23.523  27.745  1.00  0.00    -0.014 A 
BRANCH  10  11
ATOM     11  C   UNL A   1      42.699  24.863  28.244  1.00  0.00     0.031 A 
ATOM     12  C   UNL A   1      41.662  25.942  28.359  1.00  0.00     0.074 A 
ATOM     13  C   UNL A   1      43.966  25.110  28.625  1.00  0.00     0.049 A 
ATOM     14  N   UNL A   1      41.762  27.130  28.900  1.00  0.00    -0.248 NA
ATOM     15  C   UNL A   1      40.330  25.643  27.808  1.00  0.00     0.031 C 
ATOM     16  C   UNL A   1      45.067  24.154  28.558  1.00  0.00     0.029 A 
ATOM     17  N   UNL A   1      44.544  26.241  29.145  1.00  0.00    -0.354 N 
ATOM     18  C   UNL A   1      40.503  27.700  28.784  1.00  0.00     0.074 A 
ATOM     19  C   UNL A   1      39.676  26.765  28.054  1.00  0.00     0.031 C 
ATOM     20  C   UNL A   1      46.194  24.741  28.993  1.00  0.00     0.029 A 
ATOM     21  C   UNL A   1      45.888  26.108  29.401  1.00  0.00     0.049 A 
ATOM     22  H   UNL A   1      44.043  27.071  29.317  1.00  0.00     0.167 HD
ATOM     23  C   UNL A   1      40.058  28.879  29.279  1.00  0.00     0.037 A 
ATOM     24  C   UNL A   1      46.766  26.982  29.929  1.00  0.00     0.037 A 
ATOM     25  C   UNL A   1      40.882  29.820  29.984  1.00  0.00     0.049 A 
ATOM     26  C   UNL A   1      46.267  28.315  30.414  1.00  0.00     0.074 A 
ATOM     27  C   UNL A   1      40.527  31.035  30.542  1.00  0.00     0.029 A 
ATOM     28  N   UNL A   1      42.240  29.651  30.216  1.00  0.00    -0.354 N 
ATOM     29  N   UNL A   1      45.047  28.797  30.395  1.00  0.00    -0.248 NA
ATOM     30  C   UNL A   1      47.257  29.211  31.030  1.00  0.00     0.031 C 
ATOM     31  C   UNL A   1      41.680  31.617  31.082  1.00  0.00     0.029 A 
ATOM     32  C   UNL A   1      42.743  30.748  30.892  1.00  0.00     0.049 A 
ATOM     33  H   UNL A   1      42.766  28.866  29.939  1.00  0.00     0.167 HD
ATOM     34  C   UNL A   1      45.113  30.024  31.039  1.00  0.00     0.074 A 
ATOM     35  C   UNL A   1      46.495  30.217  31.433  1.00  0.00     0.031 C 
ATOM     36  C   UNL A   1      44.117  30.908  31.295  1.00  0.00     0.037 A 
BRANCH  23  37
ATOM     37  C   UNL A   1      38.608  29.186  29.062  1.00  0.00     0.057 A 
ATOM     38  C   UNL A   1      38.136  29.631  27.820  1.00  0.00     0.134 A 
ATOM     39  C   UNL A   1      37.685  29.085  30.109  1.00  0.00     0.134 A 
ATOM     40  F   UNL A   1      38.977  29.768  26.782  1.00  0.00    -0.206 F 
ATOM     41  C   UNL A   1      36.803  30.002  27.635  1.00  0.00     0.040 A 
ATOM     42  C   UNL A   1      36.346  29.433  29.931  1.00  0.00     0.040 A 
ATOM     43  F   UNL A   1      38.074  28.668  31.322  1.00  0.00    -0.206 F 
ATOM     44  C   UNL A   1      35.904  29.902  28.694  1.00  0.00     0.006 A 
ENDBRANCH  23  37
BRANCH  24  45
ATOM     45  C   UNL A   1      48.193  26.603  30.097  1.00  0.00     0.057 A 
ATOM     46  C   UNL A   1      49.147  26.925  29.125  1.00  0.00     0.134 A 
ATOM     47  C   UNL A   1      48.631  25.888  31.218  1.00  0.00     0.134 A 
ATOM     48  F   UNL A   1      48.785  27.594  28.020  1.00  0.00    -0.206 F 
ATOM     49  C   UNL A   1      50.480  26.531  29.248  1.00  0.00     0.040 A 
ATOM     50  C   UNL A   1      49.966  25.504  31.364  1.00  0.00     0.040 A 
ATOM     51  F   UNL A   1      47.768  25.548  32.186  1.00  0.00    -0.206 F 
ATOM     52  C   UNL A   1      50.894  25.819  30.372  1.00  0.00     0.006 A 
ENDBRANCH  24  45
BRANCH  36  53
ATOM     53  C   UNL A   1      44.472  32.132  32.081  1.00  0.00     0.057 A 
ATOM     54  C   UNL A   1      44.877  33.320  31.461  1.00  0.00     0.134 A 
ATOM     55  C   UNL A   1      44.364  32.133  33.478  1.00  0.00     0.134 A 
ATOM     56  F   UNL A   1      45.013  33.378  30.126  1.00  0.00    -0.206 F 
ATOM     57  C   UNL A   1      45.179  34.462  32.203  1.00  0.00     0.040 A 
ATOM     58  C   UNL A   1      44.642  33.274  34.230  1.00  0.00     0.040 A 
ATOM     59  F   UNL A   1      43.976  31.027  34.132  1.00  0.00    -0.206 F 
ATOM     60  C   UNL A   1      45.054  34.442  33.591  1.00  0.00     0.006 A 
ENDBRANCH  36  53
ENDBRANCH  10  11
ENDBRANCH   3   5
ENDBRANCH   2   3
ENDBRANCH   1   2
BRANCH   1  61
ATOM     61  C   UNL A   1      43.992  18.352  25.686  1.00  0.00     0.275 C 
BRANCH  61  62
ATOM     62  O   UNL A   1      43.951  19.192  24.521  1.00  0.00    -0.458 OA
BRANCH  62  63
ATOM     63  C   UNL A   1      45.154  19.670  24.108  1.00  0.00     0.341 C 
ATOM     64  O   UNL A   1      46.024  19.055  23.519  1.00  0.00    -0.246 OA
BRANCH  63  65
ATOM     65  C   UNL A   1      45.250  21.100  24.401  1.00  0.00     0.096 A 
ATOM     66  C   UNL A   1      44.746  22.071  23.574  1.00  0.00     0.131 A 
ATOM     67  C   UNL A   1      45.858  21.554  25.550  1.00  0.00     0.131 A 
ATOM     68  N   UNL A   1      44.860  23.394  23.830  1.00  0.00    -0.236 NA
ATOM     69  N   UNL A   1      46.029  22.868  25.838  1.00  0.00    -0.236 NA
ATOM     70  C   UNL A   1      45.541  23.750  24.946  1.00  0.00     0.160 A 
BRANCH  70  71
ATOM     71  C   UNL A   1      45.668  25.190  25.209  1.00  0.00     0.038 A 
ATOM     72  C   UNL A   1      44.492  25.971  25.265  1.00  0.00     0.013 A 
ATOM     73  C   UNL A   1      46.889  25.868  25.381  1.00  0.00     0.052 A 
ATOM     74  C   UNL A   1      44.530  27.354  25.463  1.00  0.00     0.001 A 
ATOM     75  C   UNL A   1      46.927  27.261  25.549  1.00  0.00     0.021 A 
ATOM     76  Cl  UNL A   1      48.424  25.078  25.391  1.00  0.00    -0.084 Cl
ATOM     77  C   UNL A   1      45.751  28.002  25.592  1.00  0.00     0.002 A 
ENDBRANCH  70  71
ENDBRANCH  63  65
ENDBRANCH  62  63
ENDBRANCH  61  62
ENDBRANCH   1  61
TORSDOF 12
ENDMDL
