MODEL 1
REMARK VINA RESULT:     -11.3      0.000      0.000
REMARK SMILES O=C(OCCOC(=O)[C@@H]1[C@H](C(=O)NCc2ccncc2)[C@H]2C=C[C@@H]1O2)c1ccc(-c2c3nc(c(-c4c(F)cccc4F)c4ccc([nH]4)c(-c4c(F)cccc4F)c4nc(c(-c5c(F)cccc5F)c5ccc2[nH]5)C=C4)C=C3)cc1
REMARK SMILES IDX 5 1 4 2 3 3 2 4 1 5 26 6 27 7 79 8 28 9 78 10 29 11 30 12
REMARK SMILES IDX 31 13 72 14 32 15 77 16 71 17 73 18 33 19 76 20 70 21 69 22
REMARK SMILES IDX 34 24 60 25 43 26 59 27 44 28 47 29 58 30 74 31 45 32 46 33
REMARK SMILES IDX 57 35 75 36 48 37 35 38 36 39 41 40 37 41 38 42 40 43 42 44
REMARK SMILES IDX 39 45 61 46 62 47 67 48 63 49 64 50 66 51 68 52 65 53 49 54
REMARK SMILES IDX 50 55 55 56 51 57 52 58 54 59 56 60 53 61 6 62 7 63 8 64
REMARK SMILES IDX 9 65 10 66 24 67 21 68 23 69 25 70 22 71 11 72 12 73 13 74
REMARK SMILES IDX 14 76 15 77 16 78 20 79 17 80 19 81 18 82
REMARK H PARENT 73 23 47 34 13 75
REMARK Flexibility Score: inf
ROOT
ATOM      1  C   UNL A   1      37.183  20.530  24.751  1.00  0.00     0.274 C 
ENDROOT
BRANCH   1   2
ATOM      2  C   UNL A   1      38.532  20.790  25.426  1.00  0.00     0.275 C 
BRANCH   2   3
ATOM      3  O   UNL A   1      39.359  19.642  25.715  1.00  0.00    -0.458 OA
BRANCH   3   4
ATOM      4  C   UNL A   1      40.681  19.690  25.989  1.00  0.00     0.338 C 
ATOM      5  O   UNL A   1      41.416  18.754  25.691  1.00  0.00    -0.246 OA
BRANCH   4   6
ATOM      6  C   UNL A   1      41.285  20.961  26.506  1.00  0.00     0.060 A 
ATOM      7  C   UNL A   1      41.926  21.920  25.721  1.00  0.00     0.016 A 
ATOM      8  C   UNL A   1      41.090  21.255  27.867  1.00  0.00     0.016 A 
ATOM      9  C   UNL A   1      42.280  23.170  26.243  1.00  0.00     0.010 A 
ATOM     10  C   UNL A   1      41.399  22.521  28.380  1.00  0.00     0.010 A 
ATOM     11  C   UNL A   1      41.986  23.500  27.561  1.00  0.00    -0.014 A 
BRANCH  11  12
ATOM     12  C   UNL A   1      42.472  24.780  28.136  1.00  0.00     0.031 A 
ATOM     13  C   UNL A   1      41.465  25.871  28.300  1.00  0.00     0.074 A 
ATOM     14  C   UNL A   1      43.742  24.981  28.543  1.00  0.00     0.049 A 
ATOM     15  N   UNL A   1      41.635  27.105  28.685  1.00  0.00    -0.248 NA
ATOM     16  C   UNL A   1      40.068  25.506  28.010  1.00  0.00     0.031 C 
ATOM     17  C   UNL A   1      44.775  23.960  28.625  1.00  0.00     0.029 A 
ATOM     18  N   UNL A   1      44.394  26.119  28.952  1.00  0.00    -0.354 N 
ATOM     19  C   UNL A   1      40.366  27.659  28.692  1.00  0.00     0.074 A 
ATOM     20  C   UNL A   1      39.452  26.660  28.189  1.00  0.00     0.031 C 
ATOM     21  C   UNL A   1      45.955  24.519  28.934  1.00  0.00     0.029 A 
ATOM     22  C   UNL A   1      45.751  25.948  29.121  1.00  0.00     0.049 A 
ATOM     23  H   UNL A   1      43.935  26.976  29.108  1.00  0.00     0.167 HD
ATOM     24  C   UNL A   1      39.987  28.878  29.133  1.00  0.00     0.037 A 
ATOM     25  C   UNL A   1      46.718  26.840  29.405  1.00  0.00     0.037 A 
ATOM     26  C   UNL A   1      40.901  29.859  29.643  1.00  0.00     0.049 A 
ATOM     27  C   UNL A   1      46.301  28.248  29.725  1.00  0.00     0.074 A 
ATOM     28  C   UNL A   1      40.633  31.129  30.110  1.00  0.00     0.029 A 
ATOM     29  N   UNL A   1      42.275  29.671  29.743  1.00  0.00    -0.354 N 
ATOM     30  N   UNL A   1      45.095  28.760  29.751  1.00  0.00    -0.248 NA
ATOM     31  C   UNL A   1      47.364  29.185  30.110  1.00  0.00     0.031 C 
ATOM     32  C   UNL A   1      41.850  31.731  30.446  1.00  0.00     0.029 A 
ATOM     33  C   UNL A   1      42.871  30.816  30.238  1.00  0.00     0.049 A 
ATOM     34  H   UNL A   1      42.752  28.846  29.497  1.00  0.00     0.167 HD
ATOM     35  C   UNL A   1      45.240  30.052  30.228  1.00  0.00     0.074 A 
ATOM     36  C   UNL A   1      46.658  30.252  30.460  1.00  0.00     0.031 C 
ATOM     37  C   UNL A   1      44.284  30.981  30.477  1.00  0.00     0.037 A 
BRANCH  24  38
ATOM     38  C   UNL A   1      38.525  29.183  29.033  1.00  0.00     0.057 A 
ATOM     39  C   UNL A   1      37.952  29.678  27.852  1.00  0.00     0.134 A 
ATOM     40  C   UNL A   1      37.707  29.091  30.163  1.00  0.00     0.134 A 
ATOM     41  F   UNL A   1      38.696  29.829  26.745  1.00  0.00    -0.206 F 
ATOM     42  C   UNL A   1      36.630  30.120  27.815  1.00  0.00     0.040 A 
ATOM     43  C   UNL A   1      36.374  29.502  30.129  1.00  0.00     0.040 A 
ATOM     44  F   UNL A   1      38.198  28.638  31.326  1.00  0.00    -0.206 F 
ATOM     45  C   UNL A   1      35.837  30.034  28.957  1.00  0.00     0.006 A 
ENDBRANCH  24  38
BRANCH  25  46
ATOM     46  C   UNL A   1      48.147  26.434  29.469  1.00  0.00     0.057 A 
ATOM     47  C   UNL A   1      48.975  26.505  28.343  1.00  0.00     0.134 A 
ATOM     48  C   UNL A   1      48.712  25.923  30.646  1.00  0.00     0.134 A 
ATOM     49  F   UNL A   1      48.492  26.972  27.182  1.00  0.00    -0.206 F 
ATOM     50  C   UNL A   1      50.298  26.056  28.372  1.00  0.00     0.040 A 
ATOM     51  C   UNL A   1      50.039  25.487  30.695  1.00  0.00     0.040 A 
ATOM     52  F   UNL A   1      47.980  25.835  31.766  1.00  0.00    -0.206 F 
ATOM     53  C   UNL A   1      50.834  25.544  29.551  1.00  0.00     0.006 A 
ENDBRANCH  25  46
BRANCH  37  54
ATOM     54  C   UNL A   1      44.736  32.273  31.087  1.00  0.00     0.057 A 
ATOM     55  C   UNL A   1      45.130  33.367  30.308  1.00  0.00     0.134 A 
ATOM     56  C   UNL A   1      44.732  32.433  32.479  1.00  0.00     0.134 A 
ATOM     57  F   UNL A   1      45.171  33.270  28.971  1.00  0.00    -0.206 F 
ATOM     58  C   UNL A   1      45.524  34.570  30.893  1.00  0.00     0.040 A 
ATOM     59  C   UNL A   1      45.093  33.640  33.074  1.00  0.00     0.040 A 
ATOM     60  F   UNL A   1      44.360  31.423  33.280  1.00  0.00    -0.206 F 
ATOM     61  C   UNL A   1      45.496  34.711  32.280  1.00  0.00     0.006 A 
ENDBRANCH  37  54
ENDBRANCH  11  12
ENDBRANCH   4   6
ENDBRANCH   3   4
ENDBRANCH   2   3
ENDBRANCH   1   2
BRANCH   1  62
ATOM     62  O   UNL A   1      36.093  21.291  25.306  1.00  0.00    -0.462 OA
BRANCH  62  63
ATOM     63  C   UNL A   1      35.715  22.360  24.551  1.00  0.00     0.312 C 
ATOM     64  O   UNL A   1      36.172  22.612  23.438  1.00  0.00    -0.252 OA
BRANCH  63  65
ATOM     65  C   UNL A   1      34.711  23.279  25.201  1.00  0.00     0.147 C 
ATOM     66  C   UNL A   1      33.237  23.050  24.791  1.00  0.00     0.128 C 
ATOM     67  C   UNL A   1      34.898  24.753  24.874  1.00  0.00     0.157 C 
ATOM     68  C   UNL A   1      32.823  24.432  24.311  1.00  0.00     0.155 C 
ATOM     69  C   UNL A   1      34.085  25.636  25.772  1.00  0.00     0.004 C 
ATOM     70  O   UNL A   1      34.071  24.849  23.697  1.00  0.00    -0.365 OA
ATOM     71  C   UNL A   1      32.804  25.430  25.436  1.00  0.00     0.004 C 
BRANCH  66  72
ATOM     72  C   UNL A   1      32.958  21.893  23.847  1.00  0.00     0.227 C 
ATOM     73  O   UNL A   1      32.845  22.157  22.641  1.00  0.00    -0.275 OA
ATOM     74  N   UNL A   1      32.774  20.591  24.148  1.00  0.00    -0.352 N 
ATOM     75  H   UNL A   1      32.505  20.070  23.357  1.00  0.00     0.163 HD
BRANCH  74  76
ATOM     76  C   UNL A   1      32.869  19.751  25.335  1.00  0.00     0.151 C 
BRANCH  76  77
ATOM     77  C   UNL A   1      33.101  18.281  25.034  1.00  0.00    -0.026 A 
ATOM     78  C   UNL A   1      33.990  17.924  24.012  1.00  0.00     0.025 A 
ATOM     79  C   UNL A   1      32.462  17.236  25.707  1.00  0.00     0.025 A 
ATOM     80  C   UNL A   1      34.309  16.589  23.810  1.00  0.00     0.111 A 
ATOM     81  C   UNL A   1      32.825  15.926  25.421  1.00  0.00     0.111 A 
ATOM     82  N   UNL A   1      33.761  15.583  24.513  1.00  0.00    -0.265 NA
ENDBRANCH  76  77
ENDBRANCH  74  76
ENDBRANCH  66  72
ENDBRANCH  63  65
ENDBRANCH  62  63
ENDBRANCH   1  62
TORSDOF 14
ENDMDL
MODEL 2
REMARK VINA RESULT:     -11.3      5.215      9.234
REMARK SMILES O=C(OCCOC(=O)[C@@H]1[C@H](C(=O)NCc2ccncc2)[C@H]2C=C[C@@H]1O2)c1ccc(-c2c3nc(c(-c4c(F)cccc4F)c4ccc([nH]4)c(-c4c(F)cccc4F)c4nc(c(-c5c(F)cccc5F)c5ccc2[nH]5)C=C4)C=C3)cc1
REMARK SMILES IDX 5 1 4 2 3 3 2 4 1 5 26 6 27 7 79 8 28 9 78 10 29 11 30 12
REMARK SMILES IDX 31 13 72 14 32 15 77 16 71 17 73 18 33 19 76 20 70 21 69 22
REMARK SMILES IDX 34 24 60 25 43 26 59 27 44 28 47 29 58 30 74 31 45 32 46 33
REMARK SMILES IDX 57 35 75 36 48 37 35 38 36 39 41 40 37 41 38 42 40 43 42 44
REMARK SMILES IDX 39 45 61 46 62 47 67 48 63 49 64 50 66 51 68 52 65 53 49 54
REMARK SMILES IDX 50 55 55 56 51 57 52 58 54 59 56 60 53 61 6 62 7 63 8 64
REMARK SMILES IDX 9 65 10 66 24 67 21 68 23 69 25 70 22 71 11 72 12 73 13 74
REMARK SMILES IDX 14 76 15 77 16 78 20 79 17 80 19 81 18 82
REMARK H PARENT 73 23 47 34 13 75
REMARK Flexibility Score: inf
ROOT
ATOM      1  C   UNL A   1      31.679  31.188  26.077  1.00  0.00     0.274 C 
ENDROOT
BRANCH   1   2
ATOM      2  C   UNL A   1      31.558  32.183  27.234  1.00  0.00     0.275 C 
BRANCH   2   3
ATOM      3  O   UNL A   1      32.157  33.484  27.053  1.00  0.00    -0.458 OA
BRANCH   3   4
ATOM      4  C   UNL A   1      32.973  34.090  27.943  1.00  0.00     0.338 C 
ATOM      5  O   UNL A   1      32.638  35.139  28.485  1.00  0.00    -0.246 OA
BRANCH   4   6
ATOM      6  C   UNL A   1      34.219  33.394  28.401  1.00  0.00     0.060 A 
ATOM      7  C   UNL A   1      35.509  33.916  28.305  1.00  0.00     0.016 A 
ATOM      8  C   UNL A   1      34.057  32.173  29.077  1.00  0.00     0.016 A 
ATOM      9  C   UNL A   1      36.594  33.297  28.938  1.00  0.00     0.010 A 
ATOM     10  C   UNL A   1      35.130  31.577  29.753  1.00  0.00     0.010 A 
ATOM     11  C   UNL A   1      36.412  32.149  29.701  1.00  0.00    -0.014 A 
BRANCH  11  12
ATOM     12  C   UNL A   1      37.585  31.436  30.267  1.00  0.00     0.031 A 
ATOM     13  C   UNL A   1      37.951  31.757  31.680  1.00  0.00     0.074 A 
ATOM     14  C   UNL A   1      38.292  30.507  29.592  1.00  0.00     0.049 A 
ATOM     15  N   UNL A   1      38.973  31.355  32.383  1.00  0.00    -0.248 NA
ATOM     16  C   UNL A   1      37.017  32.635  32.402  1.00  0.00     0.031 C 
ATOM     17  C   UNL A   1      37.939  29.956  28.293  1.00  0.00     0.029 A 
ATOM     18  N   UNL A   1      39.469  29.867  29.894  1.00  0.00    -0.354 N 
ATOM     19  C   UNL A   1      38.797  31.925  33.633  1.00  0.00     0.074 A 
ATOM     20  C   UNL A   1      37.627  32.769  33.566  1.00  0.00     0.031 C 
ATOM     21  C   UNL A   1      38.923  29.160  27.846  1.00  0.00     0.029 A 
ATOM     22  C   UNL A   1      39.966  29.105  28.858  1.00  0.00     0.049 A 
ATOM     23  H   UNL A   1      39.916  29.945  30.768  1.00  0.00     0.167 HD
ATOM     24  C   UNL A   1      39.518  31.719  34.756  1.00  0.00     0.037 A 
ATOM     25  C   UNL A   1      41.126  28.432  28.744  1.00  0.00     0.037 A 
ATOM     26  C   UNL A   1      40.672  30.868  34.815  1.00  0.00     0.049 A 
ATOM     27  C   UNL A   1      42.014  28.354  29.953  1.00  0.00     0.074 A 
ATOM     28  C   UNL A   1      41.485  30.590  35.894  1.00  0.00     0.029 A 
ATOM     29  N   UNL A   1      41.180  30.162  33.731  1.00  0.00    -0.354 N 
ATOM     30  N   UNL A   1      41.830  28.878  31.140  1.00  0.00    -0.248 NA
ATOM     31  C   UNL A   1      43.235  27.548  29.831  1.00  0.00     0.031 C 
ATOM     32  C   UNL A   1      42.516  29.754  35.454  1.00  0.00     0.029 A 
ATOM     33  C   UNL A   1      42.314  29.469  34.111  1.00  0.00     0.049 A 
ATOM     34  H   UNL A   1      40.789  30.155  32.828  1.00  0.00     0.167 HD
ATOM     35  C   UNL A   1      42.866  28.406  31.930  1.00  0.00     0.074 A 
ATOM     36  C   UNL A   1      43.687  27.567  31.078  1.00  0.00     0.031 C 
ATOM     37  C   UNL A   1      43.103  28.625  33.247  1.00  0.00     0.037 A 
BRANCH  24  38
ATOM     38  C   UNL A   1      39.064  32.467  35.970  1.00  0.00     0.057 A 
ATOM     39  C   UNL A   1      39.535  33.757  36.263  1.00  0.00     0.134 A 
ATOM     40  C   UNL A   1      38.240  31.847  36.913  1.00  0.00     0.134 A 
ATOM     41  F   UNL A   1      40.363  34.388  35.416  1.00  0.00    -0.206 F 
ATOM     42  C   UNL A   1      39.243  34.378  37.477  1.00  0.00     0.040 A 
ATOM     43  C   UNL A   1      37.917  32.473  38.118  1.00  0.00     0.040 A 
ATOM     44  F   UNL A   1      37.768  30.610  36.698  1.00  0.00    -0.206 F 
ATOM     45  C   UNL A   1      38.433  33.734  38.409  1.00  0.00     0.006 A 
ENDBRANCH  24  38
BRANCH  25  46
ATOM     46  C   UNL A   1      41.488  27.729  27.484  1.00  0.00     0.057 A 
ATOM     47  C   UNL A   1      41.202  26.371  27.301  1.00  0.00     0.134 A 
ATOM     48  C   UNL A   1      42.167  28.385  26.448  1.00  0.00     0.134 A 
ATOM     49  F   UNL A   1      40.566  25.682  28.260  1.00  0.00    -0.206 F 
ATOM     50  C   UNL A   1      41.604  25.682  26.153  1.00  0.00     0.040 A 
ATOM     51  C   UNL A   1      42.559  27.712  25.287  1.00  0.00     0.040 A 
ATOM     52  F   UNL A   1      42.464  29.687  26.551  1.00  0.00    -0.206 F 
ATOM     53  C   UNL A   1      42.286  26.353  25.141  1.00  0.00     0.006 A 
ENDBRANCH  25  46
BRANCH  37  54
ATOM     54  C   UNL A   1      44.260  27.897  33.859  1.00  0.00     0.057 A 
ATOM     55  C   UNL A   1      45.537  28.464  33.942  1.00  0.00     0.134 A 
ATOM     56  C   UNL A   1      44.077  26.623  34.412  1.00  0.00     0.134 A 
ATOM     57  F   UNL A   1      45.779  29.674  33.415  1.00  0.00    -0.206 F 
ATOM     58  C   UNL A   1      46.597  27.781  34.538  1.00  0.00     0.040 A 
ATOM     59  C   UNL A   1      45.119  25.944  35.039  1.00  0.00     0.040 A 
ATOM     60  F   UNL A   1      42.875  26.028  34.369  1.00  0.00    -0.206 F 
ATOM     61  C   UNL A   1      46.386  26.521  35.097  1.00  0.00     0.006 A 
ENDBRANCH  37  54
ENDBRANCH  11  12
ENDBRANCH   4   6
ENDBRANCH   3   4
ENDBRANCH   2   3
ENDBRANCH   1   2
BRANCH   1  62
ATOM     62  O   UNL A   1      31.737  29.810  26.492  1.00  0.00    -0.462 OA
BRANCH  62  63
ATOM     63  C   UNL A   1      32.969  29.241  26.374  1.00  0.00     0.312 C 
ATOM     64  O   UNL A   1      34.025  29.859  26.494  1.00  0.00    -0.252 OA
BRANCH  63  65
ATOM     65  C   UNL A   1      32.966  27.775  26.023  1.00  0.00     0.147 C 
ATOM     66  C   UNL A   1      32.787  27.451  24.520  1.00  0.00     0.128 C 
ATOM     67  C   UNL A   1      31.830  26.977  26.647  1.00  0.00     0.157 C 
ATOM     68  C   UNL A   1      31.590  26.513  24.537  1.00  0.00     0.155 C 
ATOM     69  C   UNL A   1      32.046  25.499  26.522  1.00  0.00     0.004 C 
ATOM     70  O   UNL A   1      30.833  27.122  25.617  1.00  0.00    -0.365 OA
ATOM     71  C   UNL A   1      31.912  25.213  25.220  1.00  0.00     0.004 C 
BRANCH  66  72
ATOM     72  C   UNL A   1      32.709  28.632  23.568  1.00  0.00     0.227 C 
ATOM     73  O   UNL A   1      33.776  29.067  23.112  1.00  0.00    -0.275 OA
ATOM     74  N   UNL A   1      31.617  29.316  23.168  1.00  0.00    -0.352 N 
ATOM     75  H   UNL A   1      31.859  30.103  22.629  1.00  0.00     0.163 HD
BRANCH  74  76
ATOM     76  C   UNL A   1      30.173  29.196  23.322  1.00  0.00     0.151 C 
BRANCH  76  77
ATOM     77  C   UNL A   1      29.397  30.402  22.825  1.00  0.00    -0.026 A 
ATOM     78  C   UNL A   1      29.099  30.510  21.460  1.00  0.00     0.025 A 
ATOM     79  C   UNL A   1      28.965  31.446  23.648  1.00  0.00     0.025 A 
ATOM     80  C   UNL A   1      28.284  31.538  21.010  1.00  0.00     0.111 A 
ATOM     81  C   UNL A   1      28.174  32.451  23.106  1.00  0.00     0.111 A 
ATOM     82  N   UNL A   1      27.794  32.498  21.812  1.00  0.00    -0.265 NA
ENDBRANCH  76  77
ENDBRANCH  74  76
ENDBRANCH  66  72
ENDBRANCH  63  65
ENDBRANCH  62  63
ENDBRANCH   1  62
TORSDOF 14
ENDMDL
MODEL 3
REMARK VINA RESULT:     -11.2      1.878      6.390
REMARK SMILES O=C(OCCOC(=O)[C@@H]1[C@H](C(=O)NCc2ccncc2)[C@H]2C=C[C@@H]1O2)c1ccc(-c2c3nc(c(-c4c(F)cccc4F)c4ccc([nH]4)c(-c4c(F)cccc4F)c4nc(c(-c5c(F)cccc5F)c5ccc2[nH]5)C=C4)C=C3)cc1
REMARK SMILES IDX 5 1 4 2 3 3 2 4 1 5 26 6 27 7 79 8 28 9 78 10 29 11 30 12
REMARK SMILES IDX 31 13 72 14 32 15 77 16 71 17 73 18 33 19 76 20 70 21 69 22
REMARK SMILES IDX 34 24 60 25 43 26 59 27 44 28 47 29 58 30 74 31 45 32 46 33
REMARK SMILES IDX 57 35 75 36 48 37 35 38 36 39 41 40 37 41 38 42 40 43 42 44
REMARK SMILES IDX 39 45 61 46 62 47 67 48 63 49 64 50 66 51 68 52 65 53 49 54
REMARK SMILES IDX 50 55 55 56 51 57 52 58 54 59 56 60 53 61 6 62 7 63 8 64
REMARK SMILES IDX 9 65 10 66 24 67 21 68 23 69 25 70 22 71 11 72 12 73 13 74
REMARK SMILES IDX 14 76 15 77 16 78 20 79 17 80 19 81 18 82
REMARK H PARENT 73 23 47 34 13 75
REMARK Flexibility Score: inf
ROOT
ATOM      1  C   UNL A   1      38.556  20.616  25.075  1.00  0.00     0.274 C 
ENDROOT
BRANCH   1   2
ATOM      2  C   UNL A   1      39.230  19.661  26.064  1.00  0.00     0.275 C 
BRANCH   2   3
ATOM      3  O   UNL A   1      40.557  19.198  25.735  1.00  0.00    -0.458 OA
BRANCH   3   4
ATOM      4  C   UNL A   1      41.680  19.527  26.412  1.00  0.00     0.338 C 
ATOM      5  O   UNL A   1      42.474  18.661  26.766  1.00  0.00    -0.246 OA
BRANCH   4   6
ATOM      6  C   UNL A   1      42.047  20.971  26.583  1.00  0.00     0.060 A 
ATOM      7  C   UNL A   1      42.143  21.901  25.548  1.00  0.00     0.016 A 
ATOM      8  C   UNL A   1      42.195  21.442  27.899  1.00  0.00     0.016 A 
ATOM      9  C   UNL A   1      42.289  23.269  25.809  1.00  0.00     0.010 A 
ATOM     10  C   UNL A   1      42.291  22.813  28.165  1.00  0.00     0.010 A 
ATOM     11  C   UNL A   1      42.322  23.745  27.114  1.00  0.00    -0.014 A 
BRANCH  11  12
ATOM     12  C   UNL A   1      42.596  25.180  27.379  1.00  0.00     0.031 A 
ATOM     13  C   UNL A   1      43.953  25.685  27.013  1.00  0.00     0.074 A 
ATOM     14  C   UNL A   1      41.683  26.032  27.887  1.00  0.00     0.049 A 
ATOM     15  N   UNL A   1      44.484  26.858  27.219  1.00  0.00    -0.248 NA
ATOM     16  C   UNL A   1      44.820  24.738  26.292  1.00  0.00     0.031 C 
ATOM     17  C   UNL A   1      40.277  25.733  28.107  1.00  0.00     0.029 A 
ATOM     18  N   UNL A   1      41.800  27.328  28.327  1.00  0.00    -0.354 N 
ATOM     19  C   UNL A   1      45.742  26.791  26.644  1.00  0.00     0.074 A 
ATOM     20  C   UNL A   1      45.930  25.442  26.164  1.00  0.00     0.031 C 
ATOM     21  C   UNL A   1      39.682  26.751  28.748  1.00  0.00     0.029 A 
ATOM     22  C   UNL A   1      40.664  27.807  28.944  1.00  0.00     0.049 A 
ATOM     23  H   UNL A   1      42.618  27.865  28.214  1.00  0.00     0.167 HD
ATOM     24  C   UNL A   1      46.643  27.784  26.482  1.00  0.00     0.037 A 
ATOM     25  C   UNL A   1      40.437  28.969  29.585  1.00  0.00     0.037 A 
ATOM     26  C   UNL A   1      46.441  29.125  26.952  1.00  0.00     0.049 A 
ATOM     27  C   UNL A   1      41.519  30.010  29.550  1.00  0.00     0.074 A 
ATOM     28  C   UNL A   1      47.286  30.211  26.851  1.00  0.00     0.029 A 
ATOM     29  N   UNL A   1      45.304  29.556  27.625  1.00  0.00    -0.354 N 
ATOM     30  N   UNL A   1      42.700  29.948  28.985  1.00  0.00    -0.248 NA
ATOM     31  C   UNL A   1      41.222  31.300  30.186  1.00  0.00     0.031 C 
ATOM     32  C   UNL A   1      46.683  31.290  27.507  1.00  0.00     0.029 A 
ATOM     33  C   UNL A   1      45.438  30.888  27.971  1.00  0.00     0.049 A 
ATOM     34  H   UNL A   1      44.520  28.996  27.825  1.00  0.00     0.167 HD
ATOM     35  C   UNL A   1      43.258  31.208  29.126  1.00  0.00     0.074 A 
ATOM     36  C   UNL A   1      42.290  32.011  29.850  1.00  0.00     0.031 C 
ATOM     37  C   UNL A   1      44.451  31.668  28.676  1.00  0.00     0.037 A 
BRANCH  24  38
ATOM     38  C   UNL A   1      47.917  27.405  25.794  1.00  0.00     0.057 A 
ATOM     39  C   UNL A   1      49.072  27.062  26.514  1.00  0.00     0.134 A 
ATOM     40  C   UNL A   1      48.022  27.496  24.403  1.00  0.00     0.134 A 
ATOM     41  F   UNL A   1      49.045  26.999  27.855  1.00  0.00    -0.206 F 
ATOM     42  C   UNL A   1      50.298  26.877  25.876  1.00  0.00     0.040 A 
ATOM     43  C   UNL A   1      49.237  27.282  23.752  1.00  0.00     0.040 A 
ATOM     44  F   UNL A   1      46.958  27.832  23.660  1.00  0.00    -0.206 F 
ATOM     45  C   UNL A   1      50.383  26.988  24.490  1.00  0.00     0.006 A 
ENDBRANCH  24  38
BRANCH  25  46
ATOM     46  C   UNL A   1      39.134  29.243  30.247  1.00  0.00     0.057 A 
ATOM     47  C   UNL A   1      38.886  28.832  31.562  1.00  0.00     0.134 A 
ATOM     48  C   UNL A   1      38.088  29.884  29.570  1.00  0.00     0.134 A 
ATOM     49  F   UNL A   1      39.841  28.202  32.262  1.00  0.00    -0.206 F 
ATOM     50  C   UNL A   1      37.641  29.018  32.169  1.00  0.00     0.040 A 
ATOM     51  C   UNL A   1      36.843  30.092  30.170  1.00  0.00     0.040 A 
ATOM     52  F   UNL A   1      38.258  30.312  28.311  1.00  0.00    -0.206 F 
ATOM     53  C   UNL A   1      36.614  29.649  31.472  1.00  0.00     0.006 A 
ENDBRANCH  25  46
BRANCH  37  54
ATOM     54  C   UNL A   1      44.747  33.120  28.898  1.00  0.00     0.057 A 
ATOM     55  C   UNL A   1      44.393  34.103  27.966  1.00  0.00     0.134 A 
ATOM     56  C   UNL A   1      45.357  33.539  30.087  1.00  0.00     0.134 A 
ATOM     57  F   UNL A   1      43.822  33.762  26.802  1.00  0.00    -0.206 F 
ATOM     58  C   UNL A   1      44.654  35.453  28.202  1.00  0.00     0.040 A 
ATOM     59  C   UNL A   1      45.594  34.888  30.348  1.00  0.00     0.040 A 
ATOM     60  F   UNL A   1      45.715  32.646  31.022  1.00  0.00    -0.206 F 
ATOM     61  C   UNL A   1      45.248  35.848  29.400  1.00  0.00     0.006 A 
ENDBRANCH  37  54
ENDBRANCH  11  12
ENDBRANCH   4   6
ENDBRANCH   3   4
ENDBRANCH   2   3
ENDBRANCH   1   2
BRANCH   1  62
ATOM     62  O   UNL A   1      37.537  21.447  25.663  1.00  0.00    -0.462 OA
BRANCH  62  63
ATOM     63  C   UNL A   1      36.302  21.296  25.108  1.00  0.00     0.312 C 
ATOM     64  O   UNL A   1      35.853  20.222  24.711  1.00  0.00    -0.252 OA
BRANCH  63  65
ATOM     65  C   UNL A   1      35.511  22.571  24.951  1.00  0.00     0.147 C 
ATOM     66  C   UNL A   1      34.199  22.644  25.767  1.00  0.00     0.128 C 
ATOM     67  C   UNL A   1      35.012  22.836  23.538  1.00  0.00     0.157 C 
ATOM     68  C   UNL A   1      33.171  22.952  24.689  1.00  0.00     0.155 C 
ATOM     69  C   UNL A   1      34.510  24.239  23.374  1.00  0.00     0.004 C 
ATOM     70  O   UNL A   1      33.734  22.172  23.601  1.00  0.00    -0.365 OA
ATOM     71  C   UNL A   1      33.382  24.317  24.094  1.00  0.00     0.004 C 
BRANCH  66  72
ATOM     72  C   UNL A   1      33.891  21.470  26.681  1.00  0.00     0.227 C 
ATOM     73  O   UNL A   1      34.269  21.551  27.858  1.00  0.00    -0.275 OA
ATOM     74  N   UNL A   1      33.283  20.305  26.373  1.00  0.00    -0.352 N 
ATOM     75  H   UNL A   1      33.305  19.675  27.129  1.00  0.00     0.163 HD
BRANCH  74  76
ATOM     76  C   UNL A   1      32.603  19.735  25.219  1.00  0.00     0.151 C 
BRANCH  76  77
ATOM     77  C   UNL A   1      32.987  18.296  24.924  1.00  0.00    -0.026 A 
ATOM     78  C   UNL A   1      32.673  17.299  25.857  1.00  0.00     0.025 A 
ATOM     79  C   UNL A   1      33.663  17.889  23.770  1.00  0.00     0.025 A 
ATOM     80  C   UNL A   1      32.903  15.967  25.547  1.00  0.00     0.111 A 
ATOM     81  C   UNL A   1      33.875  16.533  23.554  1.00  0.00     0.111 A 
ATOM     82  N   UNL A   1      33.476  15.562  24.401  1.00  0.00    -0.265 NA
ENDBRANCH  76  77
ENDBRANCH  74  76
ENDBRANCH  66  72
ENDBRANCH  63  65
ENDBRANCH  62  63
ENDBRANCH   1  62
TORSDOF 14
ENDMDL
