MODEL 1
REMARK VINA RESULT:     -11.5      0.000      0.000
REMARK SMILES Cc1cc(C(=O)OCCOC(=O)c2ccc(-c3c4nc(c(-c5c(F)cccc5F)c5ccc([nH]5)c(-c5c(F)cccc5F)c5nc(c(-c6c(F)cccc6F)c6ccc3[nH]6)C=C5)C=C4)cc2)nc(N2CCN(c3ccccc3Cl)CC2)n1
REMARK SMILES IDX 8 1 7 2 5 3 6 4 4 5 1 6 2 7 3 8 82 9 68 10 67 11 69 12 70 13
REMARK SMILES IDX 81 14 71 15 80 16 72 17 73 18 74 19 78 20 75 21 77 22 79 23
REMARK SMILES IDX 76 24 9 25 10 26 11 27 12 28 13 29 14 30 66 31 15 32 65 33
REMARK SMILES IDX 16 34 17 35 18 36 59 37 19 38 64 39 58 40 60 41 20 42 63 43
REMARK SMILES IDX 57 44 56 45 21 47 47 48 30 49 46 50 31 51 34 52 45 53 61 54
REMARK SMILES IDX 32 55 33 56 44 58 62 59 35 60 22 61 23 62 28 63 24 64 25 65
REMARK SMILES IDX 27 66 29 67 26 68 48 69 49 70 54 71 50 72 51 73 53 74 55 75
REMARK SMILES IDX 52 76 36 77 37 78 42 79 38 80 39 81 41 82 43 83 40 84
REMARK H PARENT 60 46 34 57
REMARK Flexibility Score: inf
ROOT
ATOM      1  C   UNL A   1      44.899  21.746  24.356  1.00  0.00     0.275 C 
ENDROOT
BRANCH   1   2
ATOM      2  O   UNL A   1      44.713  20.697  25.330  1.00  0.00    -0.457 OA
BRANCH   2   3
ATOM      3  C   UNL A   1      43.457  20.172  25.378  1.00  0.00     0.357 C 
ATOM      4  O   UNL A   1      43.093  19.137  24.855  1.00  0.00    -0.244 OA
BRANCH   3   5
ATOM      5  C   UNL A   1      42.582  21.009  26.251  1.00  0.00     0.154 A 
ATOM      6  C   UNL A   1      42.477  22.885  29.456  1.00  0.00     0.067 C 
ATOM      7  C   UNL A   1      42.131  22.294  28.124  1.00  0.00     0.044 A 
ATOM      8  C   UNL A   1      43.009  21.455  27.475  1.00  0.00     0.059 A 
ATOM      9  N   UNL A   1      40.938  22.652  27.595  1.00  0.00    -0.218 NA
ATOM     10  C   UNL A   1      40.587  22.131  26.411  1.00  0.00     0.226 A 
ATOM     11  N   UNL A   1      41.385  21.324  25.713  1.00  0.00    -0.206 NA
BRANCH  10  12
ATOM     12  N   UNL A   1      39.340  22.380  25.875  1.00  0.00    -0.337 N 
ATOM     13  C   UNL A   1      38.527  23.424  26.511  1.00  0.00     0.141 C 
ATOM     14  C   UNL A   1      38.599  21.149  25.562  1.00  0.00     0.141 C 
ATOM     15  C   UNL A   1      37.293  23.752  25.625  1.00  0.00     0.138 C 
ATOM     16  C   UNL A   1      37.361  21.461  24.695  1.00  0.00     0.138 C 
ATOM     17  N   UNL A   1      36.541  22.521  25.317  1.00  0.00    -0.367 N 
BRANCH  17  18
ATOM     18  C   UNL A   1      35.228  22.589  24.845  1.00  0.00     0.056 A 
ATOM     19  C   UNL A   1      34.946  22.961  23.520  1.00  0.00     0.027 A 
ATOM     20  C   UNL A   1      34.128  22.241  25.665  1.00  0.00     0.064 A 
ATOM     21  C   UNL A   1      33.634  22.982  23.030  1.00  0.00     0.002 A 
ATOM     22  C   UNL A   1      32.817  22.263  25.176  1.00  0.00     0.023 A 
ATOM     23  Cl  UNL A   1      34.341  21.811  27.334  1.00  0.00    -0.082 Cl
ATOM     24  C   UNL A   1      32.571  22.633  23.857  1.00  0.00     0.002 A 
ENDBRANCH  17  18
ENDBRANCH  10  12
ENDBRANCH   3   5
ENDBRANCH   2   3
ENDBRANCH   1   2
BRANCH   1  25
ATOM     25  C   UNL A   1      45.507  22.990  25.004  1.00  0.00     0.275 C 
BRANCH  25  26
ATOM     26  O   UNL A   1      44.475  23.945  25.311  1.00  0.00    -0.458 OA
BRANCH  26  27
ATOM     27  C   UNL A   1      44.851  25.242  25.305  1.00  0.00     0.338 C 
ATOM     28  O   UNL A   1      45.722  25.764  24.624  1.00  0.00    -0.246 OA
BRANCH  27  29
ATOM     29  C   UNL A   1      44.019  26.006  26.246  1.00  0.00     0.060 A 
ATOM     30  C   UNL A   1      44.457  27.255  26.666  1.00  0.00     0.016 A 
ATOM     31  C   UNL A   1      42.893  25.431  26.833  1.00  0.00     0.016 A 
ATOM     32  C   UNL A   1      43.843  27.885  27.743  1.00  0.00     0.010 A 
ATOM     33  C   UNL A   1      42.220  26.114  27.857  1.00  0.00     0.010 A 
ATOM     34  C   UNL A   1      42.718  27.328  28.366  1.00  0.00    -0.014 A 
BRANCH  34  35
ATOM     35  C   UNL A   1      42.122  27.977  29.575  1.00  0.00     0.031 A 
ATOM     36  C   UNL A   1      40.822  28.742  29.475  1.00  0.00     0.074 A 
ATOM     37  C   UNL A   1      42.697  27.845  30.789  1.00  0.00     0.049 A 
ATOM     38  N   UNL A   1      40.238  29.507  30.366  1.00  0.00    -0.248 NA
ATOM     39  C   UNL A   1      40.084  28.640  28.207  1.00  0.00     0.031 C 
ATOM     40  C   UNL A   1      43.916  27.087  31.075  1.00  0.00     0.029 A 
ATOM     41  N   UNL A   1      42.319  28.332  32.019  1.00  0.00    -0.354 N 
ATOM     42  C   UNL A   1      39.105  30.022  29.746  1.00  0.00     0.074 A 
ATOM     43  C   UNL A   1      39.078  29.481  28.405  1.00  0.00     0.031 C 
ATOM     44  C   UNL A   1      44.155  27.115  32.395  1.00  0.00     0.029 A 
ATOM     45  C   UNL A   1      43.171  27.978  33.037  1.00  0.00     0.049 A 
ATOM     46  H   UNL A   1      41.516  28.884  32.155  1.00  0.00     0.167 HD
ATOM     47  C   UNL A   1      38.175  30.872  30.245  1.00  0.00     0.037 A 
ATOM     48  C   UNL A   1      43.198  28.338  34.334  1.00  0.00     0.037 A 
ATOM     49  C   UNL A   1      38.152  31.359  31.600  1.00  0.00     0.049 A 
ATOM     50  C   UNL A   1      42.179  29.310  34.855  1.00  0.00     0.074 A 
ATOM     51  C   UNL A   1      37.247  32.227  32.189  1.00  0.00     0.029 A 
ATOM     52  N   UNL A   1      39.060  31.001  32.583  1.00  0.00    -0.354 N 
ATOM     53  N   UNL A   1      41.161  29.852  34.235  1.00  0.00    -0.248 NA
ATOM     54  C   UNL A   1      42.330  29.740  36.253  1.00  0.00     0.031 C 
ATOM     55  C   UNL A   1      37.627  32.420  33.522  1.00  0.00     0.029 A 
ATOM     56  C   UNL A   1      38.745  31.642  33.771  1.00  0.00     0.049 A 
ATOM     57  H   UNL A   1      39.815  30.382  32.457  1.00  0.00     0.167 HD
ATOM     58  C   UNL A   1      40.552  30.685  35.163  1.00  0.00     0.074 A 
ATOM     59  C   UNL A   1      41.294  30.554  36.398  1.00  0.00     0.031 C 
ATOM     60  C   UNL A   1      39.481  31.498  34.999  1.00  0.00     0.037 A 
BRANCH  47  61
ATOM     61  C   UNL A   1      37.112  31.370  29.310  1.00  0.00     0.057 A 
ATOM     62  C   UNL A   1      36.002  30.593  28.961  1.00  0.00     0.134 A 
ATOM     63  C   UNL A   1      37.176  32.675  28.800  1.00  0.00     0.134 A 
ATOM     64  F   UNL A   1      35.884  29.336  29.411  1.00  0.00    -0.206 F 
ATOM     65  C   UNL A   1      35.000  31.091  28.124  1.00  0.00     0.040 A 
ATOM     66  C   UNL A   1      36.170  33.191  27.983  1.00  0.00     0.040 A 
ATOM     67  F   UNL A   1      38.210  33.475  29.105  1.00  0.00    -0.206 F 
ATOM     68  C   UNL A   1      35.079  32.397  27.639  1.00  0.00     0.006 A 
ENDBRANCH  47  61
BRANCH  48  69
ATOM     69  C   UNL A   1      44.273  27.828  35.223  1.00  0.00     0.057 A 
ATOM     70  C   UNL A   1      44.095  26.663  35.978  1.00  0.00     0.134 A 
ATOM     71  C   UNL A   1      45.494  28.501  35.350  1.00  0.00     0.134 A 
ATOM     72  F   UNL A   1      42.936  25.991  35.921  1.00  0.00    -0.206 F 
ATOM     73  C   UNL A   1      45.093  26.189  36.832  1.00  0.00     0.040 A 
ATOM     74  C   UNL A   1      46.510  28.022  36.177  1.00  0.00     0.040 A 
ATOM     75  F   UNL A   1      45.723  29.627  34.657  1.00  0.00    -0.206 F 
ATOM     76  C   UNL A   1      46.308  26.866  36.926  1.00  0.00     0.006 A 
ENDBRANCH  48  69
BRANCH  60  77
ATOM     77  C   UNL A   1      39.028  32.283  36.192  1.00  0.00     0.057 A 
ATOM     78  C   UNL A   1      39.440  33.605  36.403  1.00  0.00     0.134 A 
ATOM     79  C   UNL A   1      38.151  31.719  37.127  1.00  0.00     0.134 A 
ATOM     80  F   UNL A   1      40.290  34.196  35.550  1.00  0.00    -0.206 F 
ATOM     81  C   UNL A   1      39.011  34.332  37.515  1.00  0.00     0.040 A 
ATOM     82  C   UNL A   1      37.699  32.443  38.230  1.00  0.00     0.040 A 
ATOM     83  F   UNL A   1      37.716  30.459  36.978  1.00  0.00    -0.206 F 
ATOM     84  C   UNL A   1      38.135  33.752  38.429  1.00  0.00     0.006 A 
ENDBRANCH  60  77
ENDBRANCH  34  35
ENDBRANCH  27  29
ENDBRANCH  26  27
ENDBRANCH  25  26
ENDBRANCH   1  25
TORSDOF 13
ENDMDL
MODEL 2
REMARK VINA RESULT:     -11.5      5.010      8.412
REMARK SMILES Cc1cc(C(=O)OCCOC(=O)c2ccc(-c3c4nc(c(-c5c(F)cccc5F)c5ccc([nH]5)c(-c5c(F)cccc5F)c5nc(c(-c6c(F)cccc6F)c6ccc3[nH]6)C=C5)C=C4)cc2)nc(N2CCN(c3ccccc3Cl)CC2)n1
REMARK SMILES IDX 8 1 7 2 5 3 6 4 4 5 1 6 2 7 3 8 82 9 68 10 67 11 69 12 70 13
REMARK SMILES IDX 81 14 71 15 80 16 72 17 73 18 74 19 78 20 75 21 77 22 79 23
REMARK SMILES IDX 76 24 9 25 10 26 11 27 12 28 13 29 14 30 66 31 15 32 65 33
REMARK SMILES IDX 16 34 17 35 18 36 59 37 19 38 64 39 58 40 60 41 20 42 63 43
REMARK SMILES IDX 57 44 56 45 21 47 47 48 30 49 46 50 31 51 34 52 45 53 61 54
REMARK SMILES IDX 32 55 33 56 44 58 62 59 35 60 22 61 23 62 28 63 24 64 25 65
REMARK SMILES IDX 27 66 29 67 26 68 48 69 49 70 54 71 50 72 51 73 53 74 55 75
REMARK SMILES IDX 52 76 36 77 37 78 42 79 38 80 39 81 41 82 43 83 40 84
REMARK H PARENT 60 46 34 57
REMARK Flexibility Score: inf
ROOT
ATOM      1  C   UNL A   1      35.338  21.200  24.469  1.00  0.00     0.275 C 
ENDROOT
BRANCH   1   2
ATOM      2  O   UNL A   1      34.877  22.516  24.842  1.00  0.00    -0.457 OA
BRANCH   2   3
ATOM      3  C   UNL A   1      34.226  23.199  23.859  1.00  0.00     0.357 C 
ATOM      4  O   UNL A   1      34.613  23.351  22.716  1.00  0.00    -0.244 OA
BRANCH   3   5
ATOM      5  C   UNL A   1      32.901  23.675  24.353  1.00  0.00     0.154 A 
ATOM      6  C   UNL A   1      30.193  22.966  26.796  1.00  0.00     0.067 C 
ATOM      7  C   UNL A   1      31.044  23.591  25.733  1.00  0.00     0.044 A 
ATOM      8  C   UNL A   1      32.202  22.982  25.308  1.00  0.00     0.059 A 
ATOM      9  N   UNL A   1      30.625  24.783  25.247  1.00  0.00    -0.218 NA
ATOM     10  C   UNL A   1      31.353  25.366  24.284  1.00  0.00     0.226 A 
ATOM     11  N   UNL A   1      32.492  24.849  23.828  1.00  0.00    -0.206 NA
BRANCH  10  12
ATOM     12  N   UNL A   1      30.917  26.529  23.681  1.00  0.00    -0.337 N 
ATOM     13  C   UNL A   1      31.818  27.687  23.717  1.00  0.00     0.141 C 
ATOM     14  C   UNL A   1      29.517  26.846  24.000  1.00  0.00     0.141 C 
ATOM     15  C   UNL A   1      31.291  28.801  22.770  1.00  0.00     0.138 C 
ATOM     16  C   UNL A   1      28.985  27.962  23.077  1.00  0.00     0.138 C 
ATOM     17  N   UNL A   1      29.890  29.130  23.093  1.00  0.00    -0.367 N 
BRANCH  17  18
ATOM     18  C   UNL A   1      29.313  30.316  22.632  1.00  0.00     0.056 A 
ATOM     19  C   UNL A   1      28.685  30.385  21.378  1.00  0.00     0.027 A 
ATOM     20  C   UNL A   1      29.293  31.486  23.428  1.00  0.00     0.064 A 
ATOM     21  C   UNL A   1      28.063  31.558  20.935  1.00  0.00     0.002 A 
ATOM     22  C   UNL A   1      28.673  32.660  22.985  1.00  0.00     0.023 A 
ATOM     23  Cl  UNL A   1      30.077  31.544  24.977  1.00  0.00    -0.082 Cl
ATOM     24  C   UNL A   1      28.057  32.694  21.738  1.00  0.00     0.002 A 
ENDBRANCH  17  18
ENDBRANCH  10  12
ENDBRANCH   3   5
ENDBRANCH   2   3
ENDBRANCH   1   2
BRANCH   1  25
ATOM     25  C   UNL A   1      36.503  20.759  25.356  1.00  0.00     0.275 C 
BRANCH  25  26
ATOM     26  O   UNL A   1      37.649  21.598  25.124  1.00  0.00    -0.458 OA
BRANCH  26  27
ATOM     27  C   UNL A   1      38.767  21.269  25.806  1.00  0.00     0.338 C 
ATOM     28  O   UNL A   1      39.307  20.174  25.874  1.00  0.00    -0.246 OA
BRANCH  27  29
ATOM     29  C   UNL A   1      39.312  22.462  26.473  1.00  0.00     0.060 A 
ATOM     30  C   UNL A   1      38.812  23.710  26.126  1.00  0.00     0.016 A 
ATOM     31  C   UNL A   1      40.415  22.366  27.319  1.00  0.00     0.016 A 
ATOM     32  C   UNL A   1      39.474  24.865  26.529  1.00  0.00     0.010 A 
ATOM     33  C   UNL A   1      41.023  23.535  27.801  1.00  0.00     0.010 A 
ATOM     34  C   UNL A   1      40.595  24.803  27.369  1.00  0.00    -0.014 A 
BRANCH  34  35
ATOM     35  C   UNL A   1      41.343  26.049  27.724  1.00  0.00     0.031 A 
ATOM     36  C   UNL A   1      40.707  27.105  28.601  1.00  0.00     0.074 A 
ATOM     37  C   UNL A   1      42.619  26.232  27.323  1.00  0.00     0.049 A 
ATOM     38  N   UNL A   1      41.126  28.315  28.880  1.00  0.00    -0.248 NA
ATOM     39  C   UNL A   1      39.429  26.757  29.241  1.00  0.00     0.031 C 
ATOM     40  C   UNL A   1      43.405  25.286  26.530  1.00  0.00     0.029 A 
ATOM     41  N   UNL A   1      43.489  27.274  27.546  1.00  0.00    -0.354 N 
ATOM     42  C   UNL A   1      40.139  28.890  29.673  1.00  0.00     0.074 A 
ATOM     43  C   UNL A   1      39.101  27.897  29.835  1.00  0.00     0.031 C 
ATOM     44  C   UNL A   1      44.649  25.764  26.378  1.00  0.00     0.029 A 
ATOM     45  C   UNL A   1      44.723  27.094  26.970  1.00  0.00     0.049 A 
ATOM     46  H   UNL A   1      43.249  28.073  28.068  1.00  0.00     0.167 HD
ATOM     47  C   UNL A   1      40.098  30.133  30.211  1.00  0.00     0.037 A 
ATOM     48  C   UNL A   1      45.785  27.916  26.878  1.00  0.00     0.037 A 
ATOM     49  C   UNL A   1      41.158  31.103  30.117  1.00  0.00     0.049 A 
ATOM     50  C   UNL A   1      45.703  29.302  27.451  1.00  0.00     0.074 A 
ATOM     51  C   UNL A   1      41.198  32.389  30.631  1.00  0.00     0.029 A 
ATOM     52  N   UNL A   1      42.374  30.886  29.490  1.00  0.00    -0.354 N 
ATOM     53  N   UNL A   1      44.730  29.859  28.127  1.00  0.00    -0.248 NA
ATOM     54  C   UNL A   1      46.858  30.181  27.222  1.00  0.00     0.031 C 
ATOM     55  C   UNL A   1      42.426  32.962  30.286  1.00  0.00     0.029 A 
ATOM     56  C   UNL A   1      43.165  32.020  29.591  1.00  0.00     0.049 A 
ATOM     57  H   UNL A   1      42.637  30.051  29.040  1.00  0.00     0.167 HD
ATOM     58  C   UNL A   1      45.155  31.152  28.405  1.00  0.00     0.074 A 
ATOM     59  C   UNL A   1      46.485  31.287  27.852  1.00  0.00     0.031 C 
ATOM     60  C   UNL A   1      44.492  32.142  29.048  1.00  0.00     0.037 A 
BRANCH  47  61
ATOM     61  C   UNL A   1      38.844  30.541  30.928  1.00  0.00     0.057 A 
ATOM     62  C   UNL A   1      37.778  31.166  30.271  1.00  0.00     0.134 A 
ATOM     63  C   UNL A   1      38.683  30.246  32.289  1.00  0.00     0.134 A 
ATOM     64  F   UNL A   1      37.872  31.480  28.971  1.00  0.00    -0.206 F 
ATOM     65  C   UNL A   1      36.601  31.498  30.946  1.00  0.00     0.040 A 
ATOM     66  C   UNL A   1      37.503  30.551  32.968  1.00  0.00     0.040 A 
ATOM     67  F   UNL A   1      39.663  29.638  32.976  1.00  0.00    -0.206 F 
ATOM     68  C   UNL A   1      36.459  31.183  32.298  1.00  0.00     0.006 A 
ENDBRANCH  47  61
BRANCH  48  69
ATOM     69  C   UNL A   1      47.004  27.475  26.152  1.00  0.00     0.057 A 
ATOM     70  C   UNL A   1      47.093  27.574  24.759  1.00  0.00     0.134 A 
ATOM     71  C   UNL A   1      48.101  26.931  26.833  1.00  0.00     0.134 A 
ATOM     72  F   UNL A   1      46.063  28.059  24.049  1.00  0.00    -0.206 F 
ATOM     73  C   UNL A   1      48.226  27.142  24.069  1.00  0.00     0.040 A 
ATOM     74  C   UNL A   1      49.251  26.524  26.158  1.00  0.00     0.040 A 
ATOM     75  F   UNL A   1      48.074  26.805  28.169  1.00  0.00    -0.206 F 
ATOM     76  C   UNL A   1      49.313  26.622  24.771  1.00  0.00     0.006 A 
ENDBRANCH  48  69
BRANCH  60  77
ATOM     77  C   UNL A   1      45.208  33.447  29.218  1.00  0.00     0.057 A 
ATOM     78  C   UNL A   1      45.083  34.483  28.284  1.00  0.00     0.134 A 
ATOM     79  C   UNL A   1      46.013  33.679  30.341  1.00  0.00     0.134 A 
ATOM     80  F   UNL A   1      44.337  34.317  27.181  1.00  0.00    -0.206 F 
ATOM     81  C   UNL A   1      45.749  35.698  28.450  1.00  0.00     0.040 A 
ATOM     82  C   UNL A   1      46.667  34.897  30.528  1.00  0.00     0.040 A 
ATOM     83  F   UNL A   1      46.169  32.729  31.274  1.00  0.00    -0.206 F 
ATOM     84  C   UNL A   1      46.541  35.908  29.577  1.00  0.00     0.006 A 
ENDBRANCH  60  77
ENDBRANCH  34  35
ENDBRANCH  27  29
ENDBRANCH  26  27
ENDBRANCH  25  26
ENDBRANCH   1  25
TORSDOF 13
ENDMDL
MODEL 3
REMARK VINA RESULT:     -11.5      5.599     10.454
REMARK SMILES Cc1cc(C(=O)OCCOC(=O)c2ccc(-c3c4nc(c(-c5c(F)cccc5F)c5ccc([nH]5)c(-c5c(F)cccc5F)c5nc(c(-c6c(F)cccc6F)c6ccc3[nH]6)C=C5)C=C4)cc2)nc(N2CCN(c3ccccc3Cl)CC2)n1
REMARK SMILES IDX 8 1 7 2 5 3 6 4 4 5 1 6 2 7 3 8 82 9 68 10 67 11 69 12 70 13
REMARK SMILES IDX 81 14 71 15 80 16 72 17 73 18 74 19 78 20 75 21 77 22 79 23
REMARK SMILES IDX 76 24 9 25 10 26 11 27 12 28 13 29 14 30 66 31 15 32 65 33
REMARK SMILES IDX 16 34 17 35 18 36 59 37 19 38 64 39 58 40 60 41 20 42 63 43
REMARK SMILES IDX 57 44 56 45 21 47 47 48 30 49 46 50 31 51 34 52 45 53 61 54
REMARK SMILES IDX 32 55 33 56 44 58 62 59 35 60 22 61 23 62 28 63 24 64 25 65
REMARK SMILES IDX 27 66 29 67 26 68 48 69 49 70 54 71 50 72 51 73 53 74 55 75
REMARK SMILES IDX 52 76 36 77 37 78 42 79 38 80 39 81 41 82 43 83 40 84
REMARK H PARENT 60 46 34 57
REMARK Flexibility Score: inf
ROOT
ATOM      1  C   UNL A   1      33.633  29.952  27.064  1.00  0.00     0.275 C 
ENDROOT
BRANCH   1   2
ATOM      2  O   UNL A   1      32.215  29.742  26.896  1.00  0.00    -0.457 OA
BRANCH   2   3
ATOM      3  C   UNL A   1      31.801  28.454  27.053  1.00  0.00     0.357 C 
ATOM      4  O   UNL A   1      31.659  27.872  28.111  1.00  0.00    -0.244 OA
BRANCH   3   5
ATOM      5  C   UNL A   1      31.453  27.859  25.730  1.00  0.00     0.154 A 
ATOM      6  C   UNL A   1      30.280  28.679  22.301  1.00  0.00     0.067 C 
ATOM      7  C   UNL A   1      30.779  27.960  23.517  1.00  0.00     0.044 A 
ATOM      8  C   UNL A   1      30.963  28.629  24.706  1.00  0.00     0.059 A 
ATOM      9  N   UNL A   1      31.059  26.644  23.368  1.00  0.00    -0.218 NA
ATOM     10  C   UNL A   1      31.494  25.963  24.438  1.00  0.00     0.226 A 
ATOM     11  N   UNL A   1      31.712  26.539  25.619  1.00  0.00    -0.206 NA
BRANCH  10  12
ATOM     12  N   UNL A   1      31.695  24.600  24.369  1.00  0.00    -0.337 N 
ATOM     13  C   UNL A   1      31.631  23.843  25.624  1.00  0.00     0.141 C 
ATOM     14  C   UNL A   1      32.827  24.234  23.504  1.00  0.00     0.141 C 
ATOM     15  C   UNL A   1      31.608  22.318  25.326  1.00  0.00     0.138 C 
ATOM     16  C   UNL A   1      32.826  22.719  23.212  1.00  0.00     0.138 C 
ATOM     17  N   UNL A   1      32.747  21.944  24.467  1.00  0.00    -0.367 N 
BRANCH  17  18
ATOM     18  C   UNL A   1      33.142  20.610  24.350  1.00  0.00     0.056 A 
ATOM     19  C   UNL A   1      32.344  19.667  23.681  1.00  0.00     0.027 A 
ATOM     20  C   UNL A   1      34.385  20.159  24.857  1.00  0.00     0.064 A 
ATOM     21  C   UNL A   1      32.761  18.340  23.519  1.00  0.00     0.002 A 
ATOM     22  C   UNL A   1      34.801  18.833  24.697  1.00  0.00     0.023 A 
ATOM     23  Cl  UNL A   1      35.439  21.216  25.745  1.00  0.00    -0.082 Cl
ATOM     24  C   UNL A   1      33.988  17.924  24.026  1.00  0.00     0.002 A 
ENDBRANCH  17  18
ENDBRANCH  10  12
ENDBRANCH   3   5
ENDBRANCH   2   3
ENDBRANCH   1   2
BRANCH   1  25
ATOM     25  C   UNL A   1      33.903  31.206  27.897  1.00  0.00     0.275 C 
BRANCH  25  26
ATOM     26  O   UNL A   1      35.320  31.423  28.022  1.00  0.00    -0.458 OA
BRANCH  26  27
ATOM     27  C   UNL A   1      35.865  31.089  29.212  1.00  0.00     0.338 C 
ATOM     28  O   UNL A   1      35.441  31.354  30.328  1.00  0.00    -0.246 OA
BRANCH  27  29
ATOM     29  C   UNL A   1      37.084  30.295  28.997  1.00  0.00     0.060 A 
ATOM     30  C   UNL A   1      37.794  29.847  30.103  1.00  0.00     0.016 A 
ATOM     31  C   UNL A   1      37.610  30.126  27.718  1.00  0.00     0.016 A 
ATOM     32  C   UNL A   1      39.076  29.330  29.947  1.00  0.00     0.010 A 
ATOM     33  C   UNL A   1      38.863  29.518  27.558  1.00  0.00     0.010 A 
ATOM     34  C   UNL A   1      39.641  29.160  28.675  1.00  0.00    -0.014 A 
BRANCH  34  35
ATOM     35  C   UNL A   1      41.051  28.681  28.531  1.00  0.00     0.031 A 
ATOM     36  C   UNL A   1      42.211  29.620  28.777  1.00  0.00     0.074 A 
ATOM     37  C   UNL A   1      41.320  27.392  28.239  1.00  0.00     0.049 A 
ATOM     38  N   UNL A   1      43.488  29.440  28.543  1.00  0.00    -0.248 NA
ATOM     39  C   UNL A   1      41.893  30.935  29.355  1.00  0.00     0.031 C 
ATOM     40  C   UNL A   1      40.324  26.339  28.035  1.00  0.00     0.029 A 
ATOM     41  N   UNL A   1      42.521  26.740  28.079  1.00  0.00    -0.354 N 
ATOM     42  C   UNL A   1      44.113  30.634  28.885  1.00  0.00     0.074 A 
ATOM     43  C   UNL A   1      43.078  31.532  29.347  1.00  0.00     0.031 C 
ATOM     44  C   UNL A   1      40.950  25.170  27.832  1.00  0.00     0.029 A 
ATOM     45  C   UNL A   1      42.389  25.404  27.785  1.00  0.00     0.049 A 
ATOM     46  H   UNL A   1      43.393  27.188  28.167  1.00  0.00     0.167 HD
ATOM     47  C   UNL A   1      45.427  30.957  28.816  1.00  0.00     0.037 A 
ATOM     48  C   UNL A   1      43.306  24.473  27.463  1.00  0.00     0.037 A 
ATOM     49  C   UNL A   1      46.475  30.049  28.427  1.00  0.00     0.049 A 
ATOM     50  C   UNL A   1      44.752  24.863  27.357  1.00  0.00     0.074 A 
ATOM     51  C   UNL A   1      47.835  30.294  28.326  1.00  0.00     0.029 A 
ATOM     52  N   UNL A   1      46.284  28.716  28.101  1.00  0.00    -0.354 N 
ATOM     53  N   UNL A   1      45.317  26.018  27.604  1.00  0.00    -0.248 NA
ATOM     54  C   UNL A   1      45.685  23.823  26.899  1.00  0.00     0.031 C 
ATOM     55  C   UNL A   1      48.464  29.117  27.907  1.00  0.00     0.029 A 
ATOM     56  C   UNL A   1      47.500  28.130  27.784  1.00  0.00     0.049 A 
ATOM     57  H   UNL A   1      45.415  28.254  28.096  1.00  0.00     0.167 HD
ATOM     58  C   UNL A   1      46.668  25.844  27.333  1.00  0.00     0.074 A 
ATOM     59  C   UNL A   1      46.844  24.466  26.933  1.00  0.00     0.031 C 
ATOM     60  C   UNL A   1      47.669  26.755  27.398  1.00  0.00     0.037 A 
BRANCH  47  61
ATOM     61  C   UNL A   1      45.816  32.371  29.133  1.00  0.00     0.057 A 
ATOM     62  C   UNL A   1      46.223  32.764  30.413  1.00  0.00     0.134 A 
ATOM     63  C   UNL A   1      45.839  33.340  28.120  1.00  0.00     0.134 A 
ATOM     64  F   UNL A   1      46.219  31.886  31.427  1.00  0.00    -0.206 F 
ATOM     65  C   UNL A   1      46.624  34.076  30.679  1.00  0.00     0.040 A 
ATOM     66  C   UNL A   1      46.261  34.647  28.368  1.00  0.00     0.040 A 
ATOM     67  F   UNL A   1      45.471  33.026  26.868  1.00  0.00    -0.206 F 
ATOM     68  C   UNL A   1      46.651  35.019  29.652  1.00  0.00     0.006 A 
ENDBRANCH  47  61
BRANCH  48  69
ATOM     69  C   UNL A   1      42.877  23.087  27.148  1.00  0.00     0.057 A 
ATOM     70  C   UNL A   1      42.585  22.171  28.165  1.00  0.00     0.134 A 
ATOM     71  C   UNL A   1      42.764  22.641  25.825  1.00  0.00     0.134 A 
ATOM     72  F   UNL A   1      42.703  22.530  29.452  1.00  0.00    -0.206 F 
ATOM     73  C   UNL A   1      42.201  20.860  27.878  1.00  0.00     0.040 A 
ATOM     74  C   UNL A   1      42.353  21.343  25.524  1.00  0.00     0.040 A 
ATOM     75  F   UNL A   1      43.036  23.469  24.805  1.00  0.00    -0.206 F 
ATOM     76  C   UNL A   1      42.077  20.446  26.552  1.00  0.00     0.006 A 
ENDBRANCH  48  69
BRANCH  60  77
ATOM     77  C   UNL A   1      49.049  26.279  27.058  1.00  0.00     0.057 A 
ATOM     78  C   UNL A   1      49.559  26.368  25.757  1.00  0.00     0.134 A 
ATOM     79  C   UNL A   1      49.885  25.749  28.048  1.00  0.00     0.134 A 
ATOM     80  F   UNL A   1      48.801  26.854  24.761  1.00  0.00    -0.206 F 
ATOM     81  C   UNL A   1      50.846  25.927  25.448  1.00  0.00     0.040 A 
ATOM     82  C   UNL A   1      51.182  25.325  27.756  1.00  0.00     0.040 A 
ATOM     83  F   UNL A   1      49.457  25.642  29.315  1.00  0.00    -0.206 F 
ATOM     84  C   UNL A   1      51.663  25.408  26.450  1.00  0.00     0.006 A 
ENDBRANCH  60  77
ENDBRANCH  34  35
ENDBRANCH  27  29
ENDBRANCH  26  27
ENDBRANCH  25  26
ENDBRANCH   1  25
TORSDOF 13
ENDMDL
