MODEL 1
REMARK VINA RESULT:     -11.4      0.000      0.000
REMARK SMILES O=C(OCCOC(=O)c1cc(SCC(=O)N2CCOCC2)ccn1)c1ccc(-c2c3nc(c(-c4c(F)cccc4F)c4ccc([nH]4)c(-c4c(F)cccc4F)c4nc(c(-c5c(F)cccc5F)c5ccc2[nH]5)C=C4)C=C3)cc1
REMARK SMILES IDX 5 1 4 2 3 3 2 4 1 5 25 6 26 7 78 8 27 9 77 10 28 11 29 12
REMARK SMILES IDX 30 13 71 14 31 15 76 16 70 17 72 18 32 19 75 20 69 21 68 22
REMARK SMILES IDX 33 24 59 25 42 26 58 27 43 28 46 29 57 30 73 31 44 32 45 33
REMARK SMILES IDX 56 35 74 36 47 37 34 38 35 39 40 40 36 41 37 42 39 43 41 44
REMARK SMILES IDX 38 45 60 46 61 47 66 48 62 49 63 50 65 51 67 52 64 53 48 54
REMARK SMILES IDX 49 55 54 56 50 57 51 58 53 59 55 60 52 61 6 62 7 63 8 64
REMARK SMILES IDX 9 65 10 66 24 67 11 68 23 69 22 70 12 71 13 72 14 73 15 74
REMARK SMILES IDX 16 75 17 76 21 77 18 78 20 79 19 80
REMARK H PARENT 72 23 46 34
REMARK Flexibility Score: inf
ROOT
ATOM      1  C   UNL A   1      42.921  20.424  26.137  1.00  0.00     0.275 C 
ENDROOT
BRANCH   1   2
ATOM      2  C   UNL A   1      43.881  21.269  25.294  1.00  0.00     0.275 C 
BRANCH   2   3
ATOM      3  O   UNL A   1      43.259  22.490  24.852  1.00  0.00    -0.458 OA
BRANCH   3   4
ATOM      4  C   UNL A   1      43.795  23.728  24.974  1.00  0.00     0.338 C 
ATOM      5  O   UNL A   1      44.707  24.086  24.234  1.00  0.00    -0.246 OA
BRANCH   4   6
ATOM      6  C   UNL A   1      43.456  24.588  26.148  1.00  0.00     0.060 A 
ATOM      7  C   UNL A   1      43.139  24.100  27.410  1.00  0.00     0.016 A 
ATOM      8  C   UNL A   1      43.354  25.981  25.933  1.00  0.00     0.016 A 
ATOM      9  C   UNL A   1      42.731  24.970  28.418  1.00  0.00     0.010 A 
ATOM     10  C   UNL A   1      42.948  26.863  26.953  1.00  0.00     0.010 A 
ATOM     11  C   UNL A   1      42.627  26.353  28.205  1.00  0.00    -0.014 A 
BRANCH  11  12
ATOM     12  C   UNL A   1      42.040  27.111  29.311  1.00  0.00     0.031 A 
ATOM     13  C   UNL A   1      42.808  27.370  30.614  1.00  0.00     0.074 A 
ATOM     14  C   UNL A   1      40.968  27.896  29.092  1.00  0.00     0.049 A 
ATOM     15  N   UNL A   1      42.500  28.168  31.617  1.00  0.00    -0.248 NA
ATOM     16  C   UNL A   1      43.991  26.556  30.877  1.00  0.00     0.031 C 
ATOM     17  C   UNL A   1      39.285  27.674  28.225  1.00  0.00     0.029 A 
ATOM     18  N   UNL A   1      40.773  29.383  30.041  1.00  0.00    -0.354 N 
ATOM     19  C   UNL A   1      43.375  27.934  32.661  1.00  0.00     0.074 A 
ATOM     20  C   UNL A   1      44.289  26.917  32.123  1.00  0.00     0.031 C 
ATOM     21  C   UNL A   1      38.234  28.923  28.534  1.00  0.00     0.029 A 
ATOM     22  C   UNL A   1      39.010  30.189  29.813  1.00  0.00     0.049 A 
ATOM     23  H   UNL A   1      41.475  29.760  30.620  1.00  0.00     0.167 HD
ATOM     24  C   UNL A   1      43.404  28.418  33.945  1.00  0.00     0.037 A 
ATOM     25  C   UNL A   1      38.193  31.143  30.429  1.00  0.00     0.037 A 
ATOM     26  C   UNL A   1      42.517  29.364  34.661  1.00  0.00     0.049 A 
ATOM     27  C   UNL A   1      38.363  31.823  31.815  1.00  0.00     0.074 A 
ATOM     28  C   UNL A   1      42.495  29.627  36.032  1.00  0.00     0.029 A 
ATOM     29  N   UNL A   1      41.560  30.244  34.147  1.00  0.00    -0.354 N 
ATOM     30  N   UNL A   1      39.086  31.364  32.790  1.00  0.00    -0.248 NA
ATOM     31  C   UNL A   1      37.660  33.044  32.241  1.00  0.00     0.031 C 
ATOM     32  C   UNL A   1      41.508  30.591  36.325  1.00  0.00     0.029 A 
ATOM     33  C   UNL A   1      40.902  30.988  35.145  1.00  0.00     0.049 A 
ATOM     34  H   UNL A   1      41.365  30.334  33.186  1.00  0.00     0.167 HD
ATOM     35  C   UNL A   1      39.097  32.200  33.849  1.00  0.00     0.074 A 
ATOM     36  C   UNL A   1      38.129  33.221  33.490  1.00  0.00     0.031 C 
ATOM     37  C   UNL A   1      39.874  32.030  34.950  1.00  0.00     0.037 A 
BRANCH  24  38
ATOM     38  C   UNL A   1      44.477  27.763  34.785  1.00  0.00     0.057 A 
ATOM     39  C   UNL A   1      44.253  26.562  35.471  1.00  0.00     0.134 A 
ATOM     40  C   UNL A   1      45.721  28.387  34.960  1.00  0.00     0.134 A 
ATOM     41  F   UNL A   1      43.070  25.937  35.377  1.00  0.00    -0.206 F 
ATOM     42  C   UNL A   1      45.215  26.025  36.328  1.00  0.00     0.040 A 
ATOM     43  C   UNL A   1      46.700  27.844  35.792  1.00  0.00     0.040 A 
ATOM     44  F   UNL A   1      45.996  29.543  34.337  1.00  0.00    -0.206 F 
ATOM     45  C   UNL A   1      46.443  26.665  36.489  1.00  0.00     0.006 A 
ENDBRANCH  24  38
BRANCH  25  46
ATOM     46  C   UNL A   1      37.128  31.705  29.565  1.00  0.00     0.057 A 
ATOM     47  C   UNL A   1      35.877  31.066  29.549  1.00  0.00     0.134 A 
ATOM     48  C   UNL A   1      37.288  32.823  28.750  1.00  0.00     0.134 A 
ATOM     49  F   UNL A   1      35.678  29.964  30.291  1.00  0.00    -0.206 F 
ATOM     50  C   UNL A   1      34.826  31.518  28.754  1.00  0.00     0.040 A 
ATOM     51  C   UNL A   1      36.236  33.307  27.970  1.00  0.00     0.040 A 
ATOM     52  F   UNL A   1      38.461  33.472  28.718  1.00  0.00    -0.206 F 
ATOM     53  C   UNL A   1      35.002  32.652  27.967  1.00  0.00     0.006 A 
ENDBRANCH  25  46
BRANCH  37  54
ATOM     54  C   UNL A   1      39.580  32.964  36.075  1.00  0.00     0.057 A 
ATOM     55  C   UNL A   1      38.587  32.659  37.016  1.00  0.00     0.134 A 
ATOM     56  C   UNL A   1      40.315  34.136  36.260  1.00  0.00     0.134 A 
ATOM     57  F   UNL A   1      37.850  31.545  36.893  1.00  0.00    -0.206 F 
ATOM     58  C   UNL A   1      38.326  33.499  38.099  1.00  0.00     0.040 A 
ATOM     59  C   UNL A   1      40.069  34.981  37.344  1.00  0.00     0.040 A 
ATOM     60  F   UNL A   1      41.279  34.480  35.394  1.00  0.00    -0.206 F 
ATOM     61  C   UNL A   1      39.072  34.663  38.266  1.00  0.00     0.006 A 
ENDBRANCH  37  54
ENDBRANCH  11  12
ENDBRANCH   4   6
ENDBRANCH   3   4
ENDBRANCH   2   3
ENDBRANCH   1   2
BRANCH   1  62
ATOM     62  O   UNL A   1      41.553  20.606  25.737  1.00  0.00    -0.457 OA
BRANCH  62  63
ATOM     63  C   UNL A   1      40.701  20.862  26.768  1.00  0.00     0.357 C 
ATOM     64  O   UNL A   1      40.771  20.393  27.892  1.00  0.00    -0.244 OA
BRANCH  63  65
ATOM     65  C   UNL A   1      39.683  21.865  26.355  1.00  0.00     0.149 A 
ATOM     66  C   UNL A   1      38.617  21.512  25.532  1.00  0.00     0.051 A 
ATOM     67  N   UNL A   1      39.830  23.088  26.934  1.00  0.00    -0.249 NA
ATOM     68  C   UNL A   1      37.619  22.458  25.329  1.00  0.00     0.012 A 
ATOM     69  C   UNL A   1      38.862  23.986  26.710  1.00  0.00     0.113 A 
ATOM     70  C   UNL A   1      37.738  23.708  25.956  1.00  0.00     0.035 A 
BRANCH  68  71
ATOM     71  S   UNL A   1      36.093  22.133  24.455  1.00  0.00    -0.116 SA
BRANCH  71  72
ATOM     72  C   UNL A   1      34.753  22.119  25.708  1.00  0.00     0.175 C 
BRANCH  72  73
ATOM     73  C   UNL A   1      33.885  20.863  25.832  1.00  0.00     0.233 C 
ATOM     74  O   UNL A   1      32.888  20.917  26.565  1.00  0.00    -0.274 OA
ATOM     75  N   UNL A   1      34.051  19.784  24.807  1.00  0.00    -0.337 N 
ATOM     76  C   UNL A   1      35.142  17.916  24.503  1.00  0.00     0.148 C 
ATOM     77  C   UNL A   1      32.608  20.046  23.791  1.00  0.00     0.148 C 
ATOM     78  C   UNL A   1      34.352  16.799  23.197  1.00  0.00     0.181 C 
ATOM     79  C   UNL A   1      32.251  18.836  22.554  1.00  0.00     0.181 C 
ATOM     80  O   UNL A   1      32.795  17.306  22.624  1.00  0.00    -0.378 OA
ENDBRANCH  72  73
ENDBRANCH  71  72
ENDBRANCH  68  71
ENDBRANCH  63  65
ENDBRANCH  62  63
ENDBRANCH   1  62
TORSDOF 14
ENDMDL
MODEL 2
REMARK VINA RESULT:     -11.4      5.520     10.640
REMARK SMILES O=C(OCCOC(=O)c1cc(SCC(=O)N2CCOCC2)ccn1)c1ccc(-c2c3nc(c(-c4c(F)cccc4F)c4ccc([nH]4)c(-c4c(F)cccc4F)c4nc(c(-c5c(F)cccc5F)c5ccc2[nH]5)C=C4)C=C3)cc1
REMARK SMILES IDX 5 1 4 2 3 3 2 4 1 5 25 6 26 7 78 8 27 9 77 10 28 11 29 12
REMARK SMILES IDX 30 13 71 14 31 15 76 16 70 17 72 18 32 19 75 20 69 21 68 22
REMARK SMILES IDX 33 24 59 25 42 26 58 27 43 28 46 29 57 30 73 31 44 32 45 33
REMARK SMILES IDX 56 35 74 36 47 37 34 38 35 39 40 40 36 41 37 42 39 43 41 44
REMARK SMILES IDX 38 45 60 46 61 47 66 48 62 49 63 50 65 51 67 52 64 53 48 54
REMARK SMILES IDX 49 55 54 56 50 57 51 58 53 59 55 60 52 61 6 62 7 63 8 64
REMARK SMILES IDX 9 65 10 66 24 67 11 68 23 69 22 70 12 71 13 72 14 73 15 74
REMARK SMILES IDX 16 75 17 76 21 77 18 78 20 79 19 80
REMARK H PARENT 72 23 46 34
REMARK Flexibility Score: inf
ROOT
ATOM      1  C   UNL A   1      33.065  34.970  29.010  1.00  0.00     0.275 C 
ENDROOT
BRANCH   1   2
ATOM      2  C   UNL A   1      33.251  36.486  29.124  1.00  0.00     0.275 C 
BRANCH   2   3
ATOM      3  O   UNL A   1      33.121  36.933  30.487  1.00  0.00    -0.458 OA
BRANCH   3   4
ATOM      4  C   UNL A   1      32.768  36.151  31.535  1.00  0.00     0.338 C 
ATOM      5  O   UNL A   1      31.634  36.211  32.000  1.00  0.00    -0.246 OA
BRANCH   4   6
ATOM      6  C   UNL A   1      33.804  35.383  32.289  1.00  0.00     0.060 A 
ATOM      7  C   UNL A   1      35.076  35.861  32.580  1.00  0.00     0.016 A 
ATOM      8  C   UNL A   1      33.503  34.048  32.642  1.00  0.00     0.016 A 
ATOM      9  C   UNL A   1      36.013  35.034  33.194  1.00  0.00     0.010 A 
ATOM     10  C   UNL A   1      34.447  33.214  33.269  1.00  0.00     0.010 A 
ATOM     11  C   UNL A   1      35.716  33.709  33.542  1.00  0.00    -0.014 A 
BRANCH  11  12
ATOM     12  C   UNL A   1      36.850  32.925  34.039  1.00  0.00     0.031 A 
ATOM     13  C   UNL A   1      37.662  32.004  33.120  1.00  0.00     0.074 A 
ATOM     14  C   UNL A   1      37.429  33.251  35.210  1.00  0.00     0.049 A 
ATOM     15  N   UNL A   1      38.799  31.380  33.361  1.00  0.00    -0.248 NA
ATOM     16  C   UNL A   1      37.080  31.647  31.830  1.00  0.00     0.031 C 
ATOM     17  C   UNL A   1      36.800  33.634  36.968  1.00  0.00     0.029 A 
ATOM     18  N   UNL A   1      39.169  32.978  35.424  1.00  0.00    -0.354 N 
ATOM     19  C   UNL A   1      39.059  30.507  32.322  1.00  0.00     0.074 A 
ATOM     20  C   UNL A   1      37.945  30.734  31.392  1.00  0.00     0.031 C 
ATOM     21  C   UNL A   1      38.023  33.682  38.091  1.00  0.00     0.029 A 
ATOM     22  C   UNL A   1      39.739  33.197  37.278  1.00  0.00     0.049 A 
ATOM     23  H   UNL A   1      39.780  32.741  34.688  1.00  0.00     0.167 HD
ATOM     24  C   UNL A   1      40.042  29.563  32.157  1.00  0.00     0.037 A 
ATOM     25  C   UNL A   1      40.833  32.891  38.093  1.00  0.00     0.037 A 
ATOM     26  C   UNL A   1      41.169  29.151  33.026  1.00  0.00     0.049 A 
ATOM     27  C   UNL A   1      42.041  31.961  37.795  1.00  0.00     0.074 A 
ATOM     28  C   UNL A   1      41.986  28.030  32.874  1.00  0.00     0.029 A 
ATOM     29  N   UNL A   1      41.713  29.801  34.138  1.00  0.00    -0.354 N 
ATOM     30  N   UNL A   1      42.064  31.030  36.891  1.00  0.00    -0.248 NA
ATOM     31  C   UNL A   1      43.301  31.955  38.556  1.00  0.00     0.031 C 
ATOM     32  C   UNL A   1      42.947  27.986  33.905  1.00  0.00     0.029 A 
ATOM     33  C   UNL A   1      42.785  29.096  34.718  1.00  0.00     0.049 A 
ATOM     34  H   UNL A   1      41.382  30.663  34.481  1.00  0.00     0.167 HD
ATOM     35  C   UNL A   1      43.269  30.429  36.815  1.00  0.00     0.074 A 
ATOM     36  C   UNL A   1      44.006  30.995  37.930  1.00  0.00     0.031 C 
ATOM     37  C   UNL A   1      43.609  29.514  35.871  1.00  0.00     0.037 A 
BRANCH  24  38
ATOM     38  C   UNL A   1      39.843  28.735  30.908  1.00  0.00     0.057 A 
ATOM     39  C   UNL A   1      39.045  27.583  30.899  1.00  0.00     0.134 A 
ATOM     40  C   UNL A   1      40.520  29.064  29.724  1.00  0.00     0.134 A 
ATOM     41  F   UNL A   1      38.405  27.193  32.010  1.00  0.00    -0.206 F 
ATOM     42  C   UNL A   1      38.958  26.769  29.768  1.00  0.00     0.040 A 
ATOM     43  C   UNL A   1      40.415  28.273  28.579  1.00  0.00     0.040 A 
ATOM     44  F   UNL A   1      41.305  30.150  29.668  1.00  0.00    -0.206 F 
ATOM     45  C   UNL A   1      39.642  27.114  28.603  1.00  0.00     0.006 A 
ENDBRANCH  24  38
BRANCH  25  46
ATOM     46  C   UNL A   1      40.938  33.703  39.329  1.00  0.00     0.057 A 
ATOM     47  C   UNL A   1      41.456  35.006  39.227  1.00  0.00     0.134 A 
ATOM     48  C   UNL A   1      40.571  33.255  40.594  1.00  0.00     0.134 A 
ATOM     49  F   UNL A   1      41.855  35.476  38.034  1.00  0.00    -0.206 F 
ATOM     50  C   UNL A   1      41.604  35.830  40.340  1.00  0.00     0.040 A 
ATOM     51  C   UNL A   1      40.685  34.080  41.716  1.00  0.00     0.040 A 
ATOM     52  F   UNL A   1      40.076  32.020  40.756  1.00  0.00    -0.206 F 
ATOM     53  C   UNL A   1      41.207  35.370  41.591  1.00  0.00     0.006 A 
ENDBRANCH  25  46
BRANCH  37  54
ATOM     54  C   UNL A   1      44.919  28.839  36.095  1.00  0.00     0.057 A 
ATOM     55  C   UNL A   1      45.004  27.688  36.891  1.00  0.00     0.134 A 
ATOM     56  C   UNL A   1      46.088  29.292  35.479  1.00  0.00     0.134 A 
ATOM     57  F   UNL A   1      43.914  27.204  37.506  1.00  0.00    -0.206 F 
ATOM     58  C   UNL A   1      46.213  27.018  37.080  1.00  0.00     0.040 A 
ATOM     59  C   UNL A   1      47.302  28.625  35.653  1.00  0.00     0.040 A 
ATOM     60  F   UNL A   1      46.070  30.386  34.704  1.00  0.00    -0.206 F 
ATOM     61  C   UNL A   1      47.366  27.486  36.455  1.00  0.00     0.006 A 
ENDBRANCH  37  54
ENDBRANCH  11  12
ENDBRANCH   4   6
ENDBRANCH   3   4
ENDBRANCH   2   3
ENDBRANCH   1   2
BRANCH   1  62
ATOM     62  O   UNL A   1      34.023  34.377  28.118  1.00  0.00    -0.457 OA
BRANCH  62  63
ATOM     63  C   UNL A   1      34.960  33.607  28.738  1.00  0.00     0.357 C 
ATOM     64  O   UNL A   1      35.763  33.987  29.574  1.00  0.00    -0.244 OA
BRANCH  63  65
ATOM     65  C   UNL A   1      34.832  32.192  28.299  1.00  0.00     0.149 A 
ATOM     66  C   UNL A   1      33.593  31.650  27.969  1.00  0.00     0.051 A 
ATOM     67  N   UNL A   1      36.017  31.541  28.148  1.00  0.00    -0.249 NA
ATOM     68  C   UNL A   1      33.575  30.378  27.408  1.00  0.00     0.012 A 
ATOM     69  C   UNL A   1      35.971  30.311  27.619  1.00  0.00     0.113 A 
ATOM     70  C   UNL A   1      34.795  29.713  27.207  1.00  0.00     0.035 A 
BRANCH  68  71
ATOM     71  S   UNL A   1      32.107  29.590  26.758  1.00  0.00    -0.116 SA
BRANCH  71  72
ATOM     72  C   UNL A   1      32.596  28.756  25.199  1.00  0.00     0.175 C 
BRANCH  72  73
ATOM     73  C   UNL A   1      31.892  29.169  23.901  1.00  0.00     0.233 C 
ATOM     74  O   UNL A   1      32.397  28.811  22.828  1.00  0.00    -0.274 OA
ATOM     75  N   UNL A   1      30.475  29.643  23.985  1.00  0.00    -0.337 N 
ATOM     76  C   UNL A   1      29.336  31.501  24.143  1.00  0.00     0.148 C 
ATOM     77  C   UNL A   1      29.594  28.210  23.390  1.00  0.00     0.148 C 
ATOM     78  C   UNL A   1      27.542  31.322  23.574  1.00  0.00     0.181 C 
ATOM     79  C   UNL A   1      27.862  28.383  23.091  1.00  0.00     0.181 C 
ATOM     80  O   UNL A   1      27.147  29.815  22.811  1.00  0.00    -0.378 OA
ENDBRANCH  72  73
ENDBRANCH  71  72
ENDBRANCH  68  71
ENDBRANCH  63  65
ENDBRANCH  62  63
ENDBRANCH   1  62
TORSDOF 14
ENDMDL
MODEL 3
REMARK VINA RESULT:     -11.4      3.269      8.110
REMARK SMILES O=C(OCCOC(=O)c1cc(SCC(=O)N2CCOCC2)ccn1)c1ccc(-c2c3nc(c(-c4c(F)cccc4F)c4ccc([nH]4)c(-c4c(F)cccc4F)c4nc(c(-c5c(F)cccc5F)c5ccc2[nH]5)C=C4)C=C3)cc1
REMARK SMILES IDX 5 1 4 2 3 3 2 4 1 5 25 6 26 7 78 8 27 9 77 10 28 11 29 12
REMARK SMILES IDX 30 13 71 14 31 15 76 16 70 17 72 18 32 19 75 20 69 21 68 22
REMARK SMILES IDX 33 24 59 25 42 26 58 27 43 28 46 29 57 30 73 31 44 32 45 33
REMARK SMILES IDX 56 35 74 36 47 37 34 38 35 39 40 40 36 41 37 42 39 43 41 44
REMARK SMILES IDX 38 45 60 46 61 47 66 48 62 49 63 50 65 51 67 52 64 53 48 54
REMARK SMILES IDX 49 55 54 56 50 57 51 58 53 59 55 60 52 61 6 62 7 63 8 64
REMARK SMILES IDX 9 65 10 66 24 67 11 68 23 69 22 70 12 71 13 72 14 73 15 74
REMARK SMILES IDX 16 75 17 76 21 77 18 78 20 79 19 80
REMARK H PARENT 72 23 46 34
REMARK Flexibility Score: inf
ROOT
ATOM      1  C   UNL A   1      32.785  29.328  24.221  1.00  0.00     0.275 C 
ENDROOT
BRANCH   1   2
ATOM      2  C   UNL A   1      31.486  29.587  24.990  1.00  0.00     0.275 C 
BRANCH   2   3
ATOM      3  O   UNL A   1      31.735  29.793  26.393  1.00  0.00    -0.458 OA
BRANCH   3   4
ATOM      4  C   UNL A   1      32.426  30.833  26.919  1.00  0.00     0.338 C 
ATOM      5  O   UNL A   1      31.982  31.974  26.847  1.00  0.00    -0.246 OA
BRANCH   4   6
ATOM      6  C   UNL A   1      33.835  30.648  27.382  1.00  0.00     0.060 A 
ATOM      7  C   UNL A   1      34.470  29.417  27.487  1.00  0.00     0.016 A 
ATOM      8  C   UNL A   1      34.531  31.791  27.835  1.00  0.00     0.016 A 
ATOM      9  C   UNL A   1      35.749  29.329  28.030  1.00  0.00     0.010 A 
ATOM     10  C   UNL A   1      35.828  31.705  28.378  1.00  0.00     0.010 A 
ATOM     11  C   UNL A   1      36.440  30.463  28.483  1.00  0.00    -0.014 A 
BRANCH  11  12
ATOM     12  C   UNL A   1      37.707  30.190  29.165  1.00  0.00     0.031 A 
ATOM     13  C   UNL A   1      37.904  30.488  30.656  1.00  0.00     0.074 A 
ATOM     14  C   UNL A   1      38.603  29.355  28.606  1.00  0.00     0.049 A 
ATOM     15  N   UNL A   1      38.900  30.145  31.449  1.00  0.00    -0.248 NA
ATOM     16  C   UNL A   1      36.939  31.369  31.306  1.00  0.00     0.031 C 
ATOM     17  C   UNL A   1      39.385  29.172  26.877  1.00  0.00     0.029 A 
ATOM     18  N   UNL A   1      39.635  28.361  29.654  1.00  0.00    -0.354 N 
ATOM     19  C   UNL A   1      38.754  30.796  32.659  1.00  0.00     0.074 A 
ATOM     20  C   UNL A   1      37.497  31.539  32.502  1.00  0.00     0.031 C 
ATOM     21  C   UNL A   1      40.672  28.121  26.862  1.00  0.00     0.029 A 
ATOM     22  C   UNL A   1      41.076  27.486  28.671  1.00  0.00     0.049 A 
ATOM     23  H   UNL A   1      39.496  28.263  30.624  1.00  0.00     0.167 HD
ATOM     24  C   UNL A   1      39.575  30.861  33.758  1.00  0.00     0.037 A 
ATOM     25  C   UNL A   1      42.287  26.834  28.924  1.00  0.00     0.037 A 
ATOM     26  C   UNL A   1      40.897  30.254  34.037  1.00  0.00     0.049 A 
ATOM     27  C   UNL A   1      43.099  26.763  30.247  1.00  0.00     0.074 A 
ATOM     28  C   UNL A   1      41.757  30.555  35.094  1.00  0.00     0.029 A 
ATOM     29  N   UNL A   1      41.556  29.218  33.368  1.00  0.00    -0.354 N 
ATOM     30  N   UNL A   1      42.983  27.589  31.241  1.00  0.00    -0.248 NA
ATOM     31  C   UNL A   1      44.171  25.793  30.521  1.00  0.00     0.031 C 
ATOM     32  C   UNL A   1      42.921  29.761  35.014  1.00  0.00     0.029 A 
ATOM     33  C   UNL A   1      42.813  28.914  33.924  1.00  0.00     0.049 A 
ATOM     34  H   UNL A   1      41.180  28.749  32.588  1.00  0.00     0.167 HD
ATOM     35  C   UNL A   1      43.768  27.241  32.282  1.00  0.00     0.074 A 
ATOM     36  C   UNL A   1      44.556  26.137  31.764  1.00  0.00     0.031 C 
ATOM     37  C   UNL A   1      43.747  27.853  33.494  1.00  0.00     0.037 A 
BRANCH  24  38
ATOM     38  C   UNL A   1      39.062  31.822  34.806  1.00  0.00     0.057 A 
ATOM     39  C   UNL A   1      38.339  31.386  35.924  1.00  0.00     0.134 A 
ATOM     40  C   UNL A   1      39.237  33.205  34.647  1.00  0.00     0.134 A 
ATOM     41  F   UNL A   1      38.103  30.079  36.111  1.00  0.00    -0.206 F 
ATOM     42  C   UNL A   1      37.778  32.293  36.825  1.00  0.00     0.040 A 
ATOM     43  C   UNL A   1      38.705  34.118  35.558  1.00  0.00     0.040 A 
ATOM     44  F   UNL A   1      39.913  33.689  33.594  1.00  0.00    -0.206 F 
ATOM     45  C   UNL A   1      37.962  33.663  36.644  1.00  0.00     0.006 A 
ENDBRANCH  24  38
BRANCH  25  46
ATOM     46  C   UNL A   1      42.760  25.948  27.833  1.00  0.00     0.057 A 
ATOM     47  C   UNL A   1      42.161  24.684  27.696  1.00  0.00     0.134 A 
ATOM     48  C   UNL A   1      43.775  26.279  26.940  1.00  0.00     0.134 A 
ATOM     49  F   UNL A   1      41.199  24.302  28.551  1.00  0.00    -0.206 F 
ATOM     50  C   UNL A   1      42.556  23.784  26.709  1.00  0.00     0.040 A 
ATOM     51  C   UNL A   1      44.163  25.399  25.926  1.00  0.00     0.040 A 
ATOM     52  F   UNL A   1      44.388  27.467  27.025  1.00  0.00    -0.206 F 
ATOM     53  C   UNL A   1      43.555  24.146  25.812  1.00  0.00     0.006 A 
ENDBRANCH  25  46
BRANCH  37  54
ATOM     54  C   UNL A   1      44.832  27.434  34.427  1.00  0.00     0.057 A 
ATOM     55  C   UNL A   1      44.617  26.409  35.359  1.00  0.00     0.134 A 
ATOM     56  C   UNL A   1      46.104  28.006  34.368  1.00  0.00     0.134 A 
ATOM     57  F   UNL A   1      43.415  25.821  35.460  1.00  0.00    -0.206 F 
ATOM     58  C   UNL A   1      45.632  25.975  36.212  1.00  0.00     0.040 A 
ATOM     59  C   UNL A   1      47.130  27.573  35.211  1.00  0.00     0.040 A 
ATOM     60  F   UNL A   1      46.371  28.989  33.497  1.00  0.00    -0.206 F 
ATOM     61  C   UNL A   1      46.894  26.557  36.136  1.00  0.00     0.006 A 
ENDBRANCH  37  54
ENDBRANCH  11  12
ENDBRANCH   4   6
ENDBRANCH   3   4
ENDBRANCH   2   3
ENDBRANCH   1   2
BRANCH   1  62
ATOM     62  O   UNL A   1      32.535  28.913  22.869  1.00  0.00    -0.457 OA
BRANCH  62  63
ATOM     63  C   UNL A   1      33.395  27.963  22.409  1.00  0.00     0.357 C 
ATOM     64  O   UNL A   1      34.379  28.159  21.715  1.00  0.00    -0.244 OA
BRANCH  63  65
ATOM     65  C   UNL A   1      33.006  26.625  22.930  1.00  0.00     0.149 A 
ATOM     66  C   UNL A   1      33.793  25.959  23.866  1.00  0.00     0.051 A 
ATOM     67  N   UNL A   1      31.791  26.186  22.501  1.00  0.00    -0.249 NA
ATOM     68  C   UNL A   1      33.279  24.797  24.429  1.00  0.00     0.012 A 
ATOM     69  C   UNL A   1      31.326  25.056  23.049  1.00  0.00     0.113 A 
ATOM     70  C   UNL A   1      32.008  24.358  24.027  1.00  0.00     0.035 A 
BRANCH  68  71
ATOM     71  S   UNL A   1      34.058  23.905  25.769  1.00  0.00    -0.116 SA
BRANCH  71  72
ATOM     72  C   UNL A   1      34.602  22.290  25.089  1.00  0.00     0.175 C 
BRANCH  72  73
ATOM     73  C   UNL A   1      33.776  21.043  25.423  1.00  0.00     0.233 C 
ATOM     74  O   UNL A   1      32.771  21.187  26.135  1.00  0.00    -0.274 OA
ATOM     75  N   UNL A   1      33.987  19.812  24.600  1.00  0.00    -0.337 N 
ATOM     76  C   UNL A   1      35.143  17.958  24.623  1.00  0.00     0.148 C 
ATOM     77  C   UNL A   1      32.544  19.845  23.550  1.00  0.00     0.148 C 
ATOM     78  C   UNL A   1      34.402  16.608  23.525  1.00  0.00     0.181 C 
ATOM     79  C   UNL A   1      32.239  18.429  22.538  1.00  0.00     0.181 C 
ATOM     80  O   UNL A   1      32.834  16.954  22.870  1.00  0.00    -0.378 OA
ENDBRANCH  72  73
ENDBRANCH  71  72
ENDBRANCH  68  71
ENDBRANCH  63  65
ENDBRANCH  62  63
ENDBRANCH   1  62
TORSDOF 14
ENDMDL
