MODEL 1
REMARK VINA RESULT:     -10.6      0.000      0.000
REMARK SMILES O=C(CN(CC(=O)OCCOC(=O)c1ccc(-c2c3nc(c(-c4c(F)cccc4F)c4ccc([nH]4)c(-c4c(F)cccc4F)c4nc(c(-c5c(F)cccc5F)c5ccc2[nH]5)C=C4)C=C3)cc1)c1ccccc1)NCc1ccccc1
REMARK SMILES IDX 8 1 6 2 7 3 5 4 4 5 3 6 2 7 1 8 74 9 75 11 76 12 77 13 81 14
REMARK SMILES IDX 78 15 80 16 79 17 68 18 69 19 73 20 70 21 72 22 71 23 9 24
REMARK SMILES IDX 10 25 11 26 12 27 13 28 14 29 15 30 67 31 16 32 66 33 17 34
REMARK SMILES IDX 18 35 19 36 60 37 20 38 65 39 59 40 61 41 21 42 64 43 58 44
REMARK SMILES IDX 57 45 22 47 48 48 31 49 47 50 32 51 35 52 46 53 62 54 33 55
REMARK SMILES IDX 34 56 45 58 63 59 36 60 23 61 24 62 29 63 25 64 26 65 28 66
REMARK SMILES IDX 30 67 27 68 49 69 50 70 55 71 51 72 52 73 54 74 56 75 53 76
REMARK SMILES IDX 37 77 38 78 43 79 39 80 40 81 42 82 44 83 41 84
REMARK H PARENT 74 10 61 46 35 57
REMARK Flexibility Score: inf
ROOT
ATOM      1  O   UNL A   1      30.462  28.889  23.990  1.00  0.00    -0.461 OA
ENDROOT
BRANCH   1   2
ATOM      2  C   UNL A   1      30.330  28.416  22.723  1.00  0.00     0.325 C 
ATOM      3  O   UNL A   1      29.562  28.887  21.885  1.00  0.00    -0.250 OA
BRANCH   2   4
ATOM      4  C   UNL A   1      31.243  27.246  22.370  1.00  0.00     0.239 C 
BRANCH   4   5
ATOM      5  N   UNL A   1      31.288  26.126  23.313  1.00  0.00    -0.351 N 
BRANCH   5   6
ATOM      6  C   UNL A   1      30.051  25.640  23.948  1.00  0.00     0.217 C 
BRANCH   6   7
ATOM      7  C   UNL A   1      30.281  24.927  25.295  1.00  0.00     0.239 C 
ATOM      8  O   UNL A   1      30.412  25.552  26.345  1.00  0.00    -0.273 OA
ATOM      9  N   UNL A   1      30.271  23.547  25.245  1.00  0.00    -0.350 N 
ATOM     10  H   UNL A   1      29.960  23.102  24.424  1.00  0.00     0.163 HD
BRANCH   9  11
ATOM     11  C   UNL A   1      30.700  22.735  26.361  1.00  0.00     0.151 C 
BRANCH  11  12
ATOM     12  C   UNL A   1      32.150  22.324  26.354  1.00  0.00    -0.029 A 
ATOM     13  C   UNL A   1      32.662  21.289  25.561  1.00  0.00     0.005 A 
ATOM     14  C   UNL A   1      33.029  23.004  27.216  1.00  0.00     0.005 A 
ATOM     15  C   UNL A   1      34.015  20.946  25.629  1.00  0.00     0.000 A 
ATOM     16  C   UNL A   1      34.379  22.658  27.287  1.00  0.00     0.000 A 
ATOM     17  C   UNL A   1      34.872  21.627  26.492  1.00  0.00     0.000 A 
ENDBRANCH  11  12
ENDBRANCH   9  11
ENDBRANCH   6   7
ENDBRANCH   5   6
BRANCH   5  18
ATOM     18  C   UNL A   1      32.421  25.328  23.359  1.00  0.00     0.038 A 
ATOM     19  C   UNL A   1      32.547  24.223  22.512  1.00  0.00     0.026 A 
ATOM     20  C   UNL A   1      33.475  25.592  24.244  1.00  0.00     0.026 A 
ATOM     21  C   UNL A   1      33.681  23.404  22.554  1.00  0.00     0.002 A 
ATOM     22  C   UNL A   1      34.622  24.793  24.274  1.00  0.00     0.002 A 
ATOM     23  C   UNL A   1      34.722  23.693  23.432  1.00  0.00     0.000 A 
ENDBRANCH   5  18
ENDBRANCH   4   5
ENDBRANCH   2   4
ENDBRANCH   1   2
BRANCH   1  24
ATOM     24  C   UNL A   1      31.804  29.233  24.389  1.00  0.00     0.274 C 
BRANCH  24  25
ATOM     25  C   UNL A   1      31.794  30.001  25.708  1.00  0.00     0.275 C 
BRANCH  25  26
ATOM     26  O   UNL A   1      33.137  30.380  26.063  1.00  0.00    -0.458 OA
BRANCH  26  27
ATOM     27  C   UNL A   1      33.234  31.360  26.986  1.00  0.00     0.338 C 
ATOM     28  O   UNL A   1      32.472  32.304  27.149  1.00  0.00    -0.246 OA
BRANCH  27  29
ATOM     29  C   UNL A   1      34.475  31.207  27.762  1.00  0.00     0.060 A 
ATOM     30  C   UNL A   1      35.380  32.261  27.919  1.00  0.00     0.016 A 
ATOM     31  C   UNL A   1      34.768  29.943  28.275  1.00  0.00     0.016 A 
ATOM     32  C   UNL A   1      36.611  32.031  28.540  1.00  0.00     0.010 A 
ATOM     33  C   UNL A   1      35.969  29.730  28.946  1.00  0.00     0.010 A 
ATOM     34  C   UNL A   1      36.910  30.764  29.063  1.00  0.00    -0.014 A 
BRANCH  34  35
ATOM     35  C   UNL A   1      38.190  30.497  29.758  1.00  0.00     0.031 A 
ATOM     36  C   UNL A   1      39.219  29.599  29.133  1.00  0.00     0.074 A 
ATOM     37  C   UNL A   1      38.389  31.003  30.989  1.00  0.00     0.049 A 
ATOM     38  N   UNL A   1      40.302  29.090  29.661  1.00  0.00    -0.248 NA
ATOM     39  C   UNL A   1      38.993  29.216  27.730  1.00  0.00     0.031 C 
ATOM     40  C   UNL A   1      37.468  31.898  31.692  1.00  0.00     0.029 A 
ATOM     41  N   UNL A   1      39.417  30.815  31.877  1.00  0.00    -0.354 N 
ATOM     42  C   UNL A   1      40.873  28.304  28.668  1.00  0.00     0.074 A 
ATOM     43  C   UNL A   1      40.015  28.400  27.506  1.00  0.00     0.031 C 
ATOM     44  C   UNL A   1      37.967  32.174  32.906  1.00  0.00     0.029 A 
ATOM     45  C   UNL A   1      39.210  31.432  33.086  1.00  0.00     0.049 A 
ATOM     46  H   UNL A   1      40.223  30.290  31.668  1.00  0.00     0.167 HD
ATOM     47  C   UNL A   1      42.009  27.567  28.728  1.00  0.00     0.037 A 
ATOM     48  C   UNL A   1      39.920  31.371  34.228  1.00  0.00     0.037 A 
ATOM     49  C   UNL A   1      42.863  27.488  29.885  1.00  0.00     0.049 A 
ATOM     50  C   UNL A   1      41.152  30.519  34.282  1.00  0.00     0.074 A 
ATOM     51  C   UNL A   1      44.047  26.788  30.039  1.00  0.00     0.029 A 
ATOM     52  N   UNL A   1      42.619  28.130  31.090  1.00  0.00    -0.354 N 
ATOM     53  N   UNL A   1      41.678  29.773  33.341  1.00  0.00    -0.248 NA
ATOM     54  C   UNL A   1      41.883  30.491  35.556  1.00  0.00     0.031 C 
ATOM     55  C   UNL A   1      44.505  26.984  31.347  1.00  0.00     0.029 A 
ATOM     56  C   UNL A   1      43.623  27.832  31.997  1.00  0.00     0.049 A 
ATOM     57  H   UNL A   1      41.848  28.713  31.273  1.00  0.00     0.167 HD
ATOM     58  C   UNL A   1      42.806  29.194  33.905  1.00  0.00     0.074 A 
ATOM     59  C   UNL A   1      42.895  29.687  35.265  1.00  0.00     0.031 C 
ATOM     60  C   UNL A   1      43.688  28.330  33.346  1.00  0.00     0.037 A 
BRANCH  47  61
ATOM     61  C   UNL A   1      42.385  26.770  27.515  1.00  0.00     0.057 A 
ATOM     62  C   UNL A   1      43.148  27.321  26.478  1.00  0.00     0.134 A 
ATOM     63  C   UNL A   1      42.021  25.423  27.408  1.00  0.00     0.134 A 
ATOM     64  F   UNL A   1      43.518  28.609  26.515  1.00  0.00    -0.206 F 
ATOM     65  C   UNL A   1      43.525  26.559  25.369  1.00  0.00     0.040 A 
ATOM     66  C   UNL A   1      42.408  24.647  26.313  1.00  0.00     0.040 A 
ATOM     67  F   UNL A   1      41.294  24.834  28.370  1.00  0.00    -0.206 F 
ATOM     68  C   UNL A   1      43.161  25.216  25.289  1.00  0.00     0.006 A 
ENDBRANCH  47  61
BRANCH  48  69
ATOM     69  C   UNL A   1      39.453  32.125  35.415  1.00  0.00     0.057 A 
ATOM     70  C   UNL A   1      38.558  31.554  36.325  1.00  0.00     0.134 A 
ATOM     71  C   UNL A   1      39.922  33.415  35.689  1.00  0.00     0.134 A 
ATOM     72  F   UNL A   1      38.063  30.327  36.103  1.00  0.00    -0.206 F 
ATOM     73  C   UNL A   1      38.144  32.239  37.467  1.00  0.00     0.040 A 
ATOM     74  C   UNL A   1      39.533  34.105  36.838  1.00  0.00     0.040 A 
ATOM     75  F   UNL A   1      40.787  34.013  34.856  1.00  0.00    -0.206 F 
ATOM     76  C   UNL A   1      38.639  33.516  37.731  1.00  0.00     0.006 A 
ENDBRANCH  48  69
BRANCH  60  77
ATOM     77  C   UNL A   1      44.830  27.883  34.205  1.00  0.00     0.057 A 
ATOM     78  C   UNL A   1      46.024  28.611  34.272  1.00  0.00     0.134 A 
ATOM     79  C   UNL A   1      44.725  26.727  34.987  1.00  0.00     0.134 A 
ATOM     80  F   UNL A   1      46.188  29.718  33.533  1.00  0.00    -0.206 F 
ATOM     81  C   UNL A   1      47.084  28.192  35.076  1.00  0.00     0.040 A 
ATOM     82  C   UNL A   1      45.772  26.308  35.808  1.00  0.00     0.040 A 
ATOM     83  F   UNL A   1      43.604  25.990  34.967  1.00  0.00    -0.206 F 
ATOM     84  C   UNL A   1      46.958  27.039  35.851  1.00  0.00     0.006 A 
ENDBRANCH  60  77
ENDBRANCH  34  35
ENDBRANCH  27  29
ENDBRANCH  26  27
ENDBRANCH  25  26
ENDBRANCH  24  25
ENDBRANCH   1  24
TORSDOF 17
ENDMDL
MODEL 2
REMARK VINA RESULT:     -10.6      3.154      6.782
REMARK SMILES O=C(CN(CC(=O)OCCOC(=O)c1ccc(-c2c3nc(c(-c4c(F)cccc4F)c4ccc([nH]4)c(-c4c(F)cccc4F)c4nc(c(-c5c(F)cccc5F)c5ccc2[nH]5)C=C4)C=C3)cc1)c1ccccc1)NCc1ccccc1
REMARK SMILES IDX 8 1 6 2 7 3 5 4 4 5 3 6 2 7 1 8 74 9 75 11 76 12 77 13 81 14
REMARK SMILES IDX 78 15 80 16 79 17 68 18 69 19 73 20 70 21 72 22 71 23 9 24
REMARK SMILES IDX 10 25 11 26 12 27 13 28 14 29 15 30 67 31 16 32 66 33 17 34
REMARK SMILES IDX 18 35 19 36 60 37 20 38 65 39 59 40 61 41 21 42 64 43 58 44
REMARK SMILES IDX 57 45 22 47 48 48 31 49 47 50 32 51 35 52 46 53 62 54 33 55
REMARK SMILES IDX 34 56 45 58 63 59 36 60 23 61 24 62 29 63 25 64 26 65 28 66
REMARK SMILES IDX 30 67 27 68 49 69 50 70 55 71 51 72 52 73 54 74 56 75 53 76
REMARK SMILES IDX 37 77 38 78 43 79 39 80 40 81 42 82 44 83 41 84
REMARK H PARENT 74 10 61 46 35 57
REMARK Flexibility Score: inf
ROOT
ATOM      1  O   UNL A   1      31.207  29.398  25.203  1.00  0.00    -0.461 OA
ENDROOT
BRANCH   1   2
ATOM      2  C   UNL A   1      30.752  29.098  23.959  1.00  0.00     0.325 C 
ATOM      3  O   UNL A   1      29.860  29.717  23.380  1.00  0.00    -0.250 OA
BRANCH   2   4
ATOM      4  C   UNL A   1      31.456  27.930  23.277  1.00  0.00     0.239 C 
BRANCH   4   5
ATOM      5  N   UNL A   1      31.436  26.640  23.971  1.00  0.00    -0.351 N 
BRANCH   5   6
ATOM      6  C   UNL A   1      30.207  26.174  24.635  1.00  0.00     0.217 C 
BRANCH   6   7
ATOM      7  C   UNL A   1      30.455  25.136  25.747  1.00  0.00     0.239 C 
ATOM      8  O   UNL A   1      30.820  25.466  26.873  1.00  0.00    -0.273 OA
ATOM      9  N   UNL A   1      30.184  23.825  25.405  1.00  0.00    -0.350 N 
ATOM     10  H   UNL A   1      29.703  23.641  24.566  1.00  0.00     0.163 HD
BRANCH   9  11
ATOM     11  C   UNL A   1      30.582  22.715  26.241  1.00  0.00     0.151 C 
BRANCH  11  12
ATOM     12  C   UNL A   1      31.928  22.112  25.934  1.00  0.00    -0.029 A 
ATOM     13  C   UNL A   1      32.166  21.248  24.857  1.00  0.00     0.005 A 
ATOM     14  C   UNL A   1      32.996  22.416  26.797  1.00  0.00     0.005 A 
ATOM     15  C   UNL A   1      33.438  20.705  24.652  1.00  0.00     0.000 A 
ATOM     16  C   UNL A   1      34.264  21.869  26.594  1.00  0.00     0.000 A 
ATOM     17  C   UNL A   1      34.484  21.012  25.520  1.00  0.00     0.000 A 
ENDBRANCH  11  12
ENDBRANCH   9  11
ENDBRANCH   6   7
ENDBRANCH   5   6
BRANCH   5  18
ATOM     18  C   UNL A   1      32.453  25.728  23.731  1.00  0.00     0.038 A 
ATOM     19  C   UNL A   1      33.577  25.682  24.560  1.00  0.00     0.026 A 
ATOM     20  C   UNL A   1      32.396  24.826  22.660  1.00  0.00     0.026 A 
ATOM     21  C   UNL A   1      34.614  24.773  24.324  1.00  0.00     0.002 A 
ATOM     22  C   UNL A   1      33.417  23.898  22.433  1.00  0.00     0.002 A 
ATOM     23  C   UNL A   1      34.532  23.876  23.263  1.00  0.00     0.000 A 
ENDBRANCH   5  18
ENDBRANCH   4   5
ENDBRANCH   2   4
ENDBRANCH   1   2
BRANCH   1  24
ATOM     24  C   UNL A   1      32.617  29.677  25.301  1.00  0.00     0.274 C 
BRANCH  24  25
ATOM     25  C   UNL A   1      32.997  30.042  26.733  1.00  0.00     0.275 C 
BRANCH  25  26
ATOM     26  O   UNL A   1      34.427  29.983  26.890  1.00  0.00    -0.458 OA
BRANCH  26  27
ATOM     27  C   UNL A   1      34.906  30.535  28.025  1.00  0.00     0.338 C 
ATOM     28  O   UNL A   1      34.392  31.422  28.693  1.00  0.00    -0.246 OA
BRANCH  27  29
ATOM     29  C   UNL A   1      36.232  29.979  28.341  1.00  0.00     0.060 A 
ATOM     30  C   UNL A   1      36.515  29.412  29.586  1.00  0.00     0.016 A 
ATOM     31  C   UNL A   1      37.235  30.109  27.380  1.00  0.00     0.016 A 
ATOM     32  C   UNL A   1      37.824  29.028  29.893  1.00  0.00     0.010 A 
ATOM     33  C   UNL A   1      38.526  29.671  27.664  1.00  0.00     0.010 A 
ATOM     34  C   UNL A   1      38.836  29.150  28.930  1.00  0.00    -0.014 A 
BRANCH  34  35
ATOM     35  C   UNL A   1      40.226  28.720  29.210  1.00  0.00     0.031 A 
ATOM     36  C   UNL A   1      41.212  29.683  29.805  1.00  0.00     0.074 A 
ATOM     37  C   UNL A   1      40.616  27.482  28.853  1.00  0.00     0.049 A 
ATOM     38  N   UNL A   1      42.507  29.562  29.940  1.00  0.00    -0.248 NA
ATOM     39  C   UNL A   1      40.669  30.956  30.306  1.00  0.00     0.031 C 
ATOM     40  C   UNL A   1      39.744  26.456  28.280  1.00  0.00     0.029 A 
ATOM     41  N   UNL A   1      41.851  26.889  28.896  1.00  0.00    -0.354 N 
ATOM     42  C   UNL A   1      42.941  30.751  30.513  1.00  0.00     0.074 A 
ATOM     43  C   UNL A   1      41.771  31.583  30.698  1.00  0.00     0.031 C 
ATOM     44  C   UNL A   1      40.473  25.361  28.014  1.00  0.00     0.029 A 
ATOM     45  C   UNL A   1      41.868  25.631  28.345  1.00  0.00     0.049 A 
ATOM     46  H   UNL A   1      42.647  27.321  29.281  1.00  0.00     0.167 HD
ATOM     47  C   UNL A   1      44.203  31.111  30.849  1.00  0.00     0.037 A 
ATOM     48  C   UNL A   1      42.900  24.803  28.094  1.00  0.00     0.037 A 
ATOM     49  C   UNL A   1      45.360  30.272  30.672  1.00  0.00     0.049 A 
ATOM     50  C   UNL A   1      44.292  25.239  28.439  1.00  0.00     0.074 A 
ATOM     51  C   UNL A   1      46.678  30.536  31.001  1.00  0.00     0.029 A 
ATOM     52  N   UNL A   1      45.334  29.002  30.114  1.00  0.00    -0.354 N 
ATOM     53  N   UNL A   1      44.691  26.368  28.973  1.00  0.00    -0.248 NA
ATOM     54  C   UNL A   1      45.376  24.295  28.139  1.00  0.00     0.031 C 
ATOM     55  C   UNL A   1      47.455  29.436  30.616  1.00  0.00     0.029 A 
ATOM     56  C   UNL A   1      46.615  28.476  30.076  1.00  0.00     0.049 A 
ATOM     57  H   UNL A   1      44.525  28.543  29.793  1.00  0.00     0.167 HD
ATOM     58  C   UNL A   1      46.071  26.268  29.081  1.00  0.00     0.074 A 
ATOM     59  C   UNL A   1      46.437  24.961  28.571  1.00  0.00     0.031 C 
ATOM     60  C   UNL A   1      46.956  27.176  29.559  1.00  0.00     0.037 A 
BRANCH  47  61
ATOM     61  C   UNL A   1      44.405  32.482  31.423  1.00  0.00     0.057 A 
ATOM     62  C   UNL A   1      44.632  33.597  30.607  1.00  0.00     0.134 A 
ATOM     63  C   UNL A   1      44.322  32.695  32.804  1.00  0.00     0.134 A 
ATOM     64  F   UNL A   1      44.734  33.458  29.277  1.00  0.00    -0.206 F 
ATOM     65  C   UNL A   1      44.782  34.876  31.148  1.00  0.00     0.040 A 
ATOM     66  C   UNL A   1      44.452  33.971  33.355  1.00  0.00     0.040 A 
ATOM     67  F   UNL A   1      44.102  31.669  33.639  1.00  0.00    -0.206 F 
ATOM     68  C   UNL A   1      44.685  35.066  32.526  1.00  0.00     0.006 A 
ENDBRANCH  47  61
BRANCH  48  69
ATOM     69  C   UNL A   1      42.641  23.491  27.457  1.00  0.00     0.057 A 
ATOM     70  C   UNL A   1      42.737  23.332  26.071  1.00  0.00     0.134 A 
ATOM     71  C   UNL A   1      42.332  22.359  28.220  1.00  0.00     0.134 A 
ATOM     72  F   UNL A   1      43.013  24.386  25.289  1.00  0.00    -0.206 F 
ATOM     73  C   UNL A   1      42.536  22.092  25.465  1.00  0.00     0.040 A 
ATOM     74  C   UNL A   1      42.148  21.108  27.629  1.00  0.00     0.040 A 
ATOM     75  F   UNL A   1      42.232  22.448  29.555  1.00  0.00    -0.206 F 
ATOM     76  C   UNL A   1      42.249  20.973  26.246  1.00  0.00     0.006 A 
ENDBRANCH  48  69
BRANCH  60  77
ATOM     77  C   UNL A   1      48.398  26.774  29.566  1.00  0.00     0.057 A 
ATOM     78  C   UNL A   1      49.258  27.117  28.516  1.00  0.00     0.134 A 
ATOM     79  C   UNL A   1      48.933  26.055  30.640  1.00  0.00     0.134 A 
ATOM     80  F   UNL A   1      48.798  27.792  27.452  1.00  0.00    -0.206 F 
ATOM     81  C   UNL A   1      50.602  26.742  28.527  1.00  0.00     0.040 A 
ATOM     82  C   UNL A   1      50.279  25.689  30.671  1.00  0.00     0.040 A 
ATOM     83  F   UNL A   1      48.158  25.700  31.677  1.00  0.00    -0.206 F 
ATOM     84  C   UNL A   1      51.117  26.029  29.610  1.00  0.00     0.006 A 
ENDBRANCH  60  77
ENDBRANCH  34  35
ENDBRANCH  27  29
ENDBRANCH  26  27
ENDBRANCH  25  26
ENDBRANCH  24  25
ENDBRANCH   1  24
TORSDOF 17
ENDMDL
MODEL 3
REMARK VINA RESULT:     -10.5      4.704      9.183
REMARK SMILES O=C(CN(CC(=O)OCCOC(=O)c1ccc(-c2c3nc(c(-c4c(F)cccc4F)c4ccc([nH]4)c(-c4c(F)cccc4F)c4nc(c(-c5c(F)cccc5F)c5ccc2[nH]5)C=C4)C=C3)cc1)c1ccccc1)NCc1ccccc1
REMARK SMILES IDX 8 1 6 2 7 3 5 4 4 5 3 6 2 7 1 8 74 9 75 11 76 12 77 13 81 14
REMARK SMILES IDX 78 15 80 16 79 17 68 18 69 19 73 20 70 21 72 22 71 23 9 24
REMARK SMILES IDX 10 25 11 26 12 27 13 28 14 29 15 30 67 31 16 32 66 33 17 34
REMARK SMILES IDX 18 35 19 36 60 37 20 38 65 39 59 40 61 41 21 42 64 43 58 44
REMARK SMILES IDX 57 45 22 47 48 48 31 49 47 50 32 51 35 52 46 53 62 54 33 55
REMARK SMILES IDX 34 56 45 58 63 59 36 60 23 61 24 62 29 63 25 64 26 65 28 66
REMARK SMILES IDX 30 67 27 68 49 69 50 70 55 71 51 72 52 73 54 74 56 75 53 76
REMARK SMILES IDX 37 77 38 78 43 79 39 80 40 81 42 82 44 83 41 84
REMARK H PARENT 74 10 61 46 35 57
REMARK Flexibility Score: inf
ROOT
ATOM      1  O   UNL A   1      37.826  22.036  25.846  1.00  0.00    -0.461 OA
ENDROOT
BRANCH   1   2
ATOM      2  C   UNL A   1      36.753  22.486  25.144  1.00  0.00     0.325 C 
ATOM      3  O   UNL A   1      36.175  21.839  24.273  1.00  0.00    -0.250 OA
BRANCH   2   4
ATOM      4  C   UNL A   1      36.264  23.878  25.533  1.00  0.00     0.239 C 
BRANCH   4   5
ATOM      5  N   UNL A   1      34.815  24.077  25.620  1.00  0.00    -0.351 N 
BRANCH   5   6
ATOM      6  C   UNL A   1      34.029  23.363  26.640  1.00  0.00     0.217 C 
BRANCH   6   7
ATOM      7  C   UNL A   1      32.872  22.525  26.061  1.00  0.00     0.239 C 
ATOM      8  O   UNL A   1      31.705  22.709  26.399  1.00  0.00    -0.273 OA
ATOM      9  N   UNL A   1      33.233  21.600  25.101  1.00  0.00    -0.350 N 
ATOM     10  H   UNL A   1      34.141  21.636  24.722  1.00  0.00     0.163 HD
BRANCH   9  11
ATOM     11  C   UNL A   1      32.319  20.582  24.633  1.00  0.00     0.151 C 
BRANCH  11  12
ATOM     12  C   UNL A   1      32.954  19.316  24.120  1.00  0.00    -0.029 A 
ATOM     13  C   UNL A   1      32.381  18.501  23.136  1.00  0.00     0.005 A 
ATOM     14  C   UNL A   1      34.179  18.920  24.686  1.00  0.00     0.005 A 
ATOM     15  C   UNL A   1      33.016  17.323  22.731  1.00  0.00     0.000 A 
ATOM     16  C   UNL A   1      34.811  17.743  24.285  1.00  0.00     0.000 A 
ATOM     17  C   UNL A   1      34.228  16.944  23.306  1.00  0.00     0.000 A 
ENDBRANCH  11  12
ENDBRANCH   9  11
ENDBRANCH   6   7
ENDBRANCH   5   6
BRANCH   5  18
ATOM     18  C   UNL A   1      34.243  25.160  24.970  1.00  0.00     0.038 A 
ATOM     19  C   UNL A   1      34.046  25.136  23.586  1.00  0.00     0.026 A 
ATOM     20  C   UNL A   1      33.841  26.309  25.665  1.00  0.00     0.026 A 
ATOM     21  C   UNL A   1      33.477  26.225  22.917  1.00  0.00     0.002 A 
ATOM     22  C   UNL A   1      33.249  27.391  25.007  1.00  0.00     0.002 A 
ATOM     23  C   UNL A   1      33.073  27.352  23.629  1.00  0.00     0.000 A 
ENDBRANCH   5  18
ENDBRANCH   4   5
ENDBRANCH   2   4
ENDBRANCH   1   2
BRANCH   1  24
ATOM     24  C   UNL A   1      38.472  20.863  25.311  1.00  0.00     0.274 C 
BRANCH  24  25
ATOM     25  C   UNL A   1      39.685  20.483  26.156  1.00  0.00     0.275 C 
BRANCH  25  26
ATOM     26  O   UNL A   1      40.319  19.315  25.602  1.00  0.00    -0.458 OA
BRANCH  26  27
ATOM     27  C   UNL A   1      41.625  19.167  25.911  1.00  0.00     0.338 C 
ATOM     28  O   UNL A   1      42.286  18.138  25.870  1.00  0.00    -0.246 OA
BRANCH  27  29
ATOM     29  C   UNL A   1      42.174  20.436  26.415  1.00  0.00     0.060 A 
ATOM     30  C   UNL A   1      42.233  20.723  27.782  1.00  0.00     0.016 A 
ATOM     31  C   UNL A   1      42.564  21.393  25.476  1.00  0.00     0.016 A 
ATOM     32  C   UNL A   1      42.627  21.994  28.208  1.00  0.00     0.010 A 
ATOM     33  C   UNL A   1      43.014  22.639  25.904  1.00  0.00     0.010 A 
ATOM     34  C   UNL A   1      43.026  22.958  27.270  1.00  0.00    -0.014 A 
BRANCH  34  35
ATOM     35  C   UNL A   1      43.484  24.303  27.691  1.00  0.00     0.031 A 
ATOM     36  C   UNL A   1      42.487  25.346  28.110  1.00  0.00     0.074 A 
ATOM     37  C   UNL A   1      44.793  24.605  27.618  1.00  0.00     0.049 A 
ATOM     38  N   UNL A   1      42.667  26.624  28.320  1.00  0.00    -0.248 NA
ATOM     39  C   UNL A   1      41.102  24.890  28.310  1.00  0.00     0.031 C 
ATOM     40  C   UNL A   1      45.854  23.672  27.238  1.00  0.00     0.029 A 
ATOM     41  N   UNL A   1      45.449  25.790  27.835  1.00  0.00    -0.354 N 
ATOM     42  C   UNL A   1      41.417  27.133  28.648  1.00  0.00     0.074 A 
ATOM     43  C   UNL A   1      40.485  26.027  28.606  1.00  0.00     0.031 C 
ATOM     44  C   UNL A   1      47.028  24.321  27.238  1.00  0.00     0.029 A 
ATOM     45  C   UNL A   1      46.793  25.724  27.562  1.00  0.00     0.049 A 
ATOM     46  H   UNL A   1      45.001  26.606  28.153  1.00  0.00     0.167 HD
ATOM     47  C   UNL A   1      41.083  28.411  28.951  1.00  0.00     0.037 A 
ATOM     48  C   UNL A   1      47.725  26.694  27.533  1.00  0.00     0.037 A 
ATOM     49  C   UNL A   1      42.020  29.503  29.003  1.00  0.00     0.049 A 
ATOM     50  C   UNL A   1      47.324  28.106  27.835  1.00  0.00     0.074 A 
ATOM     51  C   UNL A   1      41.785  30.830  29.322  1.00  0.00     0.029 A 
ATOM     52  N   UNL A   1      43.374  29.394  28.723  1.00  0.00    -0.354 N 
ATOM     53  N   UNL A   1      46.139  28.579  28.135  1.00  0.00    -0.248 NA
ATOM     54  C   UNL A   1      48.385  29.121  27.785  1.00  0.00     0.031 C 
ATOM     55  C   UNL A   1      42.993  31.528  29.208  1.00  0.00     0.029 A 
ATOM     56  C   UNL A   1      43.985  30.631  28.848  1.00  0.00     0.049 A 
ATOM     57  H   UNL A   1      43.833  28.560  28.473  1.00  0.00     0.167 HD
ATOM     58  C   UNL A   1      46.311  29.943  28.318  1.00  0.00     0.074 A 
ATOM     59  C   UNL A   1      47.718  30.220  28.110  1.00  0.00     0.031 C 
ATOM     60  C   UNL A   1      45.385  30.883  28.630  1.00  0.00     0.037 A 
BRANCH  47  61
ATOM     61  C   UNL A   1      39.639  28.703  29.232  1.00  0.00     0.057 A 
ATOM     62  C   UNL A   1      39.093  28.558  30.513  1.00  0.00     0.134 A 
ATOM     63  C   UNL A   1      38.800  29.183  28.219  1.00  0.00     0.134 A 
ATOM     64  F   UNL A   1      39.841  28.092  31.523  1.00  0.00    -0.206 F 
ATOM     65  C   UNL A   1      37.756  28.869  30.773  1.00  0.00     0.040 A 
ATOM     66  C   UNL A   1      37.467  29.514  28.471  1.00  0.00     0.040 A 
ATOM     67  F   UNL A   1      39.264  29.349  26.971  1.00  0.00    -0.206 F 
ATOM     68  C   UNL A   1      36.941  29.355  29.751  1.00  0.00     0.006 A 
ENDBRANCH  47  61
BRANCH  48  69
ATOM     69  C   UNL A   1      49.122  26.350  27.176  1.00  0.00     0.057 A 
ATOM     70  C   UNL A   1      49.583  26.486  25.863  1.00  0.00     0.134 A 
ATOM     71  C   UNL A   1      50.036  25.919  28.143  1.00  0.00     0.134 A 
ATOM     72  F   UNL A   1      48.746  26.879  24.891  1.00  0.00    -0.206 F 
ATOM     73  C   UNL A   1      50.907  26.205  25.523  1.00  0.00     0.040 A 
ATOM     74  C   UNL A   1      51.368  25.654  27.823  1.00  0.00     0.040 A 
ATOM     75  F   UNL A   1      49.653  25.776  29.421  1.00  0.00    -0.206 F 
ATOM     76  C   UNL A   1      51.806  25.796  26.507  1.00  0.00     0.006 A 
ENDBRANCH  48  69
BRANCH  60  77
ATOM     77  C   UNL A   1      45.877  32.289  28.780  1.00  0.00     0.057 A 
ATOM     78  C   UNL A   1      46.350  32.773  30.006  1.00  0.00     0.134 A 
ATOM     79  C   UNL A   1      45.898  33.159  27.684  1.00  0.00     0.134 A 
ATOM     80  F   UNL A   1      46.340  31.990  31.095  1.00  0.00    -0.206 F 
ATOM     81  C   UNL A   1      46.810  34.083  30.140  1.00  0.00     0.040 A 
ATOM     82  C   UNL A   1      46.371  34.466  27.801  1.00  0.00     0.040 A 
ATOM     83  F   UNL A   1      45.461  32.751  26.482  1.00  0.00    -0.206 F 
ATOM     84  C   UNL A   1      46.825  34.932  29.034  1.00  0.00     0.006 A 
ENDBRANCH  60  77
ENDBRANCH  34  35
ENDBRANCH  27  29
ENDBRANCH  26  27
ENDBRANCH  25  26
ENDBRANCH  24  25
ENDBRANCH   1  24
TORSDOF 17
ENDMDL
