MODEL 1
REMARK VINA RESULT:     -12.4      0.000      0.000
REMARK SMILES O=C(OCCOC(=O)c1ccc(-c2c3nc(c(-c4c(F)cccc4F)c4ccc([nH]4)c(-c4c(F)cccc4F)c4nc(c(-c5c(F)cccc5F)c5ccc2[nH]5)C=C4)C=C3)cc1)C1=Cc2c(ccc(Cl)c2-c2ccccc2)O[C@H]1C(F)(F)F
REMARK SMILES IDX 5 1 4 2 3 3 2 4 1 5 63 6 64 7 79 8 65 9 78 10 66 11 71 12
REMARK SMILES IDX 67 13 69 14 68 15 70 16 80 17 81 18 82 19 83 20 72 21 73 22
REMARK SMILES IDX 77 23 74 24 76 25 75 26 6 27 7 28 8 29 9 30 10 31 62 32
REMARK SMILES IDX 11 33 61 34 12 35 13 36 14 37 55 38 15 39 60 40 54 41 56 42
REMARK SMILES IDX 16 43 59 44 53 45 52 46 17 48 43 49 26 50 42 51 27 52 30 53
REMARK SMILES IDX 41 54 57 55 28 56 29 57 40 59 58 60 31 61 18 62 19 63 24 64
REMARK SMILES IDX 20 65 21 66 23 67 25 68 22 69 44 70 45 71 50 72 46 73 47 74
REMARK SMILES IDX 49 75 51 76 48 77 32 78 33 79 38 80 34 81 35 82 37 83 39 84
REMARK SMILES IDX 36 85
REMARK H PARENT 56 47 30 58
REMARK Flexibility Score: inf
ROOT
ATOM      1  C   UNL A   1      39.042  19.404  25.715  1.00  0.00     0.275 C 
ENDROOT
BRANCH   1   2
ATOM      2  C   UNL A   1      37.849  19.966  24.961  1.00  0.00     0.275 C 
BRANCH   2   3
ATOM      3  O   UNL A   1      37.188  20.952  25.782  1.00  0.00    -0.459 OA
BRANCH   3   4
ATOM      4  C   UNL A   1      36.490  22.010  25.310  1.00  0.00     0.338 C 
ATOM      5  O   UNL A   1      37.098  23.002  24.917  1.00  0.00    -0.246 OA
BRANCH   4   6
ATOM      6  C   UNL A   1      35.000  22.033  25.279  1.00  0.00     0.087 C 
ATOM      7  C   UNL A   1      34.160  20.995  25.447  1.00  0.00     0.028 C 
ATOM      8  C   UNL A   1      34.430  23.345  24.780  1.00  0.00     0.316 C 
ATOM      9  C   UNL A   1      33.330  20.752  24.245  1.00  0.00     0.027 A 
ATOM     10  O   UNL A   1      33.181  23.179  24.038  1.00  0.00    -0.475 OA
ATOM     11  C   UNL A   1      32.912  21.914  23.569  1.00  0.00     0.128 A 
ATOM     12  C   UNL A   1      33.004  19.448  23.766  1.00  0.00     0.011 A 
ATOM     13  C   UNL A   1      32.176  21.811  22.401  1.00  0.00     0.049 A 
ATOM     14  C   UNL A   1      32.267  19.383  22.568  1.00  0.00     0.049 A 
ATOM     15  C   UNL A   1      31.869  20.548  21.894  1.00  0.00     0.025 A 
ATOM     16  Cl  UNL A   1      31.819  17.871  21.852  1.00  0.00    -0.084 Cl
BRANCH   8  17
ATOM     17  C   UNL A   1      34.240  24.311  25.966  1.00  0.00     0.430 C 
ATOM     18  F   UNL A   1      32.960  24.735  26.092  1.00  0.00    -0.167 F 
ATOM     19  F   UNL A   1      34.588  23.739  27.141  1.00  0.00    -0.167 F 
ATOM     20  F   UNL A   1      34.997  25.427  25.815  1.00  0.00    -0.167 F 
ENDBRANCH   8  17
BRANCH  12  21
ATOM     21  C   UNL A   1      33.477  18.205  24.434  1.00  0.00    -0.016 A 
ATOM     22  C   UNL A   1      32.601  17.465  25.255  1.00  0.00     0.009 A 
ATOM     23  C   UNL A   1      34.773  17.689  24.236  1.00  0.00     0.009 A 
ATOM     24  C   UNL A   1      32.957  16.209  25.759  1.00  0.00     0.001 A 
ATOM     25  C   UNL A   1      35.135  16.433  24.754  1.00  0.00     0.001 A 
ATOM     26  C   UNL A   1      34.217  15.683  25.490  1.00  0.00     0.000 A 
ENDBRANCH  12  21
ENDBRANCH   4   6
ENDBRANCH   3   4
ENDBRANCH   2   3
ENDBRANCH   1   2
BRANCH   1  27
ATOM     27  O   UNL A   1      40.165  20.282  25.698  1.00  0.00    -0.458 OA
BRANCH  27  28
ATOM     28  C   UNL A   1      40.824  20.450  26.862  1.00  0.00     0.338 C 
ATOM     29  O   UNL A   1      41.322  19.522  27.476  1.00  0.00    -0.246 OA
BRANCH  28  30
ATOM     30  C   UNL A   1      40.850  21.840  27.366  1.00  0.00     0.060 A 
ATOM     31  C   UNL A   1      39.867  22.698  26.890  1.00  0.00     0.016 A 
ATOM     32  C   UNL A   1      41.854  22.302  28.240  1.00  0.00     0.016 A 
ATOM     33  C   UNL A   1      39.993  24.049  27.147  1.00  0.00     0.010 A 
ATOM     34  C   UNL A   1      41.896  23.638  28.611  1.00  0.00     0.010 A 
ATOM     35  C   UNL A   1      41.064  24.521  27.927  1.00  0.00    -0.014 A 
BRANCH  35  36
ATOM     36  C   UNL A   1      41.493  25.911  27.675  1.00  0.00     0.031 A 
ATOM     37  C   UNL A   1      40.758  27.009  28.405  1.00  0.00     0.074 A 
ATOM     38  C   UNL A   1      42.663  26.113  27.050  1.00  0.00     0.049 A 
ATOM     39  N   UNL A   1      41.168  28.207  28.724  1.00  0.00    -0.248 NA
ATOM     40  C   UNL A   1      39.389  26.716  28.868  1.00  0.00     0.031 C 
ATOM     41  C   UNL A   1      43.423  25.084  26.340  1.00  0.00     0.029 A 
ATOM     42  N   UNL A   1      43.457  27.224  27.000  1.00  0.00    -0.354 N 
ATOM     43  C   UNL A   1      40.126  28.782  29.443  1.00  0.00     0.074 A 
ATOM     44  C   UNL A   1      39.041  27.839  29.470  1.00  0.00     0.031 C 
ATOM     45  C   UNL A   1      44.618  25.590  25.995  1.00  0.00     0.029 A 
ATOM     46  C   UNL A   1      44.693  26.973  26.456  1.00  0.00     0.049 A 
ATOM     47  H   UNL A   1      43.173  28.112  27.320  1.00  0.00     0.167 HD
ATOM     48  C   UNL A   1      40.086  29.986  30.054  1.00  0.00     0.037 A 
ATOM     49  C   UNL A   1      45.777  27.766  26.392  1.00  0.00     0.037 A 
ATOM     50  C   UNL A   1      41.177  30.915  29.999  1.00  0.00     0.049 A 
ATOM     51  C   UNL A   1      45.705  29.112  27.061  1.00  0.00     0.074 A 
ATOM     52  C   UNL A   1      41.266  32.186  30.530  1.00  0.00     0.029 A 
ATOM     53  N   UNL A   1      42.380  30.653  29.355  1.00  0.00    -0.354 N 
ATOM     54  N   UNL A   1      44.727  29.634  27.767  1.00  0.00    -0.248 NA
ATOM     55  C   UNL A   1      46.888  29.969  26.942  1.00  0.00     0.031 C 
ATOM     56  C   UNL A   1      42.512  32.711  30.168  1.00  0.00     0.029 A 
ATOM     57  C   UNL A   1      43.216  31.746  29.460  1.00  0.00     0.049 A 
ATOM     58  H   UNL A   1      42.604  29.813  28.894  1.00  0.00     0.167 HD
ATOM     59  C   UNL A   1      45.185  30.873  28.194  1.00  0.00     0.074 A 
ATOM     60  C   UNL A   1      46.537  31.008  27.686  1.00  0.00     0.031 C 
ATOM     61  C   UNL A   1      44.554  31.821  28.934  1.00  0.00     0.037 A 
BRANCH  48  62
ATOM     62  C   UNL A   1      38.820  30.354  30.772  1.00  0.00     0.057 A 
ATOM     63  C   UNL A   1      37.795  31.083  30.150  1.00  0.00     0.134 A 
ATOM     64  C   UNL A   1      38.642  30.019  32.119  1.00  0.00     0.134 A 
ATOM     65  F   UNL A   1      37.914  31.468  28.871  1.00  0.00    -0.206 F 
ATOM     66  C   UNL A   1      36.654  31.486  30.849  1.00  0.00     0.040 A 
ATOM     67  C   UNL A   1      37.495  30.394  32.823  1.00  0.00     0.040 A 
ATOM     68  F   UNL A   1      39.587  29.335  32.781  1.00  0.00    -0.206 F 
ATOM     69  C   UNL A   1      36.500  31.138  32.189  1.00  0.00     0.006 A 
ENDBRANCH  48  62
BRANCH  49  70
ATOM     70  C   UNL A   1      47.010  27.286  25.716  1.00  0.00     0.057 A 
ATOM     71  C   UNL A   1      47.996  26.566  26.399  1.00  0.00     0.134 A 
ATOM     72  C   UNL A   1      47.223  27.530  24.353  1.00  0.00     0.134 A 
ATOM     73  F   UNL A   1      47.859  26.304  27.707  1.00  0.00    -0.206 F 
ATOM     74  C   UNL A   1      49.155  26.121  25.756  1.00  0.00     0.040 A 
ATOM     75  C   UNL A   1      48.362  27.070  23.693  1.00  0.00     0.040 A 
ATOM     76  F   UNL A   1      46.313  28.208  23.637  1.00  0.00    -0.206 F 
ATOM     77  C   UNL A   1      49.338  26.369  24.398  1.00  0.00     0.006 A 
ENDBRANCH  49  70
BRANCH  61  78
ATOM     78  C   UNL A   1      45.338  33.059  29.244  1.00  0.00     0.057 A 
ATOM     79  C   UNL A   1      45.288  34.186  28.416  1.00  0.00     0.134 A 
ATOM     80  C   UNL A   1      46.115  33.132  30.406  1.00  0.00     0.134 A 
ATOM     81  F   UNL A   1      44.563  34.170  27.287  1.00  0.00    -0.206 F 
ATOM     82  C   UNL A   1      46.014  35.337  28.718  1.00  0.00     0.040 A 
ATOM     83  C   UNL A   1      46.822  34.287  30.732  1.00  0.00     0.040 A 
ATOM     84  F   UNL A   1      46.187  32.089  31.246  1.00  0.00    -0.206 F 
ATOM     85  C   UNL A   1      46.780  35.391  29.882  1.00  0.00     0.006 A 
ENDBRANCH  61  78
ENDBRANCH  35  36
ENDBRANCH  28  30
ENDBRANCH  27  28
ENDBRANCH   1  27
TORSDOF 13
ENDMDL
MODEL 2
REMARK VINA RESULT:     -12.2      1.579      6.373
REMARK SMILES O=C(OCCOC(=O)c1ccc(-c2c3nc(c(-c4c(F)cccc4F)c4ccc([nH]4)c(-c4c(F)cccc4F)c4nc(c(-c5c(F)cccc5F)c5ccc2[nH]5)C=C4)C=C3)cc1)C1=Cc2c(ccc(Cl)c2-c2ccccc2)O[C@H]1C(F)(F)F
REMARK SMILES IDX 5 1 4 2 3 3 2 4 1 5 63 6 64 7 79 8 65 9 78 10 66 11 71 12
REMARK SMILES IDX 67 13 69 14 68 15 70 16 80 17 81 18 82 19 83 20 72 21 73 22
REMARK SMILES IDX 77 23 74 24 76 25 75 26 6 27 7 28 8 29 9 30 10 31 62 32
REMARK SMILES IDX 11 33 61 34 12 35 13 36 14 37 55 38 15 39 60 40 54 41 56 42
REMARK SMILES IDX 16 43 59 44 53 45 52 46 17 48 43 49 26 50 42 51 27 52 30 53
REMARK SMILES IDX 41 54 57 55 28 56 29 57 40 59 58 60 31 61 18 62 19 63 24 64
REMARK SMILES IDX 20 65 21 66 23 67 25 68 22 69 44 70 45 71 50 72 46 73 47 74
REMARK SMILES IDX 49 75 51 76 48 77 32 78 33 79 38 80 34 81 35 82 37 83 39 84
REMARK SMILES IDX 36 85
REMARK H PARENT 56 47 30 58
REMARK Flexibility Score: inf
ROOT
ATOM      1  C   UNL A   1      38.204  20.165  25.041  1.00  0.00     0.275 C 
ENDROOT
BRANCH   1   2
ATOM      2  C   UNL A   1      36.971  20.992  24.720  1.00  0.00     0.275 C 
BRANCH   2   3
ATOM      3  O   UNL A   1      36.373  21.452  25.950  1.00  0.00    -0.459 OA
BRANCH   3   4
ATOM      4  C   UNL A   1      35.486  22.468  26.047  1.00  0.00     0.338 C 
ATOM      5  O   UNL A   1      35.875  23.568  26.432  1.00  0.00    -0.246 OA
BRANCH   4   6
ATOM      6  C   UNL A   1      34.039  22.297  25.735  1.00  0.00     0.087 C 
ATOM      7  C   UNL A   1      33.339  21.148  25.697  1.00  0.00     0.028 C 
ATOM      8  C   UNL A   1      33.388  23.554  25.195  1.00  0.00     0.316 C 
ATOM      9  C   UNL A   1      32.783  20.883  24.349  1.00  0.00     0.027 A 
ATOM     10  O   UNL A   1      32.331  23.277  24.224  1.00  0.00    -0.475 OA
ATOM     11  C   UNL A   1      32.335  22.024  23.658  1.00  0.00     0.128 A 
ATOM     12  C   UNL A   1      32.739  19.583  23.761  1.00  0.00     0.011 A 
ATOM     13  C   UNL A   1      31.845  21.906  22.368  1.00  0.00     0.049 A 
ATOM     14  C   UNL A   1      32.248  19.506  22.443  1.00  0.00     0.049 A 
ATOM     15  C   UNL A   1      31.817  20.652  21.758  1.00  0.00     0.025 A 
ATOM     16  Cl  UNL A   1      32.157  18.001  21.590  1.00  0.00    -0.084 Cl
BRANCH   8  17
ATOM     17  C   UNL A   1      32.850  24.402  26.365  1.00  0.00     0.430 C 
ATOM     18  F   UNL A   1      32.954  23.769  27.557  1.00  0.00    -0.167 F 
ATOM     19  F   UNL A   1      33.509  25.577  26.478  1.00  0.00    -0.167 F 
ATOM     20  F   UNL A   1      31.534  24.686  26.199  1.00  0.00    -0.167 F 
ENDBRANCH   8  17
BRANCH  12  21
ATOM     21  C   UNL A   1      33.255  18.370  24.451  1.00  0.00    -0.016 A 
ATOM     22  C   UNL A   1      32.385  17.569  25.220  1.00  0.00     0.009 A 
ATOM     23  C   UNL A   1      34.591  17.942  24.326  1.00  0.00     0.009 A 
ATOM     24  C   UNL A   1      32.794  16.336  25.740  1.00  0.00     0.001 A 
ATOM     25  C   UNL A   1      35.006  16.709  24.860  1.00  0.00     0.001 A 
ATOM     26  C   UNL A   1      34.100  15.896  25.541  1.00  0.00     0.000 A 
ENDBRANCH  12  21
ENDBRANCH   4   6
ENDBRANCH   3   4
ENDBRANCH   2   3
ENDBRANCH   1   2
BRANCH   1  27
ATOM     27  O   UNL A   1      39.166  20.887  25.807  1.00  0.00    -0.458 OA
BRANCH  27  28
ATOM     28  C   UNL A   1      40.367  20.301  25.985  1.00  0.00     0.338 C 
ATOM     29  O   UNL A   1      40.529  19.095  25.903  1.00  0.00    -0.246 OA
BRANCH  28  30
ATOM     30  C   UNL A   1      41.464  21.226  26.341  1.00  0.00     0.060 A 
ATOM     31  C   UNL A   1      42.040  21.061  27.593  1.00  0.00     0.016 A 
ATOM     32  C   UNL A   1      41.873  22.269  25.486  1.00  0.00     0.016 A 
ATOM     33  C   UNL A   1      42.896  22.040  28.058  1.00  0.00     0.010 A 
ATOM     34  C   UNL A   1      42.840  23.172  25.902  1.00  0.00     0.010 A 
ATOM     35  C   UNL A   1      43.215  23.142  27.243  1.00  0.00    -0.014 A 
BRANCH  35  36
ATOM     36  C   UNL A   1      43.594  24.385  27.943  1.00  0.00     0.031 A 
ATOM     37  C   UNL A   1      45.035  24.824  27.850  1.00  0.00     0.074 A 
ATOM     38  C   UNL A   1      42.616  25.195  28.378  1.00  0.00     0.049 A 
ATOM     39  N   UNL A   1      45.543  26.022  27.963  1.00  0.00    -0.248 NA
ATOM     40  C   UNL A   1      46.042  23.786  27.561  1.00  0.00     0.031 C 
ATOM     41  C   UNL A   1      41.203  24.827  28.475  1.00  0.00     0.029 A 
ATOM     42  N   UNL A   1      42.651  26.517  28.721  1.00  0.00    -0.354 N 
ATOM     43  C   UNL A   1      46.906  25.875  27.728  1.00  0.00     0.074 A 
ATOM     44  C   UNL A   1      47.167  24.477  27.525  1.00  0.00     0.031 C 
ATOM     45  C   UNL A   1      40.490  25.924  28.773  1.00  0.00     0.029 A 
ATOM     46  C   UNL A   1      41.400  27.059  28.891  1.00  0.00     0.049 A 
ATOM     47  H   UNL A   1      43.486  27.028  28.834  1.00  0.00     0.167 HD
ATOM     48  C   UNL A   1      47.857  26.832  27.661  1.00  0.00     0.037 A 
ATOM     49  C   UNL A   1      41.040  28.342  29.069  1.00  0.00     0.037 A 
ATOM     50  C   UNL A   1      47.572  28.220  27.883  1.00  0.00     0.049 A 
ATOM     51  C   UNL A   1      42.119  29.389  29.012  1.00  0.00     0.074 A 
ATOM     52  C   UNL A   1      48.437  29.295  27.891  1.00  0.00     0.029 A 
ATOM     53  N   UNL A   1      46.300  28.713  28.145  1.00  0.00    -0.354 N 
ATOM     54  N   UNL A   1      43.400  29.246  28.756  1.00  0.00    -0.248 NA
ATOM     55  C   UNL A   1      41.702  30.775  29.246  1.00  0.00     0.031 C 
ATOM     56  C   UNL A   1      47.691  30.438  28.203  1.00  0.00     0.029 A 
ATOM     57  C   UNL A   1      46.356  30.079  28.335  1.00  0.00     0.049 A 
ATOM     58  H   UNL A   1      45.481  28.170  28.189  1.00  0.00     0.167 HD
ATOM     59  C   UNL A   1      43.939  30.525  28.779  1.00  0.00     0.074 A 
ATOM     60  C   UNL A   1      42.837  31.430  29.049  1.00  0.00     0.031 C 
ATOM     61  C   UNL A   1      45.223  30.927  28.600  1.00  0.00     0.037 A 
BRANCH  48  62
ATOM     62  C   UNL A   1      49.264  26.387  27.385  1.00  0.00     0.057 A 
ATOM     63  C   UNL A   1      50.176  26.116  28.416  1.00  0.00     0.134 A 
ATOM     64  C   UNL A   1      49.731  26.276  26.070  1.00  0.00     0.134 A 
ATOM     65  F   UNL A   1      49.806  26.236  29.700  1.00  0.00    -0.206 F 
ATOM     66  C   UNL A   1      51.505  25.776  28.148  1.00  0.00     0.040 A 
ATOM     67  C   UNL A   1      51.051  25.914  25.789  1.00  0.00     0.040 A 
ATOM     68  F   UNL A   1      48.918  26.535  25.035  1.00  0.00    -0.206 F 
ATOM     69  C   UNL A   1      51.945  25.671  26.831  1.00  0.00     0.006 A 
ENDBRANCH  48  62
BRANCH  49  70
ATOM     70  C   UNL A   1      39.610  28.691  29.269  1.00  0.00     0.057 A 
ATOM     71  C   UNL A   1      38.992  28.590  30.520  1.00  0.00     0.134 A 
ATOM     72  C   UNL A   1      38.828  29.153  28.203  1.00  0.00     0.134 A 
ATOM     73  F   UNL A   1      39.681  28.147  31.582  1.00  0.00    -0.206 F 
ATOM     74  C   UNL A   1      37.644  28.917  30.699  1.00  0.00     0.040 A 
ATOM     75  C   UNL A   1      37.490  29.509  28.372  1.00  0.00     0.040 A 
ATOM     76  F   UNL A   1      39.362  29.283  26.978  1.00  0.00    -0.206 F 
ATOM     77  C   UNL A   1      36.891  29.384  29.624  1.00  0.00     0.006 A 
ENDBRANCH  49  70
BRANCH  61  78
ATOM     78  C   UNL A   1      45.479  32.401  28.670  1.00  0.00     0.057 A 
ATOM     79  C   UNL A   1      45.828  33.029  29.871  1.00  0.00     0.134 A 
ATOM     80  C   UNL A   1      45.416  33.186  27.512  1.00  0.00     0.134 A 
ATOM     81  F   UNL A   1      45.898  32.326  31.011  1.00  0.00    -0.206 F 
ATOM     82  C   UNL A   1      46.073  34.400  29.925  1.00  0.00     0.040 A 
ATOM     83  C   UNL A   1      45.688  34.552  27.550  1.00  0.00     0.040 A 
ATOM     84  F   UNL A   1      45.105  32.636  26.330  1.00  0.00    -0.206 F 
ATOM     85  C   UNL A   1      46.008  35.164  28.760  1.00  0.00     0.006 A 
ENDBRANCH  61  78
ENDBRANCH  35  36
ENDBRANCH  28  30
ENDBRANCH  27  28
ENDBRANCH   1  27
TORSDOF 13
ENDMDL
MODEL 3
REMARK VINA RESULT:     -12.2      5.376      8.555
REMARK SMILES O=C(OCCOC(=O)c1ccc(-c2c3nc(c(-c4c(F)cccc4F)c4ccc([nH]4)c(-c4c(F)cccc4F)c4nc(c(-c5c(F)cccc5F)c5ccc2[nH]5)C=C4)C=C3)cc1)C1=Cc2c(ccc(Cl)c2-c2ccccc2)O[C@H]1C(F)(F)F
REMARK SMILES IDX 5 1 4 2 3 3 2 4 1 5 63 6 64 7 79 8 65 9 78 10 66 11 71 12
REMARK SMILES IDX 67 13 69 14 68 15 70 16 80 17 81 18 82 19 83 20 72 21 73 22
REMARK SMILES IDX 77 23 74 24 76 25 75 26 6 27 7 28 8 29 9 30 10 31 62 32
REMARK SMILES IDX 11 33 61 34 12 35 13 36 14 37 55 38 15 39 60 40 54 41 56 42
REMARK SMILES IDX 16 43 59 44 53 45 52 46 17 48 43 49 26 50 42 51 27 52 30 53
REMARK SMILES IDX 41 54 57 55 28 56 29 57 40 59 58 60 31 61 18 62 19 63 24 64
REMARK SMILES IDX 20 65 21 66 23 67 25 68 22 69 44 70 45 71 50 72 46 73 47 74
REMARK SMILES IDX 49 75 51 76 48 77 32 78 33 79 38 80 34 81 35 82 37 83 39 84
REMARK SMILES IDX 36 85
REMARK H PARENT 56 47 30 58
REMARK Flexibility Score: inf
ROOT
ATOM      1  C   UNL A   1      32.652  31.207  27.249  1.00  0.00     0.275 C 
ENDROOT
BRANCH   1   2
ATOM      2  C   UNL A   1      31.550  31.199  26.204  1.00  0.00     0.275 C 
BRANCH   2   3
ATOM      3  O   UNL A   1      31.763  30.099  25.295  1.00  0.00    -0.459 OA
BRANCH   3   4
ATOM      4  C   UNL A   1      31.316  28.838  25.488  1.00  0.00     0.338 C 
ATOM      5  O   UNL A   1      31.403  28.336  26.606  1.00  0.00    -0.246 OA
BRANCH   4   6
ATOM      6  C   UNL A   1      30.750  28.014  24.383  1.00  0.00     0.087 C 
ATOM      7  C   UNL A   1      30.588  26.678  24.356  1.00  0.00     0.028 C 
ATOM      8  C   UNL A   1      30.559  28.787  23.094  1.00  0.00     0.316 C 
ATOM      9  C   UNL A   1      31.377  26.045  23.274  1.00  0.00     0.027 A 
ATOM     10  O   UNL A   1      30.761  27.966  21.900  1.00  0.00    -0.475 OA
ATOM     11  C   UNL A   1      31.446  26.787  22.079  1.00  0.00     0.128 A 
ATOM     12  C   UNL A   1      32.060  24.802  23.425  1.00  0.00     0.011 A 
ATOM     13  C   UNL A   1      32.201  26.321  21.016  1.00  0.00     0.049 A 
ATOM     14  C   UNL A   1      32.829  24.368  22.327  1.00  0.00     0.049 A 
ATOM     15  C   UNL A   1      32.903  25.123  21.147  1.00  0.00     0.025 A 
ATOM     16  Cl  UNL A   1      33.733  22.891  22.372  1.00  0.00    -0.084 Cl
BRANCH   8  17
ATOM     17  C   UNL A   1      29.162  29.438  23.082  1.00  0.00     0.430 C 
ATOM     18  F   UNL A   1      28.191  28.593  23.501  1.00  0.00    -0.167 F 
ATOM     19  F   UNL A   1      29.110  30.531  23.876  1.00  0.00    -0.167 F 
ATOM     20  F   UNL A   1      28.813  29.826  21.829  1.00  0.00    -0.167 F 
ENDBRANCH   8  17
BRANCH  12  21
ATOM     21  C   UNL A   1      32.045  24.025  24.695  1.00  0.00    -0.016 A 
ATOM     22  C   UNL A   1      33.091  24.175  25.629  1.00  0.00     0.009 A 
ATOM     23  C   UNL A   1      30.982  23.169  25.041  1.00  0.00     0.009 A 
ATOM     24  C   UNL A   1      33.025  23.594  26.900  1.00  0.00     0.001 A 
ATOM     25  C   UNL A   1      30.922  22.574  26.315  1.00  0.00     0.001 A 
ATOM     26  C   UNL A   1      31.929  22.810  27.250  1.00  0.00     0.000 A 
ENDBRANCH  12  21
ENDBRANCH   4   6
ENDBRANCH   3   4
ENDBRANCH   2   3
ENDBRANCH   1   2
BRANCH   1  27
ATOM     27  O   UNL A   1      33.525  32.328  27.119  1.00  0.00    -0.458 OA
BRANCH  27  28
ATOM     28  C   UNL A   1      33.371  33.325  28.012  1.00  0.00     0.338 C 
ATOM     29  O   UNL A   1      32.448  34.120  27.958  1.00  0.00    -0.246 OA
BRANCH  28  30
ATOM     30  C   UNL A   1      34.438  33.417  29.032  1.00  0.00     0.060 A 
ATOM     31  C   UNL A   1      35.501  34.265  28.751  1.00  0.00     0.016 A 
ATOM     32  C   UNL A   1      34.420  32.642  30.208  1.00  0.00     0.016 A 
ATOM     33  C   UNL A   1      36.622  34.203  29.556  1.00  0.00     0.010 A 
ATOM     34  C   UNL A   1      35.489  32.688  31.090  1.00  0.00     0.010 A 
ATOM     35  C   UNL A   1      36.644  33.341  30.667  1.00  0.00    -0.014 A 
BRANCH  35  36
ATOM     36  C   UNL A   1      37.974  32.866  31.099  1.00  0.00     0.031 A 
ATOM     37  C   UNL A   1      38.467  33.318  32.452  1.00  0.00     0.074 A 
ATOM     38  C   UNL A   1      38.543  31.859  30.419  1.00  0.00     0.049 A 
ATOM     39  N   UNL A   1      39.328  32.745  33.251  1.00  0.00    -0.248 NA
ATOM     40  C   UNL A   1      37.898  34.563  33.000  1.00  0.00     0.031 C 
ATOM     41  C   UNL A   1      38.098  31.372  29.113  1.00  0.00     0.029 A 
ATOM     42  N   UNL A   1      39.549  31.007  30.779  1.00  0.00    -0.354 N 
ATOM     43  C   UNL A   1      39.370  33.542  34.390  1.00  0.00     0.074 A 
ATOM     44  C   UNL A   1      38.502  34.666  34.170  1.00  0.00     0.031 C 
ATOM     45  C   UNL A   1      38.774  30.251  28.816  1.00  0.00     0.029 A 
ATOM     46  C   UNL A   1      39.696  29.956  29.908  1.00  0.00     0.049 A 
ATOM     47  H   UNL A   1      40.110  31.134  31.579  1.00  0.00     0.167 HD
ATOM     48  C   UNL A   1      40.055  33.338  35.537  1.00  0.00     0.037 A 
ATOM     49  C   UNL A   1      40.458  28.853  30.019  1.00  0.00     0.037 A 
ATOM     50  C   UNL A   1      40.926  32.215  35.725  1.00  0.00     0.049 A 
ATOM     51  C   UNL A   1      41.229  28.656  31.295  1.00  0.00     0.074 A 
ATOM     52  C   UNL A   1      41.717  31.899  36.811  1.00  0.00     0.029 A 
ATOM     53  N   UNL A   1      41.116  31.219  34.775  1.00  0.00    -0.354 N 
ATOM     54  N   UNL A   1      41.237  29.396  32.381  1.00  0.00    -0.248 NA
ATOM     55  C   UNL A   1      42.079  27.464  31.372  1.00  0.00     0.031 C 
ATOM     56  C   UNL A   1      42.421  30.731  36.499  1.00  0.00     0.029 A 
ATOM     57  C   UNL A   1      42.027  30.293  35.241  1.00  0.00     0.049 A 
ATOM     58  H   UNL A   1      40.668  31.179  33.900  1.00  0.00     0.167 HD
ATOM     59  C   UNL A   1      42.077  28.750  33.278  1.00  0.00     0.074 A 
ATOM     60  C   UNL A   1      42.537  27.545  32.613  1.00  0.00     0.031 C 
ATOM     61  C   UNL A   1      42.445  29.111  34.533  1.00  0.00     0.037 A 
BRANCH  48  62
ATOM     62  C   UNL A   1      39.911  34.369  36.619  1.00  0.00     0.057 A 
ATOM     63  C   UNL A   1      40.688  35.537  36.644  1.00  0.00     0.134 A 
ATOM     64  C   UNL A   1      39.018  34.170  37.678  1.00  0.00     0.134 A 
ATOM     65  F   UNL A   1      41.589  35.775  35.680  1.00  0.00    -0.206 F 
ATOM     66  C   UNL A   1      40.601  36.452  37.697  1.00  0.00     0.040 A 
ATOM     67  C   UNL A   1      38.903  35.090  38.723  1.00  0.00     0.040 A 
ATOM     68  F   UNL A   1      38.253  33.069  37.725  1.00  0.00    -0.206 F 
ATOM     69  C   UNL A   1      39.703  36.232  38.738  1.00  0.00     0.006 A 
ENDBRANCH  48  62
BRANCH  49  70
ATOM     70  C   UNL A   1      40.483  27.854  28.919  1.00  0.00     0.057 A 
ATOM     71  C   UNL A   1      39.680  26.709  28.941  1.00  0.00     0.134 A 
ATOM     72  C   UNL A   1      41.312  28.035  27.804  1.00  0.00     0.134 A 
ATOM     73  F   UNL A   1      38.869  26.470  29.982  1.00  0.00    -0.206 F 
ATOM     74  C   UNL A   1      39.713  25.772  27.904  1.00  0.00     0.040 A 
ATOM     75  C   UNL A   1      41.335  27.122  26.750  1.00  0.00     0.040 A 
ATOM     76  F   UNL A   1      42.101  29.117  27.715  1.00  0.00    -0.206 F 
ATOM     77  C   UNL A   1      40.539  25.980  26.802  1.00  0.00     0.006 A 
ENDBRANCH  49  70
BRANCH  61  78
ATOM     78  C   UNL A   1      43.364  28.175  35.257  1.00  0.00     0.057 A 
ATOM     79  C   UNL A   1      42.876  27.174  36.103  1.00  0.00     0.134 A 
ATOM     80  C   UNL A   1      44.749  28.257  35.067  1.00  0.00     0.134 A 
ATOM     81  F   UNL A   1      41.557  27.053  36.325  1.00  0.00    -0.206 F 
ATOM     82  C   UNL A   1      43.738  26.303  36.765  1.00  0.00     0.040 A 
ATOM     83  C   UNL A   1      45.618  27.372  35.702  1.00  0.00     0.040 A 
ATOM     84  F   UNL A   1      45.273  29.185  34.254  1.00  0.00    -0.206 F 
ATOM     85  C   UNL A   1      45.114  26.397  36.560  1.00  0.00     0.006 A 
ENDBRANCH  61  78
ENDBRANCH  35  36
ENDBRANCH  28  30
ENDBRANCH  27  28
ENDBRANCH   1  27
TORSDOF 13
ENDMDL
