MODEL 1
REMARK VINA RESULT:     -12.7      0.000      0.000
REMARK SMILES Cc1ccc(N2C(=O)C[C@H](Sc3ccccc3C(=O)OCCOC(=O)c3ccc(-c4c5nc(c(-c6c(F)cccc6F)c6ccc([nH]6)c(-c6c(F)cccc6F)c6nc(c(-c7c(F)cccc7F)c7ccc4[nH]7)C=C6)C=C5)cc3)C2=O)cc1
REMARK SMILES IDX 21 1 20 2 18 3 19 4 17 5 12 6 13 7 14 8 16 9 15 10 11 11
REMARK SMILES IDX 10 12 6 13 7 14 80 15 8 16 9 17 81 18 5 19 1 20 2 21 3 22
REMARK SMILES IDX 83 23 4 24 82 25 22 26 23 27 24 28 25 29 26 30 27 31 79 32
REMARK SMILES IDX 28 33 78 34 29 35 30 36 31 37 72 38 32 39 77 40 71 41 73 42
REMARK SMILES IDX 33 43 76 44 70 45 69 46 34 48 60 49 43 50 59 51 44 52 47 53
REMARK SMILES IDX 58 54 74 55 45 56 46 57 57 59 75 60 48 61 35 62 36 63 41 64
REMARK SMILES IDX 37 65 38 66 40 67 42 68 39 69 61 70 62 71 67 72 63 73 64 74
REMARK SMILES IDX 66 75 68 76 65 77 49 78 50 79 55 80 51 81 52 82 54 83 56 84
REMARK SMILES IDX 53 85
REMARK H PARENT 73 47 47 58
REMARK Flexibility Score: inf
ROOT
ATOM      1  C   UNL A   1      37.223  22.722  25.600  1.00  0.00     0.275 C 
ENDROOT
BRANCH   1   2
ATOM      2  O   UNL A   1      36.038  23.205  24.917  1.00  0.00    -0.458 OA
BRANCH   2   3
ATOM      3  C   UNL A   1      34.855  22.917  25.528  1.00  0.00     0.339 C 
ATOM      4  O   UNL A   1      34.524  23.276  26.649  1.00  0.00    -0.246 OA
BRANCH   3   5
ATOM      5  C   UNL A   1      34.134  21.822  24.847  1.00  0.00     0.073 A 
ATOM      6  C   UNL A   1      33.319  21.926  23.693  1.00  0.00     0.023 A 
ATOM      7  C   UNL A   1      32.474  20.838  23.402  1.00  0.00     0.016 A 
ATOM      8  C   UNL A   1      32.402  19.719  24.241  1.00  0.00     0.001 A 
ATOM      9  C   UNL A   1      34.081  20.671  25.660  1.00  0.00     0.017 A 
ATOM     10  C   UNL A   1      33.202  19.636  25.372  1.00  0.00     0.001 A 
BRANCH   6  11
ATOM     11  S   UNL A   1      32.894  23.451  22.843  1.00  0.00    -0.111 SA
BRANCH  11  12
ATOM     12  C   UNL A   1      31.570  24.357  23.743  1.00  0.00     0.151 C 
ATOM     13  N   UNL A   1      32.080  25.799  25.490  1.00  0.00    -0.250 N 
ATOM     14  C   UNL A   1      31.549  24.706  26.121  1.00  0.00     0.235 C 
ATOM     15  C   UNL A   1      31.937  25.764  24.117  1.00  0.00     0.247 C 
ATOM     16  O   UNL A   1      31.351  24.544  27.319  1.00  0.00    -0.274 OA
ATOM     17  C   UNL A   1      31.136  23.716  25.066  1.00  0.00     0.126 C 
ATOM     18  O   UNL A   1      31.968  26.676  23.340  1.00  0.00    -0.273 OA
BRANCH  13  19
ATOM     19  C   UNL A   1      32.435  26.984  26.135  1.00  0.00     0.052 A 
ATOM     20  C   UNL A   1      33.479  30.890  27.554  1.00  0.00     0.044 C 
ATOM     21  C   UNL A   1      33.131  29.507  27.097  1.00  0.00    -0.051 A 
ATOM     22  C   UNL A   1      31.795  29.083  27.125  1.00  0.00     0.005 A 
ATOM     23  C   UNL A   1      34.120  28.640  26.619  1.00  0.00     0.005 A 
ATOM     24  C   UNL A   1      31.446  27.817  26.659  1.00  0.00     0.027 A 
ATOM     25  C   UNL A   1      33.772  27.385  26.123  1.00  0.00     0.027 A 
ENDBRANCH  13  19
ENDBRANCH  11  12
ENDBRANCH   6  11
ENDBRANCH   3   5
ENDBRANCH   2   3
ENDBRANCH   1   2
BRANCH   1  26
ATOM     26  C   UNL A   1      38.194  23.860  25.995  1.00  0.00     0.275 C 
BRANCH  26  27
ATOM     27  O   UNL A   1      38.922  23.723  27.232  1.00  0.00    -0.458 OA
BRANCH  27  28
ATOM     28  C   UNL A   1      40.025  24.482  27.342  1.00  0.00     0.338 C 
ATOM     29  O   UNL A   1      41.118  24.199  26.873  1.00  0.00    -0.246 OA
BRANCH  28  30
ATOM     30  C   UNL A   1      39.635  25.844  27.751  1.00  0.00     0.060 A 
ATOM     31  C   UNL A   1      39.121  26.013  29.039  1.00  0.00     0.016 A 
ATOM     32  C   UNL A   1      40.148  26.923  27.036  1.00  0.00     0.016 A 
ATOM     33  C   UNL A   1      39.332  27.184  29.729  1.00  0.00     0.010 A 
ATOM     34  C   UNL A   1      40.376  28.091  27.705  1.00  0.00     0.010 A 
ATOM     35  C   UNL A   1      39.979  28.200  29.044  1.00  0.00    -0.014 A 
BRANCH  35  36
ATOM     36  C   UNL A   1      39.924  29.554  29.527  1.00  0.00     0.031 A 
ATOM     37  C   UNL A   1      38.825  30.439  29.129  1.00  0.00     0.074 A 
ATOM     38  C   UNL A   1      40.945  29.771  30.381  1.00  0.00     0.049 A 
ATOM     39  N   UNL A   1      38.930  31.717  29.031  1.00  0.00    -0.248 NA
ATOM     40  C   UNL A   1      37.512  29.943  28.705  1.00  0.00     0.031 C 
ATOM     41  C   UNL A   1      41.185  30.799  31.367  1.00  0.00     0.029 A 
ATOM     42  N   UNL A   1      42.129  29.036  30.399  1.00  0.00    -0.354 N 
ATOM     43  C   UNL A   1      37.643  32.209  28.947  1.00  0.00     0.074 A 
ATOM     44  C   UNL A   1      36.825  31.084  28.562  1.00  0.00     0.031 C 
ATOM     45  C   UNL A   1      42.500  30.785  31.677  1.00  0.00     0.029 A 
ATOM     46  C   UNL A   1      43.171  29.858  30.760  1.00  0.00     0.049 A 
ATOM     47  H   UNL A   1      42.207  28.078  30.188  1.00  0.00     0.167 HD
ATOM     48  C   UNL A   1      37.382  33.438  29.481  1.00  0.00     0.037 A 
ATOM     49  C   UNL A   1      44.072  30.231  29.797  1.00  0.00     0.037 A 
ATOM     50  C   UNL A   1      38.612  33.988  30.048  1.00  0.00     0.049 A 
ATOM     51  C   UNL A   1      43.950  31.706  29.511  1.00  0.00     0.074 A 
ATOM     52  C   UNL A   1      39.140  33.842  31.323  1.00  0.00     0.029 A 
ATOM     53  N   UNL A   1      39.667  34.360  29.222  1.00  0.00    -0.354 N 
ATOM     54  N   UNL A   1      42.820  32.357  29.494  1.00  0.00    -0.248 NA
ATOM     55  C   UNL A   1      45.111  32.550  29.259  1.00  0.00     0.031 C 
ATOM     56  C   UNL A   1      40.536  34.052  31.243  1.00  0.00     0.029 A 
ATOM     57  C   UNL A   1      40.859  34.323  29.927  1.00  0.00     0.049 A 
ATOM     58  H   UNL A   1      39.579  34.613  28.274  1.00  0.00     0.167 HD
ATOM     59  C   UNL A   1      43.085  33.683  29.292  1.00  0.00     0.074 A 
ATOM     60  C   UNL A   1      44.528  33.752  29.132  1.00  0.00     0.031 C 
ATOM     61  C   UNL A   1      42.120  34.645  29.287  1.00  0.00     0.037 A 
BRANCH  48  62
ATOM     62  C   UNL A   1      35.997  33.891  29.886  1.00  0.00     0.057 A 
ATOM     63  C   UNL A   1      35.071  34.326  28.914  1.00  0.00     0.134 A 
ATOM     64  C   UNL A   1      35.530  33.968  31.209  1.00  0.00     0.134 A 
ATOM     65  F   UNL A   1      35.324  34.231  27.603  1.00  0.00    -0.206 F 
ATOM     66  C   UNL A   1      33.831  34.891  29.235  1.00  0.00     0.040 A 
ATOM     67  C   UNL A   1      34.300  34.558  31.547  1.00  0.00     0.040 A 
ATOM     68  F   UNL A   1      36.233  33.448  32.226  1.00  0.00    -0.206 F 
ATOM     69  C   UNL A   1      33.451  35.037  30.558  1.00  0.00     0.006 A 
ENDBRANCH  48  62
BRANCH  49  70
ATOM     70  C   UNL A   1      44.372  29.230  28.718  1.00  0.00     0.057 A 
ATOM     71  C   UNL A   1      45.168  28.102  28.998  1.00  0.00     0.134 A 
ATOM     72  C   UNL A   1      43.754  29.249  27.460  1.00  0.00     0.134 A 
ATOM     73  F   UNL A   1      45.811  28.003  30.172  1.00  0.00    -0.206 F 
ATOM     74  C   UNL A   1      45.284  27.023  28.111  1.00  0.00     0.040 A 
ATOM     75  C   UNL A   1      43.866  28.176  26.561  1.00  0.00     0.040 A 
ATOM     76  F   UNL A   1      42.985  30.280  27.087  1.00  0.00    -0.206 F 
ATOM     77  C   UNL A   1      44.619  27.053  26.891  1.00  0.00     0.006 A 
ENDBRANCH  49  70
BRANCH  61  78
ATOM     78  C   UNL A   1      42.342  36.034  28.781  1.00  0.00     0.057 A 
ATOM     79  C   UNL A   1      43.007  37.016  29.528  1.00  0.00     0.134 A 
ATOM     80  C   UNL A   1      42.030  36.376  27.451  1.00  0.00     0.134 A 
ATOM     81  F   UNL A   1      43.460  36.768  30.766  1.00  0.00    -0.206 F 
ATOM     82  C   UNL A   1      43.274  38.285  29.012  1.00  0.00     0.040 A 
ATOM     83  C   UNL A   1      42.346  37.619  26.907  1.00  0.00     0.040 A 
ATOM     84  F   UNL A   1      41.430  35.508  26.621  1.00  0.00    -0.206 F 
ATOM     85  C   UNL A   1      42.951  38.587  27.695  1.00  0.00     0.006 A 
ENDBRANCH  61  78
ENDBRANCH  35  36
ENDBRANCH  28  30
ENDBRANCH  27  28
ENDBRANCH  26  27
ENDBRANCH   1  26
TORSDOF 14
ENDMDL
MODEL 2
REMARK VINA RESULT:     -12.6      3.926      9.313
REMARK SMILES Cc1ccc(N2C(=O)C[C@H](Sc3ccccc3C(=O)OCCOC(=O)c3ccc(-c4c5nc(c(-c6c(F)cccc6F)c6ccc([nH]6)c(-c6c(F)cccc6F)c6nc(c(-c7c(F)cccc7F)c7ccc4[nH]7)C=C6)C=C5)cc3)C2=O)cc1
REMARK SMILES IDX 21 1 20 2 18 3 19 4 17 5 12 6 13 7 14 8 16 9 15 10 11 11
REMARK SMILES IDX 10 12 6 13 7 14 80 15 8 16 9 17 81 18 5 19 1 20 2 21 3 22
REMARK SMILES IDX 83 23 4 24 82 25 22 26 23 27 24 28 25 29 26 30 27 31 79 32
REMARK SMILES IDX 28 33 78 34 29 35 30 36 31 37 72 38 32 39 77 40 71 41 73 42
REMARK SMILES IDX 33 43 76 44 70 45 69 46 34 48 60 49 43 50 59 51 44 52 47 53
REMARK SMILES IDX 58 54 74 55 45 56 46 57 57 59 75 60 48 61 35 62 36 63 41 64
REMARK SMILES IDX 37 65 38 66 40 67 42 68 39 69 61 70 62 71 67 72 63 73 64 74
REMARK SMILES IDX 66 75 68 76 65 77 49 78 50 79 55 80 51 81 52 82 54 83 56 84
REMARK SMILES IDX 53 85
REMARK H PARENT 73 47 47 58
REMARK Flexibility Score: inf
ROOT
ATOM      1  C   UNL A   1      33.517  29.584  26.785  1.00  0.00     0.275 C 
ENDROOT
BRANCH   1   2
ATOM      2  O   UNL A   1      33.317  29.447  25.355  1.00  0.00    -0.458 OA
BRANCH   2   3
ATOM      3  C   UNL A   1      33.001  28.193  24.927  1.00  0.00     0.339 C 
ATOM      4  O   UNL A   1      33.798  27.294  24.699  1.00  0.00    -0.246 OA
BRANCH   3   5
ATOM      5  C   UNL A   1      31.617  28.117  24.418  1.00  0.00     0.073 A 
ATOM      6  C   UNL A   1      30.640  27.146  24.747  1.00  0.00     0.023 A 
ATOM      7  C   UNL A   1      29.507  27.065  23.915  1.00  0.00     0.016 A 
ATOM      8  C   UNL A   1      29.369  27.874  22.780  1.00  0.00     0.001 A 
ATOM      9  C   UNL A   1      31.445  28.953  23.296  1.00  0.00     0.017 A 
ATOM     10  C   UNL A   1      30.340  28.816  22.467  1.00  0.00     0.001 A 
BRANCH   6  11
ATOM     11  S   UNL A   1      30.898  25.712  25.798  1.00  0.00    -0.111 SA
BRANCH  11  12
ATOM     12  C   UNL A   1      31.396  24.248  24.802  1.00  0.00     0.151 C 
ATOM     13  N   UNL A   1      33.633  23.796  24.374  1.00  0.00    -0.250 N 
ATOM     14  C   UNL A   1      33.165  24.261  23.174  1.00  0.00     0.235 C 
ATOM     15  C   UNL A   1      32.636  23.562  25.299  1.00  0.00     0.247 C 
ATOM     16  O   UNL A   1      33.770  24.373  22.115  1.00  0.00    -0.274 OA
ATOM     17  C   UNL A   1      31.695  24.544  23.328  1.00  0.00     0.126 C 
ATOM     18  O   UNL A   1      32.666  22.855  26.266  1.00  0.00    -0.273 OA
BRANCH  13  19
ATOM     19  C   UNL A   1      34.917  23.289  24.573  1.00  0.00     0.052 A 
ATOM     20  C   UNL A   1      38.660  21.565  25.751  1.00  0.00     0.044 C 
ATOM     21  C   UNL A   1      37.373  22.189  25.305  1.00  0.00    -0.051 A 
ATOM     22  C   UNL A   1      36.425  21.411  24.626  1.00  0.00     0.005 A 
ATOM     23  C   UNL A   1      37.095  23.534  25.578  1.00  0.00     0.005 A 
ATOM     24  C   UNL A   1      35.202  21.961  24.245  1.00  0.00     0.027 A 
ATOM     25  C   UNL A   1      35.863  24.079  25.227  1.00  0.00     0.027 A 
ENDBRANCH  13  19
ENDBRANCH  11  12
ENDBRANCH   6  11
ENDBRANCH   3   5
ENDBRANCH   2   3
ENDBRANCH   1   2
BRANCH   1  26
ATOM     26  C   UNL A   1      34.960  29.246  27.226  1.00  0.00     0.275 C 
BRANCH  26  27
ATOM     27  O   UNL A   1      35.490  29.932  28.378  1.00  0.00    -0.458 OA
BRANCH  27  28
ATOM     28  C   UNL A   1      36.722  30.446  28.230  1.00  0.00     0.338 C 
ATOM     29  O   UNL A   1      37.018  31.617  28.418  1.00  0.00    -0.246 OA
BRANCH  28  30
ATOM     30  C   UNL A   1      37.703  29.346  28.198  1.00  0.00     0.060 A 
ATOM     31  C   UNL A   1      38.672  29.368  27.191  1.00  0.00     0.016 A 
ATOM     32  C   UNL A   1      37.885  28.587  29.352  1.00  0.00     0.016 A 
ATOM     33  C   UNL A   1      39.925  28.848  27.413  1.00  0.00     0.010 A 
ATOM     34  C   UNL A   1      39.126  28.072  29.597  1.00  0.00     0.010 A 
ATOM     35  C   UNL A   1      40.131  28.223  28.632  1.00  0.00    -0.014 A 
BRANCH  35  36
ATOM     36  C   UNL A   1      41.254  27.345  28.820  1.00  0.00     0.031 A 
ATOM     37  C   UNL A   1      41.134  25.913  28.527  1.00  0.00     0.074 A 
ATOM     38  C   UNL A   1      42.329  28.062  29.206  1.00  0.00     0.049 A 
ATOM     39  N   UNL A   1      41.811  24.997  29.125  1.00  0.00    -0.248 NA
ATOM     40  C   UNL A   1      40.151  25.369  27.585  1.00  0.00     0.031 C 
ATOM     41  C   UNL A   1      43.742  27.762  29.225  1.00  0.00     0.029 A 
ATOM     42  N   UNL A   1      42.266  29.310  29.825  1.00  0.00    -0.354 N 
ATOM     43  C   UNL A   1      41.657  23.848  28.376  1.00  0.00     0.074 A 
ATOM     44  C   UNL A   1      40.490  24.074  27.558  1.00  0.00     0.031 C 
ATOM     45  C   UNL A   1      44.349  28.648  30.046  1.00  0.00     0.029 A 
ATOM     46  C   UNL A   1      43.306  29.432  30.715  1.00  0.00     0.049 A 
ATOM     47  H   UNL A   1      41.582  29.996  29.650  1.00  0.00     0.167 HD
ATOM     48  C   UNL A   1      42.691  22.958  28.335  1.00  0.00     0.037 A 
ATOM     49  C   UNL A   1      43.029  29.374  32.055  1.00  0.00     0.037 A 
ATOM     50  C   UNL A   1      43.792  23.459  29.156  1.00  0.00     0.049 A 
ATOM     51  C   UNL A   1      43.607  28.118  32.656  1.00  0.00     0.074 A 
ATOM     52  C   UNL A   1      44.846  24.290  28.809  1.00  0.00     0.029 A 
ATOM     53  N   UNL A   1      43.664  23.536  30.538  1.00  0.00    -0.354 N 
ATOM     54  N   UNL A   1      43.640  26.965  32.047  1.00  0.00    -0.248 NA
ATOM     55  C   UNL A   1      44.220  28.095  33.978  1.00  0.00     0.031 C 
ATOM     56  C   UNL A   1      45.301  24.932  29.984  1.00  0.00     0.029 A 
ATOM     57  C   UNL A   1      44.528  24.494  31.043  1.00  0.00     0.049 A 
ATOM     58  H   UNL A   1      43.048  22.991  31.080  1.00  0.00     0.167 HD
ATOM     59  C   UNL A   1      44.309  26.074  32.839  1.00  0.00     0.074 A 
ATOM     60  C   UNL A   1      44.636  26.821  34.042  1.00  0.00     0.031 C 
ATOM     61  C   UNL A   1      44.574  24.792  32.462  1.00  0.00     0.037 A 
BRANCH  48  62
ATOM     62  C   UNL A   1      42.866  21.937  27.232  1.00  0.00     0.057 A 
ATOM     63  C   UNL A   1      42.070  20.773  27.198  1.00  0.00     0.134 A 
ATOM     64  C   UNL A   1      43.823  22.017  26.207  1.00  0.00     0.134 A 
ATOM     65  F   UNL A   1      41.052  20.586  28.047  1.00  0.00    -0.206 F 
ATOM     66  C   UNL A   1      42.280  19.726  26.292  1.00  0.00     0.040 A 
ATOM     67  C   UNL A   1      44.063  20.962  25.308  1.00  0.00     0.040 A 
ATOM     68  F   UNL A   1      44.546  23.130  26.014  1.00  0.00    -0.206 F 
ATOM     69  C   UNL A   1      43.300  19.803  25.359  1.00  0.00     0.006 A 
ENDBRANCH  48  62
BRANCH  49  70
ATOM     70  C   UNL A   1      41.714  29.942  32.506  1.00  0.00     0.057 A 
ATOM     71  C   UNL A   1      41.538  31.336  32.601  1.00  0.00     0.134 A 
ATOM     72  C   UNL A   1      40.559  29.165  32.676  1.00  0.00     0.134 A 
ATOM     73  F   UNL A   1      42.589  32.161  32.467  1.00  0.00    -0.206 F 
ATOM     74  C   UNL A   1      40.279  31.927  32.781  1.00  0.00     0.040 A 
ATOM     75  C   UNL A   1      39.294  29.744  32.861  1.00  0.00     0.040 A 
ATOM     76  F   UNL A   1      40.615  27.828  32.616  1.00  0.00    -0.206 F 
ATOM     77  C   UNL A   1      39.148  31.129  32.899  1.00  0.00     0.006 A 
ENDBRANCH  49  70
BRANCH  61  78
ATOM     78  C   UNL A   1      45.032  23.731  33.410  1.00  0.00     0.057 A 
ATOM     79  C   UNL A   1      46.359  23.624  33.846  1.00  0.00     0.134 A 
ATOM     80  C   UNL A   1      44.105  22.877  34.039  1.00  0.00     0.134 A 
ATOM     81  F   UNL A   1      47.310  24.462  33.409  1.00  0.00    -0.206 F 
ATOM     82  C   UNL A   1      46.755  22.675  34.790  1.00  0.00     0.040 A 
ATOM     83  C   UNL A   1      44.479  21.967  35.026  1.00  0.00     0.040 A 
ATOM     84  F   UNL A   1      42.797  22.910  33.738  1.00  0.00    -0.206 F 
ATOM     85  C   UNL A   1      45.812  21.849  35.390  1.00  0.00     0.006 A 
ENDBRANCH  61  78
ENDBRANCH  35  36
ENDBRANCH  28  30
ENDBRANCH  27  28
ENDBRANCH  26  27
ENDBRANCH   1  26
TORSDOF 14
ENDMDL
MODEL 3
REMARK VINA RESULT:     -12.2      3.826      9.445
REMARK SMILES Cc1ccc(N2C(=O)C[C@H](Sc3ccccc3C(=O)OCCOC(=O)c3ccc(-c4c5nc(c(-c6c(F)cccc6F)c6ccc([nH]6)c(-c6c(F)cccc6F)c6nc(c(-c7c(F)cccc7F)c7ccc4[nH]7)C=C6)C=C5)cc3)C2=O)cc1
REMARK SMILES IDX 21 1 20 2 18 3 19 4 17 5 12 6 13 7 14 8 16 9 15 10 11 11
REMARK SMILES IDX 10 12 6 13 7 14 80 15 8 16 9 17 81 18 5 19 1 20 2 21 3 22
REMARK SMILES IDX 83 23 4 24 82 25 22 26 23 27 24 28 25 29 26 30 27 31 79 32
REMARK SMILES IDX 28 33 78 34 29 35 30 36 31 37 72 38 32 39 77 40 71 41 73 42
REMARK SMILES IDX 33 43 76 44 70 45 69 46 34 48 60 49 43 50 59 51 44 52 47 53
REMARK SMILES IDX 58 54 74 55 45 56 46 57 57 59 75 60 48 61 35 62 36 63 41 64
REMARK SMILES IDX 37 65 38 66 40 67 42 68 39 69 61 70 62 71 67 72 63 73 64 74
REMARK SMILES IDX 66 75 68 76 65 77 49 78 50 79 55 80 51 81 52 82 54 83 56 84
REMARK SMILES IDX 53 85
REMARK H PARENT 73 47 47 58
REMARK Flexibility Score: inf
ROOT
ATOM      1  C   UNL A   1      32.988  30.326  27.149  1.00  0.00     0.275 C 
ENDROOT
BRANCH   1   2
ATOM      2  O   UNL A   1      32.849  29.399  26.043  1.00  0.00    -0.458 OA
BRANCH   2   3
ATOM      3  C   UNL A   1      31.932  28.408  26.224  1.00  0.00     0.339 C 
ATOM      4  O   UNL A   1      31.614  27.915  27.296  1.00  0.00    -0.246 OA
BRANCH   3   5
ATOM      5  C   UNL A   1      31.602  27.724  24.957  1.00  0.00     0.073 A 
ATOM      6  C   UNL A   1      32.285  26.628  24.376  1.00  0.00     0.023 A 
ATOM      7  C   UNL A   1      32.012  26.342  23.025  1.00  0.00     0.016 A 
ATOM      8  C   UNL A   1      31.140  27.133  22.267  1.00  0.00     0.001 A 
ATOM      9  C   UNL A   1      30.695  28.488  24.193  1.00  0.00     0.017 A 
ATOM     10  C   UNL A   1      30.484  28.210  22.850  1.00  0.00     0.001 A 
BRANCH   6  11
ATOM     11  S   UNL A   1      33.786  25.872  25.011  1.00  0.00    -0.111 SA
BRANCH  11  12
ATOM     12  C   UNL A   1      33.392  24.504  26.174  1.00  0.00     0.151 C 
ATOM     13  N   UNL A   1      32.527  22.491  25.405  1.00  0.00    -0.250 N 
ATOM     14  C   UNL A   1      31.451  23.097  25.997  1.00  0.00     0.235 C 
ATOM     15  C   UNL A   1      33.722  23.137  25.646  1.00  0.00     0.247 C 
ATOM     16  O   UNL A   1      30.312  22.665  26.126  1.00  0.00    -0.274 OA
ATOM     17  C   UNL A   1      31.916  24.406  26.576  1.00  0.00     0.126 C 
ATOM     18  O   UNL A   1      34.835  22.698  25.580  1.00  0.00    -0.273 OA
BRANCH  13  19
ATOM     19  C   UNL A   1      32.514  21.194  24.892  1.00  0.00     0.052 A 
ATOM     20  C   UNL A   1      33.072  17.310  23.169  1.00  0.00     0.044 C 
ATOM     21  C   UNL A   1      32.831  18.661  23.769  1.00  0.00    -0.051 A 
ATOM     22  C   UNL A   1      33.024  18.854  25.144  1.00  0.00     0.005 A 
ATOM     23  C   UNL A   1      32.439  19.741  22.969  1.00  0.00     0.005 A 
ATOM     24  C   UNL A   1      32.852  20.115  25.711  1.00  0.00     0.027 A 
ATOM     25  C   UNL A   1      32.296  21.010  23.526  1.00  0.00     0.027 A 
ENDBRANCH  13  19
ENDBRANCH  11  12
ENDBRANCH   6  11
ENDBRANCH   3   5
ENDBRANCH   2   3
ENDBRANCH   1   2
BRANCH   1  26
ATOM     26  C   UNL A   1      34.441  30.820  27.342  1.00  0.00     0.275 C 
BRANCH  26  27
ATOM     27  O   UNL A   1      35.360  29.954  28.037  1.00  0.00    -0.458 OA
BRANCH  27  28
ATOM     28  C   UNL A   1      36.569  30.480  28.296  1.00  0.00     0.338 C 
ATOM     29  O   UNL A   1      36.760  31.582  28.790  1.00  0.00    -0.246 OA
BRANCH  28  30
ATOM     30  C   UNL A   1      37.579  29.407  28.267  1.00  0.00     0.060 A 
ATOM     31  C   UNL A   1      38.546  29.451  27.260  1.00  0.00     0.016 A 
ATOM     32  C   UNL A   1      37.780  28.655  29.422  1.00  0.00     0.016 A 
ATOM     33  C   UNL A   1      39.813  28.966  27.484  1.00  0.00     0.010 A 
ATOM     34  C   UNL A   1      39.034  28.174  29.669  1.00  0.00     0.010 A 
ATOM     35  C   UNL A   1      40.035  28.349  28.704  1.00  0.00    -0.014 A 
BRANCH  35  36
ATOM     36  C   UNL A   1      41.181  27.501  28.895  1.00  0.00     0.031 A 
ATOM     37  C   UNL A   1      41.109  26.073  28.574  1.00  0.00     0.074 A 
ATOM     38  C   UNL A   1      42.228  28.243  29.311  1.00  0.00     0.049 A 
ATOM     39  N   UNL A   1      41.803  25.166  29.166  1.00  0.00    -0.248 NA
ATOM     40  C   UNL A   1      40.157  25.517  27.606  1.00  0.00     0.031 C 
ATOM     41  C   UNL A   1      43.649  27.985  29.348  1.00  0.00     0.029 A 
ATOM     42  N   UNL A   1      42.117  29.477  29.951  1.00  0.00    -0.354 N 
ATOM     43  C   UNL A   1      41.696  24.027  28.395  1.00  0.00     0.074 A 
ATOM     44  C   UNL A   1      40.536  24.233  27.562  1.00  0.00     0.031 C 
ATOM     45  C   UNL A   1      44.216  28.873  30.194  1.00  0.00     0.029 A 
ATOM     46  C   UNL A   1      43.139  29.613  30.860  1.00  0.00     0.049 A 
ATOM     47  H   UNL A   1      41.416  30.146  29.778  1.00  0.00     0.167 HD
ATOM     48  C   UNL A   1      42.757  23.169  28.354  1.00  0.00     0.037 A 
ATOM     49  C   UNL A   1      42.843  29.523  32.195  1.00  0.00     0.037 A 
ATOM     50  C   UNL A   1      43.829  23.687  29.202  1.00  0.00     0.049 A 
ATOM     51  C   UNL A   1      43.449  28.274  32.781  1.00  0.00     0.074 A 
ATOM     52  C   UNL A   1      44.863  24.556  28.887  1.00  0.00     0.029 A 
ATOM     53  N   UNL A   1      43.676  23.735  30.583  1.00  0.00    -0.354 N 
ATOM     54  N   UNL A   1      43.526  27.133  32.152  1.00  0.00    -0.248 NA
ATOM     55  C   UNL A   1      44.041  28.245  34.113  1.00  0.00     0.031 C 
ATOM     56  C   UNL A   1      45.280  25.189  30.081  1.00  0.00     0.029 A 
ATOM     57  C   UNL A   1      44.503  24.709  31.119  1.00  0.00     0.049 A 
ATOM     58  H   UNL A   1      43.069  23.162  31.105  1.00  0.00     0.167 HD
ATOM     59  C   UNL A   1      44.209  26.248  32.939  1.00  0.00     0.074 A 
ATOM     60  C   UNL A   1      44.494  26.982  34.161  1.00  0.00     0.031 C 
ATOM     61  C   UNL A   1      44.518  24.981  32.543  1.00  0.00     0.037 A 
BRANCH  48  62
ATOM     62  C   UNL A   1      42.980  22.174  27.236  1.00  0.00     0.057 A 
ATOM     63  C   UNL A   1      42.236  20.977  27.181  1.00  0.00     0.134 A 
ATOM     64  C   UNL A   1      43.936  22.312  26.216  1.00  0.00     0.134 A 
ATOM     65  F   UNL A   1      41.223  20.733  28.023  1.00  0.00    -0.206 F 
ATOM     66  C   UNL A   1      42.493  19.955  26.259  1.00  0.00     0.040 A 
ATOM     67  C   UNL A   1      44.224  21.283  25.302  1.00  0.00     0.040 A 
ATOM     68  F   UNL A   1      44.609  23.458  26.044  1.00  0.00    -0.206 F 
ATOM     69  C   UNL A   1      43.512  20.092  25.332  1.00  0.00     0.006 A 
ENDBRANCH  48  62
BRANCH  49  70
ATOM     70  C   UNL A   1      41.504  30.043  32.634  1.00  0.00     0.057 A 
ATOM     71  C   UNL A   1      41.272  31.430  32.710  1.00  0.00     0.134 A 
ATOM     72  C   UNL A   1      40.382  29.222  32.811  1.00  0.00     0.134 A 
ATOM     73  F   UNL A   1      42.289  32.294  32.567  1.00  0.00    -0.206 F 
ATOM     74  C   UNL A   1      39.990  31.972  32.878  1.00  0.00     0.040 A 
ATOM     75  C   UNL A   1      39.093  29.752  32.985  1.00  0.00     0.040 A 
ATOM     76  F   UNL A   1      40.492  27.888  32.770  1.00  0.00    -0.206 F 
ATOM     77  C   UNL A   1      38.892  31.130  33.003  1.00  0.00     0.006 A 
ENDBRANCH  49  70
BRANCH  61  78
ATOM     78  C   UNL A   1      44.993  23.917  33.480  1.00  0.00     0.057 A 
ATOM     79  C   UNL A   1      44.176  22.861  33.905  1.00  0.00     0.134 A 
ATOM     80  C   UNL A   1      46.348  23.840  33.855  1.00  0.00     0.134 A 
ATOM     81  F   UNL A   1      42.898  22.761  33.512  1.00  0.00    -0.206 F 
ATOM     82  C   UNL A   1      44.657  21.833  34.718  1.00  0.00     0.040 A 
ATOM     83  C   UNL A   1      46.852  22.788  34.617  1.00  0.00     0.040 A 
ATOM     84  F   UNL A   1      47.239  24.769  33.477  1.00  0.00    -0.206 F 
ATOM     85  C   UNL A   1      46.001  21.790  35.069  1.00  0.00     0.006 A 
ENDBRANCH  61  78
ENDBRANCH  35  36
ENDBRANCH  28  30
ENDBRANCH  27  28
ENDBRANCH  26  27
ENDBRANCH   1  26
TORSDOF 14
ENDMDL
