MODEL 1
REMARK VINA RESULT:     -11.9      0.000      0.000
REMARK SMILES O=C(OCCOC(=O)c1ccccc1/N=C/c1coc2ccccc2c1=O)c1ccc(-c2c3nc(c(-c4c(F)cccc4F)c4ccc([nH]4)c(-c4c(F)cccc4F)c4nc(c(-c5c(F)cccc5F)c5ccc2[nH]5)C=C4)C=C3)cc1
REMARK SMILES IDX 4 1 3 2 2 3 1 4 28 5 29 6 81 7 30 8 80 9 31 10 32 11 33 12
REMARK SMILES IDX 74 13 34 14 79 15 73 16 75 17 35 18 78 19 72 20 71 21 36 23
REMARK SMILES IDX 62 24 45 25 61 26 46 27 49 28 60 29 76 30 47 31 48 32 59 34
REMARK SMILES IDX 77 35 50 36 37 37 38 38 43 39 39 40 40 41 42 42 44 43 41 44
REMARK SMILES IDX 63 45 64 46 69 47 65 48 66 49 68 50 70 51 67 52 51 53 52 54
REMARK SMILES IDX 57 55 53 56 54 57 56 58 58 59 55 60 5 61 6 62 7 63 8 64 9 65
REMARK SMILES IDX 10 66 14 67 11 68 13 69 12 70 15 71 16 72 17 73 18 74 26 75
REMARK SMILES IDX 19 76 25 77 27 78 20 79 24 80 21 81 23 82 22 83
REMARK H PARENT 75 22 49 33
REMARK Flexibility Score: inf
ROOT
ATOM      1  C   UNL A   1      43.753  18.137  25.954  1.00  0.00     0.275 C 
ENDROOT
BRANCH   1   2
ATOM      2  O   UNL A   1      44.466  18.514  24.767  1.00  0.00    -0.458 OA
BRANCH   2   3
ATOM      3  C   UNL A   1      45.374  19.497  24.581  1.00  0.00     0.338 C 
ATOM      4  O   UNL A   1      46.523  19.170  24.280  1.00  0.00    -0.246 OA
BRANCH   3   5
ATOM      5  C   UNL A   1      45.115  20.961  24.791  1.00  0.00     0.060 A 
ATOM      6  C   UNL A   1      44.700  21.892  23.832  1.00  0.00     0.016 A 
ATOM      7  C   UNL A   1      45.400  21.446  26.079  1.00  0.00     0.016 A 
ATOM      8  C   UNL A   1      44.576  23.264  24.136  1.00  0.00     0.010 A 
ATOM      9  C   UNL A   1      45.263  22.801  26.392  1.00  0.00     0.010 A 
ATOM     10  C   UNL A   1      44.879  23.735  25.411  1.00  0.00    -0.014 A 
BRANCH  10  11
ATOM     11  C   UNL A   1      45.037  25.174  25.745  1.00  0.00     0.031 A 
ATOM     12  C   UNL A   1      46.422  25.648  26.029  1.00  0.00     0.074 A 
ATOM     13  C   UNL A   1      44.041  26.076  25.842  1.00  0.00     0.049 A 
ATOM     14  N   UNL A   1      46.800  26.813  26.472  1.00  0.00    -0.248 NA
ATOM     15  C   UNL A   1      47.522  24.734  25.680  1.00  0.00     0.031 C 
ATOM     16  C   UNL A   1      42.706  25.970  25.292  1.00  0.00     0.029 A 
ATOM     17  N   UNL A   1      43.980  27.233  26.590  1.00  0.00    -0.354 N 
ATOM     18  C   UNL A   1      48.168  26.829  26.305  1.00  0.00     0.074 A 
ATOM     19  C   UNL A   1      48.576  25.501  25.907  1.00  0.00     0.031 C 
ATOM     20  C   UNL A   1      41.889  26.823  25.938  1.00  0.00     0.029 A 
ATOM     21  C   UNL A   1      42.677  27.589  26.884  1.00  0.00     0.049 A 
ATOM     22  H   UNL A   1      44.770  27.744  26.880  1.00  0.00     0.167 HD
ATOM     23  C   UNL A   1      48.980  27.905  26.364  1.00  0.00     0.037 A 
ATOM     24  C   UNL A   1      42.199  28.414  27.835  1.00  0.00     0.037 A 
ATOM     25  C   UNL A   1      48.547  29.195  26.818  1.00  0.00     0.049 A 
ATOM     26  C   UNL A   1      43.159  29.440  28.343  1.00  0.00     0.074 A 
ATOM     27  C   UNL A   1      49.275  30.361  26.946  1.00  0.00     0.029 A 
ATOM     28  N   UNL A   1      47.258  29.473  27.262  1.00  0.00    -0.354 N 
ATOM     29  N   UNL A   1      44.449  29.506  28.134  1.00  0.00    -0.248 NA
ATOM     30  C   UNL A   1      42.592  30.600  29.041  1.00  0.00     0.031 C 
ATOM     31  C   UNL A   1      48.450  31.318  27.549  1.00  0.00     0.029 A 
ATOM     32  C   UNL A   1      47.189  30.769  27.740  1.00  0.00     0.049 A 
ATOM     33  H   UNL A   1      46.506  28.839  27.241  1.00  0.00     0.167 HD
ATOM     34  C   UNL A   1      44.824  30.780  28.515  1.00  0.00     0.074 A 
ATOM     35  C   UNL A   1      43.644  31.410  29.079  1.00  0.00     0.031 C 
ATOM     36  C   UNL A   1      46.017  31.388  28.314  1.00  0.00     0.037 A 
BRANCH  23  37
ATOM     37  C   UNL A   1      50.390  27.664  25.933  1.00  0.00     0.057 A 
ATOM     38  C   UNL A   1      50.735  27.595  24.573  1.00  0.00     0.134 A 
ATOM     39  C   UNL A   1      51.376  27.360  26.872  1.00  0.00     0.134 A 
ATOM     40  F   UNL A   1      49.820  27.841  23.623  1.00  0.00    -0.206 F 
ATOM     41  C   UNL A   1      52.001  27.174  24.166  1.00  0.00     0.040 A 
ATOM     42  C   UNL A   1      52.653  26.962  26.477  1.00  0.00     0.040 A 
ATOM     43  F   UNL A   1      51.101  27.396  28.185  1.00  0.00    -0.206 F 
ATOM     44  C   UNL A   1      52.962  26.851  25.121  1.00  0.00     0.006 A 
ENDBRANCH  23  37
BRANCH  24  45
ATOM     45  C   UNL A   1      40.774  28.413  28.247  1.00  0.00     0.057 A 
ATOM     46  C   UNL A   1      39.761  28.951  27.451  1.00  0.00     0.134 A 
ATOM     47  C   UNL A   1      40.394  27.886  29.491  1.00  0.00     0.134 A 
ATOM     48  F   UNL A   1      40.062  29.510  26.271  1.00  0.00    -0.206 F 
ATOM     49  C   UNL A   1      38.423  28.951  27.863  1.00  0.00     0.040 A 
ATOM     50  C   UNL A   1      39.059  27.868  29.912  1.00  0.00     0.040 A 
ATOM     51  F   UNL A   1      41.315  27.362  30.315  1.00  0.00    -0.206 F 
ATOM     52  C   UNL A   1      38.067  28.401  29.095  1.00  0.00     0.006 A 
ENDBRANCH  24  45
BRANCH  36  53
ATOM     53  C   UNL A   1      46.109  32.839  28.658  1.00  0.00     0.057 A 
ATOM     54  C   UNL A   1      46.567  33.277  29.903  1.00  0.00     0.134 A 
ATOM     55  C   UNL A   1      45.814  33.808  27.689  1.00  0.00     0.134 A 
ATOM     56  F   UNL A   1      46.839  32.395  30.877  1.00  0.00    -0.206 F 
ATOM     57  C   UNL A   1      46.740  34.633  30.172  1.00  0.00     0.040 A 
ATOM     58  C   UNL A   1      46.010  35.165  27.937  1.00  0.00     0.040 A 
ATOM     59  F   UNL A   1      45.365  33.448  26.477  1.00  0.00    -0.206 F 
ATOM     60  C   UNL A   1      46.477  35.580  29.182  1.00  0.00     0.006 A 
ENDBRANCH  36  53
ENDBRANCH  10  11
ENDBRANCH   3   5
ENDBRANCH   2   3
ENDBRANCH   1   2
BRANCH   1  61
ATOM     61  C   UNL A   1      42.318  18.642  26.026  1.00  0.00     0.275 C 
BRANCH  61  62
ATOM     62  O   UNL A   1      42.223  20.005  26.455  1.00  0.00    -0.458 OA
BRANCH  62  63
ATOM     63  C   UNL A   1      40.959  20.503  26.510  1.00  0.00     0.340 C 
ATOM     64  O   UNL A   1      39.944  19.998  26.090  1.00  0.00    -0.246 OA
BRANCH  63  65
ATOM     65  C   UNL A   1      41.003  21.822  27.147  1.00  0.00     0.085 A 
ATOM     66  C   UNL A   1      42.109  22.053  27.987  1.00  0.00     0.018 A 
ATOM     67  C   UNL A   1      40.037  22.813  26.904  1.00  0.00     0.077 A 
ATOM     68  C   UNL A   1      42.303  23.304  28.565  1.00  0.00     0.001 A 
ATOM     69  C   UNL A   1      40.225  24.037  27.578  1.00  0.00     0.029 A 
ATOM     70  C   UNL A   1      41.353  24.297  28.370  1.00  0.00     0.002 A 
BRANCH  67  71
ATOM     71  N   UNL A   1      39.139  22.900  25.815  1.00  0.00    -0.255 NA
ATOM     72  C   UNL A   1      37.866  22.673  25.848  1.00  0.00     0.127 C 
BRANCH  72  73
ATOM     73  C   UNL A   1      37.230  21.817  24.756  1.00  0.00     0.076 A 
ATOM     74  C   UNL A   1      36.432  20.805  25.167  1.00  0.00     0.209 A 
ATOM     75  C   UNL A   1      36.399  22.708  23.874  1.00  0.00     0.201 A 
ATOM     76  O   UNL A   1      35.030  20.917  25.343  1.00  0.00    -0.463 OA
ATOM     77  C   UNL A   1      35.190  23.170  24.572  1.00  0.00     0.065 A 
ATOM     78  O   UNL A   1      36.728  23.053  22.749  1.00  0.00    -0.288 OA
ATOM     79  C   UNL A   1      34.541  22.205  25.336  1.00  0.00     0.137 A 
ATOM     80  C   UNL A   1      34.916  24.520  24.742  1.00  0.00     0.016 A 
ATOM     81  C   UNL A   1      33.505  22.567  26.183  1.00  0.00     0.048 A 
ATOM     82  C   UNL A   1      33.904  24.900  25.619  1.00  0.00     0.001 A 
ATOM     83  C   UNL A   1      33.202  23.924  26.333  1.00  0.00     0.004 A 
ENDBRANCH  72  73
ENDBRANCH  67  71
ENDBRANCH  63  65
ENDBRANCH  62  63
ENDBRANCH  61  62
ENDBRANCH   1  61
TORSDOF 13
ENDMDL
MODEL 2
REMARK VINA RESULT:     -11.5      2.068      7.316
REMARK SMILES O=C(OCCOC(=O)c1ccccc1/N=C/c1coc2ccccc2c1=O)c1ccc(-c2c3nc(c(-c4c(F)cccc4F)c4ccc([nH]4)c(-c4c(F)cccc4F)c4nc(c(-c5c(F)cccc5F)c5ccc2[nH]5)C=C4)C=C3)cc1
REMARK SMILES IDX 4 1 3 2 2 3 1 4 28 5 29 6 81 7 30 8 80 9 31 10 32 11 33 12
REMARK SMILES IDX 74 13 34 14 79 15 73 16 75 17 35 18 78 19 72 20 71 21 36 23
REMARK SMILES IDX 62 24 45 25 61 26 46 27 49 28 60 29 76 30 47 31 48 32 59 34
REMARK SMILES IDX 77 35 50 36 37 37 38 38 43 39 39 40 40 41 42 42 44 43 41 44
REMARK SMILES IDX 63 45 64 46 69 47 65 48 66 49 68 50 70 51 67 52 51 53 52 54
REMARK SMILES IDX 57 55 53 56 54 57 56 58 58 59 55 60 5 61 6 62 7 63 8 64 9 65
REMARK SMILES IDX 10 66 14 67 11 68 13 69 12 70 15 71 16 72 17 73 18 74 26 75
REMARK SMILES IDX 19 76 25 77 27 78 20 79 24 80 21 81 23 82 22 83
REMARK H PARENT 75 22 49 33
REMARK Flexibility Score: inf
ROOT
ATOM      1  C   UNL A   1      38.397  20.865  25.374  1.00  0.00     0.275 C 
ENDROOT
BRANCH   1   2
ATOM      2  O   UNL A   1      39.306  19.818  25.745  1.00  0.00    -0.458 OA
BRANCH   2   3
ATOM      3  C   UNL A   1      40.629  19.877  26.008  1.00  0.00     0.338 C 
ATOM      4  O   UNL A   1      41.309  18.877  25.773  1.00  0.00    -0.246 OA
BRANCH   3   5
ATOM      5  C   UNL A   1      41.332  21.044  26.641  1.00  0.00     0.060 A 
ATOM      6  C   UNL A   1      41.327  21.400  27.995  1.00  0.00     0.016 A 
ATOM      7  C   UNL A   1      41.999  21.902  25.751  1.00  0.00     0.016 A 
ATOM      8  C   UNL A   1      41.958  22.575  28.454  1.00  0.00     0.010 A 
ATOM      9  C   UNL A   1      42.640  23.060  26.201  1.00  0.00     0.010 A 
ATOM     10  C   UNL A   1      42.599  23.428  27.559  1.00  0.00    -0.014 A 
BRANCH  10  11
ATOM     11  C   UNL A   1      43.049  24.801  27.904  1.00  0.00     0.031 A 
ATOM     12  C   UNL A   1      41.985  25.829  28.090  1.00  0.00     0.074 A 
ATOM     13  C   UNL A   1      44.328  25.204  28.032  1.00  0.00     0.049 A 
ATOM     14  N   UNL A   1      42.125  27.112  28.260  1.00  0.00    -0.248 NA
ATOM     15  C   UNL A   1      40.600  25.339  28.199  1.00  0.00     0.031 C 
ATOM     16  C   UNL A   1      45.493  24.369  28.247  1.00  0.00     0.029 A 
ATOM     17  N   UNL A   1      44.872  26.459  27.851  1.00  0.00    -0.354 N 
ATOM     18  C   UNL A   1      40.879  27.557  28.649  1.00  0.00     0.074 A 
ATOM     19  C   UNL A   1      39.956  26.454  28.505  1.00  0.00     0.031 C 
ATOM     20  C   UNL A   1      46.599  25.052  27.898  1.00  0.00     0.029 A 
ATOM     21  C   UNL A   1      46.212  26.397  27.519  1.00  0.00     0.049 A 
ATOM     22  H   UNL A   1      44.366  27.297  27.948  1.00  0.00     0.167 HD
ATOM     23  C   UNL A   1      40.578  28.753  29.194  1.00  0.00     0.037 A 
ATOM     24  C   UNL A   1      47.005  27.322  26.945  1.00  0.00     0.037 A 
ATOM     25  C   UNL A   1      41.510  29.842  29.268  1.00  0.00     0.049 A 
ATOM     26  C   UNL A   1      46.558  28.740  27.096  1.00  0.00     0.074 A 
ATOM     27  C   UNL A   1      41.324  31.112  29.777  1.00  0.00     0.029 A 
ATOM     28  N   UNL A   1      42.808  29.791  28.772  1.00  0.00    -0.354 N 
ATOM     29  N   UNL A   1      45.403  29.176  27.531  1.00  0.00    -0.248 NA
ATOM     30  C   UNL A   1      47.563  29.786  26.875  1.00  0.00     0.031 C 
ATOM     31  C   UNL A   1      42.480  31.855  29.509  1.00  0.00     0.029 A 
ATOM     32  C   UNL A   1      43.410  31.032  28.889  1.00  0.00     0.049 A 
ATOM     33  H   UNL A   1      43.236  28.991  28.392  1.00  0.00     0.167 HD
ATOM     34  C   UNL A   1      45.589  30.518  27.801  1.00  0.00     0.074 A 
ATOM     35  C   UNL A   1      46.935  30.848  27.367  1.00  0.00     0.031 C 
ATOM     36  C   UNL A   1      44.745  31.359  28.443  1.00  0.00     0.037 A 
BRANCH  23  37
ATOM     37  C   UNL A   1      39.185  28.885  29.716  1.00  0.00     0.057 A 
ATOM     38  C   UNL A   1      38.150  29.393  28.912  1.00  0.00     0.134 A 
ATOM     39  C   UNL A   1      38.905  28.640  31.061  1.00  0.00     0.134 A 
ATOM     40  F   UNL A   1      38.368  29.682  27.620  1.00  0.00    -0.206 F 
ATOM     41  C   UNL A   1      36.901  29.705  29.449  1.00  0.00     0.040 A 
ATOM     42  C   UNL A   1      37.652  28.926  31.602  1.00  0.00     0.040 A 
ATOM     43  F   UNL A   1      39.858  28.168  31.879  1.00  0.00    -0.206 F 
ATOM     44  C   UNL A   1      36.653  29.476  30.800  1.00  0.00     0.006 A 
ENDBRANCH  23  37
BRANCH  24  45
ATOM     45  C   UNL A   1      48.313  26.982  26.335  1.00  0.00     0.057 A 
ATOM     46  C   UNL A   1      48.471  26.762  24.966  1.00  0.00     0.134 A 
ATOM     47  C   UNL A   1      49.455  26.838  27.138  1.00  0.00     0.134 A 
ATOM     48  F   UNL A   1      47.411  26.840  24.149  1.00  0.00    -0.206 F 
ATOM     49  C   UNL A   1      49.712  26.430  24.411  1.00  0.00     0.040 A 
ATOM     50  C   UNL A   1      50.706  26.518  26.597  1.00  0.00     0.040 A 
ATOM     51  F   UNL A   1      49.379  27.022  28.464  1.00  0.00    -0.206 F 
ATOM     52  C   UNL A   1      50.837  26.315  25.226  1.00  0.00     0.006 A 
ENDBRANCH  24  45
BRANCH  36  53
ATOM     53  C   UNL A   1      45.260  32.723  28.773  1.00  0.00     0.057 A 
ATOM     54  C   UNL A   1      45.001  33.828  27.959  1.00  0.00     0.134 A 
ATOM     55  C   UNL A   1      45.953  32.938  29.972  1.00  0.00     0.134 A 
ATOM     56  F   UNL A   1      44.366  33.678  26.788  1.00  0.00    -0.206 F 
ATOM     57  C   UNL A   1      45.406  35.109  28.332  1.00  0.00     0.040 A 
ATOM     58  C   UNL A   1      46.337  34.217  30.370  1.00  0.00     0.040 A 
ATOM     59  F   UNL A   1      46.236  31.913  30.791  1.00  0.00    -0.206 F 
ATOM     60  C   UNL A   1      46.060  35.307  29.548  1.00  0.00     0.006 A 
ENDBRANCH  36  53
ENDBRANCH  10  11
ENDBRANCH   3   5
ENDBRANCH   2   3
ENDBRANCH   1   2
BRANCH   1  61
ATOM     61  C   UNL A   1      37.114  20.391  24.704  1.00  0.00     0.275 C 
BRANCH  61  62
ATOM     62  O   UNL A   1      35.988  21.229  24.989  1.00  0.00    -0.458 OA
BRANCH  62  63
ATOM     63  C   UNL A   1      34.797  20.579  25.082  1.00  0.00     0.340 C 
ATOM     64  O   UNL A   1      34.505  19.499  24.626  1.00  0.00    -0.246 OA
BRANCH  63  65
ATOM     65  C   UNL A   1      33.857  21.430  25.816  1.00  0.00     0.085 A 
ATOM     66  C   UNL A   1      34.024  21.453  27.214  1.00  0.00     0.018 A 
ATOM     67  C   UNL A   1      32.881  22.210  25.173  1.00  0.00     0.077 A 
ATOM     68  C   UNL A   1      33.250  22.301  28.000  1.00  0.00     0.001 A 
ATOM     69  C   UNL A   1      32.061  22.990  26.014  1.00  0.00     0.029 A 
ATOM     70  C   UNL A   1      32.257  23.064  27.401  1.00  0.00     0.002 A 
BRANCH  67  71
ATOM     71  N   UNL A   1      32.851  22.618  23.819  1.00  0.00    -0.255 NA
ATOM     72  C   UNL A   1      33.488  23.618  23.303  1.00  0.00     0.127 C 
BRANCH  72  73
ATOM     73  C   UNL A   1      32.753  24.567  22.360  1.00  0.00     0.076 A 
ATOM     74  C   UNL A   1      31.407  24.623  22.484  1.00  0.00     0.209 A 
ATOM     75  C   UNL A   1      33.278  25.960  22.578  1.00  0.00     0.201 A 
ATOM     76  O   UNL A   1      30.721  25.548  23.308  1.00  0.00    -0.463 OA
ATOM     77  C   UNL A   1      32.836  26.497  23.874  1.00  0.00     0.065 A 
ATOM     78  O   UNL A   1      34.028  26.535  21.805  1.00  0.00    -0.288 OA
ATOM     79  C   UNL A   1      31.512  26.230  24.207  1.00  0.00     0.137 A 
ATOM     80  C   UNL A   1      33.743  26.924  24.834  1.00  0.00     0.016 A 
ATOM     81  C   UNL A   1      31.040  26.521  25.477  1.00  0.00     0.048 A 
ATOM     82  C   UNL A   1      33.290  27.184  26.125  1.00  0.00     0.001 A 
ATOM     83  C   UNL A   1      31.943  26.984  26.440  1.00  0.00     0.004 A 
ENDBRANCH  72  73
ENDBRANCH  67  71
ENDBRANCH  63  65
ENDBRANCH  62  63
ENDBRANCH  61  62
ENDBRANCH   1  61
TORSDOF 13
ENDMDL
MODEL 3
REMARK VINA RESULT:     -11.5      6.057     10.603
REMARK SMILES O=C(OCCOC(=O)c1ccccc1/N=C/c1coc2ccccc2c1=O)c1ccc(-c2c3nc(c(-c4c(F)cccc4F)c4ccc([nH]4)c(-c4c(F)cccc4F)c4nc(c(-c5c(F)cccc5F)c5ccc2[nH]5)C=C4)C=C3)cc1
REMARK SMILES IDX 4 1 3 2 2 3 1 4 28 5 29 6 81 7 30 8 80 9 31 10 32 11 33 12
REMARK SMILES IDX 74 13 34 14 79 15 73 16 75 17 35 18 78 19 72 20 71 21 36 23
REMARK SMILES IDX 62 24 45 25 61 26 46 27 49 28 60 29 76 30 47 31 48 32 59 34
REMARK SMILES IDX 77 35 50 36 37 37 38 38 43 39 39 40 40 41 42 42 44 43 41 44
REMARK SMILES IDX 63 45 64 46 69 47 65 48 66 49 68 50 70 51 67 52 51 53 52 54
REMARK SMILES IDX 57 55 53 56 54 57 56 58 58 59 55 60 5 61 6 62 7 63 8 64 9 65
REMARK SMILES IDX 10 66 14 67 11 68 13 69 12 70 15 71 16 72 17 73 18 74 26 75
REMARK SMILES IDX 19 76 25 77 27 78 20 79 24 80 21 81 23 82 22 83
REMARK H PARENT 75 22 49 33
REMARK Flexibility Score: inf
ROOT
ATOM      1  C   UNL A   1      31.831  31.725  27.024  1.00  0.00     0.275 C 
ENDROOT
BRANCH   1   2
ATOM      2  O   UNL A   1      32.560  32.960  26.976  1.00  0.00    -0.458 OA
BRANCH   2   3
ATOM      3  C   UNL A   1      33.070  33.701  27.983  1.00  0.00     0.338 C 
ATOM      4  O   UNL A   1      32.416  34.668  28.376  1.00  0.00    -0.246 OA
BRANCH   3   5
ATOM      5  C   UNL A   1      34.416  33.488  28.615  1.00  0.00     0.060 A 
ATOM      6  C   UNL A   1      35.666  33.807  28.071  1.00  0.00     0.016 A 
ATOM      7  C   UNL A   1      34.402  32.826  29.855  1.00  0.00     0.016 A 
ATOM      8  C   UNL A   1      36.867  33.475  28.730  1.00  0.00     0.010 A 
ATOM      9  C   UNL A   1      35.589  32.509  30.522  1.00  0.00     0.010 A 
ATOM     10  C   UNL A   1      36.841  32.801  29.949  1.00  0.00    -0.014 A 
BRANCH  10  11
ATOM     11  C   UNL A   1      38.036  32.180  30.576  1.00  0.00     0.031 A 
ATOM     12  C   UNL A   1      38.476  30.866  30.024  1.00  0.00     0.074 A 
ATOM     13  C   UNL A   1      38.735  32.681  31.614  1.00  0.00     0.049 A 
ATOM     14  N   UNL A   1      39.397  30.068  30.482  1.00  0.00    -0.248 NA
ATOM     15  C   UNL A   1      37.877  30.448  28.746  1.00  0.00     0.031 C 
ATOM     16  C   UNL A   1      38.740  34.050  32.086  1.00  0.00     0.029 A 
ATOM     17  N   UNL A   1      39.488  32.020  32.562  1.00  0.00    -0.354 N 
ATOM     18  C   UNL A   1      39.597  29.144  29.479  1.00  0.00     0.074 A 
ATOM     19  C   UNL A   1      38.578  29.359  28.476  1.00  0.00     0.031 C 
ATOM     20  C   UNL A   1      39.191  34.081  33.354  1.00  0.00     0.029 A 
ATOM     21  C   UNL A   1      39.582  32.738  33.738  1.00  0.00     0.049 A 
ATOM     22  H   UNL A   1      39.908  31.142  32.416  1.00  0.00     0.167 HD
ATOM     23  C   UNL A   1      40.626  28.279  29.365  1.00  0.00     0.037 A 
ATOM     24  C   UNL A   1      39.915  32.330  34.978  1.00  0.00     0.037 A 
ATOM     25  C   UNL A   1      41.586  28.056  30.407  1.00  0.00     0.049 A 
ATOM     26  C   UNL A   1      40.733  31.081  35.048  1.00  0.00     0.074 A 
ATOM     27  C   UNL A   1      42.663  27.193  30.426  1.00  0.00     0.029 A 
ATOM     28  N   UNL A   1      41.551  28.685  31.648  1.00  0.00    -0.354 N 
ATOM     29  N   UNL A   1      40.989  30.233  34.085  1.00  0.00    -0.248 NA
ATOM     30  C   UNL A   1      41.466  30.830  36.295  1.00  0.00     0.031 C 
ATOM     31  C   UNL A   1      43.225  27.236  31.708  1.00  0.00     0.029 A 
ATOM     32  C   UNL A   1      42.539  28.172  32.469  1.00  0.00     0.049 A 
ATOM     33  H   UNL A   1      40.915  29.391  31.904  1.00  0.00     0.167 HD
ATOM     34  C   UNL A   1      42.034  29.453  34.542  1.00  0.00     0.074 A 
ATOM     35  C   UNL A   1      42.282  29.854  35.916  1.00  0.00     0.031 C 
ATOM     36  C   UNL A   1      42.773  28.562  33.840  1.00  0.00     0.037 A 
BRANCH  23  37
ATOM     37  C   UNL A   1      40.701  27.544  28.067  1.00  0.00     0.057 A 
ATOM     38  C   UNL A   1      40.121  26.273  27.914  1.00  0.00     0.134 A 
ATOM     39  C   UNL A   1      41.473  28.039  27.015  1.00  0.00     0.134 A 
ATOM     40  F   UNL A   1      39.398  25.729  28.905  1.00  0.00    -0.206 F 
ATOM     41  C   UNL A   1      40.357  25.499  26.778  1.00  0.00     0.040 A 
ATOM     42  C   UNL A   1      41.696  27.283  25.865  1.00  0.00     0.040 A 
ATOM     43  F   UNL A   1      42.063  29.240  27.110  1.00  0.00    -0.206 F 
ATOM     44  C   UNL A   1      41.153  26.004  25.752  1.00  0.00     0.006 A 
ENDBRANCH  23  37
BRANCH  24  45
ATOM     45  C   UNL A   1      39.626  33.137  36.187  1.00  0.00     0.057 A 
ATOM     46  C   UNL A   1      38.459  32.979  36.937  1.00  0.00     0.134 A 
ATOM     47  C   UNL A   1      40.524  34.129  36.610  1.00  0.00     0.134 A 
ATOM     48  F   UNL A   1      37.539  32.080  36.561  1.00  0.00    -0.206 F 
ATOM     49  C   UNL A   1      38.200  33.760  38.068  1.00  0.00     0.040 A 
ATOM     50  C   UNL A   1      40.285  34.910  37.747  1.00  0.00     0.040 A 
ATOM     51  F   UNL A   1      41.662  34.347  35.933  1.00  0.00    -0.206 F 
ATOM     52  C   UNL A   1      39.118  34.725  38.482  1.00  0.00     0.006 A 
ENDBRANCH  24  45
BRANCH  36  53
ATOM     53  C   UNL A   1      43.969  27.981  34.521  1.00  0.00     0.057 A 
ATOM     54  C   UNL A   1      43.929  26.735  35.151  1.00  0.00     0.134 A 
ATOM     55  C   UNL A   1      45.200  28.649  34.464  1.00  0.00     0.134 A 
ATOM     56  F   UNL A   1      42.773  26.063  35.260  1.00  0.00    -0.206 F 
ATOM     57  C   UNL A   1      45.078  26.165  35.696  1.00  0.00     0.040 A 
ATOM     58  C   UNL A   1      46.361  28.076  34.979  1.00  0.00     0.040 A 
ATOM     59  F   UNL A   1      45.299  29.851  33.877  1.00  0.00    -0.206 F 
ATOM     60  C   UNL A   1      46.301  26.828  35.596  1.00  0.00     0.006 A 
ENDBRANCH  36  53
ENDBRANCH  10  11
ENDBRANCH   3   5
ENDBRANCH   2   3
ENDBRANCH   1   2
BRANCH   1  61
ATOM     61  C   UNL A   1      32.687  30.484  27.243  1.00  0.00     0.275 C 
BRANCH  61  62
ATOM     62  O   UNL A   1      31.933  29.268  27.210  1.00  0.00    -0.458 OA
BRANCH  62  63
ATOM     63  C   UNL A   1      32.460  28.285  26.431  1.00  0.00     0.340 C 
ATOM     64  O   UNL A   1      33.587  27.847  26.453  1.00  0.00    -0.246 OA
BRANCH  63  65
ATOM     65  C   UNL A   1      31.435  27.835  25.487  1.00  0.00     0.085 A 
ATOM     66  C   UNL A   1      31.308  28.607  24.315  1.00  0.00     0.018 A 
ATOM     67  C   UNL A   1      30.657  26.686  25.704  1.00  0.00     0.077 A 
ATOM     68  C   UNL A   1      30.434  28.214  23.307  1.00  0.00     0.001 A 
ATOM     69  C   UNL A   1      29.722  26.372  24.697  1.00  0.00     0.029 A 
ATOM     70  C   UNL A   1      29.629  27.100  23.502  1.00  0.00     0.002 A 
BRANCH  67  71
ATOM     71  N   UNL A   1      30.931  25.606  26.576  1.00  0.00    -0.255 NA
ATOM     72  C   UNL A   1      31.883  24.740  26.452  1.00  0.00     0.127 C 
BRANCH  72  73
ATOM     73  C   UNL A   1      31.576  23.257  26.647  1.00  0.00     0.076 A 
ATOM     74  C   UNL A   1      31.214  22.563  25.543  1.00  0.00     0.209 A 
ATOM     75  C   UNL A   1      32.798  22.586  27.214  1.00  0.00     0.201 A 
ATOM     76  O   UNL A   1      32.121  21.858  24.713  1.00  0.00    -0.463 OA
ATOM     77  C   UNL A   1      33.868  22.495  26.210  1.00  0.00     0.065 A 
ATOM     78  O   UNL A   1      32.901  22.230  28.377  1.00  0.00    -0.288 OA
ATOM     79  C   UNL A   1      33.452  22.139  24.931  1.00  0.00     0.137 A 
ATOM     80  C   UNL A   1      35.121  23.051  26.426  1.00  0.00     0.016 A 
ATOM     81  C   UNL A   1      34.338  22.204  23.866  1.00  0.00     0.048 A 
ATOM     82  C   UNL A   1      36.007  23.158  25.357  1.00  0.00     0.001 A 
ATOM     83  C   UNL A   1      35.614  22.733  24.085  1.00  0.00     0.004 A 
ENDBRANCH  72  73
ENDBRANCH  67  71
ENDBRANCH  63  65
ENDBRANCH  62  63
ENDBRANCH  61  62
ENDBRANCH   1  61
TORSDOF 13
ENDMDL
