MODEL 1
REMARK VINA RESULT:     -12.8      0.000      0.000
REMARK SMILES C[C@@H](C(=O)OCCOC(=O)c1ccc(-c2c3nc(c(-c4c(F)cccc4F)c4ccc([nH]4)c(-c4c(F)cccc4F)c4nc(c(-c5c(F)cccc5F)c5ccc2[nH]5)C=C4)C=C3)cc1)c1ccc2c3cc(Cl)ccc3n(C(=O)c3ccc(Cl)cc3)c2c1
REMARK SMILES IDX 6 1 5 2 3 3 4 4 2 5 1 6 65 7 66 8 87 9 67 10 86 11 68 12
REMARK SMILES IDX 76 13 69 14 75 15 70 16 74 17 71 18 73 19 72 20 77 21 78 22
REMARK SMILES IDX 79 23 80 24 85 25 81 26 84 27 82 28 83 29 7 30 8 31 9 32
REMARK SMILES IDX 10 33 11 34 12 35 64 36 13 37 63 38 14 39 15 40 16 41 57 42
REMARK SMILES IDX 17 43 62 44 56 45 58 46 18 47 61 48 55 49 54 50 19 52 45 53
REMARK SMILES IDX 28 54 44 55 29 56 32 57 43 58 59 59 30 60 31 61 42 63 60 64
REMARK SMILES IDX 33 65 20 66 21 67 26 68 22 69 23 70 25 71 27 72 24 73 46 74
REMARK SMILES IDX 47 75 52 76 48 77 49 78 51 79 53 80 50 81 34 82 35 83 40 84
REMARK SMILES IDX 36 85 37 86 39 87 41 88 38 89
REMARK H PARENT 58 51 32 62
REMARK Flexibility Score: inf
ROOT
ATOM      1  C   UNL A   1      34.667  33.958  30.224  1.00  0.00     0.274 C 
ENDROOT
BRANCH   1   2
ATOM      2  O   UNL A   1      34.339  32.723  29.557  1.00  0.00    -0.462 OA
BRANCH   2   3
ATOM      3  C   UNL A   1      35.145  32.359  28.516  1.00  0.00     0.313 C 
ATOM      4  O   UNL A   1      35.830  33.173  27.909  1.00  0.00    -0.252 OA
BRANCH   3   5
ATOM      5  C   UNL A   1      34.992  30.861  28.145  1.00  0.00     0.126 C 
ATOM      6  C   UNL A   1      36.280  30.354  27.452  1.00  0.00     0.025 C 
BRANCH   5   7
ATOM      7  C   UNL A   1      33.733  30.494  27.318  1.00  0.00    -0.032 A 
ATOM      8  C   UNL A   1      32.574  31.275  27.297  1.00  0.00     0.005 A 
ATOM      9  C   UNL A   1      33.713  29.306  26.554  1.00  0.00     0.032 A 
ATOM     10  C   UNL A   1      31.533  31.029  26.392  1.00  0.00     0.011 A 
ATOM     11  C   UNL A   1      32.642  29.023  25.669  1.00  0.00     0.057 A 
ATOM     12  C   UNL A   1      31.603  29.932  25.517  1.00  0.00     0.008 A 
ATOM     13  N   UNL A   1      32.402  27.944  24.795  1.00  0.00    -0.276 N 
ATOM     14  C   UNL A   1      30.832  29.512  24.404  1.00  0.00     0.009 A 
ATOM     15  C   UNL A   1      31.194  28.190  24.128  1.00  0.00     0.057 A 
ATOM     16  C   UNL A   1      29.827  30.130  23.631  1.00  0.00     0.031 A 
ATOM     17  C   UNL A   1      30.379  27.401  23.295  1.00  0.00     0.029 A 
ATOM     18  C   UNL A   1      29.159  29.392  22.661  1.00  0.00     0.041 A 
ATOM     19  C   UNL A   1      29.381  28.030  22.541  1.00  0.00     0.023 A 
ATOM     20  Cl  UNL A   1      28.041  30.160  21.610  1.00  0.00    -0.084 Cl
BRANCH  13  21
ATOM     21  C   UNL A   1      33.278  26.836  24.635  1.00  0.00     0.262 C 
ATOM     22  O   UNL A   1      34.056  26.865  23.678  1.00  0.00    -0.268 OA
BRANCH  21  23
ATOM     23  C   UNL A   1      33.383  25.611  25.467  1.00  0.00     0.040 A 
ATOM     24  C   UNL A   1      34.618  24.939  25.445  1.00  0.00     0.015 A 
ATOM     25  C   UNL A   1      32.301  25.033  26.140  1.00  0.00     0.015 A 
ATOM     26  C   UNL A   1      34.777  23.719  26.102  1.00  0.00     0.021 A 
ATOM     27  C   UNL A   1      32.473  23.825  26.829  1.00  0.00     0.021 A 
ATOM     28  C   UNL A   1      33.705  23.169  26.797  1.00  0.00     0.041 A 
ATOM     29  Cl  UNL A   1      33.894  21.655  27.590  1.00  0.00    -0.084 Cl
ENDBRANCH  21  23
ENDBRANCH  13  21
ENDBRANCH   5   7
ENDBRANCH   3   5
ENDBRANCH   2   3
ENDBRANCH   1   2
BRANCH   1  30
ATOM     30  C   UNL A   1      34.820  33.756  31.734  1.00  0.00     0.275 C 
BRANCH  30  31
ATOM     31  O   UNL A   1      35.199  32.404  32.062  1.00  0.00    -0.458 OA
BRANCH  31  32
ATOM     32  C   UNL A   1      36.238  32.290  32.919  1.00  0.00     0.338 C 
ATOM     33  O   UNL A   1      36.208  32.459  34.134  1.00  0.00    -0.246 OA
BRANCH  32  34
ATOM     34  C   UNL A   1      37.433  31.774  32.224  1.00  0.00     0.060 A 
ATOM     35  C   UNL A   1      37.533  32.039  30.859  1.00  0.00     0.016 A 
ATOM     36  C   UNL A   1      38.416  31.007  32.859  1.00  0.00     0.016 A 
ATOM     37  C   UNL A   1      38.632  31.584  30.136  1.00  0.00     0.010 A 
ATOM     38  C   UNL A   1      39.515  30.532  32.121  1.00  0.00     0.010 A 
ATOM     39  C   UNL A   1      39.637  30.835  30.755  1.00  0.00    -0.014 A 
BRANCH  39  40
ATOM     40  C   UNL A   1      40.746  30.327  29.907  1.00  0.00     0.031 A 
ATOM     41  C   UNL A   1      42.002  31.142  29.780  1.00  0.00     0.074 A 
ATOM     42  C   UNL A   1      40.723  29.071  29.422  1.00  0.00     0.049 A 
ATOM     43  N   UNL A   1      43.126  30.845  29.178  1.00  0.00    -0.248 NA
ATOM     44  C   UNL A   1      42.000  32.449  30.451  1.00  0.00     0.031 C 
ATOM     45  C   UNL A   1      39.649  28.104  29.641  1.00  0.00     0.029 A 
ATOM     46  N   UNL A   1      41.673  28.363  28.722  1.00  0.00    -0.354 N 
ATOM     47  C   UNL A   1      43.965  31.929  29.393  1.00  0.00     0.074 A 
ATOM     48  C   UNL A   1      43.224  32.887  30.188  1.00  0.00     0.031 C 
ATOM     49  C   UNL A   1      40.029  26.912  29.146  1.00  0.00     0.029 A 
ATOM     50  C   UNL A   1      41.342  27.044  28.513  1.00  0.00     0.049 A 
ATOM     51  H   UNL A   1      42.513  28.764  28.401  1.00  0.00     0.167 HD
ATOM     52  C   UNL A   1      45.232  32.119  28.958  1.00  0.00     0.037 A 
ATOM     53  C   UNL A   1      42.020  26.060  27.887  1.00  0.00     0.037 A 
ATOM     54  C   UNL A   1      45.975  31.182  28.157  1.00  0.00     0.049 A 
ATOM     55  C   UNL A   1      43.366  26.356  27.268  1.00  0.00     0.074 A 
ATOM     56  C   UNL A   1      47.239  31.330  27.611  1.00  0.00     0.029 A 
ATOM     57  N   UNL A   1      45.528  29.922  27.792  1.00  0.00    -0.354 N 
ATOM     58  N   UNL A   1      44.096  27.441  27.351  1.00  0.00    -0.248 NA
ATOM     59  C   UNL A   1      43.972  25.293  26.450  1.00  0.00     0.031 C 
ATOM     60  C   UNL A   1      47.535  30.181  26.870  1.00  0.00     0.029 A 
ATOM     61  C   UNL A   1      46.478  29.296  27.001  1.00  0.00     0.049 A 
ATOM     62  H   UNL A   1      44.664  29.531  28.056  1.00  0.00     0.167 HD
ATOM     63  C   UNL A   1      45.263  27.173  26.645  1.00  0.00     0.074 A 
ATOM     64  C   UNL A   1      45.140  25.829  26.125  1.00  0.00     0.031 C 
ATOM     65  C   UNL A   1      46.343  27.970  26.455  1.00  0.00     0.037 A 
BRANCH  52  66
ATOM     66  C   UNL A   1      45.871  33.436  29.275  1.00  0.00     0.057 A 
ATOM     67  C   UNL A   1      46.674  33.622  30.406  1.00  0.00     0.134 A 
ATOM     68  C   UNL A   1      45.691  34.529  28.418  1.00  0.00     0.134 A 
ATOM     69  F   UNL A   1      46.868  32.620  31.277  1.00  0.00    -0.206 F 
ATOM     70  C   UNL A   1      47.266  34.857  30.680  1.00  0.00     0.040 A 
ATOM     71  C   UNL A   1      46.295  35.761  28.669  1.00  0.00     0.040 A 
ATOM     72  F   UNL A   1      44.932  34.413  27.318  1.00  0.00    -0.206 F 
ATOM     73  C   UNL A   1      47.082  35.928  29.807  1.00  0.00     0.006 A 
ENDBRANCH  52  66
BRANCH  53  74
ATOM     74  C   UNL A   1      41.443  24.693  27.767  1.00  0.00     0.057 A 
ATOM     75  C   UNL A   1      41.916  23.626  28.542  1.00  0.00     0.134 A 
ATOM     76  C   UNL A   1      40.462  24.401  26.811  1.00  0.00     0.134 A 
ATOM     77  F   UNL A   1      42.876  23.828  29.457  1.00  0.00    -0.206 F 
ATOM     78  C   UNL A   1      41.459  22.319  28.350  1.00  0.00     0.040 A 
ATOM     79  C   UNL A   1      39.972  23.107  26.631  1.00  0.00     0.040 A 
ATOM     80  F   UNL A   1      39.970  25.372  26.026  1.00  0.00    -0.206 F 
ATOM     81  C   UNL A   1      40.482  22.058  27.393  1.00  0.00     0.006 A 
ENDBRANCH  53  74
BRANCH  65  82
ATOM     82  C   UNL A   1      47.480  27.424  25.637  1.00  0.00     0.057 A 
ATOM     83  C   UNL A   1      48.526  26.699  26.221  1.00  0.00     0.134 A 
ATOM     84  C   UNL A   1      47.501  27.574  24.244  1.00  0.00     0.134 A 
ATOM     85  F   UNL A   1      48.573  26.525  27.551  1.00  0.00    -0.206 F 
ATOM     86  C   UNL A   1      49.560  26.158  25.454  1.00  0.00     0.040 A 
ATOM     87  C   UNL A   1      48.516  27.016  23.463  1.00  0.00     0.040 A 
ATOM     88  F   UNL A   1      46.527  28.248  23.614  1.00  0.00    -0.206 F 
ATOM     89  C   UNL A   1      49.552  26.310  24.070  1.00  0.00     0.006 A 
ENDBRANCH  65  82
ENDBRANCH  39  40
ENDBRANCH  32  34
ENDBRANCH  31  32
ENDBRANCH  30  31
ENDBRANCH   1  30
TORSDOF 14
ENDMDL
MODEL 2
REMARK VINA RESULT:     -12.8      4.588      9.998
REMARK SMILES C[C@@H](C(=O)OCCOC(=O)c1ccc(-c2c3nc(c(-c4c(F)cccc4F)c4ccc([nH]4)c(-c4c(F)cccc4F)c4nc(c(-c5c(F)cccc5F)c5ccc2[nH]5)C=C4)C=C3)cc1)c1ccc2c3cc(Cl)ccc3n(C(=O)c3ccc(Cl)cc3)c2c1
REMARK SMILES IDX 6 1 5 2 3 3 4 4 2 5 1 6 65 7 66 8 87 9 67 10 86 11 68 12
REMARK SMILES IDX 76 13 69 14 75 15 70 16 74 17 71 18 73 19 72 20 77 21 78 22
REMARK SMILES IDX 79 23 80 24 85 25 81 26 84 27 82 28 83 29 7 30 8 31 9 32
REMARK SMILES IDX 10 33 11 34 12 35 64 36 13 37 63 38 14 39 15 40 16 41 57 42
REMARK SMILES IDX 17 43 62 44 56 45 58 46 18 47 61 48 55 49 54 50 19 52 45 53
REMARK SMILES IDX 28 54 44 55 29 56 32 57 43 58 59 59 30 60 31 61 42 63 60 64
REMARK SMILES IDX 33 65 20 66 21 67 26 68 22 69 23 70 25 71 27 72 24 73 46 74
REMARK SMILES IDX 47 75 52 76 48 77 49 78 51 79 53 80 50 81 34 82 35 83 40 84
REMARK SMILES IDX 36 85 37 86 39 87 41 88 38 89
REMARK H PARENT 58 51 32 62
REMARK Flexibility Score: inf
ROOT
ATOM      1  C   UNL A   1      42.953  21.341  26.139  1.00  0.00     0.274 C 
ENDROOT
BRANCH   1   2
ATOM      2  O   UNL A   1      41.558  21.582  25.872  1.00  0.00    -0.462 OA
BRANCH   2   3
ATOM      3  C   UNL A   1      40.819  22.092  26.901  1.00  0.00     0.313 C 
ATOM      4  O   UNL A   1      41.036  21.792  28.069  1.00  0.00    -0.252 OA
BRANCH   3   5
ATOM      5  C   UNL A   1      39.643  22.974  26.406  1.00  0.00     0.126 C 
ATOM      6  C   UNL A   1      39.175  23.917  27.540  1.00  0.00     0.025 C 
BRANCH   5   7
ATOM      7  C   UNL A   1      38.444  22.214  25.783  1.00  0.00    -0.032 A 
ATOM      8  C   UNL A   1      38.559  20.953  25.187  1.00  0.00     0.005 A 
ATOM      9  C   UNL A   1      37.160  22.803  25.779  1.00  0.00     0.032 A 
ATOM     10  C   UNL A   1      37.435  20.206  24.815  1.00  0.00     0.011 A 
ATOM     11  C   UNL A   1      36.020  22.071  25.361  1.00  0.00     0.057 A 
ATOM     12  C   UNL A   1      36.146  20.744  24.972  1.00  0.00     0.008 A 
ATOM     13  N   UNL A   1      34.656  22.414  25.289  1.00  0.00    -0.276 N 
ATOM     14  C   UNL A   1      34.838  20.210  24.860  1.00  0.00     0.009 A 
ATOM     15  C   UNL A   1      33.953  21.291  24.829  1.00  0.00     0.057 A 
ATOM     16  C   UNL A   1      34.332  18.898  24.740  1.00  0.00     0.031 A 
ATOM     17  C   UNL A   1      32.626  21.098  24.399  1.00  0.00     0.029 A 
ATOM     18  C   UNL A   1      32.974  18.706  24.516  1.00  0.00     0.041 A 
ATOM     19  C   UNL A   1      32.144  19.790  24.279  1.00  0.00     0.023 A 
ATOM     20  Cl  UNL A   1      32.315  17.122  24.517  1.00  0.00    -0.084 Cl
BRANCH  13  21
ATOM     21  C   UNL A   1      34.130  23.682  25.657  1.00  0.00     0.262 C 
ATOM     22  O   UNL A   1      33.678  23.796  26.800  1.00  0.00    -0.268 OA
BRANCH  21  23
ATOM     23  C   UNL A   1      34.031  24.917  24.839  1.00  0.00     0.040 A 
ATOM     24  C   UNL A   1      33.967  26.134  25.539  1.00  0.00     0.015 A 
ATOM     25  C   UNL A   1      33.862  24.917  23.450  1.00  0.00     0.015 A 
ATOM     26  C   UNL A   1      33.758  27.335  24.863  1.00  0.00     0.021 A 
ATOM     27  C   UNL A   1      33.687  26.129  22.768  1.00  0.00     0.021 A 
ATOM     28  C   UNL A   1      33.624  27.329  23.479  1.00  0.00     0.041 A 
ATOM     29  Cl  UNL A   1      33.345  28.807  22.646  1.00  0.00    -0.084 Cl
ENDBRANCH  21  23
ENDBRANCH  13  21
ENDBRANCH   5   7
ENDBRANCH   3   5
ENDBRANCH   2   3
ENDBRANCH   1   2
BRANCH   1  30
ATOM     30  C   UNL A   1      43.852  22.155  25.204  1.00  0.00     0.275 C 
BRANCH  30  31
ATOM     31  O   UNL A   1      43.346  23.488  24.995  1.00  0.00    -0.458 OA
BRANCH  31  32
ATOM     32  C   UNL A   1      44.229  24.482  25.242  1.00  0.00     0.338 C 
ATOM     33  O   UNL A   1      45.233  24.751  24.590  1.00  0.00    -0.246 OA
BRANCH  32  34
ATOM     34  C   UNL A   1      43.752  25.340  26.344  1.00  0.00     0.060 A 
ATOM     35  C   UNL A   1      42.907  24.750  27.283  1.00  0.00     0.016 A 
ATOM     36  C   UNL A   1      44.069  26.698  26.449  1.00  0.00     0.016 A 
ATOM     37  C   UNL A   1      42.416  25.496  28.351  1.00  0.00     0.010 A 
ATOM     38  C   UNL A   1      43.556  27.454  27.519  1.00  0.00     0.010 A 
ATOM     39  C   UNL A   1      42.739  26.850  28.487  1.00  0.00    -0.014 A 
BRANCH  39  40
ATOM     40  C   UNL A   1      42.127  27.599  29.614  1.00  0.00     0.031 A 
ATOM     41  C   UNL A   1      42.889  27.737  30.901  1.00  0.00     0.074 A 
ATOM     42  C   UNL A   1      41.002  28.318  29.434  1.00  0.00     0.049 A 
ATOM     43  N   UNL A   1      42.591  28.428  31.972  1.00  0.00    -0.248 NA
ATOM     44  C   UNL A   1      44.175  27.029  30.975  1.00  0.00     0.031 C 
ATOM     45  C   UNL A   1      40.269  28.431  28.175  1.00  0.00     0.029 A 
ATOM     46  N   UNL A   1      40.333  29.164  30.288  1.00  0.00    -0.354 N 
ATOM     47  C   UNL A   1      43.649  28.236  32.849  1.00  0.00     0.074 A 
ATOM     48  C   UNL A   1      44.600  27.371  32.183  1.00  0.00     0.031 C 
ATOM     49  C   UNL A   1      39.293  29.347  28.320  1.00  0.00     0.029 A 
ATOM     50  C   UNL A   1      39.286  29.835  29.699  1.00  0.00     0.049 A 
ATOM     51  H   UNL A   1      40.581  29.279  31.234  1.00  0.00     0.167 HD
ATOM     52  C   UNL A   1      43.810  28.723  34.102  1.00  0.00     0.037 A 
ATOM     53  C   UNL A   1      38.426  30.738  30.212  1.00  0.00     0.037 A 
ATOM     54  C   UNL A   1      42.867  29.573  34.781  1.00  0.00     0.049 A 
ATOM     55  C   UNL A   1      38.537  31.135  31.666  1.00  0.00     0.074 A 
ATOM     56  C   UNL A   1      42.919  30.050  36.079  1.00  0.00     0.029 A 
ATOM     57  N   UNL A   1      41.706  30.078  34.217  1.00  0.00    -0.354 N 
ATOM     58  N   UNL A   1      39.465  30.831  32.540  1.00  0.00    -0.248 NA
ATOM     59  C   UNL A   1      37.466  31.985  32.210  1.00  0.00     0.031 C 
ATOM     60  C   UNL A   1      41.763  30.799  36.319  1.00  0.00     0.029 A 
ATOM     61  C   UNL A   1      41.018  30.834  35.153  1.00  0.00     0.049 A 
ATOM     62  H   UNL A   1      41.414  29.921  33.290  1.00  0.00     0.167 HD
ATOM     63  C   UNL A   1      39.119  31.492  33.712  1.00  0.00     0.074 A 
ATOM     64  C   UNL A   1      37.888  32.201  33.447  1.00  0.00     0.031 C 
ATOM     65  C   UNL A   1      39.774  31.514  34.899  1.00  0.00     0.037 A 
BRANCH  52  66
ATOM     66  C   UNL A   1      45.026  28.278  34.855  1.00  0.00     0.057 A 
ATOM     67  C   UNL A   1      46.207  29.028  34.873  1.00  0.00     0.134 A 
ATOM     68  C   UNL A   1      45.000  27.086  35.589  1.00  0.00     0.134 A 
ATOM     69  F   UNL A   1      46.303  30.168  34.173  1.00  0.00    -0.206 F 
ATOM     70  C   UNL A   1      47.328  28.597  35.587  1.00  0.00     0.040 A 
ATOM     71  C   UNL A   1      46.105  26.658  36.325  1.00  0.00     0.040 A 
ATOM     72  F   UNL A   1      43.896  26.324  35.611  1.00  0.00    -0.206 F 
ATOM     73  C   UNL A   1      47.277  27.413  36.320  1.00  0.00     0.006 A 
ENDBRANCH  52  66
BRANCH  53  74
ATOM     74  C   UNL A   1      37.344  31.324  29.374  1.00  0.00     0.057 A 
ATOM     75  C   UNL A   1      37.424  32.635  28.884  1.00  0.00     0.134 A 
ATOM     76  C   UNL A   1      36.163  30.617  29.114  1.00  0.00     0.134 A 
ATOM     77  F   UNL A   1      38.514  33.380  29.121  1.00  0.00    -0.206 F 
ATOM     78  C   UNL A   1      36.362  33.228  28.197  1.00  0.00     0.040 A 
ATOM     79  C   UNL A   1      35.108  31.185  28.400  1.00  0.00     0.040 A 
ATOM     80  F   UNL A   1      36.013  29.361  29.562  1.00  0.00    -0.206 F 
ATOM     81  C   UNL A   1      35.200  32.500  27.951  1.00  0.00     0.006 A 
ENDBRANCH  53  74
BRANCH  65  82
ATOM     82  C   UNL A   1      39.169  32.318  36.016  1.00  0.00     0.057 A 
ATOM     83  C   UNL A   1      39.487  33.668  36.208  1.00  0.00     0.134 A 
ATOM     84  C   UNL A   1      38.216  31.753  36.875  1.00  0.00     0.134 A 
ATOM     85  F   UNL A   1      40.398  34.269  35.428  1.00  0.00    -0.206 F 
ATOM     86  C   UNL A   1      38.893  34.423  37.222  1.00  0.00     0.040 A 
ATOM     87  C   UNL A   1      37.596  32.505  37.876  1.00  0.00     0.040 A 
ATOM     88  F   UNL A   1      37.855  30.467  36.744  1.00  0.00    -0.206 F 
ATOM     89  C   UNL A   1      37.939  33.843  38.054  1.00  0.00     0.006 A 
ENDBRANCH  65  82
ENDBRANCH  39  40
ENDBRANCH  32  34
ENDBRANCH  31  32
ENDBRANCH  30  31
ENDBRANCH   1  30
TORSDOF 14
ENDMDL
MODEL 3
REMARK VINA RESULT:     -12.7      3.742      7.300
REMARK SMILES C[C@@H](C(=O)OCCOC(=O)c1ccc(-c2c3nc(c(-c4c(F)cccc4F)c4ccc([nH]4)c(-c4c(F)cccc4F)c4nc(c(-c5c(F)cccc5F)c5ccc2[nH]5)C=C4)C=C3)cc1)c1ccc2c3cc(Cl)ccc3n(C(=O)c3ccc(Cl)cc3)c2c1
REMARK SMILES IDX 6 1 5 2 3 3 4 4 2 5 1 6 65 7 66 8 87 9 67 10 86 11 68 12
REMARK SMILES IDX 76 13 69 14 75 15 70 16 74 17 71 18 73 19 72 20 77 21 78 22
REMARK SMILES IDX 79 23 80 24 85 25 81 26 84 27 82 28 83 29 7 30 8 31 9 32
REMARK SMILES IDX 10 33 11 34 12 35 64 36 13 37 63 38 14 39 15 40 16 41 57 42
REMARK SMILES IDX 17 43 62 44 56 45 58 46 18 47 61 48 55 49 54 50 19 52 45 53
REMARK SMILES IDX 28 54 44 55 29 56 32 57 43 58 59 59 30 60 31 61 42 63 60 64
REMARK SMILES IDX 33 65 20 66 21 67 26 68 22 69 23 70 25 71 27 72 24 73 46 74
REMARK SMILES IDX 47 75 52 76 48 77 49 78 51 79 53 80 50 81 34 82 35 83 40 84
REMARK SMILES IDX 36 85 37 86 39 87 41 88 38 89
REMARK H PARENT 58 51 32 62
REMARK Flexibility Score: inf
ROOT
ATOM      1  C   UNL A   1      31.477  29.291  24.462  1.00  0.00     0.274 C 
ENDROOT
BRANCH   1   2
ATOM      2  O   UNL A   1      31.047  27.977  24.868  1.00  0.00    -0.462 OA
BRANCH   2   3
ATOM      3  C   UNL A   1      31.891  26.943  24.578  1.00  0.00     0.313 C 
ATOM      4  O   UNL A   1      31.998  26.489  23.445  1.00  0.00    -0.252 OA
BRANCH   3   5
ATOM      5  C   UNL A   1      32.580  26.368  25.844  1.00  0.00     0.126 C 
ATOM      6  C   UNL A   1      33.904  27.122  26.114  1.00  0.00     0.025 C 
BRANCH   5   7
ATOM      7  C   UNL A   1      32.800  24.834  25.856  1.00  0.00    -0.032 A 
ATOM      8  C   UNL A   1      31.812  23.919  26.235  1.00  0.00     0.005 A 
ATOM      9  C   UNL A   1      34.056  24.298  25.493  1.00  0.00     0.032 A 
ATOM     10  C   UNL A   1      31.969  22.540  26.046  1.00  0.00     0.011 A 
ATOM     11  C   UNL A   1      34.240  22.900  25.343  1.00  0.00     0.057 A 
ATOM     12  C   UNL A   1      33.172  22.032  25.525  1.00  0.00     0.008 A 
ATOM     13  N   UNL A   1      35.362  22.133  24.973  1.00  0.00    -0.276 N 
ATOM     14  C   UNL A   1      33.582  20.754  25.067  1.00  0.00     0.009 A 
ATOM     15  C   UNL A   1      34.975  20.785  24.954  1.00  0.00     0.057 A 
ATOM     16  C   UNL A   1      32.890  19.560  24.776  1.00  0.00     0.031 A 
ATOM     17  C   UNL A   1      35.694  19.580  24.837  1.00  0.00     0.029 A 
ATOM     18  C   UNL A   1      33.609  18.413  24.459  1.00  0.00     0.041 A 
ATOM     19  C   UNL A   1      34.991  18.404  24.556  1.00  0.00     0.023 A 
ATOM     20  Cl  UNL A   1      32.789  16.992  23.957  1.00  0.00    -0.084 Cl
BRANCH  13  21
ATOM     21  C   UNL A   1      36.634  22.680  24.655  1.00  0.00     0.262 C 
ATOM     22  O   UNL A   1      36.762  23.206  23.546  1.00  0.00    -0.268 OA
BRANCH  21  23
ATOM     23  C   UNL A   1      37.867  22.696  25.482  1.00  0.00     0.040 A 
ATOM     24  C   UNL A   1      38.604  21.500  25.540  1.00  0.00     0.015 A 
ATOM     25  C   UNL A   1      38.244  23.771  26.294  1.00  0.00     0.015 A 
ATOM     26  C   UNL A   1      39.711  21.384  26.379  1.00  0.00     0.021 A 
ATOM     27  C   UNL A   1      39.377  23.665  27.111  1.00  0.00     0.021 A 
ATOM     28  C   UNL A   1      40.097  22.470  27.159  1.00  0.00     0.041 A 
ATOM     29  Cl  UNL A   1      41.449  22.322  28.210  1.00  0.00    -0.084 Cl
ENDBRANCH  21  23
ENDBRANCH  13  21
ENDBRANCH   5   7
ENDBRANCH   3   5
ENDBRANCH   2   3
ENDBRANCH   1   2
BRANCH   1  30
ATOM     30  C   UNL A   1      31.472  30.271  25.640  1.00  0.00     0.275 C 
BRANCH  30  31
ATOM     31  O   UNL A   1      32.713  30.238  26.373  1.00  0.00    -0.458 OA
BRANCH  31  32
ATOM     32  C   UNL A   1      33.021  31.379  27.031  1.00  0.00     0.338 C 
ATOM     33  O   UNL A   1      32.272  32.327  27.246  1.00  0.00    -0.246 OA
BRANCH  32  34
ATOM     34  C   UNL A   1      34.373  31.294  27.615  1.00  0.00     0.060 A 
ATOM     35  C   UNL A   1      34.807  30.033  28.022  1.00  0.00     0.016 A 
ATOM     36  C   UNL A   1      35.191  32.410  27.817  1.00  0.00     0.016 A 
ATOM     37  C   UNL A   1      36.071  29.873  28.583  1.00  0.00     0.010 A 
ATOM     38  C   UNL A   1      36.460  32.249  28.403  1.00  0.00     0.010 A 
ATOM     39  C   UNL A   1      36.914  30.973  28.773  1.00  0.00    -0.014 A 
BRANCH  39  40
ATOM     40  C   UNL A   1      38.222  30.737  29.437  1.00  0.00     0.031 A 
ATOM     41  C   UNL A   1      38.393  31.135  30.876  1.00  0.00     0.074 A 
ATOM     42  C   UNL A   1      39.176  29.999  28.839  1.00  0.00     0.049 A 
ATOM     43  N   UNL A   1      39.408  30.932  31.678  1.00  0.00    -0.248 NA
ATOM     44  C   UNL A   1      37.254  31.821  31.502  1.00  0.00     0.031 C 
ATOM     45  C   UNL A   1      39.059  29.384  27.519  1.00  0.00     0.029 A 
ATOM     46  N   UNL A   1      40.396  29.565  29.304  1.00  0.00    -0.354 N 
ATOM     47  C   UNL A   1      39.033  31.468  32.901  1.00  0.00     0.074 A 
ATOM     48  C   UNL A   1      37.695  31.997  32.740  1.00  0.00     0.031 C 
ATOM     49  C   UNL A   1      40.131  28.598  27.308  1.00  0.00     0.029 A 
ATOM     50  C   UNL A   1      41.044  28.706  28.446  1.00  0.00     0.049 A 
ATOM     51  H   UNL A   1      40.770  29.842  30.172  1.00  0.00     0.167 HD
ATOM     52  C   UNL A   1      39.742  31.527  34.053  1.00  0.00     0.037 A 
ATOM     53  C   UNL A   1      42.233  28.081  28.567  1.00  0.00     0.037 A 
ATOM     54  C   UNL A   1      41.077  31.017  34.223  1.00  0.00     0.049 A 
ATOM     55  C   UNL A   1      43.074  28.304  29.802  1.00  0.00     0.074 A 
ATOM     56  C   UNL A   1      41.895  31.104  35.337  1.00  0.00     0.029 A 
ATOM     57  N   UNL A   1      41.788  30.320  33.260  1.00  0.00    -0.354 N 
ATOM     58  N   UNL A   1      42.771  28.940  30.907  1.00  0.00    -0.248 NA
ATOM     59  C   UNL A   1      44.432  27.738  29.797  1.00  0.00     0.031 C 
ATOM     60  C   UNL A   1      43.121  30.507  35.029  1.00  0.00     0.029 A 
ATOM     61  C   UNL A   1      43.047  30.000  33.743  1.00  0.00     0.049 A 
ATOM     62  H   UNL A   1      41.449  30.088  32.365  1.00  0.00     0.167 HD
ATOM     63  C   UNL A   1      43.874  28.805  31.742  1.00  0.00     0.074 A 
ATOM     64  C   UNL A   1      44.861  28.041  31.013  1.00  0.00     0.031 C 
ATOM     65  C   UNL A   1      44.044  29.267  33.005  1.00  0.00     0.037 A 
BRANCH  52  66
ATOM     66  C   UNL A   1      39.110  32.246  35.205  1.00  0.00     0.057 A 
ATOM     67  C   UNL A   1      38.391  31.573  36.200  1.00  0.00     0.134 A 
ATOM     68  C   UNL A   1      39.245  33.635  35.325  1.00  0.00     0.134 A 
ATOM     69  F   UNL A   1      38.209  30.246  36.130  1.00  0.00    -0.206 F 
ATOM     70  C   UNL A   1      37.815  32.262  37.270  1.00  0.00     0.040 A 
ATOM     71  C   UNL A   1      38.693  34.330  36.402  1.00  0.00     0.040 A 
ATOM     72  F   UNL A   1      39.922  34.336  34.404  1.00  0.00    -0.206 F 
ATOM     73  C   UNL A   1      37.971  33.643  37.375  1.00  0.00     0.006 A 
ENDBRANCH  52  66
BRANCH  53  74
ATOM     74  C   UNL A   1      42.745  27.200  27.482  1.00  0.00     0.057 A 
ATOM     75  C   UNL A   1      43.430  27.721  26.376  1.00  0.00     0.134 A 
ATOM     76  C   UNL A   1      42.487  25.823  27.481  1.00  0.00     0.134 A 
ATOM     77  F   UNL A   1      43.686  29.035  26.296  1.00  0.00    -0.206 F 
ATOM     78  C   UNL A   1      43.809  26.914  25.300  1.00  0.00     0.040 A 
ATOM     79  C   UNL A   1      42.890  24.999  26.430  1.00  0.00     0.040 A 
ATOM     80  F   UNL A   1      41.827  25.258  28.504  1.00  0.00    -0.206 F 
ATOM     81  C   UNL A   1      43.541  25.548  25.327  1.00  0.00     0.006 A 
ENDBRANCH  53  74
BRANCH  65  82
ATOM     82  C   UNL A   1      45.353  28.978  33.685  1.00  0.00     0.057 A 
ATOM     83  C   UNL A   1      45.563  27.797  34.408  1.00  0.00     0.134 A 
ATOM     84  C   UNL A   1      46.435  29.861  33.568  1.00  0.00     0.134 A 
ATOM     85  F   UNL A   1      44.567  26.912  34.568  1.00  0.00    -0.206 F 
ATOM     86  C   UNL A   1      46.793  27.512  35.005  1.00  0.00     0.040 A 
ATOM     87  C   UNL A   1      47.678  29.574  34.138  1.00  0.00     0.040 A 
ATOM     88  F   UNL A   1      46.311  31.007  32.882  1.00  0.00    -0.206 F 
ATOM     89  C   UNL A   1      47.857  28.399  34.864  1.00  0.00     0.006 A 
ENDBRANCH  65  82
ENDBRANCH  39  40
ENDBRANCH  32  34
ENDBRANCH  31  32
ENDBRANCH  30  31
ENDBRANCH   1  30
TORSDOF 14
ENDMDL
