MODEL 1
REMARK VINA RESULT:     -11.4      0.000      0.000
REMARK SMILES Nc1ncc(C(=O)OCCOC(=O)c2ccc(-c3c4nc(c(-c5c(F)cccc5F)c5ccc([nH]5)c(-c5c(F)cccc5F)c5nc(c(-c6c(F)cccc6F)c6ccc3[nH]6)C=C5)C=C4)cc2)c(-c2ccccc2)n1
REMARK SMILES IDX 10 1 9 2 8 3 6 4 7 5 5 6 2 7 3 8 75 9 4 10 68 11 1 12 69 15
REMARK SMILES IDX 70 16 74 17 71 18 73 19 72 20 11 21 12 22 13 23 14 24 15 25
REMARK SMILES IDX 67 26 16 27 66 28 17 29 18 30 19 31 60 32 20 33 65 34 59 35
REMARK SMILES IDX 61 36 21 37 64 38 58 39 57 40 22 42 48 43 31 44 47 45 32 46
REMARK SMILES IDX 35 47 46 48 62 49 33 50 34 51 45 53 63 54 36 55 23 56 24 57
REMARK SMILES IDX 29 58 25 59 26 60 28 61 30 62 27 63 49 64 50 65 55 66 51 67
REMARK SMILES IDX 52 68 54 69 56 70 53 71 37 72 38 73 43 74 39 75 40 76 42 77
REMARK SMILES IDX 44 78 41 79
REMARK H PARENT 1 13 1 14 61 41 35 52
REMARK Flexibility Score: inf
ROOT
ATOM      1  C   UNL A   1      31.823  30.296  25.736  1.00  0.00     0.275 C 
ENDROOT
BRANCH   1   2
ATOM      2  C   UNL A   1      32.715  29.376  24.905  1.00  0.00     0.275 C 
BRANCH   2   3
ATOM      3  O   UNL A   1      32.737  28.042  25.454  1.00  0.00    -0.458 OA
BRANCH   3   4
ATOM      4  C   UNL A   1      31.725  27.211  25.111  1.00  0.00     0.342 C 
ATOM      5  O   UNL A   1      30.787  26.880  25.810  1.00  0.00    -0.246 OA
BRANCH   4   6
ATOM      6  C   UNL A   1      31.840  26.784  23.706  1.00  0.00     0.104 A 
ATOM      7  C   UNL A   1      32.211  25.912  21.164  1.00  0.00     0.220 A 
ATOM      8  N   UNL A   1      33.098  25.531  22.082  1.00  0.00    -0.221 NA
ATOM      9  N   UNL A   1      31.166  26.713  21.405  1.00  0.00    -0.212 NA
ATOM     10  C   UNL A   1      32.901  25.991  23.332  1.00  0.00     0.133 A 
ATOM     11  C   UNL A   1      30.989  27.154  22.681  1.00  0.00     0.090 A 
BRANCH   7  12
ATOM     12  N   UNL A   1      32.418  25.477  19.890  1.00  0.00    -0.368 N 
ATOM     13  H   UNL A   1      32.614  24.527  19.720  1.00  0.00     0.159 HD
ATOM     14  H   UNL A   1      32.371  26.112  19.140  1.00  0.00     0.159 HD
ENDBRANCH   7  12
BRANCH  11  15
ATOM     15  C   UNL A   1      29.849  28.063  22.869  1.00  0.00     0.001 A 
ATOM     16  C   UNL A   1      28.594  27.589  23.298  1.00  0.00     0.010 A 
ATOM     17  C   UNL A   1      29.966  29.421  22.535  1.00  0.00     0.010 A 
ATOM     18  C   UNL A   1      27.477  28.424  23.306  1.00  0.00     0.001 A 
ATOM     19  C   UNL A   1      28.850  30.260  22.556  1.00  0.00     0.001 A 
ATOM     20  C   UNL A   1      27.604  29.756  22.923  1.00  0.00     0.000 A 
ENDBRANCH  11  15
ENDBRANCH   4   6
ENDBRANCH   3   4
ENDBRANCH   2   3
ENDBRANCH   1   2
BRANCH   1  21
ATOM     21  O   UNL A   1      32.366  30.454  27.059  1.00  0.00    -0.458 OA
BRANCH  21  22
ATOM     22  C   UNL A   1      33.008  31.625  27.262  1.00  0.00     0.338 C 
ATOM     23  O   UNL A   1      32.545  32.752  27.221  1.00  0.00    -0.246 OA
BRANCH  22  24
ATOM     24  C   UNL A   1      34.377  31.361  27.711  1.00  0.00     0.060 A 
ATOM     25  C   UNL A   1      34.691  30.050  28.049  1.00  0.00     0.016 A 
ATOM     26  C   UNL A   1      35.273  32.391  27.969  1.00  0.00     0.016 A 
ATOM     27  C   UNL A   1      35.855  29.762  28.746  1.00  0.00     0.010 A 
ATOM     28  C   UNL A   1      36.495  32.088  28.582  1.00  0.00     0.010 A 
ATOM     29  C   UNL A   1      36.782  30.777  29.012  1.00  0.00    -0.014 A 
BRANCH  29  30
ATOM     30  C   UNL A   1      38.024  30.470  29.769  1.00  0.00     0.031 A 
ATOM     31  C   UNL A   1      39.096  29.615  29.145  1.00  0.00     0.074 A 
ATOM     32  C   UNL A   1      38.202  30.964  31.011  1.00  0.00     0.049 A 
ATOM     33  N   UNL A   1      40.152  29.075  29.698  1.00  0.00    -0.248 NA
ATOM     34  C   UNL A   1      38.949  29.314  27.712  1.00  0.00     0.031 C 
ATOM     35  C   UNL A   1      37.272  31.852  31.713  1.00  0.00     0.029 A 
ATOM     36  N   UNL A   1      39.228  30.790  31.907  1.00  0.00    -0.354 N 
ATOM     37  C   UNL A   1      40.762  28.327  28.698  1.00  0.00     0.074 A 
ATOM     38  C   UNL A   1      39.953  28.473  27.508  1.00  0.00     0.031 C 
ATOM     39  C   UNL A   1      37.781  32.167  32.913  1.00  0.00     0.029 A 
ATOM     40  C   UNL A   1      39.022  31.427  33.107  1.00  0.00     0.049 A 
ATOM     41  H   UNL A   1      40.033  30.261  31.708  1.00  0.00     0.167 HD
ATOM     42  C   UNL A   1      41.894  27.586  28.771  1.00  0.00     0.037 A 
ATOM     43  C   UNL A   1      39.719  31.381  34.256  1.00  0.00     0.037 A 
ATOM     44  C   UNL A   1      42.718  27.489  29.950  1.00  0.00     0.049 A 
ATOM     45  C   UNL A   1      40.942  30.511  34.329  1.00  0.00     0.074 A 
ATOM     46  C   UNL A   1      43.893  26.780  30.125  1.00  0.00     0.029 A 
ATOM     47  N   UNL A   1      42.457  28.131  31.152  1.00  0.00    -0.354 N 
ATOM     48  N   UNL A   1      41.486  29.770  33.393  1.00  0.00    -0.248 NA
ATOM     49  C   UNL A   1      41.639  30.459  35.620  1.00  0.00     0.031 C 
ATOM     50  C   UNL A   1      44.317  26.954  31.446  1.00  0.00     0.029 A 
ATOM     51  C   UNL A   1      43.438  27.819  32.078  1.00  0.00     0.049 A 
ATOM     52  H   UNL A   1      41.687  28.721  31.322  1.00  0.00     0.167 HD
ATOM     53  C   UNL A   1      42.601  29.184  33.974  1.00  0.00     0.074 A 
ATOM     54  C   UNL A   1      42.665  29.667  35.339  1.00  0.00     0.031 C 
ATOM     55  C   UNL A   1      43.491  28.320  33.428  1.00  0.00     0.037 A 
BRANCH  42  56
ATOM     56  C   UNL A   1      42.290  26.792  27.559  1.00  0.00     0.057 A 
ATOM     57  C   UNL A   1      41.886  25.464  27.367  1.00  0.00     0.134 A 
ATOM     58  C   UNL A   1      43.060  27.382  26.547  1.00  0.00     0.134 A 
ATOM     59  F   UNL A   1      41.158  24.833  28.300  1.00  0.00    -0.206 F 
ATOM     60  C   UNL A   1      42.257  24.745  26.227  1.00  0.00     0.040 A 
ATOM     61  C   UNL A   1      43.411  26.684  25.391  1.00  0.00     0.040 A 
ATOM     62  F   UNL A   1      43.475  28.653  26.661  1.00  0.00    -0.206 F 
ATOM     63  C   UNL A   1      43.015  25.358  25.232  1.00  0.00     0.006 A 
ENDBRANCH  42  56
BRANCH  43  64
ATOM     64  C   UNL A   1      39.251  32.143  35.443  1.00  0.00     0.057 A 
ATOM     65  C   UNL A   1      39.640  33.470  35.651  1.00  0.00     0.134 A 
ATOM     66  C   UNL A   1      38.402  31.564  36.395  1.00  0.00     0.134 A 
ATOM     67  F   UNL A   1      40.468  34.075  34.787  1.00  0.00    -0.206 F 
ATOM     68  C   UNL A   1      39.214  34.190  36.770  1.00  0.00     0.040 A 
ATOM     69  C   UNL A   1      37.943  32.281  37.500  1.00  0.00     0.040 A 
ATOM     70  F   UNL A   1      37.988  30.296  36.253  1.00  0.00    -0.206 F 
ATOM     71  C   UNL A   1      38.356  33.598  37.694  1.00  0.00     0.006 A 
ENDBRANCH  43  64
BRANCH  55  72
ATOM     72  C   UNL A   1      44.639  27.887  34.292  1.00  0.00     0.057 A 
ATOM     73  C   UNL A   1      45.826  28.624  34.373  1.00  0.00     0.134 A 
ATOM     74  C   UNL A   1      44.538  26.732  35.079  1.00  0.00     0.134 A 
ATOM     75  F   UNL A   1      45.993  29.730  33.633  1.00  0.00    -0.206 F 
ATOM     76  C   UNL A   1      46.883  28.213  35.186  1.00  0.00     0.040 A 
ATOM     77  C   UNL A   1      45.575  26.328  35.918  1.00  0.00     0.040 A 
ATOM     78  F   UNL A   1      43.423  25.986  35.053  1.00  0.00    -0.206 F 
ATOM     79  C   UNL A   1      46.756  27.065  35.968  1.00  0.00     0.006 A 
ENDBRANCH  55  72
ENDBRANCH  29  30
ENDBRANCH  22  24
ENDBRANCH  21  22
ENDBRANCH   1  21
TORSDOF 13
ENDMDL
MODEL 2
REMARK VINA RESULT:     -11.4      4.801      9.139
REMARK SMILES Nc1ncc(C(=O)OCCOC(=O)c2ccc(-c3c4nc(c(-c5c(F)cccc5F)c5ccc([nH]5)c(-c5c(F)cccc5F)c5nc(c(-c6c(F)cccc6F)c6ccc3[nH]6)C=C5)C=C4)cc2)c(-c2ccccc2)n1
REMARK SMILES IDX 10 1 9 2 8 3 6 4 7 5 5 6 2 7 3 8 75 9 4 10 68 11 1 12 69 15
REMARK SMILES IDX 70 16 74 17 71 18 73 19 72 20 11 21 12 22 13 23 14 24 15 25
REMARK SMILES IDX 67 26 16 27 66 28 17 29 18 30 19 31 60 32 20 33 65 34 59 35
REMARK SMILES IDX 61 36 21 37 64 38 58 39 57 40 22 42 48 43 31 44 47 45 32 46
REMARK SMILES IDX 35 47 46 48 62 49 33 50 34 51 45 53 63 54 36 55 23 56 24 57
REMARK SMILES IDX 29 58 25 59 26 60 28 61 30 62 27 63 49 64 50 65 55 66 51 67
REMARK SMILES IDX 52 68 54 69 56 70 53 71 37 72 38 73 43 74 39 75 40 76 42 77
REMARK SMILES IDX 44 78 41 79
REMARK H PARENT 1 13 1 14 61 41 35 52
REMARK Flexibility Score: inf
ROOT
ATOM      1  C   UNL A   1      36.388  20.857  25.099  1.00  0.00     0.275 C 
ENDROOT
BRANCH   1   2
ATOM      2  C   UNL A   1      35.464  21.468  26.149  1.00  0.00     0.275 C 
BRANCH   2   3
ATOM      3  O   UNL A   1      35.257  22.874  25.901  1.00  0.00    -0.458 OA
BRANCH   3   4
ATOM      4  C   UNL A   1      34.334  23.214  24.971  1.00  0.00     0.342 C 
ATOM      5  O   UNL A   1      34.539  23.451  23.796  1.00  0.00    -0.246 OA
BRANCH   4   6
ATOM      6  C   UNL A   1      32.974  23.193  25.538  1.00  0.00     0.104 A 
ATOM      7  C   UNL A   1      30.519  23.303  26.685  1.00  0.00     0.220 A 
ATOM      8  N   UNL A   1      31.399  24.246  27.021  1.00  0.00    -0.221 NA
ATOM      9  N   UNL A   1      30.772  22.295  25.842  1.00  0.00    -0.212 NA
ATOM     10  C   UNL A   1      32.615  24.159  26.451  1.00  0.00     0.133 A 
ATOM     11  C   UNL A   1      32.008  22.241  25.275  1.00  0.00     0.090 A 
BRANCH   7  12
ATOM     12  N   UNL A   1      29.295  23.364  27.280  1.00  0.00    -0.368 N 
ATOM     13  H   UNL A   1      28.511  23.661  26.764  1.00  0.00     0.159 HD
ATOM     14  H   UNL A   1      29.195  23.111  28.226  1.00  0.00     0.159 HD
ENDBRANCH   7  12
BRANCH  11  15
ATOM     15  C   UNL A   1      32.234  21.087  24.392  1.00  0.00     0.001 A 
ATOM     16  C   UNL A   1      32.067  21.185  22.997  1.00  0.00     0.010 A 
ATOM     17  C   UNL A   1      32.535  19.829  24.937  1.00  0.00     0.010 A 
ATOM     18  C   UNL A   1      32.113  20.050  22.188  1.00  0.00     0.001 A 
ATOM     19  C   UNL A   1      32.593  18.695  24.125  1.00  0.00     0.001 A 
ATOM     20  C   UNL A   1      32.364  18.804  22.754  1.00  0.00     0.000 A 
ENDBRANCH  11  15
ENDBRANCH   4   6
ENDBRANCH   3   4
ENDBRANCH   2   3
ENDBRANCH   1   2
BRANCH   1  21
ATOM     21  O   UNL A   1      37.580  21.651  24.962  1.00  0.00    -0.458 OA
BRANCH  21  22
ATOM     22  C   UNL A   1      38.622  21.224  25.708  1.00  0.00     0.338 C 
ATOM     23  O   UNL A   1      39.114  20.109  25.742  1.00  0.00    -0.246 OA
BRANCH  22  24
ATOM     24  C   UNL A   1      39.226  22.363  26.404  1.00  0.00     0.060 A 
ATOM     25  C   UNL A   1      38.763  23.629  26.064  1.00  0.00     0.016 A 
ATOM     26  C   UNL A   1      40.334  22.212  27.229  1.00  0.00     0.016 A 
ATOM     27  C   UNL A   1      39.464  24.762  26.453  1.00  0.00     0.010 A 
ATOM     28  C   UNL A   1      40.982  23.358  27.706  1.00  0.00     0.010 A 
ATOM     29  C   UNL A   1      40.578  24.643  27.292  1.00  0.00    -0.014 A 
BRANCH  29  30
ATOM     30  C   UNL A   1      41.336  25.857  27.699  1.00  0.00     0.031 A 
ATOM     31  C   UNL A   1      40.675  26.905  28.555  1.00  0.00     0.074 A 
ATOM     32  C   UNL A   1      42.618  26.017  27.315  1.00  0.00     0.049 A 
ATOM     33  N   UNL A   1      41.088  28.111  28.854  1.00  0.00    -0.248 NA
ATOM     34  C   UNL A   1      39.369  26.557  29.136  1.00  0.00     0.031 C 
ATOM     35  C   UNL A   1      43.398  25.053  26.534  1.00  0.00     0.029 A 
ATOM     36  N   UNL A   1      43.495  27.051  27.529  1.00  0.00    -0.354 N 
ATOM     37  C   UNL A   1      40.069  28.683  29.608  1.00  0.00     0.074 A 
ATOM     38  C   UNL A   1      39.016  27.697  29.712  1.00  0.00     0.031 C 
ATOM     39  C   UNL A   1      44.640  25.527  26.360  1.00  0.00     0.029 A 
ATOM     40  C   UNL A   1      44.717  26.867  26.928  1.00  0.00     0.049 A 
ATOM     41  H   UNL A   1      43.269  27.848  28.061  1.00  0.00     0.167 HD
ATOM     42  C   UNL A   1      40.022  29.919  30.161  1.00  0.00     0.037 A 
ATOM     43  C   UNL A   1      45.765  27.700  26.798  1.00  0.00     0.037 A 
ATOM     44  C   UNL A   1      41.100  30.873  30.091  1.00  0.00     0.049 A 
ATOM     45  C   UNL A   1      45.669  29.084  27.374  1.00  0.00     0.074 A 
ATOM     46  C   UNL A   1      41.162  32.146  30.631  1.00  0.00     0.029 A 
ATOM     47  N   UNL A   1      42.311  30.653  29.451  1.00  0.00    -0.354 N 
ATOM     48  N   UNL A   1      44.685  29.633  28.045  1.00  0.00    -0.248 NA
ATOM     49  C   UNL A   1      46.821  29.969  27.163  1.00  0.00     0.031 C 
ATOM     50  C   UNL A   1      42.390  32.713  30.277  1.00  0.00     0.029 A 
ATOM     51  C   UNL A   1      43.118  31.773  29.565  1.00  0.00     0.049 A 
ATOM     52  H   UNL A   1      42.560  29.823  28.983  1.00  0.00     0.167 HD
ATOM     53  C   UNL A   1      45.109  30.917  28.357  1.00  0.00     0.074 A 
ATOM     54  C   UNL A   1      46.445  31.060  27.815  1.00  0.00     0.031 C 
ATOM     55  C   UNL A   1      44.450  31.892  29.029  1.00  0.00     0.037 A 
BRANCH  42  56
ATOM     56  C   UNL A   1      38.755  30.326  30.856  1.00  0.00     0.057 A 
ATOM     57  C   UNL A   1      38.532  30.083  32.217  1.00  0.00     0.134 A 
ATOM     58  C   UNL A   1      37.752  31.010  30.153  1.00  0.00     0.134 A 
ATOM     59  F   UNL A   1      39.444  29.424  32.948  1.00  0.00    -0.206 F 
ATOM     60  C   UNL A   1      37.350  30.479  32.847  1.00  0.00     0.040 A 
ATOM     61  C   UNL A   1      36.579  31.436  30.778  1.00  0.00     0.040 A 
ATOM     62  F   UNL A   1      37.900  31.283  28.848  1.00  0.00    -0.206 F 
ATOM     63  C   UNL A   1      36.373  31.164  32.129  1.00  0.00     0.006 A 
ENDBRANCH  42  56
BRANCH  43  64
ATOM     64  C   UNL A   1      46.974  27.265  26.051  1.00  0.00     0.057 A 
ATOM     65  C   UNL A   1      47.074  27.443  24.667  1.00  0.00     0.134 A 
ATOM     66  C   UNL A   1      48.058  26.662  26.702  1.00  0.00     0.134 A 
ATOM     67  F   UNL A   1      46.061  27.994  23.982  1.00  0.00    -0.206 F 
ATOM     68  C   UNL A   1      48.200  27.024  23.955  1.00  0.00     0.040 A 
ATOM     69  C   UNL A   1      49.203  26.269  26.009  1.00  0.00     0.040 A 
ATOM     70  F   UNL A   1      48.028  26.466  28.029  1.00  0.00    -0.206 F 
ATOM     71  C   UNL A   1      49.273  26.444  24.629  1.00  0.00     0.006 A 
ENDBRANCH  43  64
BRANCH  55  72
ATOM     72  C   UNL A   1      45.187  33.178  29.262  1.00  0.00     0.057 A 
ATOM     73  C   UNL A   1      46.017  33.368  30.373  1.00  0.00     0.134 A 
ATOM     74  C   UNL A   1      45.088  34.229  28.340  1.00  0.00     0.134 A 
ATOM     75  F   UNL A   1      46.142  32.407  31.301  1.00  0.00    -0.206 F 
ATOM     76  C   UNL A   1      46.703  34.566  30.573  1.00  0.00     0.040 A 
ATOM     77  C   UNL A   1      45.792  35.420  28.513  1.00  0.00     0.040 A 
ATOM     78  F   UNL A   1      44.316  34.107  27.249  1.00  0.00    -0.206 F 
ATOM     79  C   UNL A   1      46.597  35.595  29.637  1.00  0.00     0.006 A 
ENDBRANCH  55  72
ENDBRANCH  29  30
ENDBRANCH  22  24
ENDBRANCH  21  22
ENDBRANCH   1  21
TORSDOF 13
ENDMDL
MODEL 3
REMARK VINA RESULT:     -11.3      4.676      9.026
REMARK SMILES Nc1ncc(C(=O)OCCOC(=O)c2ccc(-c3c4nc(c(-c5c(F)cccc5F)c5ccc([nH]5)c(-c5c(F)cccc5F)c5nc(c(-c6c(F)cccc6F)c6ccc3[nH]6)C=C5)C=C4)cc2)c(-c2ccccc2)n1
REMARK SMILES IDX 10 1 9 2 8 3 6 4 7 5 5 6 2 7 3 8 75 9 4 10 68 11 1 12 69 15
REMARK SMILES IDX 70 16 74 17 71 18 73 19 72 20 11 21 12 22 13 23 14 24 15 25
REMARK SMILES IDX 67 26 16 27 66 28 17 29 18 30 19 31 60 32 20 33 65 34 59 35
REMARK SMILES IDX 61 36 21 37 64 38 58 39 57 40 22 42 48 43 31 44 47 45 32 46
REMARK SMILES IDX 35 47 46 48 62 49 33 50 34 51 45 53 63 54 36 55 23 56 24 57
REMARK SMILES IDX 29 58 25 59 26 60 28 61 30 62 27 63 49 64 50 65 55 66 51 67
REMARK SMILES IDX 52 68 54 69 56 70 53 71 37 72 38 73 43 74 39 75 40 76 42 77
REMARK SMILES IDX 44 78 41 79
REMARK H PARENT 1 13 1 14 61 41 35 52
REMARK Flexibility Score: inf
ROOT
ATOM      1  C   UNL A   1      36.366  20.944  25.376  1.00  0.00     0.275 C 
ENDROOT
BRANCH   1   2
ATOM      2  C   UNL A   1      35.375  21.955  25.948  1.00  0.00     0.275 C 
BRANCH   2   3
ATOM      3  O   UNL A   1      34.314  21.291  26.666  1.00  0.00    -0.458 OA
BRANCH   3   4
ATOM      4  C   UNL A   1      33.049  21.479  26.222  1.00  0.00     0.342 C 
ATOM      5  O   UNL A   1      32.263  22.324  26.604  1.00  0.00    -0.246 OA
BRANCH   4   6
ATOM      6  C   UNL A   1      32.728  20.555  25.120  1.00  0.00     0.104 A 
ATOM      7  C   UNL A   1      32.173  18.713  23.207  1.00  0.00     0.220 A 
ATOM      8  N   UNL A   1      32.471  18.266  24.427  1.00  0.00    -0.221 NA
ATOM      9  N   UNL A   1      32.153  20.005  22.858  1.00  0.00    -0.212 NA
ATOM     10  C   UNL A   1      32.759  19.199  25.353  1.00  0.00     0.133 A 
ATOM     11  C   UNL A   1      32.440  20.925  23.820  1.00  0.00     0.090 A 
BRANCH   7  12
ATOM     12  N   UNL A   1      31.909  17.776  22.255  1.00  0.00    -0.368 N 
ATOM     13  H   UNL A   1      31.530  16.905  22.514  1.00  0.00     0.159 HD
ATOM     14  H   UNL A   1      32.098  17.970  21.309  1.00  0.00     0.159 HD
ENDBRANCH   7  12
BRANCH  11  15
ATOM     15  C   UNL A   1      32.442  22.321  23.360  1.00  0.00     0.001 A 
ATOM     16  C   UNL A   1      33.629  22.956  22.946  1.00  0.00     0.010 A 
ATOM     17  C   UNL A   1      31.265  23.084  23.411  1.00  0.00     0.010 A 
ATOM     18  C   UNL A   1      33.654  24.325  22.679  1.00  0.00     0.001 A 
ATOM     19  C   UNL A   1      31.288  24.452  23.131  1.00  0.00     0.001 A 
ATOM     20  C   UNL A   1      32.486  25.074  22.784  1.00  0.00     0.000 A 
ENDBRANCH  11  15
ENDBRANCH   4   6
ENDBRANCH   3   4
ENDBRANCH   2   3
ENDBRANCH   1   2
BRANCH   1  21
ATOM     21  O   UNL A   1      37.601  21.596  25.032  1.00  0.00    -0.458 OA
BRANCH  21  22
ATOM     22  C   UNL A   1      38.667  21.187  25.753  1.00  0.00     0.338 C 
ATOM     23  O   UNL A   1      39.180  20.081  25.772  1.00  0.00    -0.246 OA
BRANCH  22  24
ATOM     24  C   UNL A   1      39.265  22.335  26.439  1.00  0.00     0.060 A 
ATOM     25  C   UNL A   1      38.762  23.592  26.124  1.00  0.00     0.016 A 
ATOM     26  C   UNL A   1      40.402  22.205  27.227  1.00  0.00     0.016 A 
ATOM     27  C   UNL A   1      39.448  24.739  26.500  1.00  0.00     0.010 A 
ATOM     28  C   UNL A   1      41.038  23.362  27.693  1.00  0.00     0.010 A 
ATOM     29  C   UNL A   1      40.590  24.640  27.303  1.00  0.00    -0.014 A 
BRANCH  29  30
ATOM     30  C   UNL A   1      41.331  25.868  27.696  1.00  0.00     0.031 A 
ATOM     31  C   UNL A   1      40.656  26.918  28.539  1.00  0.00     0.074 A 
ATOM     32  C   UNL A   1      42.611  26.042  27.310  1.00  0.00     0.049 A 
ATOM     33  N   UNL A   1      41.052  28.132  28.825  1.00  0.00    -0.248 NA
ATOM     34  C   UNL A   1      39.354  26.558  29.124  1.00  0.00     0.031 C 
ATOM     35  C   UNL A   1      43.404  25.080  26.540  1.00  0.00     0.029 A 
ATOM     36  N   UNL A   1      43.474  27.090  27.512  1.00  0.00    -0.354 N 
ATOM     37  C   UNL A   1      40.026  28.699  29.572  1.00  0.00     0.074 A 
ATOM     38  C   UNL A   1      38.986  27.700  29.687  1.00  0.00     0.031 C 
ATOM     39  C   UNL A   1      44.640  25.568  26.361  1.00  0.00     0.029 A 
ATOM     40  C   UNL A   1      44.698  26.915  26.914  1.00  0.00     0.049 A 
ATOM     41  H   UNL A   1      43.237  27.890  28.035  1.00  0.00     0.167 HD
ATOM     42  C   UNL A   1      39.962  29.941  30.110  1.00  0.00     0.037 A 
ATOM     43  C   UNL A   1      45.736  27.761  26.773  1.00  0.00     0.037 A 
ATOM     44  C   UNL A   1      41.027  30.909  30.030  1.00  0.00     0.049 A 
ATOM     45  C   UNL A   1      45.620  29.150  27.334  1.00  0.00     0.074 A 
ATOM     46  C   UNL A   1      41.071  32.188  30.555  1.00  0.00     0.029 A 
ATOM     47  N   UNL A   1      42.240  30.698  29.392  1.00  0.00    -0.354 N 
ATOM     48  N   UNL A   1      44.629  29.694  27.999  1.00  0.00    -0.248 NA
ATOM     49  C   UNL A   1      46.761  30.048  27.112  1.00  0.00     0.031 C 
ATOM     50  C   UNL A   1      42.291  32.768  30.194  1.00  0.00     0.029 A 
ATOM     51  C   UNL A   1      43.032  31.829  29.494  1.00  0.00     0.049 A 
ATOM     52  H   UNL A   1      42.501  29.866  28.934  1.00  0.00     0.167 HD
ATOM     53  C   UNL A   1      45.035  30.987  28.295  1.00  0.00     0.074 A 
ATOM     54  C   UNL A   1      46.369  31.141  27.752  1.00  0.00     0.031 C 
ATOM     55  C   UNL A   1      44.363  31.961  28.956  1.00  0.00     0.037 A 
BRANCH  42  56
ATOM     56  C   UNL A   1      38.689  30.339  30.800  1.00  0.00     0.057 A 
ATOM     57  C   UNL A   1      38.470  30.110  32.165  1.00  0.00     0.134 A 
ATOM     58  C   UNL A   1      37.676  30.999  30.089  1.00  0.00     0.134 A 
ATOM     59  F   UNL A   1      39.391  29.474  32.903  1.00  0.00    -0.206 F 
ATOM     60  C   UNL A   1      37.282  30.497  32.790  1.00  0.00     0.040 A 
ATOM     61  C   UNL A   1      36.497  31.416  30.709  1.00  0.00     0.040 A 
ATOM     62  F   UNL A   1      37.820  31.257  28.780  1.00  0.00    -0.206 F 
ATOM     63  C   UNL A   1      36.295  31.159  32.063  1.00  0.00     0.006 A 
ENDBRANCH  42  56
BRANCH  43  64
ATOM     64  C   UNL A   1      46.950  27.333  26.032  1.00  0.00     0.057 A 
ATOM     65  C   UNL A   1      48.047  26.777  26.699  1.00  0.00     0.134 A 
ATOM     66  C   UNL A   1      47.043  27.468  24.641  1.00  0.00     0.134 A 
ATOM     67  F   UNL A   1      48.029  26.642  28.033  1.00  0.00    -0.206 F 
ATOM     68  C   UNL A   1      49.198  26.384  26.011  1.00  0.00     0.040 A 
ATOM     69  C   UNL A   1      48.173  27.050  23.938  1.00  0.00     0.040 A 
ATOM     70  F   UNL A   1      46.024  27.990  23.941  1.00  0.00    -0.206 F 
ATOM     71  C   UNL A   1      49.259  26.512  24.625  1.00  0.00     0.006 A 
ENDBRANCH  43  64
BRANCH  55  72
ATOM     72  C   UNL A   1      45.082  33.259  29.174  1.00  0.00     0.057 A 
ATOM     73  C   UNL A   1      45.908  33.473  30.284  1.00  0.00     0.134 A 
ATOM     74  C   UNL A   1      44.971  34.297  28.239  1.00  0.00     0.134 A 
ATOM     75  F   UNL A   1      46.045  32.525  31.224  1.00  0.00    -0.206 F 
ATOM     76  C   UNL A   1      46.578  34.683  30.470  1.00  0.00     0.040 A 
ATOM     77  C   UNL A   1      45.658  35.500  28.399  1.00  0.00     0.040 A 
ATOM     78  F   UNL A   1      44.202  34.152  27.149  1.00  0.00    -0.206 F 
ATOM     79  C   UNL A   1      46.459  35.699  29.521  1.00  0.00     0.006 A 
ENDBRANCH  55  72
ENDBRANCH  29  30
ENDBRANCH  22  24
ENDBRANCH  21  22
ENDBRANCH   1  21
TORSDOF 13
ENDMDL
