MODEL 1
REMARK VINA RESULT:     -11.9      0.000      0.000
REMARK SMILES COc1ccc([C@H]2[C@H](C(=O)OCCOC(=O)c3ccc(-c4c5nc(c(-c6c(F)cccc6F)c6ccc([nH]6)c(-c6c(F)cccc6F)c6nc(c(-c7c(F)cccc7F)c7ccc4[nH]7)C=C6)C=C5)cc3)CCN2c2ccc(F)cc2)cc1
REMARK SMILES IDX 12 1 11 2 9 3 10 4 8 5 7 6 73 7 71 8 72 9 6 10 3 11 4 12
REMARK SMILES IDX 82 13 5 14 81 15 2 16 1 17 74 18 75 19 80 20 76 21 79 22
REMARK SMILES IDX 77 23 78 24 13 25 14 26 15 27 16 28 17 29 18 30 70 31 19 32
REMARK SMILES IDX 69 33 20 34 21 35 22 36 63 37 23 38 68 39 62 40 64 41 24 42
REMARK SMILES IDX 67 43 61 44 60 45 25 47 51 48 34 49 50 50 35 51 38 52 49 53
REMARK SMILES IDX 65 54 36 55 37 56 48 58 66 59 39 60 26 61 27 62 32 63 28 64
REMARK SMILES IDX 29 65 31 66 33 67 30 68 52 69 53 70 58 71 54 72 55 73 57 74
REMARK SMILES IDX 59 75 56 76 40 77 41 78 46 79 42 80 43 81 45 82 47 83 44 84
REMARK H PARENT 64 46 38 57
REMARK Flexibility Score: inf
ROOT
ATOM      1  C   UNL A   1      39.446  22.281  26.484  1.00  0.00     0.274 C 
ENDROOT
BRANCH   1   2
ATOM      2  O   UNL A   1      38.185  22.900  26.160  1.00  0.00    -0.462 OA
BRANCH   2   3
ATOM      3  C   UNL A   1      37.370  22.241  25.302  1.00  0.00     0.311 C 
ATOM      4  O   UNL A   1      37.710  21.266  24.639  1.00  0.00    -0.252 OA
BRANCH   3   5
ATOM      5  C   UNL A   1      35.979  22.830  25.184  1.00  0.00     0.128 C 
ATOM      6  C   UNL A   1      35.021  22.064  24.255  1.00  0.00     0.127 C 
ATOM      7  N   UNL A   1      34.405  21.086  25.168  1.00  0.00    -0.364 N 
ATOM      8  C   UNL A   1      35.271  22.814  26.534  1.00  0.00     0.039 C 
ATOM      9  C   UNL A   1      34.583  21.453  26.572  1.00  0.00     0.118 C 
BRANCH   6  10
ATOM     10  C   UNL A   1      33.964  23.008  23.659  1.00  0.00    -0.024 A 
ATOM     11  C   UNL A   1      32.038  24.860  22.726  1.00  0.00     0.118 A 
ATOM     12  C   UNL A   1      33.395  25.176  22.691  1.00  0.00     0.047 A 
ATOM     13  C   UNL A   1      31.645  23.598  23.156  1.00  0.00     0.047 A 
ATOM     14  C   UNL A   1      34.349  24.259  23.149  1.00  0.00     0.010 A 
ATOM     15  C   UNL A   1      32.598  22.685  23.618  1.00  0.00     0.010 A 
BRANCH  11  16
ATOM     16  O   UNL A   1      31.186  25.838  22.290  1.00  0.00    -0.497 OA
ATOM     17  C   UNL A   1      31.651  27.169  22.491  1.00  0.00     0.278 C 
ENDBRANCH  11  16
ENDBRANCH   6  10
BRANCH   7  18
ATOM     18  C   UNL A   1      34.083  19.790  24.835  1.00  0.00     0.037 A 
ATOM     19  C   UNL A   1      32.736  19.412  24.705  1.00  0.00     0.029 A 
ATOM     20  C   UNL A   1      35.053  18.797  24.631  1.00  0.00     0.029 A 
ATOM     21  C   UNL A   1      32.370  18.104  24.378  1.00  0.00     0.041 A 
ATOM     22  C   UNL A   1      34.695  17.480  24.328  1.00  0.00     0.041 A 
ATOM     23  C   UNL A   1      33.356  17.147  24.202  1.00  0.00     0.123 A 
ATOM     24  F   UNL A   1      33.010  15.886  23.908  1.00  0.00    -0.207 F 
ENDBRANCH   7  18
ENDBRANCH   3   5
ENDBRANCH   2   3
ENDBRANCH   1   2
BRANCH   1  25
ATOM     25  C   UNL A   1      40.589  23.299  26.455  1.00  0.00     0.275 C 
BRANCH  25  26
ATOM     26  O   UNL A   1      40.117  24.606  26.079  1.00  0.00    -0.458 OA
BRANCH  26  27
ATOM     27  C   UNL A   1      41.068  25.567  26.048  1.00  0.00     0.338 C 
ATOM     28  O   UNL A   1      41.816  25.846  25.129  1.00  0.00    -0.246 OA
BRANCH  27  29
ATOM     29  C   UNL A   1      40.988  26.370  27.273  1.00  0.00     0.060 A 
ATOM     30  C   UNL A   1      39.980  26.062  28.191  1.00  0.00     0.016 A 
ATOM     31  C   UNL A   1      41.827  27.465  27.474  1.00  0.00     0.016 A 
ATOM     32  C   UNL A   1      39.787  26.864  29.308  1.00  0.00     0.010 A 
ATOM     33  C   UNL A   1      41.644  28.260  28.607  1.00  0.00     0.010 A 
ATOM     34  C   UNL A   1      40.615  27.972  29.521  1.00  0.00    -0.014 A 
BRANCH  34  35
ATOM     35  C   UNL A   1      40.379  28.855  30.685  1.00  0.00     0.031 A 
ATOM     36  C   UNL A   1      39.319  29.913  30.612  1.00  0.00     0.074 A 
ATOM     37  C   UNL A   1      41.114  28.701  31.800  1.00  0.00     0.049 A 
ATOM     38  N   UNL A   1      39.046  30.869  31.462  1.00  0.00    -0.248 NA
ATOM     39  C   UNL A   1      38.453  29.894  29.423  1.00  0.00     0.031 C 
ATOM     40  C   UNL A   1      42.135  27.672  32.003  1.00  0.00     0.029 A 
ATOM     41  N   UNL A   1      41.123  29.419  32.967  1.00  0.00    -0.354 N 
ATOM     42  C   UNL A   1      37.997  31.583  30.900  1.00  0.00     0.074 A 
ATOM     43  C   UNL A   1      37.685  30.954  29.634  1.00  0.00     0.031 C 
ATOM     44  C   UNL A   1      42.676  27.830  33.222  1.00  0.00     0.029 A 
ATOM     45  C   UNL A   1      42.078  28.999  33.859  1.00  0.00     0.049 A 
ATOM     46  H   UNL A   1      40.503  30.162  33.149  1.00  0.00     0.167 HD
ATOM     47  C   UNL A   1      37.357  32.667  31.399  1.00  0.00     0.037 A 
ATOM     48  C   UNL A   1      42.454  29.524  35.040  1.00  0.00     0.037 A 
ATOM     49  C   UNL A   1      37.660  33.273  32.667  1.00  0.00     0.049 A 
ATOM     50  C   UNL A   1      41.768  30.761  35.545  1.00  0.00     0.074 A 
ATOM     51  C   UNL A   1      37.060  34.366  33.268  1.00  0.00     0.029 A 
ATOM     52  N   UNL A   1      38.651  32.833  33.532  1.00  0.00    -0.354 N 
ATOM     53  N   UNL A   1      40.791  31.443  34.998  1.00  0.00    -0.248 NA
ATOM     54  C   UNL A   1      42.244  31.310  36.823  1.00  0.00     0.031 C 
ATOM     55  C   UNL A   1      37.712  34.608  34.483  1.00  0.00     0.029 A 
ATOM     56  C   UNL A   1      38.692  33.644  34.654  1.00  0.00     0.049 A 
ATOM     57  H   UNL A   1      39.239  32.060  33.372  1.00  0.00     0.167 HD
ATOM     58  C   UNL A   1      40.523  32.489  35.870  1.00  0.00     0.074 A 
ATOM     59  C   UNL A   1      41.434  32.347  36.987  1.00  0.00     0.031 C 
ATOM     60  C   UNL A   1      39.605  33.480  35.757  1.00  0.00     0.037 A 
BRANCH  47  61
ATOM     61  C   UNL A   1      36.285  33.283  30.552  1.00  0.00     0.057 A 
ATOM     62  C   UNL A   1      36.583  34.058  29.425  1.00  0.00     0.134 A 
ATOM     63  C   UNL A   1      34.933  33.076  30.858  1.00  0.00     0.134 A 
ATOM     64  F   UNL A   1      37.857  34.306  29.089  1.00  0.00    -0.206 F 
ATOM     65  C   UNL A   1      35.574  34.620  28.641  1.00  0.00     0.040 A 
ATOM     66  C   UNL A   1      33.916  33.616  30.070  1.00  0.00     0.040 A 
ATOM     67  F   UNL A   1      34.581  32.342  31.924  1.00  0.00    -0.206 F 
ATOM     68  C   UNL A   1      34.236  34.395  28.960  1.00  0.00     0.006 A 
ENDBRANCH  47  61
BRANCH  48  69
ATOM     69  C   UNL A   1      43.559  28.897  35.806  1.00  0.00     0.057 A 
ATOM     70  C   UNL A   1      44.869  29.376  35.707  1.00  0.00     0.134 A 
ATOM     71  C   UNL A   1      43.329  27.811  36.659  1.00  0.00     0.134 A 
ATOM     72  F   UNL A   1      45.154  30.400  34.890  1.00  0.00    -0.206 F 
ATOM     73  C   UNL A   1      45.914  28.794  36.426  1.00  0.00     0.040 A 
ATOM     74  C   UNL A   1      44.359  27.234  37.401  1.00  0.00     0.040 A 
ATOM     75  F   UNL A   1      42.093  27.308  36.795  1.00  0.00    -0.206 F 
ATOM     76  C   UNL A   1      45.658  27.723  37.282  1.00  0.00     0.006 A 
ENDBRANCH  48  69
BRANCH  60  77
ATOM     77  C   UNL A   1      39.522  34.467  36.879  1.00  0.00     0.057 A 
ATOM     78  C   UNL A   1      38.824  34.181  38.058  1.00  0.00     0.134 A 
ATOM     79  C   UNL A   1      40.190  35.695  36.799  1.00  0.00     0.134 A 
ATOM     80  F   UNL A   1      38.152  33.026  38.188  1.00  0.00    -0.206 F 
ATOM     81  C   UNL A   1      38.783  35.090  39.117  1.00  0.00     0.040 A 
ATOM     82  C   UNL A   1      40.173  36.603  37.859  1.00  0.00     0.040 A 
ATOM     83  F   UNL A   1      40.882  36.024  35.698  1.00  0.00    -0.206 F 
ATOM     84  C   UNL A   1      39.465  36.302  39.021  1.00  0.00     0.006 A 
ENDBRANCH  60  77
ENDBRANCH  34  35
ENDBRANCH  27  29
ENDBRANCH  26  27
ENDBRANCH  25  26
ENDBRANCH   1  25
TORSDOF 14
ENDMDL
MODEL 2
REMARK VINA RESULT:     -11.8      4.450      6.130
REMARK SMILES COc1ccc([C@H]2[C@H](C(=O)OCCOC(=O)c3ccc(-c4c5nc(c(-c6c(F)cccc6F)c6ccc([nH]6)c(-c6c(F)cccc6F)c6nc(c(-c7c(F)cccc7F)c7ccc4[nH]7)C=C6)C=C5)cc3)CCN2c2ccc(F)cc2)cc1
REMARK SMILES IDX 12 1 11 2 9 3 10 4 8 5 7 6 73 7 71 8 72 9 6 10 3 11 4 12
REMARK SMILES IDX 82 13 5 14 81 15 2 16 1 17 74 18 75 19 80 20 76 21 79 22
REMARK SMILES IDX 77 23 78 24 13 25 14 26 15 27 16 28 17 29 18 30 70 31 19 32
REMARK SMILES IDX 69 33 20 34 21 35 22 36 63 37 23 38 68 39 62 40 64 41 24 42
REMARK SMILES IDX 67 43 61 44 60 45 25 47 51 48 34 49 50 50 35 51 38 52 49 53
REMARK SMILES IDX 65 54 36 55 37 56 48 58 66 59 39 60 26 61 27 62 32 63 28 64
REMARK SMILES IDX 29 65 31 66 33 67 30 68 52 69 53 70 58 71 54 72 55 73 57 74
REMARK SMILES IDX 59 75 56 76 40 77 41 78 46 79 42 80 43 81 45 82 47 83 44 84
REMARK H PARENT 64 46 38 57
REMARK Flexibility Score: inf
ROOT
ATOM      1  C   UNL A   1      37.631  20.154  25.074  1.00  0.00     0.274 C 
ENDROOT
BRANCH   1   2
ATOM      2  O   UNL A   1      37.468  21.473  24.514  1.00  0.00    -0.462 OA
BRANCH   2   3
ATOM      3  C   UNL A   1      37.426  22.515  25.377  1.00  0.00     0.311 C 
ATOM      4  O   UNL A   1      38.320  22.788  26.172  1.00  0.00    -0.252 OA
BRANCH   3   5
ATOM      5  C   UNL A   1      36.147  23.325  25.318  1.00  0.00     0.128 C 
ATOM      6  C   UNL A   1      35.117  22.847  24.280  1.00  0.00     0.127 C 
ATOM      7  N   UNL A   1      34.326  21.867  25.043  1.00  0.00    -0.364 N 
ATOM      8  C   UNL A   1      35.397  23.244  26.643  1.00  0.00     0.039 C 
ATOM      9  C   UNL A   1      34.507  22.015  26.487  1.00  0.00     0.118 C 
BRANCH   6  10
ATOM     10  C   UNL A   1      34.240  24.014  23.800  1.00  0.00    -0.024 A 
ATOM     11  C   UNL A   1      32.755  26.191  22.767  1.00  0.00     0.118 A 
ATOM     12  C   UNL A   1      32.721  24.950  22.133  1.00  0.00     0.047 A 
ATOM     13  C   UNL A   1      33.468  26.330  23.952  1.00  0.00     0.047 A 
ATOM     14  C   UNL A   1      33.452  23.872  22.646  1.00  0.00     0.010 A 
ATOM     15  C   UNL A   1      34.202  25.254  24.460  1.00  0.00     0.010 A 
BRANCH  11  16
ATOM     16  O   UNL A   1      32.037  27.188  22.166  1.00  0.00    -0.497 OA
ATOM     17  C   UNL A   1      30.693  27.315  22.621  1.00  0.00     0.278 C 
ENDBRANCH  11  16
ENDBRANCH   6  10
BRANCH   7  18
ATOM     18  C   UNL A   1      33.821  20.692  24.534  1.00  0.00     0.037 A 
ATOM     19  C   UNL A   1      34.500  19.482  24.752  1.00  0.00     0.029 A 
ATOM     20  C   UNL A   1      32.643  20.641  23.774  1.00  0.00     0.029 A 
ATOM     21  C   UNL A   1      34.024  18.271  24.243  1.00  0.00     0.041 A 
ATOM     22  C   UNL A   1      32.172  19.438  23.239  1.00  0.00     0.041 A 
ATOM     23  C   UNL A   1      32.867  18.263  23.481  1.00  0.00     0.123 A 
ATOM     24  F   UNL A   1      32.416  17.108  22.974  1.00  0.00    -0.207 F 
ENDBRANCH   7  18
ENDBRANCH   3   5
ENDBRANCH   2   3
ENDBRANCH   1   2
BRANCH   1  25
ATOM     25  C   UNL A   1      39.045  19.619  24.833  1.00  0.00     0.275 C 
BRANCH  25  26
ATOM     26  O   UNL A   1      39.719  19.343  26.074  1.00  0.00    -0.458 OA
BRANCH  26  27
ATOM     27  C   UNL A   1      41.049  19.585  26.064  1.00  0.00     0.338 C 
ATOM     28  O   UNL A   1      41.929  18.901  25.573  1.00  0.00    -0.246 OA
BRANCH  27  29
ATOM     29  C   UNL A   1      41.305  20.917  26.624  1.00  0.00     0.060 A 
ATOM     30  C   UNL A   1      41.824  21.895  25.770  1.00  0.00     0.016 A 
ATOM     31  C   UNL A   1      41.128  21.176  27.981  1.00  0.00     0.016 A 
ATOM     32  C   UNL A   1      42.193  23.135  26.274  1.00  0.00     0.010 A 
ATOM     33  C   UNL A   1      41.483  22.429  28.485  1.00  0.00     0.010 A 
ATOM     34  C   UNL A   1      42.030  23.409  27.637  1.00  0.00    -0.014 A 
BRANCH  34  35
ATOM     35  C   UNL A   1      42.469  24.712  28.185  1.00  0.00     0.031 A 
ATOM     36  C   UNL A   1      41.458  25.789  28.441  1.00  0.00     0.074 A 
ATOM     37  C   UNL A   1      43.771  24.919  28.452  1.00  0.00     0.049 A 
ATOM     38  N   UNL A   1      41.649  27.035  28.788  1.00  0.00    -0.248 NA
ATOM     39  C   UNL A   1      40.045  25.414  28.283  1.00  0.00     0.031 C 
ATOM     40  C   UNL A   1      44.834  23.926  28.293  1.00  0.00     0.029 A 
ATOM     41  N   UNL A   1      44.420  26.039  28.902  1.00  0.00    -0.354 N 
ATOM     42  C   UNL A   1      40.385  27.603  28.863  1.00  0.00     0.074 A 
ATOM     43  C   UNL A   1      39.433  26.566  28.521  1.00  0.00     0.031 C 
ATOM     44  C   UNL A   1      46.006  24.485  28.635  1.00  0.00     0.029 A 
ATOM     45  C   UNL A   1      45.781  25.885  28.983  1.00  0.00     0.049 A 
ATOM     46  H   UNL A   1      43.955  26.872  29.145  1.00  0.00     0.167 HD
ATOM     47  C   UNL A   1      40.052  28.874  29.187  1.00  0.00     0.037 A 
ATOM     48  C   UNL A   1      46.741  26.783  29.270  1.00  0.00     0.037 A 
ATOM     49  C   UNL A   1      41.003  29.892  29.545  1.00  0.00     0.049 A 
ATOM     50  C   UNL A   1      46.352  28.203  29.569  1.00  0.00     0.074 A 
ATOM     51  C   UNL A   1      40.767  31.208  29.903  1.00  0.00     0.029 A 
ATOM     52  N   UNL A   1      42.377  29.704  29.594  1.00  0.00    -0.354 N 
ATOM     53  N   UNL A   1      45.156  28.737  29.617  1.00  0.00    -0.248 NA
ATOM     54  C   UNL A   1      47.444  29.148  29.840  1.00  0.00     0.031 C 
ATOM     55  C   UNL A   1      42.001  31.826  30.134  1.00  0.00     0.029 A 
ATOM     56  C   UNL A   1      43.003  30.884  29.958  1.00  0.00     0.049 A 
ATOM     57  H   UNL A   1      42.838  28.857  29.398  1.00  0.00     0.167 HD
ATOM     58  C   UNL A   1      45.349  30.073  29.940  1.00  0.00     0.074 A 
ATOM     59  C   UNL A   1      46.777  30.267  30.085  1.00  0.00     0.031 C 
ATOM     60  C   UNL A   1      44.426  31.053  30.101  1.00  0.00     0.037 A 
BRANCH  47  61
ATOM     61  C   UNL A   1      38.600  29.241  29.136  1.00  0.00     0.057 A 
ATOM     62  C   UNL A   1      37.781  29.187  30.269  1.00  0.00     0.134 A 
ATOM     63  C   UNL A   1      38.022  29.679  27.937  1.00  0.00     0.134 A 
ATOM     64  F   UNL A   1      38.271  28.760  31.442  1.00  0.00    -0.206 F 
ATOM     65  C   UNL A   1      36.431  29.538  30.208  1.00  0.00     0.040 A 
ATOM     66  C   UNL A   1      36.679  30.052  27.869  1.00  0.00     0.040 A 
ATOM     67  F   UNL A   1      38.754  29.755  26.816  1.00  0.00    -0.206 F 
ATOM     68  C   UNL A   1      35.878  29.978  29.006  1.00  0.00     0.006 A 
ENDBRANCH  47  61
BRANCH  48  69
ATOM     69  C   UNL A   1      48.165  26.369  29.252  1.00  0.00     0.057 A 
ATOM     70  C   UNL A   1      48.942  26.502  28.097  1.00  0.00     0.134 A 
ATOM     71  C   UNL A   1      48.784  25.841  30.391  1.00  0.00     0.134 A 
ATOM     72  F   UNL A   1      48.398  26.982  26.969  1.00  0.00    -0.206 F 
ATOM     73  C   UNL A   1      50.284  26.118  28.072  1.00  0.00     0.040 A 
ATOM     74  C   UNL A   1      50.130  25.473  30.388  1.00  0.00     0.040 A 
ATOM     75  F   UNL A   1      48.091  25.690  31.529  1.00  0.00    -0.206 F 
ATOM     76  C   UNL A   1      50.883  25.608  29.223  1.00  0.00     0.006 A 
ENDBRANCH  48  69
BRANCH  60  77
ATOM     77  C   UNL A   1      44.930  32.411  30.480  1.00  0.00     0.057 A 
ATOM     78  C   UNL A   1      45.212  33.385  29.515  1.00  0.00     0.134 A 
ATOM     79  C   UNL A   1      45.087  32.763  31.826  1.00  0.00     0.134 A 
ATOM     80  F   UNL A   1      45.093  33.102  28.208  1.00  0.00    -0.206 F 
ATOM     81  C   UNL A   1      45.644  34.661  29.876  1.00  0.00     0.040 A 
ATOM     82  C   UNL A   1      45.501  34.042  32.200  1.00  0.00     0.040 A 
ATOM     83  F   UNL A   1      44.827  31.875  32.797  1.00  0.00    -0.206 F 
ATOM     84  C   UNL A   1      45.783  34.995  31.222  1.00  0.00     0.006 A 
ENDBRANCH  60  77
ENDBRANCH  34  35
ENDBRANCH  27  29
ENDBRANCH  26  27
ENDBRANCH  25  26
ENDBRANCH   1  25
TORSDOF 14
ENDMDL
MODEL 3
REMARK VINA RESULT:     -11.8      4.542      8.171
REMARK SMILES COc1ccc([C@H]2[C@H](C(=O)OCCOC(=O)c3ccc(-c4c5nc(c(-c6c(F)cccc6F)c6ccc([nH]6)c(-c6c(F)cccc6F)c6nc(c(-c7c(F)cccc7F)c7ccc4[nH]7)C=C6)C=C5)cc3)CCN2c2ccc(F)cc2)cc1
REMARK SMILES IDX 12 1 11 2 9 3 10 4 8 5 7 6 73 7 71 8 72 9 6 10 3 11 4 12
REMARK SMILES IDX 82 13 5 14 81 15 2 16 1 17 74 18 75 19 80 20 76 21 79 22
REMARK SMILES IDX 77 23 78 24 13 25 14 26 15 27 16 28 17 29 18 30 70 31 19 32
REMARK SMILES IDX 69 33 20 34 21 35 22 36 63 37 23 38 68 39 62 40 64 41 24 42
REMARK SMILES IDX 67 43 61 44 60 45 25 47 51 48 34 49 50 50 35 51 38 52 49 53
REMARK SMILES IDX 65 54 36 55 37 56 48 58 66 59 39 60 26 61 27 62 32 63 28 64
REMARK SMILES IDX 29 65 31 66 33 67 30 68 52 69 53 70 58 71 54 72 55 73 57 74
REMARK SMILES IDX 59 75 56 76 40 77 41 78 46 79 42 80 43 81 45 82 47 83 44 84
REMARK H PARENT 64 46 38 57
REMARK Flexibility Score: inf
ROOT
ATOM      1  C   UNL A   1      38.518  20.189  24.925  1.00  0.00     0.274 C 
ENDROOT
BRANCH   1   2
ATOM      2  O   UNL A   1      37.335  20.765  25.516  1.00  0.00    -0.462 OA
BRANCH   2   3
ATOM      3  C   UNL A   1      37.293  22.113  25.639  1.00  0.00     0.311 C 
ATOM      4  O   UNL A   1      38.258  22.807  25.944  1.00  0.00    -0.252 OA
BRANCH   3   5
ATOM      5  C   UNL A   1      35.925  22.720  25.403  1.00  0.00     0.128 C 
ATOM      6  C   UNL A   1      35.033  21.956  24.410  1.00  0.00     0.127 C 
ATOM      7  N   UNL A   1      34.332  20.999  25.281  1.00  0.00    -0.364 N 
ATOM      8  C   UNL A   1      35.111  22.731  26.693  1.00  0.00     0.039 C 
ATOM      9  C   UNL A   1      34.401  21.380  26.690  1.00  0.00     0.118 C 
BRANCH   6  10
ATOM     10  C   UNL A   1      34.042  22.907  23.720  1.00  0.00    -0.024 A 
ATOM     11  C   UNL A   1      32.223  24.773  22.615  1.00  0.00     0.118 A 
ATOM     12  C   UNL A   1      33.579  25.081  22.708  1.00  0.00     0.047 A 
ATOM     13  C   UNL A   1      31.784  23.512  23.004  1.00  0.00     0.047 A 
ATOM     14  C   UNL A   1      34.480  24.157  23.251  1.00  0.00     0.010 A 
ATOM     15  C   UNL A   1      32.684  22.593  23.551  1.00  0.00     0.010 A 
BRANCH  11  16
ATOM     16  O   UNL A   1      31.421  25.756  22.105  1.00  0.00    -0.497 OA
ATOM     17  C   UNL A   1      30.790  26.580  23.081  1.00  0.00     0.278 C 
ENDBRANCH  11  16
ENDBRANCH   6  10
BRANCH   7  18
ATOM     18  C   UNL A   1      34.017  19.703  24.938  1.00  0.00     0.037 A 
ATOM     19  C   UNL A   1      32.682  19.269  24.979  1.00  0.00     0.029 A 
ATOM     20  C   UNL A   1      34.987  18.764  24.555  1.00  0.00     0.029 A 
ATOM     21  C   UNL A   1      32.325  17.959  24.648  1.00  0.00     0.041 A 
ATOM     22  C   UNL A   1      34.643  17.445  24.246  1.00  0.00     0.041 A 
ATOM     23  C   UNL A   1      33.314  17.056  24.293  1.00  0.00     0.123 A 
ATOM     24  F   UNL A   1      32.980  15.794  23.993  1.00  0.00    -0.207 F 
ENDBRANCH   7  18
ENDBRANCH   3   5
ENDBRANCH   2   3
ENDBRANCH   1   2
BRANCH   1  25
ATOM     25  C   UNL A   1      39.357  19.448  25.969  1.00  0.00     0.275 C 
BRANCH  25  26
ATOM     26  O   UNL A   1      40.734  19.353  25.562  1.00  0.00    -0.458 OA
BRANCH  26  27
ATOM     27  C   UNL A   1      41.634  19.537  26.554  1.00  0.00     0.338 C 
ATOM     28  O   UNL A   1      42.333  18.698  27.094  1.00  0.00    -0.246 OA
BRANCH  27  29
ATOM     29  C   UNL A   1      41.779  20.973  26.820  1.00  0.00     0.060 A 
ATOM     30  C   UNL A   1      41.663  21.851  25.739  1.00  0.00     0.016 A 
ATOM     31  C   UNL A   1      42.114  21.442  28.088  1.00  0.00     0.016 A 
ATOM     32  C   UNL A   1      41.907  23.207  25.913  1.00  0.00     0.010 A 
ATOM     33  C   UNL A   1      42.342  22.808  28.267  1.00  0.00     0.010 A 
ATOM     34  C   UNL A   1      42.253  23.694  27.179  1.00  0.00    -0.014 A 
BRANCH  34  35
ATOM     35  C   UNL A   1      42.562  25.131  27.356  1.00  0.00     0.031 A 
ATOM     36  C   UNL A   1      43.878  25.672  26.886  1.00  0.00     0.074 A 
ATOM     37  C   UNL A   1      41.658  25.941  27.935  1.00  0.00     0.049 A 
ATOM     38  N   UNL A   1      44.394  26.860  27.065  1.00  0.00    -0.248 NA
ATOM     39  C   UNL A   1      44.727  24.753  26.112  1.00  0.00     0.031 C 
ATOM     40  C   UNL A   1      40.325  25.536  28.383  1.00  0.00     0.029 A 
ATOM     41  N   UNL A   1      41.732  27.271  28.257  1.00  0.00    -0.354 N 
ATOM     42  C   UNL A   1      45.640  26.825  26.453  1.00  0.00     0.074 A 
ATOM     43  C   UNL A   1      45.804  25.497  25.900  1.00  0.00     0.031 C 
ATOM     44  C   UNL A   1      39.708  26.597  28.929  1.00  0.00     0.029 A 
ATOM     45  C   UNL A   1      40.621  27.736  28.915  1.00  0.00     0.049 A 
ATOM     46  H   UNL A   1      42.506  27.839  28.036  1.00  0.00     0.167 HD
ATOM     47  C   UNL A   1      46.560  27.814  26.364  1.00  0.00     0.037 A 
ATOM     48  C   UNL A   1      40.383  28.935  29.478  1.00  0.00     0.037 A 
ATOM     49  C   UNL A   1      46.380  29.137  26.898  1.00  0.00     0.049 A 
ATOM     50  C   UNL A   1      41.443  29.997  29.417  1.00  0.00     0.074 A 
ATOM     51  C   UNL A   1      47.247  30.214  26.849  1.00  0.00     0.029 A 
ATOM     52  N   UNL A   1      45.249  29.563  27.579  1.00  0.00    -0.354 N 
ATOM     53  N   UNL A   1      42.626  29.950  28.855  1.00  0.00    -0.248 NA
ATOM     54  C   UNL A   1      41.142  31.275  30.079  1.00  0.00     0.031 C 
ATOM     55  C   UNL A   1      46.655  31.283  27.530  1.00  0.00     0.029 A 
ATOM     56  C   UNL A   1      45.403  30.882  27.972  1.00  0.00     0.049 A 
ATOM     57  H   UNL A   1      44.455  29.010  27.758  1.00  0.00     0.167 HD
ATOM     58  C   UNL A   1      43.204  31.192  29.079  1.00  0.00     0.074 A 
ATOM     59  C   UNL A   1      42.237  31.975  29.821  1.00  0.00     0.031 C 
ATOM     60  C   UNL A   1      44.426  31.644  28.705  1.00  0.00     0.037 A 
BRANCH  47  61
ATOM     61  C   UNL A   1      47.858  27.488  25.689  1.00  0.00     0.057 A 
ATOM     62  C   UNL A   1      48.988  27.084  26.411  1.00  0.00     0.134 A 
ATOM     63  C   UNL A   1      47.969  27.555  24.294  1.00  0.00     0.134 A 
ATOM     64  F   UNL A   1      48.951  27.015  27.749  1.00  0.00    -0.206 F 
ATOM     65  C   UNL A   1      50.189  26.777  25.769  1.00  0.00     0.040 A 
ATOM     66  C   UNL A   1      49.158  27.231  23.640  1.00  0.00     0.040 A 
ATOM     67  F   UNL A   1      46.922  27.934  23.546  1.00  0.00    -0.206 F 
ATOM     68  C   UNL A   1      50.275  26.844  24.379  1.00  0.00     0.006 A 
ENDBRANCH  47  61
BRANCH  48  69
ATOM     69  C   UNL A   1      39.098  29.177  30.178  1.00  0.00     0.057 A 
ATOM     70  C   UNL A   1      38.004  29.734  29.508  1.00  0.00     0.134 A 
ATOM     71  C   UNL A   1      38.932  28.850  31.529  1.00  0.00     0.134 A 
ATOM     72  F   UNL A   1      38.110  30.088  28.219  1.00  0.00    -0.206 F 
ATOM     73  C   UNL A   1      36.790  29.963  30.158  1.00  0.00     0.040 A 
ATOM     74  C   UNL A   1      37.718  29.052  32.186  1.00  0.00     0.040 A 
ATOM     75  F   UNL A   1      39.944  28.313  32.225  1.00  0.00    -0.206 F 
ATOM     76  C   UNL A   1      36.643  29.614  31.500  1.00  0.00     0.006 A 
ENDBRANCH  48  69
BRANCH  60  77
ATOM     77  C   UNL A   1      44.772  33.055  29.066  1.00  0.00     0.057 A 
ATOM     78  C   UNL A   1      44.422  34.131  28.242  1.00  0.00     0.134 A 
ATOM     79  C   UNL A   1      45.418  33.343  30.274  1.00  0.00     0.134 A 
ATOM     80  F   UNL A   1      43.814  33.916  27.066  1.00  0.00    -0.206 F 
ATOM     81  C   UNL A   1      44.714  35.447  28.604  1.00  0.00     0.040 A 
ATOM     82  C   UNL A   1      45.698  34.656  30.655  1.00  0.00     0.040 A 
ATOM     83  F   UNL A   1      45.774  32.355  31.109  1.00  0.00    -0.206 F 
ATOM     84  C   UNL A   1      45.347  35.712  29.817  1.00  0.00     0.006 A 
ENDBRANCH  60  77
ENDBRANCH  34  35
ENDBRANCH  27  29
ENDBRANCH  26  27
ENDBRANCH  25  26
ENDBRANCH   1  25
TORSDOF 14
ENDMDL
