MODEL 1
REMARK VINA RESULT:      -9.6      0.000      0.000
REMARK SMILES CC(C)(C[C@@H](O)C(F)(F)F)C(=O)OCCOC(=O)c1ccc(-c2c3nc(c(-c4c(F)cccc4F)c4ccc([nH]4)c(-c4c(F)cccc4F)c4nc(c(-c5c(F)cccc5F)c5ccc2[nH]5)C=C4)C=C3)cc1
REMARK SMILES IDX 14 1 13 2 11 3 12 4 2 5 1 6 3 7 4 8 5 9 6 10 7 12 8 13 9 14
REMARK SMILES IDX 10 15 15 16 16 17 17 18 18 19 19 20 20 21 72 22 21 23 71 24
REMARK SMILES IDX 22 25 23 26 24 27 65 28 25 29 70 30 64 31 66 32 26 33 69 34
REMARK SMILES IDX 63 35 62 36 27 38 53 39 36 40 52 41 37 42 40 43 51 44 67 45
REMARK SMILES IDX 38 46 39 47 50 49 68 50 41 51 28 52 29 53 34 54 30 55 31 56
REMARK SMILES IDX 33 57 35 58 32 59 54 60 55 61 60 62 56 63 57 64 59 65 61 66
REMARK SMILES IDX 58 67 42 68 43 69 48 70 44 71 45 72 47 73 49 74 46 75
REMARK H PARENT 6 11 66 37 40 48
REMARK Flexibility Score: inf
ROOT
ATOM      1  C   UNL A   1      42.191  19.175  26.262  1.00  0.00     0.274 C 
ENDROOT
BRANCH   1   2
ATOM      2  O   UNL A   1      42.879  19.237  24.998  1.00  0.00    -0.462 OA
BRANCH   2   3
ATOM      3  C   UNL A   1      44.177  18.850  24.989  1.00  0.00     0.311 C 
ATOM      4  O   UNL A   1      44.643  17.993  25.732  1.00  0.00    -0.252 OA
BRANCH   3   5
ATOM      5  C   UNL A   1      45.039  19.653  24.007  1.00  0.00     0.065 C 
ATOM      6  C   UNL A   1      45.273  18.827  22.725  1.00  0.00     0.023 C 
ATOM      7  C   UNL A   1      46.405  19.819  24.706  1.00  0.00     0.023 C 
BRANCH   5   8
ATOM      8  C   UNL A   1      44.500  21.065  23.636  1.00  0.00     0.059 C 
BRANCH   8   9
ATOM      9  C   UNL A   1      45.085  22.259  24.423  1.00  0.00     0.220 C 
BRANCH   9  10
ATOM     10  O   UNL A   1      45.782  23.110  23.503  1.00  0.00    -0.384 OA
ATOM     11  H   UNL A   1      45.629  22.800  22.596  1.00  0.00     0.211 HD
ENDBRANCH   9  10
BRANCH   9  12
ATOM     12  C   UNL A   1      43.970  23.009  25.175  1.00  0.00     0.414 C 
ATOM     13  F   UNL A   1      43.877  24.285  24.729  1.00  0.00    -0.168 F 
ATOM     14  F   UNL A   1      42.767  22.426  24.966  1.00  0.00    -0.168 F 
ATOM     15  F   UNL A   1      44.188  23.056  26.506  1.00  0.00    -0.168 F 
ENDBRANCH   9  12
ENDBRANCH   8   9
ENDBRANCH   5   8
ENDBRANCH   3   5
ENDBRANCH   2   3
ENDBRANCH   1   2
BRANCH   1  16
ATOM     16  C   UNL A   1      40.721  19.571  26.114  1.00  0.00     0.275 C 
BRANCH  16  17
ATOM     17  O   UNL A   1      40.396  20.637  27.026  1.00  0.00    -0.458 OA
BRANCH  17  18
ATOM     18  C   UNL A   1      39.642  21.647  26.541  1.00  0.00     0.338 C 
ATOM     19  O   UNL A   1      38.654  21.573  25.822  1.00  0.00    -0.246 OA
BRANCH  18  20
ATOM     20  C   UNL A   1      40.159  22.925  27.052  1.00  0.00     0.060 A 
ATOM     21  C   UNL A   1      39.725  24.118  26.474  1.00  0.00     0.016 A 
ATOM     22  C   UNL A   1      41.139  22.943  28.044  1.00  0.00     0.016 A 
ATOM     23  C   UNL A   1      40.294  25.330  26.851  1.00  0.00     0.010 A 
ATOM     24  C   UNL A   1      41.652  24.168  28.482  1.00  0.00     0.010 A 
ATOM     25  C   UNL A   1      41.239  25.372  27.884  1.00  0.00    -0.014 A 
BRANCH  25  26
ATOM     26  C   UNL A   1      41.757  26.676  28.367  1.00  0.00     0.031 A 
ATOM     27  C   UNL A   1      40.835  27.681  28.991  1.00  0.00     0.074 A 
ATOM     28  C   UNL A   1      43.066  26.963  28.224  1.00  0.00     0.049 A 
ATOM     29  N   UNL A   1      41.060  28.936  29.285  1.00  0.00    -0.248 NA
ATOM     30  C   UNL A   1      39.479  27.218  29.325  1.00  0.00     0.031 C 
ATOM     31  C   UNL A   1      44.077  26.058  27.674  1.00  0.00     0.029 A 
ATOM     32  N   UNL A   1      43.769  28.102  28.523  1.00  0.00    -0.354 N 
ATOM     33  C   UNL A   1      39.866  29.426  29.796  1.00  0.00     0.074 A 
ATOM     34  C   UNL A   1      38.919  28.332  29.781  1.00  0.00     0.031 C 
ATOM     35  C   UNL A   1      45.271  26.669  27.688  1.00  0.00     0.029 A 
ATOM     36  C   UNL A   1      45.095  28.033  28.171  1.00  0.00     0.049 A 
ATOM     37  H   UNL A   1      43.363  28.892  28.950  1.00  0.00     0.167 HD
ATOM     38  C   UNL A   1      39.588  30.679  30.229  1.00  0.00     0.037 A 
ATOM     39  C   UNL A   1      46.054  28.978  28.178  1.00  0.00     0.037 A 
ATOM     40  C   UNL A   1      40.545  31.754  30.277  1.00  0.00     0.049 A 
ATOM     41  C   UNL A   1      45.707  30.370  28.608  1.00  0.00     0.074 A 
ATOM     42  C   UNL A   1      40.368  33.048  30.732  1.00  0.00     0.029 A 
ATOM     43  N   UNL A   1      41.864  31.653  29.860  1.00  0.00    -0.354 N 
ATOM     44  N   UNL A   1      44.561  30.838  29.037  1.00  0.00    -0.248 NA
ATOM     45  C   UNL A   1      46.777  31.373  28.521  1.00  0.00     0.031 C 
ATOM     46  C   UNL A   1      41.572  33.742  30.562  1.00  0.00     0.029 A 
ATOM     47  C   UNL A   1      42.506  32.869  30.026  1.00  0.00     0.049 A 
ATOM     48  H   UNL A   1      42.281  30.837  29.500  1.00  0.00     0.167 HD
ATOM     49  C   UNL A   1      44.765  32.191  29.260  1.00  0.00     0.074 A 
ATOM     50  C   UNL A   1      46.152  32.464  28.943  1.00  0.00     0.031 C 
ATOM     51  C   UNL A   1      43.878  33.125  29.680  1.00  0.00     0.037 A 
BRANCH  38  52
ATOM     52  C   UNL A   1      38.182  30.966  30.656  1.00  0.00     0.057 A 
ATOM     53  C   UNL A   1      37.779  30.875  31.993  1.00  0.00     0.134 A 
ATOM     54  C   UNL A   1      37.229  31.385  29.718  1.00  0.00     0.134 A 
ATOM     55  F   UNL A   1      38.642  30.467  32.936  1.00  0.00    -0.206 F 
ATOM     56  C   UNL A   1      36.473  31.180  32.382  1.00  0.00     0.040 A 
ATOM     57  C   UNL A   1      35.926  31.707  30.097  1.00  0.00     0.040 A 
ATOM     58  F   UNL A   1      37.555  31.494  28.421  1.00  0.00    -0.206 F 
ATOM     59  C   UNL A   1      35.545  31.604  31.433  1.00  0.00     0.006 A 
ENDBRANCH  38  52
BRANCH  39  60
ATOM     60  C   UNL A   1      47.412  28.639  27.692  1.00  0.00     0.057 A 
ATOM     61  C   UNL A   1      48.415  28.232  28.578  1.00  0.00     0.134 A 
ATOM     62  C   UNL A   1      47.726  28.680  26.329  1.00  0.00     0.134 A 
ATOM     63  F   UNL A   1      48.177  28.195  29.897  1.00  0.00    -0.206 F 
ATOM     64  C   UNL A   1      49.683  27.870  28.122  1.00  0.00     0.040 A 
ATOM     65  C   UNL A   1      48.982  28.302  25.857  1.00  0.00     0.040 A 
ATOM     66  F   UNL A   1      46.803  29.062  25.433  1.00  0.00    -0.206 F 
ATOM     67  C   UNL A   1      49.966  27.895  26.756  1.00  0.00     0.006 A 
ENDBRANCH  39  60
BRANCH  51  68
ATOM     68  C   UNL A   1      44.387  34.527  29.801  1.00  0.00     0.057 A 
ATOM     69  C   UNL A   1      44.993  34.979  30.979  1.00  0.00     0.134 A 
ATOM     70  C   UNL A   1      44.286  35.425  28.732  1.00  0.00     0.134 A 
ATOM     71  F   UNL A   1      45.103  34.167  32.042  1.00  0.00    -0.206 F 
ATOM     72  C   UNL A   1      45.471  36.284  31.095  1.00  0.00     0.040 A 
ATOM     73  C   UNL A   1      44.774  36.728  28.831  1.00  0.00     0.040 A 
ATOM     74  F   UNL A   1      43.716  35.048  27.579  1.00  0.00    -0.206 F 
ATOM     75  C   UNL A   1      45.366  37.162  30.017  1.00  0.00     0.006 A 
ENDBRANCH  51  68
ENDBRANCH  25  26
ENDBRANCH  18  20
ENDBRANCH  17  18
ENDBRANCH  16  17
ENDBRANCH   1  16
TORSDOF 15
ENDMDL
MODEL 2
REMARK VINA RESULT:      -9.4      5.464     11.856
REMARK SMILES CC(C)(C[C@@H](O)C(F)(F)F)C(=O)OCCOC(=O)c1ccc(-c2c3nc(c(-c4c(F)cccc4F)c4ccc([nH]4)c(-c4c(F)cccc4F)c4nc(c(-c5c(F)cccc5F)c5ccc2[nH]5)C=C4)C=C3)cc1
REMARK SMILES IDX 14 1 13 2 11 3 12 4 2 5 1 6 3 7 4 8 5 9 6 10 7 12 8 13 9 14
REMARK SMILES IDX 10 15 15 16 16 17 17 18 18 19 19 20 20 21 72 22 21 23 71 24
REMARK SMILES IDX 22 25 23 26 24 27 65 28 25 29 70 30 64 31 66 32 26 33 69 34
REMARK SMILES IDX 63 35 62 36 27 38 53 39 36 40 52 41 37 42 40 43 51 44 67 45
REMARK SMILES IDX 38 46 39 47 50 49 68 50 41 51 28 52 29 53 34 54 30 55 31 56
REMARK SMILES IDX 33 57 35 58 32 59 54 60 55 61 60 62 56 63 57 64 59 65 61 66
REMARK SMILES IDX 58 67 42 68 43 69 48 70 44 71 45 72 47 73 49 74 46 75
REMARK H PARENT 6 11 66 37 40 48
REMARK Flexibility Score: inf
ROOT
ATOM      1  C   UNL A   1      33.656  34.921  28.982  1.00  0.00     0.274 C 
ENDROOT
BRANCH   1   2
ATOM      2  O   UNL A   1      32.803  34.945  30.142  1.00  0.00    -0.462 OA
BRANCH   2   3
ATOM      3  C   UNL A   1      32.869  36.047  30.927  1.00  0.00     0.311 C 
ATOM      4  O   UNL A   1      33.002  37.188  30.499  1.00  0.00    -0.252 OA
BRANCH   3   5
ATOM      5  C   UNL A   1      32.847  35.722  32.426  1.00  0.00     0.065 C 
ATOM      6  C   UNL A   1      31.465  36.078  33.013  1.00  0.00     0.023 C 
ATOM      7  C   UNL A   1      33.880  36.674  33.065  1.00  0.00     0.023 C 
BRANCH   5   8
ATOM      8  C   UNL A   1      33.223  34.260  32.805  1.00  0.00     0.059 C 
BRANCH   8   9
ATOM      9  C   UNL A   1      34.708  33.989  33.130  1.00  0.00     0.220 C 
BRANCH   9  10
ATOM     10  O   UNL A   1      34.791  33.457  34.460  1.00  0.00    -0.384 OA
ATOM     11  H   UNL A   1      34.001  33.714  34.960  1.00  0.00     0.211 HD
ENDBRANCH   9  10
BRANCH   9  12
ATOM     12  C   UNL A   1      35.325  33.038  32.087  1.00  0.00     0.414 C 
ATOM     13  F   UNL A   1      36.255  33.688  31.346  1.00  0.00    -0.168 F 
ATOM     14  F   UNL A   1      35.950  31.999  32.688  1.00  0.00    -0.168 F 
ATOM     15  F   UNL A   1      34.403  32.538  31.237  1.00  0.00    -0.168 F 
ENDBRANCH   9  12
ENDBRANCH   8   9
ENDBRANCH   5   8
ENDBRANCH   3   5
ENDBRANCH   2   3
ENDBRANCH   1   2
BRANCH   1  16
ATOM     16  C   UNL A   1      33.229  33.829  28.001  1.00  0.00     0.275 C 
BRANCH  16  17
ATOM     17  O   UNL A   1      34.366  33.042  27.600  1.00  0.00    -0.458 OA
BRANCH  17  18
ATOM     18  C   UNL A   1      34.287  31.708  27.798  1.00  0.00     0.338 C 
ATOM     19  O   UNL A   1      33.360  30.958  27.520  1.00  0.00    -0.246 OA
BRANCH  18  20
ATOM     20  C   UNL A   1      35.548  31.230  28.384  1.00  0.00     0.060 A 
ATOM     21  C   UNL A   1      36.666  32.063  28.375  1.00  0.00     0.016 A 
ATOM     22  C   UNL A   1      35.650  29.925  28.867  1.00  0.00     0.016 A 
ATOM     23  C   UNL A   1      37.900  31.588  28.804  1.00  0.00     0.010 A 
ATOM     24  C   UNL A   1      36.872  29.475  29.377  1.00  0.00     0.010 A 
ATOM     25  C   UNL A   1      38.009  30.300  29.344  1.00  0.00    -0.014 A 
BRANCH  25  26
ATOM     26  C   UNL A   1      39.299  29.837  29.913  1.00  0.00     0.031 A 
ATOM     27  C   UNL A   1      40.085  28.749  29.241  1.00  0.00     0.074 A 
ATOM     28  C   UNL A   1      39.755  30.385  31.056  1.00  0.00     0.049 A 
ATOM     29  N   UNL A   1      41.115  28.079  29.688  1.00  0.00    -0.248 NA
ATOM     30  C   UNL A   1      39.653  28.360  27.890  1.00  0.00     0.031 C 
ATOM     31  C   UNL A   1      39.111  31.478  31.787  1.00  0.00     0.029 A 
ATOM     32  N   UNL A   1      40.865  30.094  31.808  1.00  0.00    -0.354 N 
ATOM     33  C   UNL A   1      41.429  27.160  28.697  1.00  0.00     0.074 A 
ATOM     34  C   UNL A   1      40.485  27.362  27.618  1.00  0.00     0.031 C 
ATOM     35  C   UNL A   1      39.842  31.775  32.872  1.00  0.00     0.029 A 
ATOM     36  C   UNL A   1      40.958  30.841  32.956  1.00  0.00     0.049 A 
ATOM     37  H   UNL A   1      41.530  29.415  31.549  1.00  0.00     0.167 HD
ATOM     38  C   UNL A   1      42.412  26.228  28.695  1.00  0.00     0.037 A 
ATOM     39  C   UNL A   1      41.811  30.752  33.993  1.00  0.00     0.037 A 
ATOM     40  C   UNL A   1      43.372  26.057  29.754  1.00  0.00     0.049 A 
ATOM     41  C   UNL A   1      42.854  29.676  33.993  1.00  0.00     0.074 A 
ATOM     42  C   UNL A   1      44.426  25.163  29.828  1.00  0.00     0.029 A 
ATOM     43  N   UNL A   1      43.397  26.802  30.922  1.00  0.00    -0.354 N 
ATOM     44  N   UNL A   1      43.107  28.776  33.076  1.00  0.00    -0.248 NA
ATOM     45  C   UNL A   1      43.704  29.582  35.188  1.00  0.00     0.031 C 
ATOM     46  C   UNL A   1      45.072  25.347  31.057  1.00  0.00     0.029 A 
ATOM     47  C   UNL A   1      44.433  26.374  31.734  1.00  0.00     0.049 A 
ATOM     48  H   UNL A   1      42.770  27.529  31.142  1.00  0.00     0.167 HD
ATOM     49  C   UNL A   1      44.137  27.999  33.584  1.00  0.00     0.074 A 
ATOM     50  C   UNL A   1      44.479  28.550  34.880  1.00  0.00     0.031 C 
ATOM     51  C   UNL A   1      44.739  26.919  33.031  1.00  0.00     0.037 A 
BRANCH  38  52
ATOM     52  C   UNL A   1      42.480  25.297  27.523  1.00  0.00     0.057 A 
ATOM     53  C   UNL A   1      43.247  25.587  26.389  1.00  0.00     0.134 A 
ATOM     54  C   UNL A   1      41.801  24.072  27.553  1.00  0.00     0.134 A 
ATOM     55  F   UNL A   1      43.910  26.749  26.295  1.00  0.00    -0.206 F 
ATOM     56  C   UNL A   1      43.329  24.693  25.319  1.00  0.00     0.040 A 
ATOM     57  C   UNL A   1      41.887  23.165  26.497  1.00  0.00     0.040 A 
ATOM     58  F   UNL A   1      41.050  23.737  28.613  1.00  0.00    -0.206 F 
ATOM     59  C   UNL A   1      42.653  23.475  25.375  1.00  0.00     0.006 A 
ENDBRANCH  38  52
BRANCH  39  60
ATOM     60  C   UNL A   1      41.655  31.671  35.145  1.00  0.00     0.057 A 
ATOM     61  C   UNL A   1      42.442  32.821  35.263  1.00  0.00     0.134 A 
ATOM     62  C   UNL A   1      40.690  31.440  36.132  1.00  0.00     0.134 A 
ATOM     63  F   UNL A   1      43.397  33.081  34.359  1.00  0.00    -0.206 F 
ATOM     64  C   UNL A   1      42.270  33.713  36.323  1.00  0.00     0.040 A 
ATOM     65  C   UNL A   1      40.493  32.333  37.184  1.00  0.00     0.040 A 
ATOM     66  F   UNL A   1      39.904  30.354  36.070  1.00  0.00    -0.206 F 
ATOM     67  C   UNL A   1      41.286  33.475  37.282  1.00  0.00     0.006 A 
ENDBRANCH  39  60
BRANCH  51  68
ATOM     68  C   UNL A   1      45.813  26.261  33.838  1.00  0.00     0.057 A 
ATOM     69  C   UNL A   1      45.524  25.192  34.694  1.00  0.00     0.134 A 
ATOM     70  C   UNL A   1      47.143  26.685  33.748  1.00  0.00     0.134 A 
ATOM     71  F   UNL A   1      44.264  24.753  34.832  1.00  0.00    -0.206 F 
ATOM     72  C   UNL A   1      46.523  24.574  35.446  1.00  0.00     0.040 A 
ATOM     73  C   UNL A   1      48.153  26.065  34.483  1.00  0.00     0.040 A 
ATOM     74  F   UNL A   1      47.480  27.704  32.943  1.00  0.00    -0.206 F 
ATOM     75  C   UNL A   1      47.844  25.008  35.338  1.00  0.00     0.006 A 
ENDBRANCH  51  68
ENDBRANCH  25  26
ENDBRANCH  18  20
ENDBRANCH  17  18
ENDBRANCH  16  17
ENDBRANCH   1  16
TORSDOF 15
ENDMDL
MODEL 3
REMARK VINA RESULT:      -9.3      5.259     10.876
REMARK SMILES CC(C)(C[C@@H](O)C(F)(F)F)C(=O)OCCOC(=O)c1ccc(-c2c3nc(c(-c4c(F)cccc4F)c4ccc([nH]4)c(-c4c(F)cccc4F)c4nc(c(-c5c(F)cccc5F)c5ccc2[nH]5)C=C4)C=C3)cc1
REMARK SMILES IDX 14 1 13 2 11 3 12 4 2 5 1 6 3 7 4 8 5 9 6 10 7 12 8 13 9 14
REMARK SMILES IDX 10 15 15 16 16 17 17 18 18 19 19 20 20 21 72 22 21 23 71 24
REMARK SMILES IDX 22 25 23 26 24 27 65 28 25 29 70 30 64 31 66 32 26 33 69 34
REMARK SMILES IDX 63 35 62 36 27 38 53 39 36 40 52 41 37 42 40 43 51 44 67 45
REMARK SMILES IDX 38 46 39 47 50 49 68 50 41 51 28 52 29 53 34 54 30 55 31 56
REMARK SMILES IDX 33 57 35 58 32 59 54 60 55 61 60 62 56 63 57 64 59 65 61 66
REMARK SMILES IDX 58 67 42 68 43 69 48 70 44 71 45 72 47 73 49 74 46 75
REMARK H PARENT 6 11 66 37 40 48
REMARK Flexibility Score: inf
ROOT
ATOM      1  C   UNL A   1      34.101  34.866  29.224  1.00  0.00     0.274 C 
ENDROOT
BRANCH   1   2
ATOM      2  O   UNL A   1      32.972  34.954  30.114  1.00  0.00    -0.462 OA
BRANCH   2   3
ATOM      3  C   UNL A   1      32.911  36.042  30.918  1.00  0.00     0.311 C 
ATOM      4  O   UNL A   1      32.903  37.198  30.509  1.00  0.00    -0.252 OA
BRANCH   3   5
ATOM      5  C   UNL A   1      32.935  35.691  32.411  1.00  0.00     0.065 C 
ATOM      6  C   UNL A   1      31.589  36.080  33.057  1.00  0.00     0.023 C 
ATOM      7  C   UNL A   1      34.021  36.599  33.024  1.00  0.00     0.023 C 
BRANCH   5   8
ATOM      8  C   UNL A   1      33.278  34.212  32.750  1.00  0.00     0.059 C 
BRANCH   8   9
ATOM      9  C   UNL A   1      34.745  33.910  33.128  1.00  0.00     0.220 C 
BRANCH   9  10
ATOM     10  O   UNL A   1      34.778  33.455  34.488  1.00  0.00    -0.384 OA
ATOM     11  H   UNL A   1      34.838  32.487  34.503  1.00  0.00     0.211 HD
ENDBRANCH   9  10
BRANCH   9  12
ATOM     12  C   UNL A   1      35.352  32.879  32.158  1.00  0.00     0.414 C 
ATOM     13  F   UNL A   1      35.902  31.850  32.846  1.00  0.00    -0.168 F 
ATOM     14  F   UNL A   1      34.402  32.355  31.350  1.00  0.00    -0.168 F 
ATOM     15  F   UNL A   1      36.318  33.412  31.379  1.00  0.00    -0.168 F 
ENDBRANCH   9  12
ENDBRANCH   8   9
ENDBRANCH   5   8
ENDBRANCH   3   5
ENDBRANCH   2   3
ENDBRANCH   1   2
BRANCH   1  16
ATOM     16  C   UNL A   1      33.759  34.061  27.970  1.00  0.00     0.275 C 
BRANCH  16  17
ATOM     17  O   UNL A   1      34.817  33.133  27.666  1.00  0.00    -0.458 OA
BRANCH  17  18
ATOM     18  C   UNL A   1      34.565  31.824  27.889  1.00  0.00     0.338 C 
ATOM     19  O   UNL A   1      33.546  31.197  27.631  1.00  0.00    -0.246 OA
BRANCH  18  20
ATOM     20  C   UNL A   1      35.757  31.196  28.477  1.00  0.00     0.060 A 
ATOM     21  C   UNL A   1      36.990  31.839  28.377  1.00  0.00     0.016 A 
ATOM     22  C   UNL A   1      35.673  29.928  29.054  1.00  0.00     0.016 A 
ATOM     23  C   UNL A   1      38.150  31.207  28.809  1.00  0.00     0.010 A 
ATOM     24  C   UNL A   1      36.828  29.328  29.565  1.00  0.00     0.010 A 
ATOM     25  C   UNL A   1      38.078  29.959  29.441  1.00  0.00    -0.014 A 
BRANCH  25  26
ATOM     26  C   UNL A   1      39.300  29.339  30.010  1.00  0.00     0.031 A 
ATOM     27  C   UNL A   1      39.926  29.889  31.258  1.00  0.00     0.074 A 
ATOM     28  C   UNL A   1      39.862  28.285  29.386  1.00  0.00     0.049 A 
ATOM     29  N   UNL A   1      41.091  29.615  31.786  1.00  0.00    -0.248 NA
ATOM     30  C   UNL A   1      39.142  30.881  32.009  1.00  0.00     0.031 C 
ATOM     31  C   UNL A   1      39.331  27.628  28.190  1.00  0.00     0.029 A 
ATOM     32  N   UNL A   1      41.008  27.586  29.667  1.00  0.00    -0.354 N 
ATOM     33  C   UNL A   1      41.202  30.430  32.905  1.00  0.00     0.074 A 
ATOM     34  C   UNL A   1      39.981  31.204  32.986  1.00  0.00     0.031 C 
ATOM     35  C   UNL A   1      40.140  26.614  27.849  1.00  0.00     0.029 A 
ATOM     36  C   UNL A   1      41.285  26.602  28.751  1.00  0.00     0.049 A 
ATOM     37  H   UNL A   1      41.577  27.772  30.449  1.00  0.00     0.167 HD
ATOM     38  C   UNL A   1      42.233  30.525  33.777  1.00  0.00     0.037 A 
ATOM     39  C   UNL A   1      42.367  25.813  28.611  1.00  0.00     0.037 A 
ATOM     40  C   UNL A   1      43.428  29.725  33.713  1.00  0.00     0.049 A 
ATOM     41  C   UNL A   1      43.519  25.977  29.555  1.00  0.00     0.074 A 
ATOM     42  C   UNL A   1      44.515  29.724  34.570  1.00  0.00     0.029 A 
ATOM     43  N   UNL A   1      43.690  28.776  32.736  1.00  0.00    -0.354 N 
ATOM     44  N   UNL A   1      43.637  26.789  30.576  1.00  0.00    -0.248 NA
ATOM     45  C   UNL A   1      44.701  25.141  29.305  1.00  0.00     0.031 C 
ATOM     46  C   UNL A   1      45.448  28.795  34.096  1.00  0.00     0.029 A 
ATOM     47  C   UNL A   1      44.929  28.200  32.957  1.00  0.00     0.049 A 
ATOM     48  H   UNL A   1      43.083  28.546  31.996  1.00  0.00     0.167 HD
ATOM     49  C   UNL A   1      44.908  26.573  31.084  1.00  0.00     0.074 A 
ATOM     50  C   UNL A   1      45.514  25.535  30.275  1.00  0.00     0.031 C 
ATOM     51  C   UNL A   1      45.523  27.188  32.124  1.00  0.00     0.037 A 
BRANCH  38  52
ATOM     52  C   UNL A   1      42.130  31.555  34.860  1.00  0.00     0.057 A 
ATOM     53  C   UNL A   1      41.516  31.282  36.087  1.00  0.00     0.134 A 
ATOM     54  C   UNL A   1      42.696  32.824  34.684  1.00  0.00     0.134 A 
ATOM     55  F   UNL A   1      40.944  30.089  36.310  1.00  0.00    -0.206 F 
ATOM     56  C   UNL A   1      41.459  32.241  37.100  1.00  0.00     0.040 A 
ATOM     57  C   UNL A   1      42.659  33.785  35.695  1.00  0.00     0.040 A 
ATOM     58  F   UNL A   1      43.301  33.145  33.530  1.00  0.00    -0.206 F 
ATOM     59  C   UNL A   1      42.037  33.494  36.907  1.00  0.00     0.006 A 
ENDBRANCH  38  52
BRANCH  39  60
ATOM     60  C   UNL A   1      42.426  24.851  27.486  1.00  0.00     0.057 A 
ATOM     61  C   UNL A   1      42.934  25.229  26.239  1.00  0.00     0.134 A 
ATOM     62  C   UNL A   1      42.011  23.523  27.644  1.00  0.00     0.134 A 
ATOM     63  F   UNL A   1      43.325  26.493  26.024  1.00  0.00    -0.206 F 
ATOM     64  C   UNL A   1      43.033  24.315  25.188  1.00  0.00     0.040 A 
ATOM     65  C   UNL A   1      42.123  22.595  26.610  1.00  0.00     0.040 A 
ATOM     66  F   UNL A   1      41.517  23.104  28.819  1.00  0.00    -0.206 F 
ATOM     67  C   UNL A   1      42.636  22.992  25.375  1.00  0.00     0.006 A 
ENDBRANCH  39  60
BRANCH  51  68
ATOM     68  C   UNL A   1      46.924  26.759  32.424  1.00  0.00     0.057 A 
ATOM     69  C   UNL A   1      47.185  25.658  33.248  1.00  0.00     0.134 A 
ATOM     70  C   UNL A   1      48.019  27.438  31.876  1.00  0.00     0.134 A 
ATOM     71  F   UNL A   1      46.175  24.979  33.813  1.00  0.00    -0.206 F 
ATOM     72  C   UNL A   1      48.490  25.253  33.528  1.00  0.00     0.040 A 
ATOM     73  C   UNL A   1      49.328  27.034  32.137  1.00  0.00     0.040 A 
ATOM     74  F   UNL A   1      47.831  28.500  31.079  1.00  0.00    -0.206 F 
ATOM     75  C   UNL A   1      49.566  25.940  32.968  1.00  0.00     0.006 A 
ENDBRANCH  51  68
ENDBRANCH  25  26
ENDBRANCH  18  20
ENDBRANCH  17  18
ENDBRANCH  16  17
ENDBRANCH   1  16
TORSDOF 15
ENDMDL
