MODEL 1
REMARK VINA RESULT:     -13.3      0.000      0.000
REMARK SMILES Cc1cccc(-c2cc(C[C@]3(C(=O)OCCOC(=O)c4ccc(-c5c6nc(c(-c7c(F)cccc7F)c7ccc([nH]7)c(-c7c(F)cccc7F)c7nc(c(-c8c(F)cccc8F)c8ccc5[nH]8)C=C7)C=C6)cc4)CCCN(C(=O)C(C)C)C3)on2)c1
REMARK SMILES IDX 15 1 14 2 12 3 13 4 11 5 74 6 83 7 75 8 77 9 76 10 10 11
REMARK SMILES IDX 9 12 7 13 8 14 85 15 84 16 6 17 1 18 2 19 3 20 86 21 4 22
REMARK SMILES IDX 5 23 78 24 79 25 80 26 81 27 82 28 16 29 17 30 18 31 19 32
REMARK SMILES IDX 20 33 21 34 73 35 22 36 72 37 23 38 24 39 25 40 66 41 26 42
REMARK SMILES IDX 71 43 65 44 67 45 27 46 70 47 64 48 63 49 28 51 54 52 37 53
REMARK SMILES IDX 53 54 38 55 41 56 52 57 68 58 39 59 40 60 51 62 69 63 42 64
REMARK SMILES IDX 29 65 30 66 35 67 31 68 32 69 34 70 36 71 33 72 55 73 56 74
REMARK SMILES IDX 61 75 57 76 58 77 60 78 62 79 59 80 43 81 44 82 49 83 45 84
REMARK SMILES IDX 46 85 48 86 50 87 47 88
REMARK H PARENT 67 50 41 61
REMARK Flexibility Score: inf
ROOT
ATOM      1  C   UNL A   1      32.252  30.402  26.706  1.00  0.00     0.274 C 
ENDROOT
BRANCH   1   2
ATOM      2  O   UNL A   1      32.820  29.082  27.210  1.00  0.00    -0.462 OA
BRANCH   2   3
ATOM      3  C   UNL A   1      33.587  28.289  26.389  1.00  0.00     0.314 C 
ATOM      4  O   UNL A   1      34.759  28.633  26.284  1.00  0.00    -0.252 OA
BRANCH   3   5
ATOM      5  C   UNL A   1      32.892  26.949  25.443  1.00  0.00     0.093 C 
ATOM      6  C   UNL A   1      34.193  26.328  24.979  1.00  0.00     0.023 C 
ATOM      7  C   UNL A   1      32.224  26.306  26.684  1.00  0.00     0.138 C 
ATOM      8  C   UNL A   1      34.063  24.835  24.975  1.00  0.00     0.023 C 
ATOM      9  N   UNL A   1      32.097  24.931  26.522  1.00  0.00    -0.341 N 
ATOM     10  C   UNL A   1      33.427  24.327  26.286  1.00  0.00     0.119 C 
BRANCH   5  11
ATOM     11  C   UNL A   1      31.763  26.677  24.018  1.00  0.00     0.099 C 
BRANCH  11  12
ATOM     12  C   UNL A   1      30.666  27.562  23.457  1.00  0.00     0.138 A 
ATOM     13  C   UNL A   1      29.289  28.998  22.467  1.00  0.00     0.114 A 
ATOM     14  C   UNL A   1      30.626  28.489  22.426  1.00  0.00     0.077 A 
ATOM     15  N   UNL A   1      28.512  28.194  23.209  1.00  0.00    -0.080 NA
ATOM     16  O   UNL A   1      29.371  27.249  23.762  1.00  0.00    -0.361 OA
BRANCH  13  17
ATOM     17  C   UNL A   1      28.856  30.317  21.973  1.00  0.00     0.004 A 
ATOM     18  C   UNL A   1      29.228  33.685  23.403  1.00  0.00     0.044 C 
ATOM     19  C   UNL A   1      28.789  32.629  22.469  1.00  0.00    -0.050 A 
ATOM     20  C   UNL A   1      28.099  32.935  21.285  1.00  0.00     0.003 A 
ATOM     21  C   UNL A   1      29.134  31.335  22.825  1.00  0.00     0.014 A 
ATOM     22  C   UNL A   1      27.709  31.922  20.455  1.00  0.00     0.001 A 
ATOM     23  C   UNL A   1      28.102  30.643  20.806  1.00  0.00     0.010 A 
ENDBRANCH  13  17
ENDBRANCH  11  12
ENDBRANCH   5  11
BRANCH   9  24
ATOM     24  C   UNL A   1      30.807  24.433  26.631  1.00  0.00     0.225 C 
ATOM     25  O   UNL A   1      29.785  25.120  26.568  1.00  0.00    -0.275 OA
BRANCH  24  26
ATOM     26  C   UNL A   1      30.710  22.954  26.721  1.00  0.00     0.072 C 
ATOM     27  C   UNL A   1      29.355  22.692  27.302  1.00  0.00     0.018 C 
ATOM     28  C   UNL A   1      30.864  22.257  25.418  1.00  0.00     0.018 C 
ENDBRANCH  24  26
ENDBRANCH   9  24
ENDBRANCH   3   5
ENDBRANCH   2   3
ENDBRANCH   1   2
BRANCH   1  29
ATOM     29  C   UNL A   1      33.132  31.546  27.324  1.00  0.00     0.275 C 
BRANCH  29  30
ATOM     30  O   UNL A   1      34.199  31.312  28.280  1.00  0.00    -0.458 OA
BRANCH  30  31
ATOM     31  C   UNL A   1      35.368  31.945  28.151  1.00  0.00     0.338 C 
ATOM     32  O   UNL A   1      35.541  33.018  27.598  1.00  0.00    -0.246 OA
BRANCH  31  33
ATOM     33  C   UNL A   1      36.432  31.035  28.610  1.00  0.00     0.060 A 
ATOM     34  C   UNL A   1      36.121  29.947  29.319  1.00  0.00     0.016 A 
ATOM     35  C   UNL A   1      37.686  30.945  28.145  1.00  0.00     0.016 A 
ATOM     36  C   UNL A   1      37.160  28.968  29.713  1.00  0.00     0.010 A 
ATOM     37  C   UNL A   1      38.425  29.791  28.371  1.00  0.00     0.010 A 
ATOM     38  C   UNL A   1      38.505  29.028  29.516  1.00  0.00    -0.014 A 
BRANCH  38  39
ATOM     39  C   UNL A   1      39.994  29.126  29.282  1.00  0.00     0.031 A 
ATOM     40  C   UNL A   1      40.141  27.386  28.758  1.00  0.00     0.074 A 
ATOM     41  C   UNL A   1      40.668  30.498  29.536  1.00  0.00     0.049 A 
ATOM     42  N   UNL A   1      40.644  26.351  29.378  1.00  0.00    -0.248 NA
ATOM     43  C   UNL A   1      39.294  26.571  27.659  1.00  0.00     0.031 C 
ATOM     44  C   UNL A   1      42.178  31.211  29.774  1.00  0.00     0.029 A 
ATOM     45  N   UNL A   1      40.032  31.714  29.987  1.00  0.00    -0.354 N 
ATOM     46  C   UNL A   1      40.984  25.411  28.344  1.00  0.00     0.074 A 
ATOM     47  C   UNL A   1      39.922  25.397  27.422  1.00  0.00     0.031 C 
ATOM     48  C   UNL A   1      42.142  32.060  30.864  1.00  0.00     0.029 A 
ATOM     49  C   UNL A   1      40.751  32.224  31.135  1.00  0.00     0.049 A 
ATOM     50  H   UNL A   1      39.238  32.128  29.578  1.00  0.00     0.167 HD
ATOM     51  C   UNL A   1      42.293  25.222  28.011  1.00  0.00     0.037 A 
ATOM     52  C   UNL A   1      40.226  31.912  32.328  1.00  0.00     0.037 A 
ATOM     53  C   UNL A   1      42.988  26.288  28.709  1.00  0.00     0.049 A 
ATOM     54  C   UNL A   1      41.004  30.620  32.665  1.00  0.00     0.074 A 
ATOM     55  C   UNL A   1      43.413  27.522  28.269  1.00  0.00     0.029 A 
ATOM     56  N   UNL A   1      42.834  26.383  30.082  1.00  0.00    -0.354 N 
ATOM     57  N   UNL A   1      41.381  29.609  31.901  1.00  0.00    -0.248 NA
ATOM     58  C   UNL A   1      41.615  30.630  33.950  1.00  0.00     0.031 C 
ATOM     59  C   UNL A   1      43.613  28.315  29.434  1.00  0.00     0.029 A 
ATOM     60  C   UNL A   1      43.178  27.626  30.563  1.00  0.00     0.049 A 
ATOM     61  H   UNL A   1      42.514  25.645  30.650  1.00  0.00     0.167 HD
ATOM     62  C   UNL A   1      42.375  28.891  32.537  1.00  0.00     0.074 A 
ATOM     63  C   UNL A   1      42.411  29.577  33.814  1.00  0.00     0.031 C 
ATOM     64  C   UNL A   1      43.128  27.847  32.023  1.00  0.00     0.037 A 
BRANCH  51  65
ATOM     65  C   UNL A   1      42.987  24.427  26.908  1.00  0.00     0.057 A 
ATOM     66  C   UNL A   1      43.116  23.036  27.133  1.00  0.00     0.134 A 
ATOM     67  C   UNL A   1      43.429  24.834  25.630  1.00  0.00     0.134 A 
ATOM     68  F   UNL A   1      42.700  22.465  28.269  1.00  0.00    -0.206 F 
ATOM     69  C   UNL A   1      43.632  22.125  26.213  1.00  0.00     0.040 A 
ATOM     70  C   UNL A   1      43.955  23.914  24.683  1.00  0.00     0.040 A 
ATOM     71  F   UNL A   1      43.346  26.109  25.219  1.00  0.00    -0.206 F 
ATOM     72  C   UNL A   1      44.051  22.556  24.974  1.00  0.00     0.006 A 
ENDBRANCH  51  65
BRANCH  52  73
ATOM     73  C   UNL A   1      38.771  32.044  32.106  1.00  0.00     0.057 A 
ATOM     74  C   UNL A   1      37.840  30.984  32.473  1.00  0.00     0.134 A 
ATOM     75  C   UNL A   1      38.320  33.333  32.090  1.00  0.00     0.134 A 
ATOM     76  F   UNL A   1      38.267  29.730  32.714  1.00  0.00    -0.206 F 
ATOM     77  C   UNL A   1      36.557  31.266  32.897  1.00  0.00     0.040 A 
ATOM     78  C   UNL A   1      36.978  33.539  32.181  1.00  0.00     0.040 A 
ATOM     79  F   UNL A   1      39.135  34.392  32.233  1.00  0.00    -0.206 F 
ATOM     80  C   UNL A   1      36.095  32.517  32.576  1.00  0.00     0.006 A 
ENDBRANCH  52  73
BRANCH  64  81
ATOM     81  C   UNL A   1      43.944  26.868  32.911  1.00  0.00     0.057 A 
ATOM     82  C   UNL A   1      45.300  26.555  32.744  1.00  0.00     0.134 A 
ATOM     83  C   UNL A   1      43.410  26.201  34.045  1.00  0.00     0.134 A 
ATOM     84  F   UNL A   1      46.075  26.970  31.766  1.00  0.00    -0.206 F 
ATOM     85  C   UNL A   1      46.055  25.727  33.560  1.00  0.00     0.040 A 
ATOM     86  C   UNL A   1      44.160  25.365  34.887  1.00  0.00     0.040 A 
ATOM     87  F   UNL A   1      42.133  26.285  34.437  1.00  0.00    -0.206 F 
ATOM     88  C   UNL A   1      45.492  25.118  34.641  1.00  0.00     0.006 A 
ENDBRANCH  64  81
ENDBRANCH  38  39
ENDBRANCH  31  33
ENDBRANCH  30  31
ENDBRANCH  29  30
ENDBRANCH   1  29
TORSDOF 16
ENDMDL
MODEL 2
REMARK VINA RESULT:     -13.0      1.935      4.602
REMARK SMILES Cc1cccc(-c2cc(C[C@]3(C(=O)OCCOC(=O)c4ccc(-c5c6nc(c(-c7c(F)cccc7F)c7ccc([nH]7)c(-c7c(F)cccc7F)c7nc(c(-c8c(F)cccc8F)c8ccc5[nH]8)C=C7)C=C6)cc4)CCCN(C(=O)C(C)C)C3)on2)c1
REMARK SMILES IDX 15 1 14 2 12 3 13 4 11 5 74 6 83 7 75 8 77 9 76 10 10 11
REMARK SMILES IDX 9 12 7 13 8 14 85 15 84 16 6 17 1 18 2 19 3 20 86 21 4 22
REMARK SMILES IDX 5 23 78 24 79 25 80 26 81 27 82 28 16 29 17 30 18 31 19 32
REMARK SMILES IDX 20 33 21 34 73 35 22 36 72 37 23 38 24 39 25 40 66 41 26 42
REMARK SMILES IDX 71 43 65 44 67 45 27 46 70 47 64 48 63 49 28 51 54 52 37 53
REMARK SMILES IDX 53 54 38 55 41 56 52 57 68 58 39 59 40 60 51 62 69 63 42 64
REMARK SMILES IDX 29 65 30 66 35 67 31 68 32 69 34 70 36 71 33 72 55 73 56 74
REMARK SMILES IDX 61 75 57 76 58 77 60 78 62 79 59 80 43 81 44 82 49 83 45 84
REMARK SMILES IDX 46 85 48 86 50 87 47 88
REMARK H PARENT 67 50 41 61
REMARK Flexibility Score: inf
ROOT
ATOM      1  C   UNL A   1      33.222  31.546  27.851  1.00  0.00     0.274 C 
ENDROOT
BRANCH   1   2
ATOM      2  O   UNL A   1      33.613  30.755  26.609  1.00  0.00    -0.462 OA
BRANCH   2   3
ATOM      3  C   UNL A   1      33.685  29.382  26.647  1.00  0.00     0.314 C 
ATOM      4  O   UNL A   1      34.687  28.932  27.192  1.00  0.00    -0.252 OA
BRANCH   3   5
ATOM      5  C   UNL A   1      32.482  28.345  25.842  1.00  0.00     0.093 C 
ATOM      6  C   UNL A   1      31.431  29.405  25.589  1.00  0.00     0.023 C 
ATOM      7  C   UNL A   1      33.429  28.015  24.661  1.00  0.00     0.138 C 
ATOM      8  C   UNL A   1      30.787  29.166  24.257  1.00  0.00     0.023 C 
ATOM      9  N   UNL A   1      32.706  27.742  23.507  1.00  0.00    -0.341 N 
ATOM     10  C   UNL A   1      31.846  28.897  23.166  1.00  0.00     0.119 C 
BRANCH   5  11
ATOM     11  C   UNL A   1      31.486  26.835  26.175  1.00  0.00     0.099 C 
BRANCH  11  12
ATOM     12  C   UNL A   1      31.925  25.395  26.361  1.00  0.00     0.138 A 
ATOM     13  C   UNL A   1      32.833  23.370  26.479  1.00  0.00     0.114 A 
ATOM     14  C   UNL A   1      33.125  24.732  26.147  1.00  0.00     0.077 A 
ATOM     15  N   UNL A   1      31.682  23.298  27.165  1.00  0.00    -0.080 NA
ATOM     16  O   UNL A   1      31.159  24.588  27.155  1.00  0.00    -0.361 OA
BRANCH  13  17
ATOM     17  C   UNL A   1      33.546  22.189  25.964  1.00  0.00     0.004 A 
ATOM     18  C   UNL A   1      37.097  21.658  25.164  1.00  0.00     0.044 C 
ATOM     19  C   UNL A   1      35.653  21.367  25.270  1.00  0.00    -0.050 A 
ATOM     20  C   UNL A   1      35.132  20.105  24.943  1.00  0.00     0.003 A 
ATOM     21  C   UNL A   1      34.867  22.405  25.743  1.00  0.00     0.014 A 
ATOM     22  C   UNL A   1      33.788  19.885  25.053  1.00  0.00     0.001 A 
ATOM     23  C   UNL A   1      33.028  20.920  25.568  1.00  0.00     0.010 A 
ENDBRANCH  13  17
ENDBRANCH  11  12
ENDBRANCH   5  11
BRANCH   9  24
ATOM     24  C   UNL A   1      32.946  26.505  22.928  1.00  0.00     0.225 C 
ATOM     25  O   UNL A   1      33.975  25.845  23.092  1.00  0.00    -0.275 OA
BRANCH  24  26
ATOM     26  C   UNL A   1      31.809  25.939  22.159  1.00  0.00     0.072 C 
ATOM     27  C   UNL A   1      32.415  25.457  20.876  1.00  0.00     0.018 C 
ATOM     28  C   UNL A   1      31.101  24.831  22.851  1.00  0.00     0.018 C 
ENDBRANCH  24  26
ENDBRANCH   9  24
ENDBRANCH   3   5
ENDBRANCH   2   3
ENDBRANCH   1   2
BRANCH   1  29
ATOM     29  C   UNL A   1      33.759  33.008  27.651  1.00  0.00     0.275 C 
BRANCH  29  30
ATOM     30  O   UNL A   1      35.113  33.418  27.976  1.00  0.00    -0.458 OA
BRANCH  30  31
ATOM     31  C   UNL A   1      35.486  33.557  29.251  1.00  0.00     0.338 C 
ATOM     32  O   UNL A   1      35.198  34.492  29.980  1.00  0.00    -0.246 OA
BRANCH  31  33
ATOM     33  C   UNL A   1      36.460  32.497  29.559  1.00  0.00     0.060 A 
ATOM     34  C   UNL A   1      36.038  31.312  30.008  1.00  0.00     0.016 A 
ATOM     35  C   UNL A   1      37.733  32.412  29.147  1.00  0.00     0.016 A 
ATOM     36  C   UNL A   1      36.988  30.199  30.236  1.00  0.00     0.010 A 
ATOM     37  C   UNL A   1      38.384  31.186  29.160  1.00  0.00     0.010 A 
ATOM     38  C   UNL A   1      38.344  30.199  30.121  1.00  0.00    -0.014 A 
BRANCH  38  39
ATOM     39  C   UNL A   1      39.849  30.233  29.986  1.00  0.00     0.031 A 
ATOM     40  C   UNL A   1      39.936  28.555  29.277  1.00  0.00     0.074 A 
ATOM     41  C   UNL A   1      40.576  31.526  30.431  1.00  0.00     0.049 A 
ATOM     42  N   UNL A   1      40.344  27.430  29.804  1.00  0.00    -0.248 NA
ATOM     43  C   UNL A   1      39.119  27.917  28.046  1.00  0.00     0.031 C 
ATOM     44  C   UNL A   1      42.103  32.118  30.834  1.00  0.00     0.029 A 
ATOM     45  N   UNL A   1      39.978  32.721  30.979  1.00  0.00    -0.354 N 
ATOM     46  C   UNL A   1      40.699  26.591  28.692  1.00  0.00     0.074 A 
ATOM     47  C   UNL A   1      39.698  26.742  27.714  1.00  0.00     0.031 C 
ATOM     48  C   UNL A   1      42.043  32.843  32.009  1.00  0.00     0.029 A 
ATOM     49  C   UNL A   1      40.649  33.058  32.217  1.00  0.00     0.049 A 
ATOM     50  H   UNL A   1      39.235  33.224  30.576  1.00  0.00     0.167 HD
ATOM     51  C   UNL A   1      42.014  26.363  28.414  1.00  0.00     0.037 A 
ATOM     52  C   UNL A   1      40.033  32.649  33.335  1.00  0.00     0.037 A 
ATOM     53  C   UNL A   1      42.718  27.302  29.267  1.00  0.00     0.049 A 
ATOM     54  C   UNL A   1      40.719  31.285  33.568  1.00  0.00     0.074 A 
ATOM     55  C   UNL A   1      43.235  28.549  28.994  1.00  0.00     0.029 A 
ATOM     56  N   UNL A   1      42.483  27.254  30.631  1.00  0.00    -0.354 N 
ATOM     57  N   UNL A   1      41.090  30.343  32.717  1.00  0.00    -0.248 NA
ATOM     58  C   UNL A   1      41.247  31.116  34.878  1.00  0.00     0.031 C 
ATOM     59  C   UNL A   1      43.403  29.197  30.251  1.00  0.00     0.029 A 
ATOM     60  C   UNL A   1      42.860  28.415  31.268  1.00  0.00     0.049 A 
ATOM     61  H   UNL A   1      42.089  26.479  31.092  1.00  0.00     0.167 HD
ATOM     62  C   UNL A   1      42.002  29.501  33.323  1.00  0.00     0.074 A 
ATOM     63  C   UNL A   1      41.994  30.040  34.670  1.00  0.00     0.031 C 
ATOM     64  C   UNL A   1      42.731  28.476  32.739  1.00  0.00     0.037 A 
BRANCH  51  65
ATOM     65  C   UNL A   1      42.733  25.654  27.270  1.00  0.00     0.057 A 
ATOM     66  C   UNL A   1      42.783  24.241  27.348  1.00  0.00     0.134 A 
ATOM     67  C   UNL A   1      43.270  26.170  26.070  1.00  0.00     0.134 A 
ATOM     68  F   UNL A   1      42.274  23.576  28.391  1.00  0.00    -0.206 F 
ATOM     69  C   UNL A   1      43.309  23.407  26.364  1.00  0.00     0.040 A 
ATOM     70  C   UNL A   1      43.807  25.329  25.057  1.00  0.00     0.040 A 
ATOM     71  F   UNL A   1      43.270  27.484  25.797  1.00  0.00    -0.206 F 
ATOM     72  C   UNL A   1      43.821  23.944  25.203  1.00  0.00     0.006 A 
ENDBRANCH  51  65
BRANCH  52  73
ATOM     73  C   UNL A   1      38.604  32.891  33.047  1.00  0.00     0.057 A 
ATOM     74  C   UNL A   1      37.595  31.859  33.253  1.00  0.00     0.134 A 
ATOM     75  C   UNL A   1      38.227  34.201  33.136  1.00  0.00     0.134 A 
ATOM     76  F   UNL A   1      37.936  30.565  33.390  1.00  0.00    -0.206 F 
ATOM     77  C   UNL A   1      36.306  32.177  33.630  1.00  0.00     0.040 A 
ATOM     78  C   UNL A   1      36.896  34.479  33.172  1.00  0.00     0.040 A 
ATOM     79  F   UNL A   1      39.090  35.189  33.430  1.00  0.00    -0.206 F 
ATOM     80  C   UNL A   1      35.934  33.480  33.412  1.00  0.00     0.006 A 
ENDBRANCH  52  73
BRANCH  64  81
ATOM     81  C   UNL A   1      43.436  27.359  33.555  1.00  0.00     0.057 A 
ATOM     82  C   UNL A   1      42.802  26.469  34.432  1.00  0.00     0.134 A 
ATOM     83  C   UNL A   1      44.825  27.076  33.467  1.00  0.00     0.134 A 
ATOM     84  F   UNL A   1      41.531  26.488  34.770  1.00  0.00    -0.206 F 
ATOM     85  C   UNL A   1      43.408  25.432  35.126  1.00  0.00     0.040 A 
ATOM     86  C   UNL A   1      45.454  26.027  34.154  1.00  0.00     0.040 A 
ATOM     87  F   UNL A   1      45.691  27.778  32.728  1.00  0.00    -0.206 F 
ATOM     88  C   UNL A   1      44.744  25.201  34.997  1.00  0.00     0.006 A 
ENDBRANCH  64  81
ENDBRANCH  38  39
ENDBRANCH  31  33
ENDBRANCH  30  31
ENDBRANCH  29  30
ENDBRANCH   1  29
TORSDOF 16
ENDMDL
MODEL 3
REMARK VINA RESULT:     -13.0      3.009      8.020
REMARK SMILES Cc1cccc(-c2cc(C[C@]3(C(=O)OCCOC(=O)c4ccc(-c5c6nc(c(-c7c(F)cccc7F)c7ccc([nH]7)c(-c7c(F)cccc7F)c7nc(c(-c8c(F)cccc8F)c8ccc5[nH]8)C=C7)C=C6)cc4)CCCN(C(=O)C(C)C)C3)on2)c1
REMARK SMILES IDX 15 1 14 2 12 3 13 4 11 5 74 6 83 7 75 8 77 9 76 10 10 11
REMARK SMILES IDX 9 12 7 13 8 14 85 15 84 16 6 17 1 18 2 19 3 20 86 21 4 22
REMARK SMILES IDX 5 23 78 24 79 25 80 26 81 27 82 28 16 29 17 30 18 31 19 32
REMARK SMILES IDX 20 33 21 34 73 35 22 36 72 37 23 38 24 39 25 40 66 41 26 42
REMARK SMILES IDX 71 43 65 44 67 45 27 46 70 47 64 48 63 49 28 51 54 52 37 53
REMARK SMILES IDX 53 54 38 55 41 56 52 57 68 58 39 59 40 60 51 62 69 63 42 64
REMARK SMILES IDX 29 65 30 66 35 67 31 68 32 69 34 70 36 71 33 72 55 73 56 74
REMARK SMILES IDX 61 75 57 76 58 77 60 78 62 79 59 80 43 81 44 82 49 83 45 84
REMARK SMILES IDX 46 85 48 86 50 87 47 88
REMARK H PARENT 67 50 41 61
REMARK Flexibility Score: inf
ROOT
ATOM      1  C   UNL A   1      37.771  20.995  24.969  1.00  0.00     0.274 C 
ENDROOT
BRANCH   1   2
ATOM      2  O   UNL A   1      36.396  21.581  25.266  1.00  0.00    -0.462 OA
BRANCH   2   3
ATOM      3  C   UNL A   1      35.908  22.634  24.528  1.00  0.00     0.314 C 
ATOM      4  O   UNL A   1      36.761  23.407  24.104  1.00  0.00    -0.252 OA
BRANCH   3   5
ATOM      5  C   UNL A   1      34.164  22.923  24.323  1.00  0.00     0.093 C 
ATOM      6  C   UNL A   1      33.862  21.740  23.426  1.00  0.00     0.023 C 
ATOM      7  C   UNL A   1      33.868  22.739  25.832  1.00  0.00     0.138 C 
ATOM      8  C   UNL A   1      32.525  21.166  23.785  1.00  0.00     0.023 C 
ATOM      9  N   UNL A   1      32.574  22.272  26.031  1.00  0.00    -0.341 N 
ATOM     10  C   UNL A   1      32.384  20.993  25.312  1.00  0.00     0.119 C 
BRANCH   5  11
ATOM     11  C   UNL A   1      33.021  24.223  23.702  1.00  0.00     0.099 C 
BRANCH  11  12
ATOM     12  C   UNL A   1      32.891  25.681  24.100  1.00  0.00     0.138 A 
ATOM     13  C   UNL A   1      32.988  27.783  24.816  1.00  0.00     0.114 A 
ATOM     14  C   UNL A   1      33.777  26.602  24.640  1.00  0.00     0.077 A 
ATOM     15  N   UNL A   1      31.847  27.684  24.115  1.00  0.00    -0.080 NA
ATOM     16  O   UNL A   1      31.833  26.390  23.604  1.00  0.00    -0.361 OA
BRANCH  13  17
ATOM     17  C   UNL A   1      33.253  28.858  25.788  1.00  0.00     0.004 A 
ATOM     18  C   UNL A   1      31.335  31.874  26.652  1.00  0.00     0.044 C 
ATOM     19  C   UNL A   1      32.450  30.907  26.655  1.00  0.00    -0.050 A 
ATOM     20  C   UNL A   1      33.544  31.050  27.523  1.00  0.00     0.003 A 
ATOM     21  C   UNL A   1      32.321  29.843  25.776  1.00  0.00     0.014 A 
ATOM     22  C   UNL A   1      34.554  30.131  27.485  1.00  0.00     0.001 A 
ATOM     23  C   UNL A   1      34.386  29.054  26.633  1.00  0.00     0.010 A 
ENDBRANCH  13  17
ENDBRANCH  11  12
ENDBRANCH   5  11
BRANCH   9  24
ATOM     24  C   UNL A   1      31.772  23.060  26.843  1.00  0.00     0.225 C 
ATOM     25  O   UNL A   1      32.130  23.544  27.920  1.00  0.00    -0.275 OA
BRANCH  24  26
ATOM     26  C   UNL A   1      30.442  23.398  26.277  1.00  0.00     0.072 C 
ATOM     27  C   UNL A   1      29.456  22.732  27.187  1.00  0.00     0.018 C 
ATOM     28  C   UNL A   1      30.173  24.857  26.192  1.00  0.00     0.018 C 
ENDBRANCH  24  26
ENDBRANCH   9  24
ENDBRANCH   3   5
ENDBRANCH   2   3
ENDBRANCH   1   2
BRANCH   1  29
ATOM     29  C   UNL A   1      38.741  21.508  26.091  1.00  0.00     0.275 C 
BRANCH  29  30
ATOM     30  O   UNL A   1      40.176  21.642  25.913  1.00  0.00    -0.458 OA
BRANCH  30  31
ATOM     31  C   UNL A   1      40.968  21.839  26.970  1.00  0.00     0.338 C 
ATOM     32  O   UNL A   1      41.378  20.973  27.726  1.00  0.00    -0.246 OA
BRANCH  31  33
ATOM     33  C   UNL A   1      41.096  23.292  27.179  1.00  0.00     0.060 A 
ATOM     34  C   UNL A   1      40.851  24.135  26.174  1.00  0.00     0.016 A 
ATOM     35  C   UNL A   1      41.111  23.951  28.347  1.00  0.00     0.016 A 
ATOM     36  C   UNL A   1      40.881  25.601  26.381  1.00  0.00     0.010 A 
ATOM     37  C   UNL A   1      40.816  25.307  28.379  1.00  0.00     0.010 A 
ATOM     38  C   UNL A   1      41.211  26.296  27.504  1.00  0.00    -0.014 A 
BRANCH  38  39
ATOM     39  C   UNL A   1      41.585  27.037  28.766  1.00  0.00     0.031 A 
ATOM     40  C   UNL A   1      40.178  28.192  28.640  1.00  0.00     0.074 A 
ATOM     41  C   UNL A   1      42.833  26.545  29.540  1.00  0.00     0.049 A 
ATOM     42  N   UNL A   1      40.143  29.455  28.307  1.00  0.00    -0.248 NA
ATOM     43  C   UNL A   1      38.614  27.883  28.425  1.00  0.00     0.031 C 
ATOM     44  C   UNL A   1      43.931  27.022  30.728  1.00  0.00     0.029 A 
ATOM     45  N   UNL A   1      43.704  25.449  29.187  1.00  0.00    -0.354 N 
ATOM     46  C   UNL A   1      38.931  29.971  28.882  1.00  0.00     0.074 A 
ATOM     47  C   UNL A   1      37.920  29.019  28.657  1.00  0.00     0.031 C 
ATOM     48  C   UNL A   1      45.226  26.774  30.313  1.00  0.00     0.029 A 
ATOM     49  C   UNL A   1      45.074  25.917  29.183  1.00  0.00     0.049 A 
ATOM     50  H   UNL A   1      43.413  24.531  28.983  1.00  0.00     0.167 HD
ATOM     51  C   UNL A   1      38.997  30.774  29.982  1.00  0.00     0.037 A 
ATOM     52  C   UNL A   1      45.565  26.246  27.980  1.00  0.00     0.037 A 
ATOM     53  C   UNL A   1      40.380  30.671  30.407  1.00  0.00     0.049 A 
ATOM     54  C   UNL A   1      45.257  27.759  27.938  1.00  0.00     0.074 A 
ATOM     55  C   UNL A   1      40.967  29.885  31.374  1.00  0.00     0.029 A 
ATOM     56  N   UNL A   1      41.372  30.993  29.496  1.00  0.00    -0.354 N 
ATOM     57  N   UNL A   1      44.205  28.443  28.355  1.00  0.00    -0.248 NA
ATOM     58  C   UNL A   1      46.379  28.571  27.613  1.00  0.00     0.031 C 
ATOM     59  C   UNL A   1      42.357  29.845  31.069  1.00  0.00     0.029 A 
ATOM     60  C   UNL A   1      42.598  30.475  29.851  1.00  0.00     0.049 A 
ATOM     61  H   UNL A   1      41.219  31.532  28.686  1.00  0.00     0.167 HD
ATOM     62  C   UNL A   1      44.536  29.779  28.472  1.00  0.00     0.074 A 
ATOM     63  C   UNL A   1      45.887  29.758  27.945  1.00  0.00     0.031 C 
ATOM     64  C   UNL A   1      43.764  30.801  29.004  1.00  0.00     0.037 A 
BRANCH  51  65
ATOM     65  C   UNL A   1      37.938  31.374  30.904  1.00  0.00     0.057 A 
ATOM     66  C   UNL A   1      37.291  32.540  30.430  1.00  0.00     0.134 A 
ATOM     67  C   UNL A   1      37.407  30.890  32.120  1.00  0.00     0.134 A 
ATOM     68  F   UNL A   1      37.628  33.109  29.267  1.00  0.00    -0.206 F 
ATOM     69  C   UNL A   1      36.237  33.183  31.075  1.00  0.00     0.040 A 
ATOM     70  C   UNL A   1      36.330  31.536  32.786  1.00  0.00     0.040 A 
ATOM     71  F   UNL A   1      37.864  29.770  32.701  1.00  0.00    -0.206 F 
ATOM     72  C   UNL A   1      35.741  32.683  32.259  1.00  0.00     0.006 A 
ENDBRANCH  51  65
BRANCH  52  73
ATOM     73  C   UNL A   1      45.019  25.200  27.090  1.00  0.00     0.057 A 
ATOM     74  C   UNL A   1      44.300  25.533  25.866  1.00  0.00     0.134 A 
ATOM     75  C   UNL A   1      45.680  24.006  27.156  1.00  0.00     0.134 A 
ATOM     76  F   UNL A   1      43.813  26.770  25.656  1.00  0.00    -0.206 F 
ATOM     77  C   UNL A   1      44.358  24.720  24.752  1.00  0.00     0.040 A 
ATOM     78  C   UNL A   1      45.437  23.090  26.179  1.00  0.00     0.040 A 
ATOM     79  F   UNL A   1      46.718  23.792  27.982  1.00  0.00    -0.206 F 
ATOM     80  C   UNL A   1      44.777  23.434  24.985  1.00  0.00     0.006 A 
ENDBRANCH  52  73
BRANCH  64  81
ATOM     81  C   UNL A   1      44.056  32.307  28.756  1.00  0.00     0.057 A 
ATOM     82  C   UNL A   1      44.118  32.928  27.502  1.00  0.00     0.134 A 
ATOM     83  C   UNL A   1      44.249  33.253  29.797  1.00  0.00     0.134 A 
ATOM     84  F   UNL A   1      44.024  32.328  26.335  1.00  0.00    -0.206 F 
ATOM     85  C   UNL A   1      44.322  34.279  27.267  1.00  0.00     0.040 A 
ATOM     86  C   UNL A   1      44.450  34.625  29.579  1.00  0.00     0.040 A 
ATOM     87  F   UNL A   1      44.271  32.947  31.099  1.00  0.00    -0.206 F 
ATOM     88  C   UNL A   1      44.495  35.144  28.305  1.00  0.00     0.006 A 
ENDBRANCH  64  81
ENDBRANCH  38  39
ENDBRANCH  31  33
ENDBRANCH  30  31
ENDBRANCH  29  30
ENDBRANCH   1  29
TORSDOF 16
ENDMDL
