MODEL 1
REMARK VINA RESULT:     -10.1      0.000      0.000
REMARK SMILES O=C(OCCOC(=O)c1ccc(-c2c3nc(c(-c4c(F)cccc4F)c4ccc([nH]4)c(-c4c(F)cccc4F)c4nc(c(-c5c(F)cccc5F)c5ccc2[nH]5)C=C4)C=C3)cc1)C1=CCc2ccccc21
REMARK SMILES IDX 5 1 4 2 3 3 2 4 1 5 63 6 64 7 71 8 65 9 66 10 70 11 67 12
REMARK SMILES IDX 69 13 68 14 6 15 7 16 8 17 9 18 10 19 62 20 11 21 61 22
REMARK SMILES IDX 12 23 13 24 14 25 55 26 15 27 60 28 54 29 56 30 16 31 59 32
REMARK SMILES IDX 53 33 52 34 17 36 43 37 26 38 42 39 27 40 30 41 41 42 57 43
REMARK SMILES IDX 28 44 29 45 40 47 58 48 31 49 18 50 19 51 24 52 20 53 21 54
REMARK SMILES IDX 23 55 25 56 22 57 44 58 45 59 50 60 46 61 47 62 49 63 51 64
REMARK SMILES IDX 48 65 32 66 33 67 38 68 34 69 35 70 37 71 39 72 36 73
REMARK H PARENT 56 35 30 46
REMARK Flexibility Score: inf
ROOT
ATOM      1  C   UNL A   1      41.523  20.191  26.299  1.00  0.00     0.275 C 
ENDROOT
BRANCH   1   2
ATOM      2  C   UNL A   1      42.912  20.807  26.064  1.00  0.00     0.275 C 
BRANCH   2   3
ATOM      3  O   UNL A   1      42.901  21.790  24.998  1.00  0.00    -0.458 OA
BRANCH   3   4
ATOM      4  C   UNL A   1      43.978  22.482  24.527  1.00  0.00     0.338 C 
ATOM      5  O   UNL A   1      44.481  22.203  23.444  1.00  0.00    -0.246 OA
BRANCH   4   6
ATOM      6  C   UNL A   1      44.345  23.716  25.231  1.00  0.00     0.063 C 
ATOM      7  C   UNL A   1      45.673  23.902  25.364  1.00  0.00    -0.006 C 
ATOM      8  C   UNL A   1      43.693  25.017  25.315  1.00  0.00    -0.008 A 
ATOM      9  C   UNL A   1      46.040  25.357  25.345  1.00  0.00     0.064 C 
ATOM     10  C   UNL A   1      44.690  25.995  25.221  1.00  0.00    -0.036 A 
ATOM     11  C   UNL A   1      42.361  25.384  25.414  1.00  0.00     0.009 A 
ATOM     12  C   UNL A   1      44.375  27.328  25.025  1.00  0.00     0.004 A 
ATOM     13  C   UNL A   1      42.030  26.734  25.260  1.00  0.00     0.001 A 
ATOM     14  C   UNL A   1      43.028  27.691  25.021  1.00  0.00     0.000 A 
ENDBRANCH   4   6
ENDBRANCH   3   4
ENDBRANCH   2   3
ENDBRANCH   1   2
BRANCH   1  15
ATOM     15  O   UNL A   1      40.818  20.883  27.343  1.00  0.00    -0.458 OA
BRANCH  15  16
ATOM     16  C   UNL A   1      40.027  21.890  26.876  1.00  0.00     0.338 C 
ATOM     17  O   UNL A   1      39.083  21.759  26.127  1.00  0.00    -0.246 OA
BRANCH  16  18
ATOM     18  C   UNL A   1      40.373  23.171  27.549  1.00  0.00     0.060 A 
ATOM     19  C   UNL A   1      39.458  24.219  27.407  1.00  0.00     0.016 A 
ATOM     20  C   UNL A   1      41.523  23.353  28.326  1.00  0.00     0.016 A 
ATOM     21  C   UNL A   1      39.725  25.464  27.972  1.00  0.00     0.010 A 
ATOM     22  C   UNL A   1      41.776  24.599  28.918  1.00  0.00     0.010 A 
ATOM     23  C   UNL A   1      40.903  25.678  28.701  1.00  0.00    -0.014 A 
BRANCH  23  24
ATOM     24  C   UNL A   1      41.253  27.069  29.086  1.00  0.00     0.031 A 
ATOM     25  C   UNL A   1      42.672  27.545  28.914  1.00  0.00     0.074 A 
ATOM     26  C   UNL A   1      40.302  27.942  29.470  1.00  0.00     0.049 A 
ATOM     27  N   UNL A   1      43.159  28.756  29.015  1.00  0.00    -0.248 NA
ATOM     28  C   UNL A   1      43.675  26.523  28.575  1.00  0.00     0.031 C 
ATOM     29  C   UNL A   1      38.891  27.621  29.679  1.00  0.00     0.029 A 
ATOM     30  N   UNL A   1      40.384  29.289  29.728  1.00  0.00    -0.354 N 
ATOM     31  C   UNL A   1      44.513  28.645  28.727  1.00  0.00     0.074 A 
ATOM     32  C   UNL A   1      44.787  27.240  28.512  1.00  0.00     0.031 C 
ATOM     33  C   UNL A   1      38.235  28.746  30.012  1.00  0.00     0.029 A 
ATOM     34  C   UNL A   1      39.178  29.862  30.047  1.00  0.00     0.049 A 
ATOM     35  H   UNL A   1      41.227  29.794  29.687  1.00  0.00     0.167 HD
ATOM     36  C   UNL A   1      45.442  29.622  28.619  1.00  0.00     0.037 A 
ATOM     37  C   UNL A   1      38.868  31.145  30.323  1.00  0.00     0.037 A 
ATOM     38  C   UNL A   1      45.187  31.022  28.833  1.00  0.00     0.049 A 
ATOM     39  C   UNL A   1      39.935  32.207  30.247  1.00  0.00     0.074 A 
ATOM     40  C   UNL A   1      46.070  32.083  28.728  1.00  0.00     0.029 A 
ATOM     41  N   UNL A   1      43.962  31.555  29.198  1.00  0.00    -0.354 N 
ATOM     42  N   UNL A   1      41.195  32.096  29.909  1.00  0.00    -0.248 NA
ATOM     43  C   UNL A   1      39.524  33.581  30.576  1.00  0.00     0.031 C 
ATOM     44  C   UNL A   1      45.389  33.255  29.074  1.00  0.00     0.029 A 
ATOM     45  C   UNL A   1      44.071  32.928  29.346  1.00  0.00     0.049 A 
ATOM     46  H   UNL A   1      43.137  31.035  29.332  1.00  0.00     0.167 HD
ATOM     47  C   UNL A   1      41.719  33.383  29.959  1.00  0.00     0.074 A 
ATOM     48  C   UNL A   1      40.635  34.263  30.335  1.00  0.00     0.031 C 
ATOM     49  C   UNL A   1      42.987  33.799  29.719  1.00  0.00     0.037 A 
BRANCH  36  50
ATOM     50  C   UNL A   1      46.833  29.211  28.238  1.00  0.00     0.057 A 
ATOM     51  C   UNL A   1      47.761  28.793  29.199  1.00  0.00     0.134 A 
ATOM     52  C   UNL A   1      47.230  29.180  26.895  1.00  0.00     0.134 A 
ATOM     53  F   UNL A   1      47.446  28.813  30.504  1.00  0.00    -0.206 F 
ATOM     54  C   UNL A   1      49.042  28.370  28.841  1.00  0.00     0.040 A 
ATOM     55  C   UNL A   1      48.499  28.737  26.522  1.00  0.00     0.040 A 
ATOM     56  F   UNL A   1      46.386  29.565  25.926  1.00  0.00    -0.206 F 
ATOM     57  C   UNL A   1      49.411  28.333  27.497  1.00  0.00     0.006 A 
ENDBRANCH  36  50
BRANCH  37  58
ATOM     58  C   UNL A   1      37.479  31.517  30.697  1.00  0.00     0.057 A 
ATOM     59  C   UNL A   1      36.548  31.928  29.737  1.00  0.00     0.134 A 
ATOM     60  C   UNL A   1      37.074  31.532  32.037  1.00  0.00     0.134 A 
ATOM     61  F   UNL A   1      36.885  31.962  28.439  1.00  0.00    -0.206 F 
ATOM     62  C   UNL A   1      35.274  32.374  30.096  1.00  0.00     0.040 A 
ATOM     63  C   UNL A   1      35.795  31.949  32.409  1.00  0.00     0.040 A 
ATOM     64  F   UNL A   1      37.921  31.154  33.005  1.00  0.00    -0.206 F 
ATOM     65  C   UNL A   1      34.895  32.384  31.437  1.00  0.00     0.006 A 
ENDBRANCH  37  58
BRANCH  49  66
ATOM     66  C   UNL A   1      43.264  35.271  29.830  1.00  0.00     0.057 A 
ATOM     67  C   UNL A   1      43.758  35.842  31.011  1.00  0.00     0.134 A 
ATOM     68  C   UNL A   1      43.055  36.124  28.740  1.00  0.00     0.134 A 
ATOM     69  F   UNL A   1      43.972  35.082  32.097  1.00  0.00    -0.206 F 
ATOM     70  C   UNL A   1      44.004  37.213  31.112  1.00  0.00     0.040 A 
ATOM     71  C   UNL A   1      43.323  37.492  28.820  1.00  0.00     0.040 A 
ATOM     72  F   UNL A   1      42.596  35.643  27.575  1.00  0.00    -0.206 F 
ATOM     73  C   UNL A   1      43.790  38.041  30.012  1.00  0.00     0.006 A 
ENDBRANCH  49  66
ENDBRANCH  23  24
ENDBRANCH  16  18
ENDBRANCH  15  16
ENDBRANCH   1  15
TORSDOF 11
ENDMDL
MODEL 2
REMARK VINA RESULT:      -9.9      6.263     10.586
REMARK SMILES O=C(OCCOC(=O)c1ccc(-c2c3nc(c(-c4c(F)cccc4F)c4ccc([nH]4)c(-c4c(F)cccc4F)c4nc(c(-c5c(F)cccc5F)c5ccc2[nH]5)C=C4)C=C3)cc1)C1=CCc2ccccc21
REMARK SMILES IDX 5 1 4 2 3 3 2 4 1 5 63 6 64 7 71 8 65 9 66 10 70 11 67 12
REMARK SMILES IDX 69 13 68 14 6 15 7 16 8 17 9 18 10 19 62 20 11 21 61 22
REMARK SMILES IDX 12 23 13 24 14 25 55 26 15 27 60 28 54 29 56 30 16 31 59 32
REMARK SMILES IDX 53 33 52 34 17 36 43 37 26 38 42 39 27 40 30 41 41 42 57 43
REMARK SMILES IDX 28 44 29 45 40 47 58 48 31 49 18 50 19 51 24 52 20 53 21 54
REMARK SMILES IDX 23 55 25 56 22 57 44 58 45 59 50 60 46 61 47 62 49 63 51 64
REMARK SMILES IDX 48 65 32 66 33 67 38 68 34 69 35 70 37 71 39 72 36 73
REMARK H PARENT 56 35 30 46
REMARK Flexibility Score: inf
ROOT
ATOM      1  C   UNL A   1      33.054  35.996  29.216  1.00  0.00     0.275 C 
ENDROOT
BRANCH   1   2
ATOM      2  C   UNL A   1      34.262  35.292  28.577  1.00  0.00     0.275 C 
BRANCH   2   3
ATOM      3  O   UNL A   1      33.944  33.944  28.145  1.00  0.00    -0.458 OA
BRANCH   3   4
ATOM      4  C   UNL A   1      34.427  32.789  28.685  1.00  0.00     0.338 C 
ATOM      5  O   UNL A   1      34.455  32.626  29.900  1.00  0.00    -0.246 OA
BRANCH   4   6
ATOM      6  C   UNL A   1      34.667  31.667  27.770  1.00  0.00     0.063 C 
ATOM      7  C   UNL A   1      35.905  31.143  27.853  1.00  0.00    -0.006 C 
ATOM      8  C   UNL A   1      33.776  30.648  27.229  1.00  0.00    -0.008 A 
ATOM      9  C   UNL A   1      35.910  29.669  27.564  1.00  0.00     0.064 C 
ATOM     10  C   UNL A   1      34.465  29.429  27.257  1.00  0.00    -0.036 A 
ATOM     11  C   UNL A   1      32.466  30.700  26.784  1.00  0.00     0.009 A 
ATOM     12  C   UNL A   1      33.812  28.229  27.038  1.00  0.00     0.004 A 
ATOM     13  C   UNL A   1      31.805  29.498  26.517  1.00  0.00     0.001 A 
ATOM     14  C   UNL A   1      32.462  28.269  26.687  1.00  0.00     0.000 A 
ENDBRANCH   4   6
ENDBRANCH   3   4
ENDBRANCH   2   3
ENDBRANCH   1   2
BRANCH   1  15
ATOM     15  O   UNL A   1      32.548  35.247  30.333  1.00  0.00    -0.458 OA
BRANCH  15  16
ATOM     16  C   UNL A   1      32.815  35.833  31.534  1.00  0.00     0.338 C 
ATOM     17  O   UNL A   1      32.210  36.767  32.015  1.00  0.00    -0.246 OA
BRANCH  16  18
ATOM     18  C   UNL A   1      33.854  35.060  32.265  1.00  0.00     0.060 A 
ATOM     19  C   UNL A   1      35.149  35.587  32.255  1.00  0.00     0.016 A 
ATOM     20  C   UNL A   1      33.589  33.882  32.974  1.00  0.00     0.016 A 
ATOM     21  C   UNL A   1      36.190  34.904  32.881  1.00  0.00     0.010 A 
ATOM     22  C   UNL A   1      34.632  33.211  33.628  1.00  0.00     0.010 A 
ATOM     23  C   UNL A   1      35.949  33.692  33.542  1.00  0.00    -0.014 A 
BRANCH  23  24
ATOM     24  C   UNL A   1      37.115  32.890  33.993  1.00  0.00     0.031 A 
ATOM     25  C   UNL A   1      37.685  31.839  33.077  1.00  0.00     0.074 A 
ATOM     26  C   UNL A   1      37.741  33.170  35.153  1.00  0.00     0.049 A 
ATOM     27  N   UNL A   1      38.794  31.153  33.190  1.00  0.00    -0.248 NA
ATOM     28  C   UNL A   1      36.906  31.523  31.869  1.00  0.00     0.031 C 
ATOM     29  C   UNL A   1      37.302  34.159  36.136  1.00  0.00     0.029 A 
ATOM     30  N   UNL A   1      38.901  32.658  35.682  1.00  0.00    -0.354 N 
ATOM     31  C   UNL A   1      38.859  30.349  32.059  1.00  0.00     0.074 A 
ATOM     32  C   UNL A   1      37.646  30.581  31.305  1.00  0.00     0.031 C 
ATOM     33  C   UNL A   1      38.194  34.198  37.141  1.00  0.00     0.029 A 
ATOM     34  C   UNL A   1      39.261  33.234  36.876  1.00  0.00     0.049 A 
ATOM     35  H   UNL A   1      39.424  31.948  35.247  1.00  0.00     0.167 HD
ATOM     36  C   UNL A   1      39.848  29.515  31.664  1.00  0.00     0.037 A 
ATOM     37  C   UNL A   1      40.336  33.017  37.660  1.00  0.00     0.037 A 
ATOM     38  C   UNL A   1      41.058  29.272  32.404  1.00  0.00     0.049 A 
ATOM     39  C   UNL A   1      41.399  32.042  37.221  1.00  0.00     0.074 A 
ATOM     40  C   UNL A   1      42.122  28.452  32.067  1.00  0.00     0.029 A 
ATOM     41  N   UNL A   1      41.363  29.840  33.629  1.00  0.00    -0.354 N 
ATOM     42  N   UNL A   1      41.477  31.339  36.118  1.00  0.00    -0.248 NA
ATOM     43  C   UNL A   1      42.536  31.847  38.135  1.00  0.00     0.031 C 
ATOM     44  C   UNL A   1      43.052  28.491  33.111  1.00  0.00     0.029 A 
ATOM     45  C   UNL A   1      42.589  29.372  34.074  1.00  0.00     0.049 A 
ATOM     46  H   UNL A   1      40.793  30.482  34.112  1.00  0.00     0.167 HD
ATOM     47  C   UNL A   1      42.678  30.642  36.194  1.00  0.00     0.074 A 
ATOM     48  C   UNL A   1      43.308  31.025  37.439  1.00  0.00     0.031 C 
ATOM     49  C   UNL A   1      43.211  29.759  35.313  1.00  0.00     0.037 A 
BRANCH  36  50
ATOM     50  C   UNL A   1      39.670  28.807  30.354  1.00  0.00     0.057 A 
ATOM     51  C   UNL A   1      40.115  29.369  29.152  1.00  0.00     0.134 A 
ATOM     52  C   UNL A   1      39.097  27.530  30.302  1.00  0.00     0.134 A 
ATOM     53  F   UNL A   1      40.659  30.596  29.134  1.00  0.00    -0.206 F 
ATOM     54  C   UNL A   1      39.986  28.691  27.939  1.00  0.00     0.040 A 
ATOM     55  C   UNL A   1      38.984  26.833  29.099  1.00  0.00     0.040 A 
ATOM     56  F   UNL A   1      38.654  26.936  31.419  1.00  0.00    -0.206 F 
ATOM     57  C   UNL A   1      39.427  27.415  27.911  1.00  0.00     0.006 A 
ENDBRANCH  36  50
BRANCH  37  58
ATOM     58  C   UNL A   1      40.481  33.737  38.951  1.00  0.00     0.057 A 
ATOM     59  C   UNL A   1      39.791  33.329  40.098  1.00  0.00     0.134 A 
ATOM     60  C   UNL A   1      41.263  34.894  39.046  1.00  0.00     0.134 A 
ATOM     61  F   UNL A   1      39.003  32.244  40.062  1.00  0.00    -0.206 F 
ATOM     62  C   UNL A   1      39.846  34.063  41.285  1.00  0.00     0.040 A 
ATOM     63  C   UNL A   1      41.350  35.622  40.233  1.00  0.00     0.040 A 
ATOM     64  F   UNL A   1      41.945  35.340  37.981  1.00  0.00    -0.206 F 
ATOM     65  C   UNL A   1      40.630  35.213  41.354  1.00  0.00     0.006 A 
ENDBRANCH  37  58
BRANCH  49  66
ATOM     66  C   UNL A   1      44.549  29.167  35.651  1.00  0.00     0.057 A 
ATOM     67  C   UNL A   1      44.667  27.974  36.376  1.00  0.00     0.134 A 
ATOM     68  C   UNL A   1      45.733  29.786  35.231  1.00  0.00     0.134 A 
ATOM     69  F   UNL A   1      43.573  27.336  36.819  1.00  0.00    -0.206 F 
ATOM     70  C   UNL A   1      45.915  27.435  36.697  1.00  0.00     0.040 A 
ATOM     71  C   UNL A   1      46.985  29.242  35.521  1.00  0.00     0.040 A 
ATOM     72  F   UNL A   1      45.694  30.924  34.521  1.00  0.00    -0.206 F 
ATOM     73  C   UNL A   1      47.079  28.067  36.265  1.00  0.00     0.006 A 
ENDBRANCH  49  66
ENDBRANCH  23  24
ENDBRANCH  16  18
ENDBRANCH  15  16
ENDBRANCH   1  15
TORSDOF 11
ENDMDL
MODEL 3
REMARK VINA RESULT:      -9.9      3.608      5.746
REMARK SMILES O=C(OCCOC(=O)c1ccc(-c2c3nc(c(-c4c(F)cccc4F)c4ccc([nH]4)c(-c4c(F)cccc4F)c4nc(c(-c5c(F)cccc5F)c5ccc2[nH]5)C=C4)C=C3)cc1)C1=CCc2ccccc21
REMARK SMILES IDX 5 1 4 2 3 3 2 4 1 5 63 6 64 7 71 8 65 9 66 10 70 11 67 12
REMARK SMILES IDX 69 13 68 14 6 15 7 16 8 17 9 18 10 19 62 20 11 21 61 22
REMARK SMILES IDX 12 23 13 24 14 25 55 26 15 27 60 28 54 29 56 30 16 31 59 32
REMARK SMILES IDX 53 33 52 34 17 36 43 37 26 38 42 39 27 40 30 41 41 42 57 43
REMARK SMILES IDX 28 44 29 45 40 47 58 48 31 49 18 50 19 51 24 52 20 53 21 54
REMARK SMILES IDX 23 55 25 56 22 57 44 58 45 59 50 60 46 61 47 62 49 63 51 64
REMARK SMILES IDX 48 65 32 66 33 67 38 68 34 69 35 70 37 71 39 72 36 73
REMARK H PARENT 56 35 30 46
REMARK Flexibility Score: inf
ROOT
ATOM      1  C   UNL A   1      45.600  22.920  24.672  1.00  0.00     0.275 C 
ENDROOT
BRANCH   1   2
ATOM      2  C   UNL A   1      44.918  21.627  25.151  1.00  0.00     0.275 C 
BRANCH   2   3
ATOM      3  O   UNL A   1      43.473  21.748  25.176  1.00  0.00    -0.458 OA
BRANCH   3   4
ATOM      4  C   UNL A   1      42.597  20.836  25.685  1.00  0.00     0.338 C 
ATOM      5  O   UNL A   1      42.732  19.638  25.457  1.00  0.00    -0.246 OA
BRANCH   4   6
ATOM      6  C   UNL A   1      41.653  21.305  26.706  1.00  0.00     0.063 C 
ATOM      7  C   UNL A   1      42.238  21.745  27.837  1.00  0.00    -0.006 C 
ATOM      8  C   UNL A   1      40.339  21.926  26.602  1.00  0.00    -0.008 A 
ATOM      9  C   UNL A   1      41.452  22.850  28.481  1.00  0.00     0.064 C 
ATOM     10  C   UNL A   1      40.281  22.952  27.553  1.00  0.00    -0.036 A 
ATOM     11  C   UNL A   1      39.270  21.701  25.751  1.00  0.00     0.009 A 
ATOM     12  C   UNL A   1      39.260  23.886  27.542  1.00  0.00     0.004 A 
ATOM     13  C   UNL A   1      38.210  22.613  25.758  1.00  0.00     0.001 A 
ATOM     14  C   UNL A   1      38.229  23.723  26.617  1.00  0.00     0.000 A 
ENDBRANCH   4   6
ENDBRANCH   3   4
ENDBRANCH   2   3
ENDBRANCH   1   2
BRANCH   1  15
ATOM     15  O   UNL A   1      44.662  24.006  24.603  1.00  0.00    -0.458 OA
BRANCH  15  16
ATOM     16  C   UNL A   1      45.176  25.185  25.055  1.00  0.00     0.338 C 
ATOM     17  O   UNL A   1      46.167  25.735  24.625  1.00  0.00    -0.246 OA
BRANCH  16  18
ATOM     18  C   UNL A   1      44.254  25.803  26.045  1.00  0.00     0.060 A 
ATOM     19  C   UNL A   1      44.624  27.054  26.549  1.00  0.00     0.016 A 
ATOM     20  C   UNL A   1      43.047  25.220  26.451  1.00  0.00     0.016 A 
ATOM     21  C   UNL A   1      43.838  27.683  27.511  1.00  0.00     0.010 A 
ATOM     22  C   UNL A   1      42.242  25.869  27.398  1.00  0.00     0.010 A 
ATOM     23  C   UNL A   1      42.659  27.081  27.972  1.00  0.00    -0.014 A 
BRANCH  23  24
ATOM     24  C   UNL A   1      41.978  27.673  29.152  1.00  0.00     0.031 A 
ATOM     25  C   UNL A   1      42.605  27.527  30.513  1.00  0.00     0.074 A 
ATOM     26  C   UNL A   1      40.878  28.437  29.006  1.00  0.00     0.049 A 
ATOM     27  N   UNL A   1      42.283  28.107  31.642  1.00  0.00    -0.248 NA
ATOM     28  C   UNL A   1      43.753  26.611  30.618  1.00  0.00     0.031 C 
ATOM     29  C   UNL A   1      40.164  28.666  27.750  1.00  0.00     0.029 A 
ATOM     30  N   UNL A   1      40.186  29.183  29.929  1.00  0.00    -0.354 N 
ATOM     31  C   UNL A   1      43.201  27.649  32.579  1.00  0.00     0.074 A 
ATOM     32  C   UNL A   1      44.053  26.693  31.905  1.00  0.00     0.031 C 
ATOM     33  C   UNL A   1      39.147  29.514  27.978  1.00  0.00     0.029 A 
ATOM     34  C   UNL A   1      39.133  29.883  29.392  1.00  0.00     0.049 A 
ATOM     35  H   UNL A   1      40.423  29.214  30.883  1.00  0.00     0.167 HD
ATOM     36  C   UNL A   1      43.347  28.013  33.874  1.00  0.00     0.037 A 
ATOM     37  C   UNL A   1      38.264  30.733  29.974  1.00  0.00     0.037 A 
ATOM     38  C   UNL A   1      42.508  28.959  34.559  1.00  0.00     0.049 A 
ATOM     39  C   UNL A   1      38.417  31.079  31.433  1.00  0.00     0.074 A 
ATOM     40  C   UNL A   1      42.595  29.397  35.870  1.00  0.00     0.029 A 
ATOM     41  N   UNL A   1      41.425  29.610  33.991  1.00  0.00    -0.354 N 
ATOM     42  N   UNL A   1      39.330  30.689  32.288  1.00  0.00    -0.248 NA
ATOM     43  C   UNL A   1      37.422  32.003  32.002  1.00  0.00     0.031 C 
ATOM     44  C   UNL A   1      41.538  30.280  36.108  1.00  0.00     0.029 A 
ATOM     45  C   UNL A   1      40.821  30.429  34.932  1.00  0.00     0.049 A 
ATOM     46  H   UNL A   1      41.129  29.507  33.058  1.00  0.00     0.167 HD
ATOM     47  C   UNL A   1      39.036  31.338  33.483  1.00  0.00     0.074 A 
ATOM     48  C   UNL A   1      37.876  32.166  33.236  1.00  0.00     0.031 C 
ATOM     49  C   UNL A   1      39.668  31.253  34.679  1.00  0.00     0.037 A 
BRANCH  36  50
ATOM     50  C   UNL A   1      44.474  27.387  34.641  1.00  0.00     0.057 A 
ATOM     51  C   UNL A   1      44.316  26.166  35.307  1.00  0.00     0.134 A 
ATOM     52  C   UNL A   1      45.741  27.983  34.669  1.00  0.00     0.134 A 
ATOM     53  F   UNL A   1      43.122  25.552  35.329  1.00  0.00    -0.206 F 
ATOM     54  C   UNL A   1      45.375  25.563  35.986  1.00  0.00     0.040 A 
ATOM     55  C   UNL A   1      46.814  27.379  35.324  1.00  0.00     0.040 A 
ATOM     56  F   UNL A   1      45.958  29.152  34.048  1.00  0.00    -0.206 F 
ATOM     57  C   UNL A   1      46.632  26.166  35.988  1.00  0.00     0.006 A 
ENDBRANCH  36  50
BRANCH  37  58
ATOM     58  C   UNL A   1      37.159  31.335  29.183  1.00  0.00     0.057 A 
ATOM     59  C   UNL A   1      37.208  32.665  28.752  1.00  0.00     0.134 A 
ATOM     60  C   UNL A   1      35.998  30.606  28.899  1.00  0.00     0.134 A 
ATOM     61  F   UNL A   1      38.282  33.423  29.019  1.00  0.00    -0.206 F 
ATOM     62  C   UNL A   1      36.129  33.262  28.097  1.00  0.00     0.040 A 
ATOM     63  C   UNL A   1      34.923  31.181  28.221  1.00  0.00     0.040 A 
ATOM     64  F   UNL A   1      35.887  29.328  29.289  1.00  0.00    -0.206 F 
ATOM     65  C   UNL A   1      34.982  32.517  27.828  1.00  0.00     0.006 A 
ENDBRANCH  37  58
BRANCH  49  66
ATOM     66  C   UNL A   1      39.135  32.093  35.804  1.00  0.00     0.057 A 
ATOM     67  C   UNL A   1      39.526  33.427  35.979  1.00  0.00     0.134 A 
ATOM     68  C   UNL A   1      38.206  31.569  36.712  1.00  0.00     0.134 A 
ATOM     69  F   UNL A   1      40.420  33.988  35.150  1.00  0.00    -0.206 F 
ATOM     70  C   UNL A   1      39.035  34.200  37.033  1.00  0.00     0.040 A 
ATOM     71  C   UNL A   1      37.687  32.340  37.753  1.00  0.00     0.040 A 
ATOM     72  F   UNL A   1      37.778  30.303  36.597  1.00  0.00    -0.206 F 
ATOM     73  C   UNL A   1      38.109  33.658  37.922  1.00  0.00     0.006 A 
ENDBRANCH  49  66
ENDBRANCH  23  24
ENDBRANCH  16  18
ENDBRANCH  15  16
ENDBRANCH   1  15
TORSDOF 11
ENDMDL
