MODEL 1
REMARK VINA RESULT:     -11.0      0.000      0.000
REMARK SMILES CCCOc1cccc([C@H]2CC[NH2+][C@@H]2C(=O)OCCOC(=O)c2ccc(-c3c4nc(c(-c5c(F)cccc5F)c5ccc([nH]5)c(-c5c(F)cccc5F)c5nc(c(-c6c(F)cccc6F)c6ccc3[nH]6)C=C5)C=C4)cc2)c1
REMARK SMILES IDX 18 1 17 2 15 3 16 4 14 5 10 6 11 7 12 8 13 9 9 12 5 13 6 14
REMARK SMILES IDX 77 15 7 16 8 17 4 18 3 19 2 20 1 21 19 22 20 23 21 24 22 25
REMARK SMILES IDX 23 26 24 27 76 28 25 29 75 30 26 31 27 32 28 33 69 34 29 35
REMARK SMILES IDX 74 36 68 37 70 38 30 39 73 40 67 41 66 42 31 44 57 45 40 46
REMARK SMILES IDX 56 47 41 48 44 49 55 50 71 51 42 52 43 53 54 55 72 56 45 57
REMARK SMILES IDX 32 58 33 59 38 60 34 61 35 62 37 63 39 64 36 65 58 66 59 67
REMARK SMILES IDX 64 68 60 69 61 70 63 71 65 72 62 73 46 74 47 75 52 76 48 77
REMARK SMILES IDX 49 78 51 79 53 80 50 81
REMARK H PARENT 13 10 13 11 70 43 44 54
REMARK Flexibility Score: inf
ROOT
ATOM      1  C   UNL A   1      33.586  33.521  28.159  1.00  0.00     0.274 C 
ENDROOT
BRANCH   1   2
ATOM      2  O   UNL A   1      33.621  32.140  27.740  1.00  0.00    -0.458 OA
BRANCH   2   3
ATOM      3  C   UNL A   1      32.571  31.732  26.967  1.00  0.00     0.365 C 
ATOM      4  O   UNL A   1      31.477  32.285  26.935  1.00  0.00    -0.245 OA
BRANCH   3   5
ATOM      5  C   UNL A   1      32.965  30.508  26.114  1.00  0.00     0.301 C 
ATOM      6  C   UNL A   1      31.919  29.376  26.281  1.00  0.00     0.095 C 
ATOM      7  C   UNL A   1      32.712  28.255  26.976  1.00  0.00     0.076 C 
ATOM      8  C   UNL A   1      33.895  28.955  27.607  1.00  0.00     0.262 C 
ATOM      9  N   UNL A   1      34.265  29.957  26.604  1.00  0.00    -0.334 N 
ATOM     10  H   UNL A   1      34.783  29.524  25.838  1.00  0.00     0.347 HD
ATOM     11  H   UNL A   1      34.869  30.683  26.989  1.00  0.00     0.347 HD
BRANCH   6  12
ATOM     12  C   UNL A   1      31.160  28.859  25.073  1.00  0.00    -0.034 A 
ATOM     13  C   UNL A   1      29.910  29.208  23.027  1.00  0.00     0.119 A 
ATOM     14  C   UNL A   1      29.900  27.846  22.755  1.00  0.00     0.046 A 
ATOM     15  C   UNL A   1      30.457  29.701  24.210  1.00  0.00     0.050 A 
ATOM     16  C   UNL A   1      30.498  26.974  23.658  1.00  0.00     0.004 A 
ATOM     17  C   UNL A   1      31.132  27.476  24.799  1.00  0.00     0.004 A 
BRANCH  13  18
ATOM     18  O   UNL A   1      29.360  30.080  22.126  1.00  0.00    -0.494 OA
BRANCH  18  19
ATOM     19  C   UNL A   1      28.372  30.918  22.758  1.00  0.00     0.229 C 
BRANCH  19  20
ATOM     20  C   UNL A   1      28.411  32.347  22.207  1.00  0.00     0.038 C 
ATOM     21  C   UNL A   1      29.152  33.315  23.125  1.00  0.00     0.007 C 
ENDBRANCH  19  20
ENDBRANCH  18  19
ENDBRANCH  13  18
ENDBRANCH   6  12
ENDBRANCH   3   5
ENDBRANCH   2   3
ENDBRANCH   1   2
BRANCH   1  22
ATOM     22  C   UNL A   1      34.160  33.679  29.563  1.00  0.00     0.275 C 
BRANCH  22  23
ATOM     23  O   UNL A   1      34.251  32.390  30.192  1.00  0.00    -0.458 OA
BRANCH  23  24
ATOM     24  C   UNL A   1      35.165  32.279  31.179  1.00  0.00     0.338 C 
ATOM     25  O   UNL A   1      35.096  32.768  32.300  1.00  0.00    -0.246 OA
BRANCH  24  26
ATOM     26  C   UNL A   1      36.300  31.435  30.750  1.00  0.00     0.060 A 
ATOM     27  C   UNL A   1      37.096  30.770  31.682  1.00  0.00     0.016 A 
ATOM     28  C   UNL A   1      36.663  31.421  29.404  1.00  0.00     0.016 A 
ATOM     29  C   UNL A   1      38.331  30.245  31.298  1.00  0.00     0.010 A 
ATOM     30  C   UNL A   1      37.833  30.768  29.002  1.00  0.00     0.010 A 
ATOM     31  C   UNL A   1      38.717  30.222  29.949  1.00  0.00    -0.014 A 
BRANCH  31  32
ATOM     32  C   UNL A   1      40.048  29.688  29.524  1.00  0.00     0.031 A 
ATOM     33  C   UNL A   1      41.255  30.594  29.502  1.00  0.00     0.074 A 
ATOM     34  C   UNL A   1      40.203  28.399  29.156  1.00  0.00     0.049 A 
ATOM     35  N   UNL A   1      42.409  30.423  28.906  1.00  0.00    -0.248 NA
ATOM     36  C   UNL A   1      41.144  31.872  30.227  1.00  0.00     0.031 C 
ATOM     37  C   UNL A   1      39.159  27.373  29.165  1.00  0.00     0.029 A 
ATOM     38  N   UNL A   1      41.315  27.729  28.703  1.00  0.00    -0.354 N 
ATOM     39  C   UNL A   1      43.118  31.603  29.099  1.00  0.00     0.074 A 
ATOM     40  C   UNL A   1      42.277  32.474  29.894  1.00  0.00     0.031 C 
ATOM     41  C   UNL A   1      39.691  26.197  28.801  1.00  0.00     0.029 A 
ATOM     42  C   UNL A   1      41.081  26.404  28.419  1.00  0.00     0.049 A 
ATOM     43  H   UNL A   1      42.195  28.157  28.594  1.00  0.00     0.167 HD
ATOM     44  C   UNL A   1      44.352  31.933  28.646  1.00  0.00     0.037 A 
ATOM     45  C   UNL A   1      41.874  25.469  27.863  1.00  0.00     0.037 A 
ATOM     46  C   UNL A   1      45.226  31.036  27.937  1.00  0.00     0.049 A 
ATOM     47  C   UNL A   1      43.248  25.845  27.394  1.00  0.00     0.074 A 
ATOM     48  C   UNL A   1      46.491  31.281  27.429  1.00  0.00     0.029 A 
ATOM     49  N   UNL A   1      44.942  29.705  27.674  1.00  0.00    -0.354 N 
ATOM     50  N   UNL A   1      43.854  27.004  27.464  1.00  0.00    -0.248 NA
ATOM     51  C   UNL A   1      44.033  24.791  26.734  1.00  0.00     0.031 C 
ATOM     52  C   UNL A   1      46.970  30.099  26.853  1.00  0.00     0.029 A 
ATOM     53  C   UNL A   1      46.012  29.113  27.025  1.00  0.00     0.049 A 
ATOM     54  H   UNL A   1      44.103  29.248  27.915  1.00  0.00     0.167 HD
ATOM     55  C   UNL A   1      45.086  26.823  26.851  1.00  0.00     0.074 A 
ATOM     56  C   UNL A   1      45.155  25.436  26.442  1.00  0.00     0.031 C 
ATOM     57  C   UNL A   1      46.066  27.731  26.631  1.00  0.00     0.037 A 
BRANCH  44  58
ATOM     58  C   UNL A   1      44.825  33.339  28.871  1.00  0.00     0.057 A 
ATOM     59  C   UNL A   1      45.614  33.694  29.969  1.00  0.00     0.134 A 
ATOM     60  C   UNL A   1      44.527  34.339  27.936  1.00  0.00     0.134 A 
ATOM     61  F   UNL A   1      45.922  32.786  30.907  1.00  0.00    -0.206 F 
ATOM     62  C   UNL A   1      46.082  34.999  30.137  1.00  0.00     0.040 A 
ATOM     63  C   UNL A   1      45.005  35.642  28.082  1.00  0.00     0.040 A 
ATOM     64  F   UNL A   1      43.779  34.062  26.857  1.00  0.00    -0.206 F 
ATOM     65  C   UNL A   1      45.785  35.976  29.187  1.00  0.00     0.006 A 
ENDBRANCH  44  58
BRANCH  45  66
ATOM     66  C   UNL A   1      41.358  24.091  27.663  1.00  0.00     0.057 A 
ATOM     67  C   UNL A   1      40.417  23.812  26.667  1.00  0.00     0.134 A 
ATOM     68  C   UNL A   1      41.800  23.024  28.453  1.00  0.00     0.134 A 
ATOM     69  F   UNL A   1      39.936  24.799  25.896  1.00  0.00    -0.206 F 
ATOM     70  C   UNL A   1      39.931  22.519  26.465  1.00  0.00     0.040 A 
ATOM     71  C   UNL A   1      41.343  21.722  28.245  1.00  0.00     0.040 A 
ATOM     72  F   UNL A   1      42.703  23.229  29.425  1.00  0.00    -0.206 F 
ATOM     73  C   UNL A   1      40.401  21.468  27.250  1.00  0.00     0.006 A 
ENDBRANCH  45  66
BRANCH  57  74
ATOM     74  C   UNL A   1      47.298  27.243  25.935  1.00  0.00     0.057 A 
ATOM     75  C   UNL A   1      47.436  27.334  24.545  1.00  0.00     0.134 A 
ATOM     76  C   UNL A   1      48.359  26.693  26.662  1.00  0.00     0.134 A 
ATOM     77  F   UNL A   1      46.446  27.838  23.794  1.00  0.00    -0.206 F 
ATOM     78  C   UNL A   1      48.586  26.877  23.899  1.00  0.00     0.040 A 
ATOM     79  C   UNL A   1      49.520  26.248  26.029  1.00  0.00     0.040 A 
ATOM     80  F   UNL A   1      48.285  26.582  27.997  1.00  0.00    -0.206 F 
ATOM     81  C   UNL A   1      49.633  26.335  24.643  1.00  0.00     0.006 A 
ENDBRANCH  57  74
ENDBRANCH  31  32
ENDBRANCH  24  26
ENDBRANCH  23  24
ENDBRANCH  22  23
ENDBRANCH   1  22
TORSDOF 15
ENDMDL
MODEL 2
REMARK VINA RESULT:     -10.9      4.735      8.473
REMARK SMILES CCCOc1cccc([C@H]2CC[NH2+][C@@H]2C(=O)OCCOC(=O)c2ccc(-c3c4nc(c(-c5c(F)cccc5F)c5ccc([nH]5)c(-c5c(F)cccc5F)c5nc(c(-c6c(F)cccc6F)c6ccc3[nH]6)C=C5)C=C4)cc2)c1
REMARK SMILES IDX 18 1 17 2 15 3 16 4 14 5 10 6 11 7 12 8 13 9 9 12 5 13 6 14
REMARK SMILES IDX 77 15 7 16 8 17 4 18 3 19 2 20 1 21 19 22 20 23 21 24 22 25
REMARK SMILES IDX 23 26 24 27 76 28 25 29 75 30 26 31 27 32 28 33 69 34 29 35
REMARK SMILES IDX 74 36 68 37 70 38 30 39 73 40 67 41 66 42 31 44 57 45 40 46
REMARK SMILES IDX 56 47 41 48 44 49 55 50 71 51 42 52 43 53 54 55 72 56 45 57
REMARK SMILES IDX 32 58 33 59 38 60 34 61 35 62 37 63 39 64 36 65 58 66 59 67
REMARK SMILES IDX 64 68 60 69 61 70 63 71 65 72 62 73 46 74 47 75 52 76 48 77
REMARK SMILES IDX 49 78 51 79 53 80 50 81
REMARK H PARENT 13 10 13 11 70 43 44 54
REMARK Flexibility Score: inf
ROOT
ATOM      1  C   UNL A   1      32.818  29.165  24.580  1.00  0.00     0.274 C 
ENDROOT
BRANCH   1   2
ATOM      2  O   UNL A   1      33.176  27.930  25.236  1.00  0.00    -0.458 OA
BRANCH   2   3
ATOM      3  C   UNL A   1      32.784  26.788  24.596  1.00  0.00     0.365 C 
ATOM      4  O   UNL A   1      32.666  26.679  23.380  1.00  0.00    -0.245 OA
BRANCH   3   5
ATOM      5  C   UNL A   1      32.552  25.648  25.609  1.00  0.00     0.301 C 
ATOM      6  C   UNL A   1      31.964  24.404  24.895  1.00  0.00     0.095 C 
ATOM      7  C   UNL A   1      30.557  24.274  25.503  1.00  0.00     0.076 C 
ATOM      8  C   UNL A   1      30.250  25.646  26.060  1.00  0.00     0.262 C 
ATOM      9  N   UNL A   1      31.535  26.076  26.616  1.00  0.00    -0.334 N 
ATOM     10  H   UNL A   1      31.707  25.623  27.515  1.00  0.00     0.347 HD
ATOM     11  H   UNL A   1      31.563  27.081  26.788  1.00  0.00     0.347 HD
BRANCH   6  12
ATOM     12  C   UNL A   1      32.713  23.084  24.927  1.00  0.00    -0.034 A 
ATOM     13  C   UNL A   1      32.772  20.663  25.003  1.00  0.00     0.119 A 
ATOM     14  C   UNL A   1      34.148  20.653  24.817  1.00  0.00     0.046 A 
ATOM     15  C   UNL A   1      32.075  21.863  25.142  1.00  0.00     0.050 A 
ATOM     16  C   UNL A   1      34.824  21.863  24.711  1.00  0.00     0.004 A 
ATOM     17  C   UNL A   1      34.112  23.067  24.754  1.00  0.00     0.004 A 
BRANCH  13  18
ATOM     18  O   UNL A   1      32.090  19.478  25.067  1.00  0.00    -0.494 OA
BRANCH  18  19
ATOM     19  C   UNL A   1      32.999  18.360  25.042  1.00  0.00     0.229 C 
BRANCH  19  20
ATOM     20  C   UNL A   1      32.769  17.476  23.810  1.00  0.00     0.038 C 
ATOM     21  C   UNL A   1      34.072  16.983  23.186  1.00  0.00     0.007 C 
ENDBRANCH  19  20
ENDBRANCH  18  19
ENDBRANCH  13  18
ENDBRANCH   6  12
ENDBRANCH   3   5
ENDBRANCH   2   3
ENDBRANCH   1   2
BRANCH   1  22
ATOM     22  C   UNL A   1      31.784  29.935  25.395  1.00  0.00     0.275 C 
BRANCH  22  23
ATOM     23  O   UNL A   1      32.229  30.040  26.758  1.00  0.00    -0.458 OA
BRANCH  23  24
ATOM     24  C   UNL A   1      32.849  31.192  27.088  1.00  0.00     0.338 C 
ATOM     25  O   UNL A   1      32.367  32.319  27.060  1.00  0.00    -0.246 OA
BRANCH  24  26
ATOM     26  C   UNL A   1      34.233  30.933  27.537  1.00  0.00     0.060 A 
ATOM     27  C   UNL A   1      34.669  29.639  27.817  1.00  0.00     0.016 A 
ATOM     28  C   UNL A   1      35.068  32.013  27.818  1.00  0.00     0.016 A 
ATOM     29  C   UNL A   1      35.852  29.439  28.531  1.00  0.00     0.010 A 
ATOM     30  C   UNL A   1      36.319  31.796  28.405  1.00  0.00     0.010 A 
ATOM     31  C   UNL A   1      36.706  30.512  28.827  1.00  0.00    -0.014 A 
BRANCH  31  32
ATOM     32  C   UNL A   1      37.963  30.319  29.613  1.00  0.00     0.031 A 
ATOM     33  C   UNL A   1      39.117  29.546  29.018  1.00  0.00     0.074 A 
ATOM     34  C   UNL A   1      38.099  30.824  30.856  1.00  0.00     0.049 A 
ATOM     35  N   UNL A   1      40.158  29.021  29.614  1.00  0.00    -0.248 NA
ATOM     36  C   UNL A   1      39.084  29.313  27.563  1.00  0.00     0.031 C 
ATOM     37  C   UNL A   1      37.110  31.636  31.565  1.00  0.00     0.029 A 
ATOM     38  N   UNL A   1      39.143  30.729  31.748  1.00  0.00    -0.354 N 
ATOM     39  C   UNL A   1      40.846  28.319  28.632  1.00  0.00     0.074 A 
ATOM     40  C   UNL A   1      40.122  28.507  27.393  1.00  0.00     0.031 C 
ATOM     41  C   UNL A   1      37.614  32.015  32.749  1.00  0.00     0.029 A 
ATOM     42  C   UNL A   1      38.911  31.380  32.936  1.00  0.00     0.049 A 
ATOM     43  H   UNL A   1      39.975  30.240  31.553  1.00  0.00     0.167 HD
ATOM     44  C   UNL A   1      41.973  27.576  28.757  1.00  0.00     0.037 A 
ATOM     45  C   UNL A   1      39.631  31.421  34.074  1.00  0.00     0.037 A 
ATOM     46  C   UNL A   1      42.746  27.464  29.966  1.00  0.00     0.049 A 
ATOM     47  C   UNL A   1      40.892  30.616  34.183  1.00  0.00     0.074 A 
ATOM     48  C   UNL A   1      43.897  26.728  30.193  1.00  0.00     0.029 A 
ATOM     49  N   UNL A   1      42.469  28.143  31.141  1.00  0.00    -0.354 N 
ATOM     50  N   UNL A   1      41.458  29.848  33.286  1.00  0.00    -0.248 NA
ATOM     51  C   UNL A   1      41.590  30.653  35.476  1.00  0.00     0.031 C 
ATOM     52  C   UNL A   1      44.313  26.958  31.509  1.00  0.00     0.029 A 
ATOM     53  C   UNL A   1      43.435  27.856  32.092  1.00  0.00     0.049 A 
ATOM     54  H   UNL A   1      41.700  28.743  31.281  1.00  0.00     0.167 HD
ATOM     55  C   UNL A   1      42.575  29.304  33.907  1.00  0.00     0.074 A 
ATOM     56  C   UNL A   1      42.623  29.854  35.246  1.00  0.00     0.031 C 
ATOM     57  C   UNL A   1      43.471  28.415  33.416  1.00  0.00     0.037 A 
BRANCH  44  58
ATOM     58  C   UNL A   1      42.427  26.792  27.561  1.00  0.00     0.057 A 
ATOM     59  C   UNL A   1      41.998  25.483  27.318  1.00  0.00     0.134 A 
ATOM     60  C   UNL A   1      43.268  27.385  26.609  1.00  0.00     0.134 A 
ATOM     61  F   UNL A   1      41.204  24.854  28.198  1.00  0.00    -0.206 F 
ATOM     62  C   UNL A   1      42.396  24.786  26.176  1.00  0.00     0.040 A 
ATOM     63  C   UNL A   1      43.657  26.707  25.453  1.00  0.00     0.040 A 
ATOM     64  F   UNL A   1      43.710  28.641  26.779  1.00  0.00    -0.206 F 
ATOM     65  C   UNL A   1      43.222  25.401  25.235  1.00  0.00     0.006 A 
ENDBRANCH  44  58
BRANCH  45  66
ATOM     66  C   UNL A   1      39.138  32.213  35.228  1.00  0.00     0.057 A 
ATOM     67  C   UNL A   1      38.347  31.626  36.220  1.00  0.00     0.134 A 
ATOM     68  C   UNL A   1      39.455  33.570  35.372  1.00  0.00     0.134 A 
ATOM     69  F   UNL A   1      37.988  30.337  36.123  1.00  0.00    -0.206 F 
ATOM     70  C   UNL A   1      37.884  32.359  37.314  1.00  0.00     0.040 A 
ATOM     71  C   UNL A   1      39.022  34.308  36.473  1.00  0.00     0.040 A 
ATOM     72  F   UNL A   1      40.211  34.189  34.453  1.00  0.00    -0.206 F 
ATOM     73  C   UNL A   1      38.230  33.703  37.447  1.00  0.00     0.006 A 
ENDBRANCH  45  66
BRANCH  57  74
ATOM     74  C   UNL A   1      44.584  28.001  34.327  1.00  0.00     0.057 A 
ATOM     75  C   UNL A   1      45.783  28.720  34.389  1.00  0.00     0.134 A 
ATOM     76  C   UNL A   1      44.447  26.885  35.160  1.00  0.00     0.134 A 
ATOM     77  F   UNL A   1      45.977  29.789  33.603  1.00  0.00    -0.206 F 
ATOM     78  C   UNL A   1      46.819  28.331  35.240  1.00  0.00     0.040 A 
ATOM     79  C   UNL A   1      45.469  26.496  36.026  1.00  0.00     0.040 A 
ATOM     80  F   UNL A   1      43.319  26.159  35.147  1.00  0.00    -0.206 F 
ATOM     81  C   UNL A   1      46.661  27.217  36.064  1.00  0.00     0.006 A 
ENDBRANCH  57  74
ENDBRANCH  31  32
ENDBRANCH  24  26
ENDBRANCH  23  24
ENDBRANCH  22  23
ENDBRANCH   1  22
TORSDOF 15
ENDMDL
MODEL 3
REMARK VINA RESULT:     -10.8      3.646      7.820
REMARK SMILES CCCOc1cccc([C@H]2CC[NH2+][C@@H]2C(=O)OCCOC(=O)c2ccc(-c3c4nc(c(-c5c(F)cccc5F)c5ccc([nH]5)c(-c5c(F)cccc5F)c5nc(c(-c6c(F)cccc6F)c6ccc3[nH]6)C=C5)C=C4)cc2)c1
REMARK SMILES IDX 18 1 17 2 15 3 16 4 14 5 10 6 11 7 12 8 13 9 9 12 5 13 6 14
REMARK SMILES IDX 77 15 7 16 8 17 4 18 3 19 2 20 1 21 19 22 20 23 21 24 22 25
REMARK SMILES IDX 23 26 24 27 76 28 25 29 75 30 26 31 27 32 28 33 69 34 29 35
REMARK SMILES IDX 74 36 68 37 70 38 30 39 73 40 67 41 66 42 31 44 57 45 40 46
REMARK SMILES IDX 56 47 41 48 44 49 55 50 71 51 42 52 43 53 54 55 72 56 45 57
REMARK SMILES IDX 32 58 33 59 38 60 34 61 35 62 37 63 39 64 36 65 58 66 59 67
REMARK SMILES IDX 64 68 60 69 61 70 63 71 65 72 62 73 46 74 47 75 52 76 48 77
REMARK SMILES IDX 49 78 51 79 53 80 50 81
REMARK H PARENT 13 10 13 11 70 43 44 54
REMARK Flexibility Score: inf
ROOT
ATOM      1  C   UNL A   1      34.978  20.208  25.030  1.00  0.00     0.274 C 
ENDROOT
BRANCH   1   2
ATOM      2  O   UNL A   1      33.976  20.976  24.332  1.00  0.00    -0.458 OA
BRANCH   2   3
ATOM      3  C   UNL A   1      32.750  21.030  24.935  1.00  0.00     0.365 C 
ATOM      4  O   UNL A   1      31.966  20.091  24.998  1.00  0.00    -0.245 OA
BRANCH   3   5
ATOM      5  C   UNL A   1      32.511  22.421  25.558  1.00  0.00     0.301 C 
ATOM      6  C   UNL A   1      33.745  23.332  25.336  1.00  0.00     0.095 C 
ATOM      7  C   UNL A   1      34.277  23.569  26.760  1.00  0.00     0.076 C 
ATOM      8  C   UNL A   1      33.703  22.435  27.579  1.00  0.00     0.262 C 
ATOM      9  N   UNL A   1      32.350  22.283  27.038  1.00  0.00    -0.334 N 
ATOM     10  H   UNL A   1      31.734  23.011  27.402  1.00  0.00     0.347 HD
ATOM     11  H   UNL A   1      31.930  21.390  27.297  1.00  0.00     0.347 HD
BRANCH   6  12
ATOM     12  C   UNL A   1      33.601  24.632  24.567  1.00  0.00    -0.034 A 
ATOM     13  C   UNL A   1      33.627  27.052  24.439  1.00  0.00     0.119 A 
ATOM     14  C   UNL A   1      33.489  27.019  23.058  1.00  0.00     0.046 A 
ATOM     15  C   UNL A   1      33.598  25.879  25.192  1.00  0.00     0.050 A 
ATOM     16  C   UNL A   1      33.378  25.788  22.420  1.00  0.00     0.004 A 
ATOM     17  C   UNL A   1      33.445  24.606  23.166  1.00  0.00     0.004 A 
BRANCH  13  18
ATOM     18  O   UNL A   1      33.778  28.255  25.074  1.00  0.00    -0.494 OA
BRANCH  18  19
ATOM     19  C   UNL A   1      33.840  28.078  26.503  1.00  0.00     0.229 C 
BRANCH  19  20
ATOM     20  C   UNL A   1      33.731  29.418  27.241  1.00  0.00     0.038 C 
ATOM     21  C   UNL A   1      34.993  29.765  28.026  1.00  0.00     0.007 C 
ENDBRANCH  19  20
ENDBRANCH  18  19
ENDBRANCH  13  18
ENDBRANCH   6  12
ENDBRANCH   3   5
ENDBRANCH   2   3
ENDBRANCH   1   2
BRANCH   1  22
ATOM     22  C   UNL A   1      36.382  20.648  24.625  1.00  0.00     0.275 C 
BRANCH  22  23
ATOM     23  O   UNL A   1      37.002  21.341  25.722  1.00  0.00    -0.458 OA
BRANCH  23  24
ATOM     24  C   UNL A   1      38.347  21.250  25.791  1.00  0.00     0.338 C 
ATOM     25  O   UNL A   1      39.043  20.335  25.367  1.00  0.00    -0.246 OA
BRANCH  24  26
ATOM     26  C   UNL A   1      38.920  22.448  26.439  1.00  0.00     0.060 A 
ATOM     27  C   UNL A   1      38.441  23.724  26.148  1.00  0.00     0.016 A 
ATOM     28  C   UNL A   1      40.049  22.307  27.246  1.00  0.00     0.016 A 
ATOM     29  C   UNL A   1      39.183  24.849  26.513  1.00  0.00     0.010 A 
ATOM     30  C   UNL A   1      40.708  23.442  27.730  1.00  0.00     0.010 A 
ATOM     31  C   UNL A   1      40.323  24.730  27.321  1.00  0.00    -0.014 A 
BRANCH  31  32
ATOM     32  C   UNL A   1      41.143  25.922  27.700  1.00  0.00     0.031 A 
ATOM     33  C   UNL A   1      40.556  26.994  28.587  1.00  0.00     0.074 A 
ATOM     34  C   UNL A   1      42.412  26.069  27.265  1.00  0.00     0.049 A 
ATOM     35  N   UNL A   1      40.973  28.218  28.794  1.00  0.00    -0.248 NA
ATOM     36  C   UNL A   1      39.325  26.653  29.321  1.00  0.00     0.031 C 
ATOM     37  C   UNL A   1      43.154  25.111  26.445  1.00  0.00     0.029 A 
ATOM     38  N   UNL A   1      43.310  27.092  27.464  1.00  0.00    -0.354 N 
ATOM     39  C   UNL A   1      40.010  28.819  29.597  1.00  0.00     0.074 A 
ATOM     40  C   UNL A   1      39.000  27.817  29.865  1.00  0.00     0.031 C 
ATOM     41  C   UNL A   1      44.405  25.558  26.263  1.00  0.00     0.029 A 
ATOM     42  C   UNL A   1      44.523  26.885  26.852  1.00  0.00     0.049 A 
ATOM     43  H   UNL A   1      43.103  27.895  27.994  1.00  0.00     0.167 HD
ATOM     44  C   UNL A   1      39.968  30.093  30.058  1.00  0.00     0.037 A 
ATOM     45  C   UNL A   1      45.596  27.690  26.726  1.00  0.00     0.037 A 
ATOM     46  C   UNL A   1      41.016  31.062  29.871  1.00  0.00     0.049 A 
ATOM     47  C   UNL A   1      45.542  29.087  27.269  1.00  0.00     0.074 A 
ATOM     48  C   UNL A   1      41.061  32.380  30.293  1.00  0.00     0.029 A 
ATOM     49  N   UNL A   1      42.224  30.803  29.244  1.00  0.00    -0.354 N 
ATOM     50  N   UNL A   1      44.568  29.685  27.910  1.00  0.00    -0.248 NA
ATOM     51  C   UNL A   1      46.722  29.932  27.036  1.00  0.00     0.031 C 
ATOM     52  C   UNL A   1      42.295  32.921  29.915  1.00  0.00     0.029 A 
ATOM     53  C   UNL A   1      43.026  31.931  29.281  1.00  0.00     0.049 A 
ATOM     54  H   UNL A   1      42.476  29.943  28.834  1.00  0.00     0.167 HD
ATOM     55  C   UNL A   1      45.013  30.977  28.150  1.00  0.00     0.074 A 
ATOM     56  C   UNL A   1      46.355  31.069  27.614  1.00  0.00     0.031 C 
ATOM     57  C   UNL A   1      44.360  32.003  28.748  1.00  0.00     0.037 A 
BRANCH  44  58
ATOM     58  C   UNL A   1      38.731  30.531  30.785  1.00  0.00     0.057 A 
ATOM     59  C   UNL A   1      37.632  31.088  30.123  1.00  0.00     0.134 A 
ATOM     60  C   UNL A   1      38.623  30.336  32.169  1.00  0.00     0.134 A 
ATOM     61  F   UNL A   1      37.679  31.313  28.801  1.00  0.00    -0.206 F 
ATOM     62  C   UNL A   1      36.473  31.447  30.812  1.00  0.00     0.040 A 
ATOM     63  C   UNL A   1      37.462  30.673  32.867  1.00  0.00     0.040 A 
ATOM     64  F   UNL A   1      39.639  29.800  32.863  1.00  0.00    -0.206 F 
ATOM     65  C   UNL A   1      36.382  31.232  32.187  1.00  0.00     0.006 A 
ENDBRANCH  44  58
BRANCH  45  66
ATOM     66  C   UNL A   1      46.796  27.208  25.998  1.00  0.00     0.057 A 
ATOM     67  C   UNL A   1      47.803  26.498  26.660  1.00  0.00     0.134 A 
ATOM     68  C   UNL A   1      46.959  27.435  24.626  1.00  0.00     0.134 A 
ATOM     69  F   UNL A   1      47.715  26.272  27.979  1.00  0.00    -0.206 F 
ATOM     70  C   UNL A   1      48.932  26.033  25.984  1.00  0.00     0.040 A 
ATOM     71  C   UNL A   1      48.069  26.953  23.933  1.00  0.00     0.040 A 
ATOM     72  F   UNL A   1      46.027  28.110  23.936  1.00  0.00    -0.206 F 
ATOM     73  C   UNL A   1      49.062  26.252  24.614  1.00  0.00     0.006 A 
ENDBRANCH  45  66
BRANCH  57  74
ATOM     74  C   UNL A   1      45.099  33.299  28.865  1.00  0.00     0.057 A 
ATOM     75  C   UNL A   1      44.987  34.295  27.888  1.00  0.00     0.134 A 
ATOM     76  C   UNL A   1      45.914  33.560  29.972  1.00  0.00     0.134 A 
ATOM     77  F   UNL A   1      44.232  34.096  26.797  1.00  0.00    -0.206 F 
ATOM     78  C   UNL A   1      45.677  35.502  28.000  1.00  0.00     0.040 A 
ATOM     79  C   UNL A   1      46.597  34.769  30.103  1.00  0.00     0.040 A 
ATOM     80  F   UNL A   1      46.058  32.644  30.943  1.00  0.00    -0.206 F 
ATOM     81  C   UNL A   1      46.482  35.743  29.113  1.00  0.00     0.006 A 
ENDBRANCH  57  74
ENDBRANCH  31  32
ENDBRANCH  24  26
ENDBRANCH  23  24
ENDBRANCH  22  23
ENDBRANCH   1  22
TORSDOF 15
ENDMDL
