MODEL 1
REMARK VINA RESULT:      -9.2      0.000      0.000
REMARK SMILES N#CCc1ccc(OCC(=O)OCCOC(=O)c2ccc(-c3c4nc(c(-c5c(F)cccc5F)c5ccc([nH]5)c(-c5c(F)cccc5F)c5nc(c(-c6c(F)cccc6F)c6ccc3[nH]6)C=C5)C=C4)cc2)cc1
REMARK SMILES IDX 13 1 12 2 10 3 11 4 9 5 8 6 7 7 4 8 5 9 73 10 6 11 72 12
REMARK SMILES IDX 3 13 2 14 1 15 14 16 15 17 16 18 17 19 18 20 19 21 71 22
REMARK SMILES IDX 20 23 70 24 21 25 22 26 23 27 64 28 24 29 69 30 63 31 65 32
REMARK SMILES IDX 25 33 68 34 62 35 61 36 26 38 52 39 35 40 51 41 36 42 39 43
REMARK SMILES IDX 50 44 66 45 37 46 38 47 49 49 67 50 40 51 27 52 28 53 33 54
REMARK SMILES IDX 29 55 30 56 32 57 34 58 31 59 53 60 54 61 59 62 55 63 56 64
REMARK SMILES IDX 58 65 60 66 57 67 41 68 42 69 47 70 43 71 44 72 46 73 48 74
REMARK SMILES IDX 45 75
REMARK H PARENT 65 37 39 48
REMARK Flexibility Score: inf
ROOT
ATOM      1  C   UNL A   1      33.303  36.988  30.437  1.00  0.00     0.274 C 
ENDROOT
BRANCH   1   2
ATOM      2  O   UNL A   1      33.670  35.984  31.403  1.00  0.00    -0.460 OA
BRANCH   2   3
ATOM      3  C   UNL A   1      33.504  36.320  32.711  1.00  0.00     0.344 C 
ATOM      4  O   UNL A   1      32.694  37.143  33.130  1.00  0.00    -0.248 OA
BRANCH   3   5
ATOM      5  C   UNL A   1      34.478  35.587  33.630  1.00  0.00     0.351 C 
BRANCH   5   6
ATOM      6  O   UNL A   1      34.499  34.170  33.579  1.00  0.00    -0.482 OA
BRANCH   6   7
ATOM      7  C   UNL A   1      35.622  33.521  34.009  1.00  0.00     0.120 A 
ATOM      8  C   UNL A   1      37.890  31.981  34.686  1.00  0.00    -0.034 A 
ATOM      9  C   UNL A   1      37.062  31.599  33.624  1.00  0.00     0.008 A 
ATOM     10  C   UNL A   1      37.576  33.154  35.390  1.00  0.00     0.008 A 
ATOM     11  C   UNL A   1      35.940  32.365  33.293  1.00  0.00     0.047 A 
ATOM     12  C   UNL A   1      36.459  33.926  35.041  1.00  0.00     0.047 A 
BRANCH   8  13
ATOM     13  C   UNL A   1      39.141  31.196  35.023  1.00  0.00     0.155 C 
BRANCH  13  14
ATOM     14  C   UNL A   1      39.379  30.145  33.951  1.00  0.00     0.067 C 
ATOM     15  N   UNL A   1      39.575  29.273  33.062  1.00  0.00    -0.198 NA
ENDBRANCH  13  14
ENDBRANCH   8  13
ENDBRANCH   6   7
ENDBRANCH   5   6
ENDBRANCH   3   5
ENDBRANCH   2   3
ENDBRANCH   1   2
BRANCH   1  16
ATOM     16  C   UNL A   1      32.875  36.330  29.129  1.00  0.00     0.275 C 
BRANCH  16  17
ATOM     17  O   UNL A   1      32.528  34.958  29.383  1.00  0.00    -0.458 OA
BRANCH  17  18
ATOM     18  C   UNL A   1      32.959  34.068  28.462  1.00  0.00     0.338 C 
ATOM     19  O   UNL A   1      32.371  33.726  27.446  1.00  0.00    -0.246 OA
BRANCH  18  20
ATOM     20  C   UNL A   1      34.281  33.525  28.855  1.00  0.00     0.060 A 
ATOM     21  C   UNL A   1      34.415  32.499  29.798  1.00  0.00     0.016 A 
ATOM     22  C   UNL A   1      35.426  34.109  28.306  1.00  0.00     0.016 A 
ATOM     23  C   UNL A   1      35.683  32.099  30.229  1.00  0.00     0.010 A 
ATOM     24  C   UNL A   1      36.693  33.654  28.681  1.00  0.00     0.010 A 
ATOM     25  C   UNL A   1      36.836  32.654  29.657  1.00  0.00    -0.014 A 
BRANCH  25  26
ATOM     26  C   UNL A   1      38.197  32.184  30.032  1.00  0.00     0.031 A 
ATOM     27  C   UNL A   1      38.729  30.882  29.497  1.00  0.00     0.074 A 
ATOM     28  C   UNL A   1      38.931  32.889  30.915  1.00  0.00     0.049 A 
ATOM     29  N   UNL A   1      39.771  30.192  29.886  1.00  0.00    -0.248 NA
ATOM     30  C   UNL A   1      37.980  30.265  28.391  1.00  0.00     0.031 C 
ATOM     31  C   UNL A   1      38.547  34.172  31.507  1.00  0.00     0.029 A 
ATOM     32  N   UNL A   1      40.146  32.608  31.491  1.00  0.00    -0.354 N 
ATOM     33  C   UNL A   1      39.778  29.041  29.109  1.00  0.00     0.074 A 
ATOM     34  C   UNL A   1      38.636  29.125  28.221  1.00  0.00     0.031 C 
ATOM     35  C   UNL A   1      39.506  34.568  32.358  1.00  0.00     0.029 A 
ATOM     36  C   UNL A   1      40.536  33.537  32.426  1.00  0.00     0.049 A 
ATOM     37  H   UNL A   1      40.686  31.819  31.257  1.00  0.00     0.167 HD
ATOM     38  C   UNL A   1      40.656  28.009  29.134  1.00  0.00     0.037 A 
ATOM     39  C   UNL A   1      41.576  33.541  33.280  1.00  0.00     0.037 A 
ATOM     40  C   UNL A   1      41.821  27.948  29.978  1.00  0.00     0.049 A 
ATOM     41  C   UNL A   1      42.527  32.380  33.297  1.00  0.00     0.074 A 
ATOM     42  C   UNL A   1      42.791  26.961  30.038  1.00  0.00     0.029 A 
ATOM     43  N   UNL A   1      42.183  28.919  30.898  1.00  0.00    -0.354 N 
ATOM     44  N   UNL A   1      42.507  31.288  32.574  1.00  0.00    -0.248 NA
ATOM     45  C   UNL A   1      43.636  32.447  34.259  1.00  0.00     0.031 C 
ATOM     46  C   UNL A   1      43.726  27.322  31.015  1.00  0.00     0.029 A 
ATOM     47  C   UNL A   1      43.355  28.548  31.539  1.00  0.00     0.049 A 
ATOM     48  H   UNL A   1      41.682  29.749  31.070  1.00  0.00     0.167 HD
ATOM     49  C   UNL A   1      43.605  30.544  32.984  1.00  0.00     0.074 A 
ATOM     50  C   UNL A   1      44.279  31.316  34.007  1.00  0.00     0.031 C 
ATOM     51  C   UNL A   1      44.015  29.327  32.553  1.00  0.00     0.037 A 
BRANCH  38  52
ATOM     52  C   UNL A   1      40.388  26.841  28.234  1.00  0.00     0.057 A 
ATOM     53  C   UNL A   1      39.487  25.828  28.584  1.00  0.00     0.134 A 
ATOM     54  C   UNL A   1      40.984  26.770  26.968  1.00  0.00     0.134 A 
ATOM     55  F   UNL A   1      38.888  25.838  29.784  1.00  0.00    -0.206 F 
ATOM     56  C   UNL A   1      39.197  24.780  27.709  1.00  0.00     0.040 A 
ATOM     57  C   UNL A   1      40.686  25.739  26.078  1.00  0.00     0.040 A 
ATOM     58  F   UNL A   1      41.851  27.715  26.570  1.00  0.00    -0.206 F 
ATOM     59  C   UNL A   1      39.791  24.738  26.448  1.00  0.00     0.006 A 
ENDBRANCH  38  52
BRANCH  39  60
ATOM     60  C   UNL A   1      41.749  34.672  34.223  1.00  0.00     0.057 A 
ATOM     61  C   UNL A   1      42.342  35.869  33.812  1.00  0.00     0.134 A 
ATOM     62  C   UNL A   1      41.323  34.582  35.554  1.00  0.00     0.134 A 
ATOM     63  F   UNL A   1      42.791  36.005  32.556  1.00  0.00    -0.206 F 
ATOM     64  C   UNL A   1      42.516  36.937  34.694  1.00  0.00     0.040 A 
ATOM     65  C   UNL A   1      41.469  35.649  36.441  1.00  0.00     0.040 A 
ATOM     66  F   UNL A   1      40.744  33.459  36.005  1.00  0.00    -0.206 F 
ATOM     67  C   UNL A   1      42.072  36.829  36.011  1.00  0.00     0.006 A 
ENDBRANCH  39  60
BRANCH  51  68
ATOM     68  C   UNL A   1      45.262  28.772  33.168  1.00  0.00     0.057 A 
ATOM     69  C   UNL A   1      46.527  29.038  32.629  1.00  0.00     0.134 A 
ATOM     70  C   UNL A   1      45.199  27.983  34.323  1.00  0.00     0.134 A 
ATOM     71  F   UNL A   1      46.650  29.775  31.515  1.00  0.00    -0.206 F 
ATOM     72  C   UNL A   1      47.686  28.521  33.208  1.00  0.00     0.040 A 
ATOM     73  C   UNL A   1      46.353  27.477  34.922  1.00  0.00     0.040 A 
ATOM     74  F   UNL A   1      44.017  27.697  34.889  1.00  0.00    -0.206 F 
ATOM     75  C   UNL A   1      47.601  27.742  34.361  1.00  0.00     0.006 A 
ENDBRANCH  51  68
ENDBRANCH  25  26
ENDBRANCH  18  20
ENDBRANCH  17  18
ENDBRANCH  16  17
ENDBRANCH   1  16
TORSDOF 15
ENDMDL
MODEL 2
REMARK VINA RESULT:      -8.7      5.740     10.751
REMARK SMILES N#CCc1ccc(OCC(=O)OCCOC(=O)c2ccc(-c3c4nc(c(-c5c(F)cccc5F)c5ccc([nH]5)c(-c5c(F)cccc5F)c5nc(c(-c6c(F)cccc6F)c6ccc3[nH]6)C=C5)C=C4)cc2)cc1
REMARK SMILES IDX 13 1 12 2 10 3 11 4 9 5 8 6 7 7 4 8 5 9 73 10 6 11 72 12
REMARK SMILES IDX 3 13 2 14 1 15 14 16 15 17 16 18 17 19 18 20 19 21 71 22
REMARK SMILES IDX 20 23 70 24 21 25 22 26 23 27 64 28 24 29 69 30 63 31 65 32
REMARK SMILES IDX 25 33 68 34 62 35 61 36 26 38 52 39 35 40 51 41 36 42 39 43
REMARK SMILES IDX 50 44 66 45 37 46 38 47 49 49 67 50 40 51 27 52 28 53 33 54
REMARK SMILES IDX 29 55 30 56 32 57 34 58 31 59 53 60 54 61 59 62 55 63 56 64
REMARK SMILES IDX 58 65 60 66 57 67 41 68 42 69 47 70 43 71 44 72 46 73 48 74
REMARK SMILES IDX 45 75
REMARK H PARENT 65 37 39 48
REMARK Flexibility Score: inf
ROOT
ATOM      1  C   UNL A   1      42.205  19.829  26.174  1.00  0.00     0.274 C 
ENDROOT
BRANCH   1   2
ATOM      2  O   UNL A   1      42.787  19.494  24.899  1.00  0.00    -0.460 OA
BRANCH   2   3
ATOM      3  C   UNL A   1      44.104  19.152  24.911  1.00  0.00     0.344 C 
ATOM      4  O   UNL A   1      44.560  18.117  25.389  1.00  0.00    -0.248 OA
BRANCH   3   5
ATOM      5  C   UNL A   1      44.992  20.231  24.294  1.00  0.00     0.351 C 
BRANCH   5   6
ATOM      6  O   UNL A   1      44.390  21.467  23.947  1.00  0.00    -0.482 OA
BRANCH   6   7
ATOM      7  C   UNL A   1      45.033  22.622  24.290  1.00  0.00     0.120 A 
ATOM      8  C   UNL A   1      46.096  25.119  25.069  1.00  0.00    -0.034 A 
ATOM      9  C   UNL A   1      44.721  24.878  25.145  1.00  0.00     0.008 A 
ATOM     10  C   UNL A   1      46.932  24.087  24.616  1.00  0.00     0.008 A 
ATOM     11  C   UNL A   1      44.199  23.639  24.759  1.00  0.00     0.047 A 
ATOM     12  C   UNL A   1      46.404  22.843  24.246  1.00  0.00     0.047 A 
BRANCH   8  13
ATOM     13  C   UNL A   1      46.687  26.434  25.537  1.00  0.00     0.155 C 
BRANCH  13  14
ATOM     14  C   UNL A   1      46.688  27.423  24.382  1.00  0.00     0.067 C 
ATOM     15  N   UNL A   1      46.690  28.243  23.424  1.00  0.00    -0.198 NA
ENDBRANCH  13  14
ENDBRANCH   8  13
ENDBRANCH   6   7
ENDBRANCH   5   6
ENDBRANCH   3   5
ENDBRANCH   2   3
ENDBRANCH   1   2
BRANCH   1  16
ATOM     16  C   UNL A   1      41.768  21.290  26.187  1.00  0.00     0.275 C 
BRANCH  16  17
ATOM     17  O   UNL A   1      40.620  21.432  27.041  1.00  0.00    -0.458 OA
BRANCH  17  18
ATOM     18  C   UNL A   1      39.707  22.345  26.643  1.00  0.00     0.338 C 
ATOM     19  O   UNL A   1      38.674  22.124  26.028  1.00  0.00    -0.246 OA
BRANCH  18  20
ATOM     20  C   UNL A   1      40.132  23.706  27.050  1.00  0.00     0.060 A 
ATOM     21  C   UNL A   1      40.587  23.988  28.343  1.00  0.00     0.016 A 
ATOM     22  C   UNL A   1      40.006  24.743  26.122  1.00  0.00     0.016 A 
ATOM     23  C   UNL A   1      40.863  25.306  28.721  1.00  0.00     0.010 A 
ATOM     24  C   UNL A   1      40.356  26.048  26.479  1.00  0.00     0.010 A 
ATOM     25  C   UNL A   1      40.775  26.346  27.787  1.00  0.00    -0.014 A 
BRANCH  25  26
ATOM     26  C   UNL A   1      41.148  27.743  28.137  1.00  0.00     0.031 A 
ATOM     27  C   UNL A   1      42.591  28.172  28.131  1.00  0.00     0.074 A 
ATOM     28  C   UNL A   1      40.198  28.612  28.535  1.00  0.00     0.049 A 
ATOM     29  N   UNL A   1      43.133  29.254  28.629  1.00  0.00    -0.248 NA
ATOM     30  C   UNL A   1      43.551  27.256  27.497  1.00  0.00     0.031 C 
ATOM     31  C   UNL A   1      38.761  28.338  28.580  1.00  0.00     0.029 A 
ATOM     32  N   UNL A   1      40.306  29.898  29.006  1.00  0.00    -0.354 N 
ATOM     33  C   UNL A   1      44.500  29.129  28.413  1.00  0.00     0.074 A 
ATOM     34  C   UNL A   1      44.705  27.865  27.735  1.00  0.00     0.031 C 
ATOM     35  C   UNL A   1      38.121  29.421  29.049  1.00  0.00     0.029 A 
ATOM     36  C   UNL A   1      39.106  30.437  29.403  1.00  0.00     0.049 A 
ATOM     37  H   UNL A   1      41.159  30.386  29.054  1.00  0.00     0.167 HD
ATOM     38  C   UNL A   1      45.491  29.989  28.750  1.00  0.00     0.037 A 
ATOM     39  C   UNL A   1      38.827  31.595  30.028  1.00  0.00     0.037 A 
ATOM     40  C   UNL A   1      45.285  31.268  29.376  1.00  0.00     0.049 A 
ATOM     41  C   UNL A   1      39.944  32.525  30.402  1.00  0.00     0.074 A 
ATOM     42  C   UNL A   1      46.229  32.225  29.713  1.00  0.00     0.029 A 
ATOM     43  N   UNL A   1      44.051  31.779  29.746  1.00  0.00    -0.354 N 
ATOM     44  N   UNL A   1      41.232  32.383  30.213  1.00  0.00    -0.248 NA
ATOM     45  C   UNL A   1      39.569  33.769  31.088  1.00  0.00     0.031 C 
ATOM     46  C   UNL A   1      45.567  33.303  30.313  1.00  0.00     0.029 A 
ATOM     47  C   UNL A   1      44.210  33.030  30.319  1.00  0.00     0.049 A 
ATOM     48  H   UNL A   1      43.189  31.319  29.620  1.00  0.00     0.167 HD
ATOM     49  C   UNL A   1      41.821  33.521  30.746  1.00  0.00     0.074 A 
ATOM     50  C   UNL A   1      40.748  34.353  31.250  1.00  0.00     0.031 C 
ATOM     51  C   UNL A   1      43.134  33.847  30.814  1.00  0.00     0.037 A 
BRANCH  38  52
ATOM     52  C   UNL A   1      46.903  29.573  28.467  1.00  0.00     0.057 A 
ATOM     53  C   UNL A   1      47.667  28.863  29.402  1.00  0.00     0.134 A 
ATOM     54  C   UNL A   1      47.479  29.821  27.214  1.00  0.00     0.134 A 
ATOM     55  F   UNL A   1      47.173  28.599  30.621  1.00  0.00    -0.206 F 
ATOM     56  C   UNL A   1      48.958  28.425  29.103  1.00  0.00     0.040 A 
ATOM     57  C   UNL A   1      48.760  29.370  26.897  1.00  0.00     0.040 A 
ATOM     58  F   UNL A   1      46.795  30.489  26.273  1.00  0.00    -0.206 F 
ATOM     59  C   UNL A   1      49.504  28.670  27.844  1.00  0.00     0.006 A 
ENDBRANCH  38  52
BRANCH  39  60
ATOM     60  C   UNL A   1      37.423  31.924  30.378  1.00  0.00     0.057 A 
ATOM     61  C   UNL A   1      36.599  32.610  29.480  1.00  0.00     0.134 A 
ATOM     62  C   UNL A   1      36.876  31.558  31.613  1.00  0.00     0.134 A 
ATOM     63  F   UNL A   1      37.076  33.006  28.292  1.00  0.00    -0.206 F 
ATOM     64  C   UNL A   1      35.279  32.930  29.803  1.00  0.00     0.040 A 
ATOM     65  C   UNL A   1      35.551  31.850  31.940  1.00  0.00     0.040 A 
ATOM     66  F   UNL A   1      37.618  30.896  32.513  1.00  0.00    -0.206 F 
ATOM     67  C   UNL A   1      34.751  32.543  31.034  1.00  0.00     0.006 A 
ENDBRANCH  39  60
BRANCH  51  68
ATOM     68  C   UNL A   1      43.476  35.168  31.431  1.00  0.00     0.057 A 
ATOM     69  C   UNL A   1      43.635  35.312  32.814  1.00  0.00     0.134 A 
ATOM     70  C   UNL A   1      43.669  36.301  30.631  1.00  0.00     0.134 A 
ATOM     71  F   UNL A   1      43.447  34.266  33.634  1.00  0.00    -0.206 F 
ATOM     72  C   UNL A   1      43.956  36.545  33.384  1.00  0.00     0.040 A 
ATOM     73  C   UNL A   1      44.010  37.534  31.188  1.00  0.00     0.040 A 
ATOM     74  F   UNL A   1      43.535  36.226  29.299  1.00  0.00    -0.206 F 
ATOM     75  C   UNL A   1      44.150  37.659  32.569  1.00  0.00     0.006 A 
ENDBRANCH  51  68
ENDBRANCH  25  26
ENDBRANCH  18  20
ENDBRANCH  17  18
ENDBRANCH  16  17
ENDBRANCH   1  16
TORSDOF 15
ENDMDL
MODEL 3
REMARK VINA RESULT:      -8.7      6.135     11.573
REMARK SMILES N#CCc1ccc(OCC(=O)OCCOC(=O)c2ccc(-c3c4nc(c(-c5c(F)cccc5F)c5ccc([nH]5)c(-c5c(F)cccc5F)c5nc(c(-c6c(F)cccc6F)c6ccc3[nH]6)C=C5)C=C4)cc2)cc1
REMARK SMILES IDX 13 1 12 2 10 3 11 4 9 5 8 6 7 7 4 8 5 9 73 10 6 11 72 12
REMARK SMILES IDX 3 13 2 14 1 15 14 16 15 17 16 18 17 19 18 20 19 21 71 22
REMARK SMILES IDX 20 23 70 24 21 25 22 26 23 27 64 28 24 29 69 30 63 31 65 32
REMARK SMILES IDX 25 33 68 34 62 35 61 36 26 38 52 39 35 40 51 41 36 42 39 43
REMARK SMILES IDX 50 44 66 45 37 46 38 47 49 49 67 50 40 51 27 52 28 53 33 54
REMARK SMILES IDX 29 55 30 56 32 57 34 58 31 59 53 60 54 61 59 62 55 63 56 64
REMARK SMILES IDX 58 65 60 66 57 67 41 68 42 69 47 70 43 71 44 72 46 73 48 74
REMARK SMILES IDX 45 75
REMARK H PARENT 65 37 39 48
REMARK Flexibility Score: inf
ROOT
ATOM      1  C   UNL A   1      44.152  18.264  26.182  1.00  0.00     0.274 C 
ENDROOT
BRANCH   1   2
ATOM      2  O   UNL A   1      44.437  18.167  24.773  1.00  0.00    -0.460 OA
BRANCH   2   3
ATOM      3  C   UNL A   1      45.220  19.150  24.251  1.00  0.00     0.344 C 
ATOM      4  O   UNL A   1      46.099  18.980  23.410  1.00  0.00    -0.248 OA
BRANCH   3   5
ATOM      5  C   UNL A   1      44.921  20.519  24.858  1.00  0.00     0.351 C 
BRANCH   5   6
ATOM      6  O   UNL A   1      44.724  21.609  23.973  1.00  0.00    -0.482 OA
BRANCH   6   7
ATOM      7  C   UNL A   1      45.151  22.848  24.362  1.00  0.00     0.120 A 
ATOM      8  C   UNL A   1      45.747  25.488  25.164  1.00  0.00    -0.034 A 
ATOM      9  C   UNL A   1      44.423  25.096  24.938  1.00  0.00     0.008 A 
ATOM     10  C   UNL A   1      46.764  24.535  25.001  1.00  0.00     0.008 A 
ATOM     11  C   UNL A   1      44.133  23.786  24.542  1.00  0.00     0.047 A 
ATOM     12  C   UNL A   1      46.464  23.220  24.620  1.00  0.00     0.047 A 
BRANCH   8  13
ATOM     13  C   UNL A   1      46.077  26.886  25.649  1.00  0.00     0.155 C 
BRANCH  13  14
ATOM     14  C   UNL A   1      46.487  27.745  24.464  1.00  0.00     0.067 C 
ATOM     15  N   UNL A   1      46.827  28.457  23.481  1.00  0.00    -0.198 NA
ENDBRANCH  13  14
ENDBRANCH   8  13
ENDBRANCH   6   7
ENDBRANCH   5   6
ENDBRANCH   3   5
ENDBRANCH   2   3
ENDBRANCH   1   2
BRANCH   1  16
ATOM     16  C   UNL A   1      42.655  18.097  26.429  1.00  0.00     0.275 C 
BRANCH  16  17
ATOM     17  O   UNL A   1      41.930  18.958  25.537  1.00  0.00    -0.458 OA
BRANCH  17  18
ATOM     18  C   UNL A   1      40.876  19.606  26.079  1.00  0.00     0.338 C 
ATOM     19  O   UNL A   1      39.720  19.210  26.124  1.00  0.00    -0.246 OA
BRANCH  18  20
ATOM     20  C   UNL A   1      41.306  20.915  26.627  1.00  0.00     0.060 A 
ATOM     21  C   UNL A   1      41.791  21.053  27.933  1.00  0.00     0.016 A 
ATOM     22  C   UNL A   1      41.154  22.050  25.826  1.00  0.00     0.016 A 
ATOM     23  C   UNL A   1      42.071  22.320  28.451  1.00  0.00     0.010 A 
ATOM     24  C   UNL A   1      41.508  23.308  26.320  1.00  0.00     0.010 A 
ATOM     25  C   UNL A   1      41.957  23.459  27.643  1.00  0.00    -0.014 A 
BRANCH  25  26
ATOM     26  C   UNL A   1      42.333  24.810  28.140  1.00  0.00     0.031 A 
ATOM     27  C   UNL A   1      43.742  25.094  28.586  1.00  0.00     0.074 A 
ATOM     28  C   UNL A   1      41.391  25.766  28.264  1.00  0.00     0.049 A 
ATOM     29  N   UNL A   1      44.205  26.113  29.264  1.00  0.00    -0.248 NA
ATOM     30  C   UNL A   1      44.761  24.091  28.239  1.00  0.00     0.031 C 
ATOM     31  C   UNL A   1      39.990  25.636  27.862  1.00  0.00     0.029 A 
ATOM     32  N   UNL A   1      41.470  27.032  28.792  1.00  0.00    -0.354 N 
ATOM     33  C   UNL A   1      45.555  25.855  29.466  1.00  0.00     0.074 A 
ATOM     34  C   UNL A   1      45.839  24.581  28.836  1.00  0.00     0.031 C 
ATOM     35  C   UNL A   1      39.341  26.774  28.156  1.00  0.00     0.029 A 
ATOM     36  C   UNL A   1      40.261  27.684  28.827  1.00  0.00     0.049 A 
ATOM     37  H   UNL A   1      42.309  27.433  29.113  1.00  0.00     0.167 HD
ATOM     38  C   UNL A   1      46.472  26.610  30.118  1.00  0.00     0.037 A 
ATOM     39  C   UNL A   1      39.913  28.861  29.380  1.00  0.00     0.037 A 
ATOM     40  C   UNL A   1      46.205  27.900  30.698  1.00  0.00     0.049 A 
ATOM     41  C   UNL A   1      40.945  29.673  30.108  1.00  0.00     0.074 A 
ATOM     42  C   UNL A   1      47.085  28.756  31.339  1.00  0.00     0.029 A 
ATOM     43  N   UNL A   1      44.969  28.527  30.696  1.00  0.00    -0.354 N 
ATOM     44  N   UNL A   1      42.211  29.405  30.312  1.00  0.00    -0.248 NA
ATOM     45  C   UNL A   1      40.495  30.944  30.693  1.00  0.00     0.031 C 
ATOM     46  C   UNL A   1      46.375  29.890  31.750  1.00  0.00     0.029 A 
ATOM     47  C   UNL A   1      45.061  29.753  31.336  1.00  0.00     0.049 A 
ATOM     48  H   UNL A   1      44.147  28.156  30.300  1.00  0.00     0.167 HD
ATOM     49  C   UNL A   1      42.712  30.476  31.039  1.00  0.00     0.074 A 
ATOM     50  C   UNL A   1      41.618  31.406  31.225  1.00  0.00     0.031 C 
ATOM     51  C   UNL A   1      43.966  30.669  31.512  1.00  0.00     0.037 A 
BRANCH  38  52
ATOM     52  C   UNL A   1      47.858  26.058  30.260  1.00  0.00     0.057 A 
ATOM     53  C   UNL A   1      48.789  26.119  29.216  1.00  0.00     0.134 A 
ATOM     54  C   UNL A   1      48.288  25.525  31.482  1.00  0.00     0.134 A 
ATOM     55  F   UNL A   1      48.437  26.613  28.020  1.00  0.00    -0.206 F 
ATOM     56  C   UNL A   1      50.097  25.660  29.381  1.00  0.00     0.040 A 
ATOM     57  C   UNL A   1      49.598  25.083  31.665  1.00  0.00     0.040 A 
ATOM     58  F   UNL A   1      47.445  25.446  32.524  1.00  0.00    -0.206 F 
ATOM     59  C   UNL A   1      50.508  25.149  30.612  1.00  0.00     0.006 A 
ENDBRANCH  38  52
BRANCH  39  60
ATOM     60  C   UNL A   1      38.507  29.325  29.301  1.00  0.00     0.057 A 
ATOM     61  C   UNL A   1      37.664  29.263  30.415  1.00  0.00     0.134 A 
ATOM     62  C   UNL A   1      37.977  29.844  28.114  1.00  0.00     0.134 A 
ATOM     63  F   UNL A   1      38.110  28.753  31.572  1.00  0.00    -0.206 F 
ATOM     64  C   UNL A   1      36.337  29.691  30.349  1.00  0.00     0.040 A 
ATOM     65  C   UNL A   1      36.660  30.298  28.040  1.00  0.00     0.040 A 
ATOM     66  F   UNL A   1      38.739  29.932  27.013  1.00  0.00    -0.206 F 
ATOM     67  C   UNL A   1      35.834  30.216  29.159  1.00  0.00     0.006 A 
ENDBRANCH  39  60
BRANCH  51  68
ATOM     68  C   UNL A   1      44.225  31.945  32.251  1.00  0.00     0.057 A 
ATOM     69  C   UNL A   1      44.085  32.029  33.641  1.00  0.00     0.134 A 
ATOM     70  C   UNL A   1      44.638  33.096  31.568  1.00  0.00     0.134 A 
ATOM     71  F   UNL A   1      43.677  30.965  34.350  1.00  0.00    -0.206 F 
ATOM     72  C   UNL A   1      44.330  33.221  34.325  1.00  0.00     0.040 A 
ATOM     73  C   UNL A   1      44.904  34.286  32.243  1.00  0.00     0.040 A 
ATOM     74  F   UNL A   1      44.794  33.077  30.236  1.00  0.00    -0.206 F 
ATOM     75  C   UNL A   1      44.746  34.353  33.626  1.00  0.00     0.006 A 
ENDBRANCH  51  68
ENDBRANCH  25  26
ENDBRANCH  18  20
ENDBRANCH  17  18
ENDBRANCH  16  17
ENDBRANCH   1  16
TORSDOF 15
ENDMDL
