MODEL 1
REMARK VINA RESULT:     -12.8      0.000      0.000
REMARK SMILES O=C(OCCOC(=O)c1nc(NC[C@H]2c3ccccc3CSc3ccccc32)c2ccccc2n1)c1ccc(-c2c3nc(c(-c4c(F)cccc4F)c4ccc([nH]4)c(-c4c(F)cccc4F)c4nc(c(-c5c(F)cccc5F)c5ccc2[nH]5)C=C4)C=C3)cc1
REMARK SMILES IDX 5 1 4 2 3 3 2 4 1 5 36 6 37 7 89 8 38 9 88 10 39 11 40 12
REMARK SMILES IDX 41 13 82 14 42 15 87 16 81 17 83 18 43 19 86 20 80 21 79 22
REMARK SMILES IDX 44 24 70 25 53 26 69 27 54 28 57 29 68 30 84 31 55 32 56 33
REMARK SMILES IDX 67 35 85 36 58 37 45 38 46 39 51 40 47 41 48 42 50 43 52 44
REMARK SMILES IDX 49 45 71 46 72 47 77 48 73 49 74 50 76 51 78 52 75 53 59 54
REMARK SMILES IDX 60 55 65 56 61 57 62 58 64 59 66 60 63 61 6 62 7 63 8 64
REMARK SMILES IDX 9 65 10 66 35 67 11 68 34 69 29 70 33 71 30 72 32 73 31 74
REMARK SMILES IDX 12 75 13 77 14 78 15 79 28 80 16 81 20 82 23 83 27 84 17 85
REMARK SMILES IDX 19 86 21 87 22 88 24 89 26 90 18 91 25 92
REMARK H PARENT 83 23 57 34 12 76
REMARK Flexibility Score: inf
ROOT
ATOM      1  C   UNL A   1      42.312  18.423  26.072  1.00  0.00     0.275 C 
ENDROOT
BRANCH   1   2
ATOM      2  C   UNL A   1      43.813  18.740  26.002  1.00  0.00     0.275 C 
BRANCH   2   3
ATOM      3  O   UNL A   1      44.252  19.623  24.957  1.00  0.00    -0.458 OA
BRANCH   3   4
ATOM      4  C   UNL A   1      45.533  20.022  24.813  1.00  0.00     0.338 C 
ATOM      5  O   UNL A   1      46.394  19.205  24.510  1.00  0.00    -0.246 OA
BRANCH   4   6
ATOM      6  C   UNL A   1      45.879  21.468  24.989  1.00  0.00     0.060 A 
ATOM      7  C   UNL A   1      45.672  22.004  26.258  1.00  0.00     0.016 A 
ATOM      8  C   UNL A   1      46.382  22.313  23.999  1.00  0.00     0.016 A 
ATOM      9  C   UNL A   1      45.831  23.358  26.521  1.00  0.00     0.010 A 
ATOM     10  C   UNL A   1      46.540  23.688  24.250  1.00  0.00     0.010 A 
ATOM     11  C   UNL A   1      46.233  24.221  25.508  1.00  0.00    -0.014 A 
BRANCH  11  12
ATOM     12  C   UNL A   1      46.401  25.651  25.841  1.00  0.00     0.031 A 
ATOM     13  C   UNL A   1      45.218  26.508  26.189  1.00  0.00     0.074 A 
ATOM     14  C   UNL A   1      47.656  26.130  25.929  1.00  0.00     0.049 A 
ATOM     15  N   UNL A   1      45.198  27.736  26.645  1.00  0.00    -0.248 NA
ATOM     16  C   UNL A   1      43.885  25.908  26.029  1.00  0.00     0.031 C 
ATOM     17  C   UNL A   1      48.872  25.349  25.678  1.00  0.00     0.029 A 
ATOM     18  N   UNL A   1      48.120  27.372  26.260  1.00  0.00    -0.354 N 
ATOM     19  C   UNL A   1      43.861  28.034  26.882  1.00  0.00     0.074 A 
ATOM     20  C   UNL A   1      43.093  26.883  26.457  1.00  0.00     0.031 C 
ATOM     21  C   UNL A   1      49.943  26.135  25.858  1.00  0.00     0.029 A 
ATOM     22  C   UNL A   1      49.488  27.478  26.190  1.00  0.00     0.049 A 
ATOM     23  H   UNL A   1      47.533  28.117  26.522  1.00  0.00     0.167 HD
ATOM     24  C   UNL A   1      43.335  29.158  27.427  1.00  0.00     0.037 A 
ATOM     25  C   UNL A   1      50.280  28.553  26.342  1.00  0.00     0.037 A 
ATOM     26  C   UNL A   1      44.118  30.321  27.759  1.00  0.00     0.049 A 
ATOM     27  C   UNL A   1      49.638  29.860  26.701  1.00  0.00     0.074 A 
ATOM     28  C   UNL A   1      43.705  31.519  28.314  1.00  0.00     0.029 A 
ATOM     29  N   UNL A   1      45.481  30.444  27.514  1.00  0.00    -0.354 N 
ATOM     30  N   UNL A   1      48.386  30.107  27.003  1.00  0.00    -0.248 NA
ATOM     31  C   UNL A   1      50.513  31.036  26.729  1.00  0.00     0.031 C 
ATOM     32  C   UNL A   1      44.803  32.391  28.334  1.00  0.00     0.029 A 
ATOM     33  C   UNL A   1      45.911  31.722  27.835  1.00  0.00     0.049 A 
ATOM     34  H   UNL A   1      46.057  29.728  27.163  1.00  0.00     0.167 HD
ATOM     35  C   UNL A   1      48.323  31.464  27.280  1.00  0.00     0.074 A 
ATOM     36  C   UNL A   1      49.670  31.980  27.120  1.00  0.00     0.031 C 
ATOM     37  C   UNL A   1      47.251  32.215  27.640  1.00  0.00     0.037 A 
BRANCH  24  38
ATOM     38  C   UNL A   1      41.850  29.191  27.661  1.00  0.00     0.057 A 
ATOM     39  C   UNL A   1      41.321  29.195  28.955  1.00  0.00     0.134 A 
ATOM     40  C   UNL A   1      40.934  29.193  26.600  1.00  0.00     0.134 A 
ATOM     41  F   UNL A   1      42.133  29.176  30.022  1.00  0.00    -0.206 F 
ATOM     42  C   UNL A   1      39.941  29.218  29.182  1.00  0.00     0.040 A 
ATOM     43  C   UNL A   1      39.554  29.238  26.811  1.00  0.00     0.040 A 
ATOM     44  F   UNL A   1      41.361  29.157  25.333  1.00  0.00    -0.206 F 
ATOM     45  C   UNL A   1      39.053  29.250  28.108  1.00  0.00     0.006 A 
ENDBRANCH  24  38
BRANCH  25  46
ATOM     46  C   UNL A   1      51.740  28.438  26.104  1.00  0.00     0.057 A 
ATOM     47  C   UNL A   1      52.276  28.581  24.817  1.00  0.00     0.134 A 
ATOM     48  C   UNL A   1      52.632  28.175  27.147  1.00  0.00     0.134 A 
ATOM     49  F   UNL A   1      51.474  28.839  23.773  1.00  0.00    -0.206 F 
ATOM     50  C   UNL A   1      53.643  28.445  24.572  1.00  0.00     0.040 A 
ATOM     51  C   UNL A   1      54.007  28.061  26.921  1.00  0.00     0.040 A 
ATOM     52  F   UNL A   1      52.184  28.051  28.405  1.00  0.00    -0.206 F 
ATOM     53  C   UNL A   1      54.513  28.188  25.628  1.00  0.00     0.006 A 
ENDBRANCH  25  46
BRANCH  37  54
ATOM     54  C   UNL A   1      47.521  33.669  27.884  1.00  0.00     0.057 A 
ATOM     55  C   UNL A   1      47.942  34.117  29.143  1.00  0.00     0.134 A 
ATOM     56  C   UNL A   1      47.397  34.620  26.864  1.00  0.00     0.134 A 
ATOM     57  F   UNL A   1      48.079  33.256  30.163  1.00  0.00    -0.206 F 
ATOM     58  C   UNL A   1      48.238  35.460  29.375  1.00  0.00     0.040 A 
ATOM     59  C   UNL A   1      47.717  35.962  27.077  1.00  0.00     0.040 A 
ATOM     60  F   UNL A   1      47.022  34.249  25.631  1.00  0.00    -0.206 F 
ATOM     61  C   UNL A   1      48.136  36.384  28.337  1.00  0.00     0.006 A 
ENDBRANCH  37  54
ENDBRANCH  11  12
ENDBRANCH   4   6
ENDBRANCH   3   4
ENDBRANCH   2   3
ENDBRANCH   1   2
BRANCH   1  62
ATOM     62  O   UNL A   1      41.525  19.431  26.729  1.00  0.00    -0.456 OA
BRANCH  62  63
ATOM     63  C   UNL A   1      40.363  19.805  26.101  1.00  0.00     0.376 C 
ATOM     64  O   UNL A   1      39.631  19.062  25.459  1.00  0.00    -0.242 OA
BRANCH  63  65
ATOM     65  C   UNL A   1      40.092  21.262  26.350  1.00  0.00     0.241 A 
ATOM     66  N   UNL A   1      38.866  21.718  26.003  1.00  0.00    -0.204 NA
ATOM     67  N   UNL A   1      41.031  21.932  27.054  1.00  0.00    -0.222 NA
ATOM     68  C   UNL A   1      38.528  22.919  26.494  1.00  0.00     0.138 A 
ATOM     69  C   UNL A   1      40.714  23.174  27.425  1.00  0.00     0.077 A 
ATOM     70  C   UNL A   1      39.455  23.736  27.176  1.00  0.00     0.043 A 
ATOM     71  C   UNL A   1      41.634  23.926  28.146  1.00  0.00     0.029 A 
ATOM     72  C   UNL A   1      39.157  25.035  27.662  1.00  0.00     0.014 A 
ATOM     73  C   UNL A   1      41.322  25.196  28.645  1.00  0.00     0.002 A 
ATOM     74  C   UNL A   1      40.083  25.756  28.402  1.00  0.00     0.001 A 
BRANCH  68  75
ATOM     75  N   UNL A   1      37.196  23.301  26.508  1.00  0.00    -0.368 N 
ATOM     76  H   UNL A   1      36.860  23.654  27.363  1.00  0.00     0.162 HD
BRANCH  75  77
ATOM     77  C   UNL A   1      36.227  23.249  25.416  1.00  0.00     0.127 C 
BRANCH  77  78
ATOM     78  C   UNL A   1      34.719  23.088  25.979  1.00  0.00     0.070 C 
ATOM     79  C   UNL A   1      33.904  24.411  25.853  1.00  0.00    -0.035 A 
ATOM     80  C   UNL A   1      34.065  21.733  25.471  1.00  0.00    -0.025 A 
ATOM     81  C   UNL A   1      34.476  25.616  25.414  1.00  0.00     0.005 A 
ATOM     82  C   UNL A   1      32.573  24.528  26.292  1.00  0.00    -0.034 A 
ATOM     83  C   UNL A   1      32.696  21.427  25.265  1.00  0.00     0.011 A 
ATOM     84  C   UNL A   1      34.958  20.652  25.205  1.00  0.00     0.005 A 
ATOM     85  C   UNL A   1      33.734  26.791  25.209  1.00  0.00     0.000 A 
ATOM     86  C   UNL A   1      31.808  25.694  26.038  1.00  0.00     0.005 A 
ATOM     87  C   UNL A   1      31.887  23.401  26.991  1.00  0.00     0.110 C 
ATOM     88  S   UNL A   1      31.222  22.320  25.736  1.00  0.00    -0.121 SA
ATOM     89  C   UNL A   1      32.319  20.197  24.666  1.00  0.00     0.015 A 
ATOM     90  C   UNL A   1      34.568  19.439  24.624  1.00  0.00     0.000 A 
ATOM     91  C   UNL A   1      32.381  26.816  25.467  1.00  0.00     0.000 A 
ATOM     92  C   UNL A   1      33.243  19.220  24.325  1.00  0.00     0.001 A 
ENDBRANCH  77  78
ENDBRANCH  75  77
ENDBRANCH  68  75
ENDBRANCH  63  65
ENDBRANCH  62  63
ENDBRANCH   1  62
TORSDOF 14
ENDMDL
MODEL 2
REMARK VINA RESULT:     -12.5      5.986      8.766
REMARK SMILES O=C(OCCOC(=O)c1nc(NC[C@H]2c3ccccc3CSc3ccccc32)c2ccccc2n1)c1ccc(-c2c3nc(c(-c4c(F)cccc4F)c4ccc([nH]4)c(-c4c(F)cccc4F)c4nc(c(-c5c(F)cccc5F)c5ccc2[nH]5)C=C4)C=C3)cc1
REMARK SMILES IDX 5 1 4 2 3 3 2 4 1 5 36 6 37 7 89 8 38 9 88 10 39 11 40 12
REMARK SMILES IDX 41 13 82 14 42 15 87 16 81 17 83 18 43 19 86 20 80 21 79 22
REMARK SMILES IDX 44 24 70 25 53 26 69 27 54 28 57 29 68 30 84 31 55 32 56 33
REMARK SMILES IDX 67 35 85 36 58 37 45 38 46 39 51 40 47 41 48 42 50 43 52 44
REMARK SMILES IDX 49 45 71 46 72 47 77 48 73 49 74 50 76 51 78 52 75 53 59 54
REMARK SMILES IDX 60 55 65 56 61 57 62 58 64 59 66 60 63 61 6 62 7 63 8 64
REMARK SMILES IDX 9 65 10 66 35 67 11 68 34 69 29 70 33 71 30 72 32 73 31 74
REMARK SMILES IDX 12 75 13 77 14 78 15 79 28 80 16 81 20 82 23 83 27 84 17 85
REMARK SMILES IDX 19 86 21 87 22 88 24 89 26 90 18 91 25 92
REMARK H PARENT 83 23 57 34 12 76
REMARK Flexibility Score: inf
ROOT
ATOM      1  C   UNL A   1      39.952  22.255  26.689  1.00  0.00     0.275 C 
ENDROOT
BRANCH   1   2
ATOM      2  C   UNL A   1      41.321  22.579  26.073  1.00  0.00     0.275 C 
BRANCH   2   3
ATOM      3  O   UNL A   1      42.019  23.726  26.584  1.00  0.00    -0.458 OA
BRANCH   3   4
ATOM      4  C   UNL A   1      41.718  24.994  26.236  1.00  0.00     0.338 C 
ATOM      5  O   UNL A   1      41.767  25.330  25.060  1.00  0.00    -0.246 OA
BRANCH   4   6
ATOM      6  C   UNL A   1      41.288  25.966  27.292  1.00  0.00     0.060 A 
ATOM      7  C   UNL A   1      42.092  27.091  27.460  1.00  0.00     0.016 A 
ATOM      8  C   UNL A   1      40.168  25.837  28.113  1.00  0.00     0.016 A 
ATOM      9  C   UNL A   1      41.879  28.003  28.485  1.00  0.00     0.010 A 
ATOM     10  C   UNL A   1      39.945  26.748  29.160  1.00  0.00     0.010 A 
ATOM     11  C   UNL A   1      40.822  27.819  29.370  1.00  0.00    -0.014 A 
BRANCH  11  12
ATOM     12  C   UNL A   1      40.628  28.824  30.437  1.00  0.00     0.031 A 
ATOM     13  C   UNL A   1      39.611  29.919  30.292  1.00  0.00     0.074 A 
ATOM     14  C   UNL A   1      41.314  28.660  31.582  1.00  0.00     0.049 A 
ATOM     15  N   UNL A   1      39.209  30.793  31.182  1.00  0.00    -0.248 NA
ATOM     16  C   UNL A   1      38.937  30.041  28.990  1.00  0.00     0.031 C 
ATOM     17  C   UNL A   1      42.273  27.580  31.840  1.00  0.00     0.029 A 
ATOM     18  N   UNL A   1      41.308  29.384  32.743  1.00  0.00    -0.354 N 
ATOM     19  C   UNL A   1      38.199  31.526  30.570  1.00  0.00     0.074 A 
ATOM     20  C   UNL A   1      38.092  31.041  29.211  1.00  0.00     0.031 C 
ATOM     21  C   UNL A   1      42.766  27.718  33.079  1.00  0.00     0.029 A 
ATOM     22  C   UNL A   1      42.196  28.915  33.680  1.00  0.00     0.049 A 
ATOM     23  H   UNL A   1      40.725  30.162  32.892  1.00  0.00     0.167 HD
ATOM     24  C   UNL A   1      37.421  32.495  31.111  1.00  0.00     0.037 A 
ATOM     25  C   UNL A   1      42.534  29.423  34.878  1.00  0.00     0.037 A 
ATOM     26  C   UNL A   1      37.610  33.016  32.441  1.00  0.00     0.049 A 
ATOM     27  C   UNL A   1      41.829  30.660  35.348  1.00  0.00     0.074 A 
ATOM     28  C   UNL A   1      36.891  33.996  33.102  1.00  0.00     0.029 A 
ATOM     29  N   UNL A   1      38.634  32.627  33.297  1.00  0.00    -0.354 N 
ATOM     30  N   UNL A   1      40.820  31.291  34.797  1.00  0.00    -0.248 NA
ATOM     31  C   UNL A   1      42.314  31.259  36.594  1.00  0.00     0.031 C 
ATOM     32  C   UNL A   1      37.527  34.251  34.326  1.00  0.00     0.029 A 
ATOM     33  C   UNL A   1      38.613  33.398  34.448  1.00  0.00     0.049 A 
ATOM     34  H   UNL A   1      39.279  31.908  33.112  1.00  0.00     0.167 HD
ATOM     35  C   UNL A   1      40.531  32.353  35.642  1.00  0.00     0.074 A 
ATOM     36  C   UNL A   1      41.469  32.267  36.746  1.00  0.00     0.031 C 
ATOM     37  C   UNL A   1      39.575  33.308  35.518  1.00  0.00     0.037 A 
BRANCH  24  38
ATOM     38  C   UNL A   1      36.329  33.071  30.253  1.00  0.00     0.057 A 
ATOM     39  C   UNL A   1      36.614  33.988  29.236  1.00  0.00     0.134 A 
ATOM     40  C   UNL A   1      34.982  32.735  30.446  1.00  0.00     0.134 A 
ATOM     41  F   UNL A   1      37.877  34.371  29.001  1.00  0.00    -0.206 F 
ATOM     42  C   UNL A   1      35.604  34.534  28.438  1.00  0.00     0.040 A 
ATOM     43  C   UNL A   1      33.965  33.255  29.643  1.00  0.00     0.040 A 
ATOM     44  F   UNL A   1      34.625  31.889  31.418  1.00  0.00    -0.206 F 
ATOM     45  C   UNL A   1      34.275  34.160  28.633  1.00  0.00     0.006 A 
ENDBRANCH  24  38
BRANCH  25  46
ATOM     46  C   UNL A   1      43.617  28.790  35.671  1.00  0.00     0.057 A 
ATOM     47  C   UNL A   1      44.955  29.175  35.505  1.00  0.00     0.134 A 
ATOM     48  C   UNL A   1      43.347  27.785  36.605  1.00  0.00     0.134 A 
ATOM     49  F   UNL A   1      45.280  30.137  34.628  1.00  0.00    -0.206 F 
ATOM     50  C   UNL A   1      45.987  28.568  36.221  1.00  0.00     0.040 A 
ATOM     51  C   UNL A   1      44.369  27.187  37.348  1.00  0.00     0.040 A 
ATOM     52  F   UNL A   1      42.086  27.391  36.828  1.00  0.00    -0.206 F 
ATOM     53  C   UNL A   1      45.694  27.573  37.150  1.00  0.00     0.006 A 
ENDBRANCH  25  46
BRANCH  37  54
ATOM     54  C   UNL A   1      39.513  34.321  36.622  1.00  0.00     0.057 A 
ATOM     55  C   UNL A   1      38.875  34.022  37.832  1.00  0.00     0.134 A 
ATOM     56  C   UNL A   1      40.115  35.580  36.497  1.00  0.00     0.134 A 
ATOM     57  F   UNL A   1      38.278  32.835  38.014  1.00  0.00    -0.206 F 
ATOM     58  C   UNL A   1      38.847  34.938  38.884  1.00  0.00     0.040 A 
ATOM     59  C   UNL A   1      40.116  36.493  37.553  1.00  0.00     0.040 A 
ATOM     60  F   UNL A   1      40.762  35.915  35.371  1.00  0.00    -0.206 F 
ATOM     61  C   UNL A   1      39.477  36.173  38.749  1.00  0.00     0.006 A 
ENDBRANCH  37  54
ENDBRANCH  11  12
ENDBRANCH   4   6
ENDBRANCH   3   4
ENDBRANCH   2   3
ENDBRANCH   1   2
BRANCH   1  62
ATOM     62  O   UNL A   1      38.848  22.386  25.777  1.00  0.00    -0.456 OA
BRANCH  62  63
ATOM     63  C   UNL A   1      38.202  21.226  25.429  1.00  0.00     0.376 C 
ATOM     64  O   UNL A   1      38.745  20.195  25.053  1.00  0.00    -0.242 OA
BRANCH  63  65
ATOM     65  C   UNL A   1      36.720  21.388  25.617  1.00  0.00     0.241 A 
ATOM     66  N   UNL A   1      36.303  22.554  26.163  1.00  0.00    -0.204 NA
ATOM     67  N   UNL A   1      35.940  20.434  25.064  1.00  0.00    -0.222 NA
ATOM     68  C   UNL A   1      34.993  22.817  26.052  1.00  0.00     0.138 A 
ATOM     69  C   UNL A   1      34.625  20.666  25.078  1.00  0.00     0.077 A 
ATOM     70  C   UNL A   1      34.078  21.861  25.561  1.00  0.00     0.043 A 
ATOM     71  C   UNL A   1      33.760  19.724  24.533  1.00  0.00     0.029 A 
ATOM     72  C   UNL A   1      32.677  22.075  25.481  1.00  0.00     0.014 A 
ATOM     73  C   UNL A   1      32.384  19.955  24.432  1.00  0.00     0.002 A 
ATOM     74  C   UNL A   1      31.837  21.131  24.908  1.00  0.00     0.001 A 
BRANCH  68  75
ATOM     75  N   UNL A   1      34.537  24.112  26.239  1.00  0.00    -0.368 N 
ATOM     76  H   UNL A   1      34.071  24.284  27.088  1.00  0.00     0.162 HD
BRANCH  75  77
ATOM     77  C   UNL A   1      34.660  25.255  25.338  1.00  0.00     0.127 C 
BRANCH  77  78
ATOM     78  C   UNL A   1      33.215  25.909  25.021  1.00  0.00     0.070 C 
ATOM     79  C   UNL A   1      33.057  27.319  25.664  1.00  0.00    -0.035 A 
ATOM     80  C   UNL A   1      32.828  25.717  23.492  1.00  0.00    -0.025 A 
ATOM     81  C   UNL A   1      34.024  27.877  26.517  1.00  0.00     0.005 A 
ATOM     82  C   UNL A   1      31.882  28.081  25.546  1.00  0.00    -0.034 A 
ATOM     83  C   UNL A   1      31.987  26.516  22.679  1.00  0.00     0.011 A 
ATOM     84  C   UNL A   1      33.370  24.571  22.835  1.00  0.00     0.005 A 
ATOM     85  C   UNL A   1      33.938  29.181  27.030  1.00  0.00     0.000 A 
ATOM     86  C   UNL A   1      31.812  29.416  26.018  1.00  0.00     0.005 A 
ATOM     87  C   UNL A   1      30.672  27.537  24.861  1.00  0.00     0.110 C 
ATOM     88  S   UNL A   1      30.868  27.840  23.111  1.00  0.00    -0.121 SA
ATOM     89  C   UNL A   1      31.879  26.257  21.287  1.00  0.00     0.015 A 
ATOM     90  C   UNL A   1      33.244  24.324  21.462  1.00  0.00     0.000 A 
ATOM     91  C   UNL A   1      32.853  29.978  26.733  1.00  0.00     0.000 A 
ATOM     92  C   UNL A   1      32.518  25.188  20.676  1.00  0.00     0.001 A 
ENDBRANCH  77  78
ENDBRANCH  75  77
ENDBRANCH  68  75
ENDBRANCH  63  65
ENDBRANCH  62  63
ENDBRANCH   1  62
TORSDOF 14
ENDMDL
MODEL 3
REMARK VINA RESULT:     -12.5      0.731      2.592
REMARK SMILES O=C(OCCOC(=O)c1nc(NC[C@H]2c3ccccc3CSc3ccccc32)c2ccccc2n1)c1ccc(-c2c3nc(c(-c4c(F)cccc4F)c4ccc([nH]4)c(-c4c(F)cccc4F)c4nc(c(-c5c(F)cccc5F)c5ccc2[nH]5)C=C4)C=C3)cc1
REMARK SMILES IDX 5 1 4 2 3 3 2 4 1 5 36 6 37 7 89 8 38 9 88 10 39 11 40 12
REMARK SMILES IDX 41 13 82 14 42 15 87 16 81 17 83 18 43 19 86 20 80 21 79 22
REMARK SMILES IDX 44 24 70 25 53 26 69 27 54 28 57 29 68 30 84 31 55 32 56 33
REMARK SMILES IDX 67 35 85 36 58 37 45 38 46 39 51 40 47 41 48 42 50 43 52 44
REMARK SMILES IDX 49 45 71 46 72 47 77 48 73 49 74 50 76 51 78 52 75 53 59 54
REMARK SMILES IDX 60 55 65 56 61 57 62 58 64 59 66 60 63 61 6 62 7 63 8 64
REMARK SMILES IDX 9 65 10 66 35 67 11 68 34 69 29 70 33 71 30 72 32 73 31 74
REMARK SMILES IDX 12 75 13 77 14 78 15 79 28 80 16 81 20 82 23 83 27 84 17 85
REMARK SMILES IDX 19 86 21 87 22 88 24 89 26 90 18 91 25 92
REMARK H PARENT 83 23 57 34 12 76
REMARK Flexibility Score: inf
ROOT
ATOM      1  C   UNL A   1      42.513  18.559  26.347  1.00  0.00     0.275 C 
ENDROOT
BRANCH   1   2
ATOM      2  C   UNL A   1      43.372  19.198  25.247  1.00  0.00     0.275 C 
BRANCH   2   3
ATOM      3  O   UNL A   1      44.797  19.052  25.354  1.00  0.00    -0.458 OA
BRANCH   3   4
ATOM      4  C   UNL A   1      45.675  19.923  24.815  1.00  0.00     0.338 C 
ATOM      5  O   UNL A   1      46.444  19.548  23.939  1.00  0.00    -0.246 OA
BRANCH   4   6
ATOM      6  C   UNL A   1      45.671  21.350  25.270  1.00  0.00     0.060 A 
ATOM      7  C   UNL A   1      45.999  22.306  24.311  1.00  0.00     0.016 A 
ATOM      8  C   UNL A   1      45.374  21.795  26.558  1.00  0.00     0.016 A 
ATOM      9  C   UNL A   1      46.156  23.648  24.632  1.00  0.00     0.010 A 
ATOM     10  C   UNL A   1      45.537  23.150  26.898  1.00  0.00     0.010 A 
ATOM     11  C   UNL A   1      45.961  24.077  25.940  1.00  0.00    -0.014 A 
BRANCH  11  12
ATOM     12  C   UNL A   1      46.127  25.518  26.228  1.00  0.00     0.031 A 
ATOM     13  C   UNL A   1      44.943  26.381  26.561  1.00  0.00     0.074 A 
ATOM     14  C   UNL A   1      47.380  26.003  26.290  1.00  0.00     0.049 A 
ATOM     15  N   UNL A   1      44.922  27.622  26.980  1.00  0.00    -0.248 NA
ATOM     16  C   UNL A   1      43.611  25.771  26.431  1.00  0.00     0.031 C 
ATOM     17  C   UNL A   1      48.597  25.220  26.052  1.00  0.00     0.029 A 
ATOM     18  N   UNL A   1      47.842  27.257  26.579  1.00  0.00    -0.354 N 
ATOM     19  C   UNL A   1      43.586  27.922  27.219  1.00  0.00     0.074 A 
ATOM     20  C   UNL A   1      42.819  26.755  26.836  1.00  0.00     0.031 C 
ATOM     21  C   UNL A   1      49.666  26.015  26.199  1.00  0.00     0.029 A 
ATOM     22  C   UNL A   1      49.209  27.366  26.493  1.00  0.00     0.049 A 
ATOM     23  H   UNL A   1      47.255  28.008  26.824  1.00  0.00     0.167 HD
ATOM     24  C   UNL A   1      43.061  29.060  27.735  1.00  0.00     0.037 A 
ATOM     25  C   UNL A   1      49.998  28.448  26.605  1.00  0.00     0.037 A 
ATOM     26  C   UNL A   1      43.842  30.235  28.024  1.00  0.00     0.049 A 
ATOM     27  C   UNL A   1      49.354  29.763  26.930  1.00  0.00     0.074 A 
ATOM     28  C   UNL A   1      43.429  31.448  28.547  1.00  0.00     0.029 A 
ATOM     29  N   UNL A   1      45.202  30.356  27.763  1.00  0.00    -0.354 N 
ATOM     30  N   UNL A   1      48.104  30.014  27.236  1.00  0.00    -0.248 NA
ATOM     31  C   UNL A   1      50.225  30.942  26.915  1.00  0.00     0.031 C 
ATOM     32  C   UNL A   1      44.524  32.325  28.530  1.00  0.00     0.029 A 
ATOM     33  C   UNL A   1      45.629  31.645  28.041  1.00  0.00     0.049 A 
ATOM     34  H   UNL A   1      45.778  29.632  27.429  1.00  0.00     0.167 HD
ATOM     35  C   UNL A   1      48.038  31.379  27.473  1.00  0.00     0.074 A 
ATOM     36  C   UNL A   1      49.382  31.895  27.285  1.00  0.00     0.031 C 
ATOM     37  C   UNL A   1      46.966  32.136  27.819  1.00  0.00     0.037 A 
BRANCH  24  38
ATOM     38  C   UNL A   1      41.578  29.094  27.981  1.00  0.00     0.057 A 
ATOM     39  C   UNL A   1      41.056  28.985  29.274  1.00  0.00     0.134 A 
ATOM     40  C   UNL A   1      40.656  29.211  26.931  1.00  0.00     0.134 A 
ATOM     41  F   UNL A   1      41.874  28.852  30.328  1.00  0.00    -0.206 F 
ATOM     42  C   UNL A   1      39.678  29.008  29.511  1.00  0.00     0.040 A 
ATOM     43  C   UNL A   1      39.278  29.258  27.155  1.00  0.00     0.040 A 
ATOM     44  F   UNL A   1      41.075  29.288  25.664  1.00  0.00    -0.206 F 
ATOM     45  C   UNL A   1      38.785  29.155  28.451  1.00  0.00     0.006 A 
ENDBRANCH  24  38
BRANCH  25  46
ATOM     46  C   UNL A   1      51.456  28.331  26.358  1.00  0.00     0.057 A 
ATOM     47  C   UNL A   1      52.354  28.122  27.415  1.00  0.00     0.134 A 
ATOM     48  C   UNL A   1      51.991  28.433  25.070  1.00  0.00     0.134 A 
ATOM     49  F   UNL A   1      51.905  28.011  28.674  1.00  0.00    -0.206 F 
ATOM     50  C   UNL A   1      53.730  28.040  27.203  1.00  0.00     0.040 A 
ATOM     51  C   UNL A   1      53.365  28.328  24.841  1.00  0.00     0.040 A 
ATOM     52  F   UNL A   1      51.182  28.609  24.016  1.00  0.00    -0.206 F 
ATOM     53  C   UNL A   1      54.239  28.139  25.911  1.00  0.00     0.006 A 
ENDBRANCH  25  46
BRANCH  37  54
ATOM     54  C   UNL A   1      47.233  33.598  28.017  1.00  0.00     0.057 A 
ATOM     55  C   UNL A   1      47.028  34.511  26.975  1.00  0.00     0.134 A 
ATOM     56  C   UNL A   1      47.660  34.105  29.251  1.00  0.00     0.134 A 
ATOM     57  F   UNL A   1      46.621  34.088  25.768  1.00  0.00    -0.206 F 
ATOM     58  C   UNL A   1      47.230  35.879  27.157  1.00  0.00     0.040 A 
ATOM     59  C   UNL A   1      47.838  35.475  29.452  1.00  0.00     0.040 A 
ATOM     60  F   UNL A   1      47.849  33.283  30.295  1.00  0.00    -0.206 F 
ATOM     61  C   UNL A   1      47.626  36.365  28.401  1.00  0.00     0.006 A 
ENDBRANCH  37  54
ENDBRANCH  11  12
ENDBRANCH   4   6
ENDBRANCH   3   4
ENDBRANCH   2   3
ENDBRANCH   1   2
BRANCH   1  62
ATOM     62  O   UNL A   1      41.531  19.441  26.917  1.00  0.00    -0.456 OA
BRANCH  62  63
ATOM     63  C   UNL A   1      40.402  19.665  26.168  1.00  0.00     0.376 C 
ATOM     64  O   UNL A   1      39.756  18.806  25.582  1.00  0.00    -0.242 OA
BRANCH  63  65
ATOM     65  C   UNL A   1      40.044  21.124  26.205  1.00  0.00     0.241 A 
ATOM     66  N   UNL A   1      39.015  21.515  25.419  1.00  0.00    -0.204 NA
ATOM     67  N   UNL A   1      40.665  21.867  27.147  1.00  0.00    -0.222 NA
ATOM     68  C   UNL A   1      38.511  22.731  25.676  1.00  0.00     0.138 A 
ATOM     69  C   UNL A   1      40.223  23.118  27.297  1.00  0.00     0.077 A 
ATOM     70  C   UNL A   1      39.126  23.619  26.583  1.00  0.00     0.043 A 
ATOM     71  C   UNL A   1      40.820  23.944  28.242  1.00  0.00     0.029 A 
ATOM     72  C   UNL A   1      38.661  24.934  26.842  1.00  0.00     0.014 A 
ATOM     73  C   UNL A   1      40.337  25.229  28.511  1.00  0.00     0.002 A 
ATOM     74  C   UNL A   1      39.257  25.730  27.810  1.00  0.00     0.001 A 
BRANCH  68  75
ATOM     75  N   UNL A   1      37.256  23.066  25.194  1.00  0.00    -0.368 N 
ATOM     76  H   UNL A   1      37.240  23.549  24.336  1.00  0.00     0.162 HD
BRANCH  75  77
ATOM     77  C   UNL A   1      35.952  22.795  25.794  1.00  0.00     0.127 C 
BRANCH  77  78
ATOM     78  C   UNL A   1      34.768  22.910  24.698  1.00  0.00     0.070 C 
ATOM     79  C   UNL A   1      34.068  21.540  24.448  1.00  0.00    -0.035 A 
ATOM     80  C   UNL A   1      33.868  24.192  24.966  1.00  0.00    -0.025 A 
ATOM     81  C   UNL A   1      34.517  20.341  25.026  1.00  0.00     0.005 A 
ATOM     82  C   UNL A   1      33.020  21.379  23.524  1.00  0.00    -0.034 A 
ATOM     83  C   UNL A   1      32.507  24.409  24.638  1.00  0.00     0.011 A 
ATOM     84  C   UNL A   1      34.507  25.300  25.599  1.00  0.00     0.005 A 
ATOM     85  C   UNL A   1      33.844  19.117  24.883  1.00  0.00     0.000 A 
ATOM     86  C   UNL A   1      32.306  20.159  23.416  1.00  0.00     0.005 A 
ATOM     87  C   UNL A   1      32.572  22.510  22.658  1.00  0.00     0.110 C 
ATOM     88  S   UNL A   1      31.397  23.470  23.600  1.00  0.00    -0.121 SA
ATOM     89  C   UNL A   1      31.838  25.575  25.093  1.00  0.00     0.015 A 
ATOM     90  C   UNL A   1      33.835  26.449  26.031  1.00  0.00     0.000 A 
ATOM     91  C   UNL A   1      32.698  19.036  24.120  1.00  0.00     0.000 A 
ATOM     92  C   UNL A   1      32.484  26.577  25.802  1.00  0.00     0.001 A 
ENDBRANCH  77  78
ENDBRANCH  75  77
ENDBRANCH  68  75
ENDBRANCH  63  65
ENDBRANCH  62  63
ENDBRANCH   1  62
TORSDOF 14
ENDMDL
