MODEL 1
REMARK VINA RESULT:     -10.8      0.000      0.000
REMARK SMILES Cc1n[nH]c(C)c1S(=O)(=O)N[C@H](C(=O)OCCOC(=O)c1ccc(-c2c3nc(c(-c4c(F)cccc4F)c4ccc([nH]4)c(-c4c(F)cccc4F)c4nc(c(-c5c(F)cccc5F)c5ccc2[nH]5)C=C4)C=C3)cc1)C(C)C
REMARK SMILES IDX 16 1 15 2 13 3 14 4 12 5 11 6 8 8 9 9 10 10 7 11 1 12 2 13
REMARK SMILES IDX 3 14 4 15 5 16 6 18 75 19 76 20 77 21 17 22 18 23 19 24
REMARK SMILES IDX 20 25 21 26 22 27 74 28 23 29 73 30 24 31 25 32 26 33 67 34
REMARK SMILES IDX 27 35 72 36 66 37 68 38 28 39 71 40 65 41 64 42 29 44 55 45
REMARK SMILES IDX 38 46 54 47 39 48 42 49 53 50 69 51 40 52 41 53 52 55 70 56
REMARK SMILES IDX 43 57 30 58 31 59 36 60 32 61 33 62 35 63 37 64 34 65 56 66
REMARK SMILES IDX 57 67 62 68 58 69 59 70 61 71 63 72 60 73 44 74 45 75 50 76
REMARK SMILES IDX 46 77 47 78 49 79 51 80 48 81
REMARK H PARENT 11 7 4 17 68 43 42 54
REMARK Flexibility Score: inf
ROOT
ATOM      1  C   UNL A   1      31.453  31.019  25.905  1.00  0.00     0.274 C 
ENDROOT
BRANCH   1   2
ATOM      2  O   UNL A   1      32.779  30.469  25.761  1.00  0.00    -0.461 OA
BRANCH   2   3
ATOM      3  C   UNL A   1      32.869  29.160  25.415  1.00  0.00     0.324 C 
ATOM      4  O   UNL A   1      33.938  28.592  25.211  1.00  0.00    -0.250 OA
BRANCH   3   5
ATOM      5  C   UNL A   1      31.494  28.426  25.344  1.00  0.00     0.182 C 
BRANCH   5   6
ATOM      6  N   UNL A   1      31.585  27.710  24.046  1.00  0.00    -0.196 NA
ATOM      7  H   UNL A   1      32.582  27.637  23.841  1.00  0.00     0.142 HD
BRANCH   6   8
ATOM      8  S   UNL A   1      30.869  28.238  22.633  1.00  0.00     0.245 S 
ATOM      9  O   UNL A   1      30.949  27.145  21.712  1.00  0.00    -0.207 OA
ATOM     10  O   UNL A   1      31.492  29.519  22.319  1.00  0.00    -0.207 OA
BRANCH   8  11
ATOM     11  C   UNL A   1      29.198  28.613  22.762  1.00  0.00     0.125 A 
ATOM     12  C   UNL A   1      28.379  26.459  24.026  1.00  0.00     0.070 C 
ATOM     13  C   UNL A   1      28.224  27.794  23.391  1.00  0.00     0.079 A 
ATOM     14  N   UNL A   1      27.008  28.359  23.339  1.00  0.00    -0.179 NA
ATOM     15  N   UNL A   1      27.191  29.466  22.609  1.00  0.00    -0.281 N 
ATOM     16  C   UNL A   1      28.482  29.657  22.203  1.00  0.00     0.052 A 
ATOM     17  H   UNL A   1      26.460  30.086  22.385  1.00  0.00     0.190 HD
ATOM     18  C   UNL A   1      28.838  30.776  21.305  1.00  0.00     0.067 C 
ENDBRANCH   8  11
ENDBRANCH   6   8
ENDBRANCH   5   6
BRANCH   5  19
ATOM     19  C   UNL A   1      31.196  27.458  26.513  1.00  0.00     0.012 C 
ATOM     20  C   UNL A   1      31.824  26.075  26.276  1.00  0.00     0.009 C 
ATOM     21  C   UNL A   1      31.727  27.986  27.851  1.00  0.00     0.009 C 
ENDBRANCH   5  19
ENDBRANCH   3   5
ENDBRANCH   2   3
ENDBRANCH   1   2
BRANCH   1  22
ATOM     22  C   UNL A   1      31.435  32.123  26.961  1.00  0.00     0.275 C 
BRANCH  22  23
ATOM     23  O   UNL A   1      32.452  33.107  26.697  1.00  0.00    -0.458 OA
BRANCH  23  24
ATOM     24  C   UNL A   1      32.952  33.717  27.793  1.00  0.00     0.338 C 
ATOM     25  O   UNL A   1      32.459  34.629  28.433  1.00  0.00    -0.246 OA
BRANCH  24  26
ATOM     26  C   UNL A   1      34.195  33.057  28.203  1.00  0.00     0.060 A 
ATOM     27  C   UNL A   1      34.153  31.696  28.488  1.00  0.00     0.016 A 
ATOM     28  C   UNL A   1      35.344  33.804  28.461  1.00  0.00     0.016 A 
ATOM     29  C   UNL A   1      35.227  31.090  29.132  1.00  0.00     0.010 A 
ATOM     30  C   UNL A   1      36.456  33.173  29.027  1.00  0.00     0.010 A 
ATOM     31  C   UNL A   1      36.395  31.817  29.401  1.00  0.00    -0.014 A 
BRANCH  31  32
ATOM     32  C   UNL A   1      37.538  31.161  30.089  1.00  0.00     0.031 A 
ATOM     33  C   UNL A   1      37.785  31.396  31.554  1.00  0.00     0.074 A 
ATOM     34  C   UNL A   1      38.351  30.336  29.401  1.00  0.00     0.049 A 
ATOM     35  N   UNL A   1      38.805  31.029  32.290  1.00  0.00    -0.248 NA
ATOM     36  C   UNL A   1      36.760  32.156  32.289  1.00  0.00     0.031 C 
ATOM     37  C   UNL A   1      38.208  29.989  27.985  1.00  0.00     0.029 A 
ATOM     38  N   UNL A   1      39.456  29.628  29.804  1.00  0.00    -0.354 N 
ATOM     39  C   UNL A   1      38.572  31.557  33.553  1.00  0.00     0.074 A 
ATOM     40  C   UNL A   1      37.310  32.263  33.491  1.00  0.00     0.031 C 
ATOM     41  C   UNL A   1      39.163  29.110  27.648  1.00  0.00     0.029 A 
ATOM     42  C   UNL A   1      40.025  28.880  28.803  1.00  0.00     0.049 A 
ATOM     43  H   UNL A   1      39.807  29.655  30.723  1.00  0.00     0.167 HD
ATOM     44  C   UNL A   1      39.342  31.463  34.663  1.00  0.00     0.037 A 
ATOM     45  C   UNL A   1      41.132  28.115  28.803  1.00  0.00     0.037 A 
ATOM     46  C   UNL A   1      40.561  30.701  34.748  1.00  0.00     0.049 A 
ATOM     47  C   UNL A   1      41.957  28.014  30.051  1.00  0.00     0.074 A 
ATOM     48  C   UNL A   1      41.395  30.528  35.839  1.00  0.00     0.029 A 
ATOM     49  N   UNL A   1      41.103  29.964  33.708  1.00  0.00    -0.354 N 
ATOM     50  N   UNL A   1      41.754  28.564  31.222  1.00  0.00    -0.248 NA
ATOM     51  C   UNL A   1      43.181  27.202  29.971  1.00  0.00     0.031 C 
ATOM     52  C   UNL A   1      42.455  29.699  35.453  1.00  0.00     0.029 A 
ATOM     53  C   UNL A   1      42.266  29.340  34.129  1.00  0.00     0.049 A 
ATOM     54  H   UNL A   1      40.720  29.894  32.804  1.00  0.00     0.167 HD
ATOM     55  C   UNL A   1      42.818  28.167  32.018  1.00  0.00     0.074 A 
ATOM     56  C   UNL A   1      43.657  27.312  31.203  1.00  0.00     0.031 C 
ATOM     57  C   UNL A   1      43.084  28.492  33.305  1.00  0.00     0.037 A 
BRANCH  44  58
ATOM     58  C   UNL A   1      38.908  32.225  35.876  1.00  0.00     0.057 A 
ATOM     59  C   UNL A   1      38.151  31.635  36.892  1.00  0.00     0.134 A 
ATOM     60  C   UNL A   1      39.305  33.557  36.051  1.00  0.00     0.134 A 
ATOM     61  F   UNL A   1      37.731  30.366  36.777  1.00  0.00    -0.206 F 
ATOM     62  C   UNL A   1      37.796  32.345  38.041  1.00  0.00     0.040 A 
ATOM     63  C   UNL A   1      38.969  34.274  37.200  1.00  0.00     0.040 A 
ATOM     64  F   UNL A   1      40.036  34.178  35.112  1.00  0.00    -0.206 F 
ATOM     65  C   UNL A   1      38.211  33.667  38.199  1.00  0.00     0.006 A 
ENDBRANCH  44  58
BRANCH  45  66
ATOM     66  C   UNL A   1      41.541  27.411  27.565  1.00  0.00     0.057 A 
ATOM     67  C   UNL A   1      42.293  28.061  26.581  1.00  0.00     0.134 A 
ATOM     68  C   UNL A   1      41.192  26.074  27.339  1.00  0.00     0.134 A 
ATOM     69  F   UNL A   1      42.636  29.349  26.733  1.00  0.00    -0.206 F 
ATOM     70  C   UNL A   1      42.678  27.408  25.410  1.00  0.00     0.040 A 
ATOM     71  C   UNL A   1      41.588  25.403  26.182  1.00  0.00     0.040 A 
ATOM     72  F   UNL A   1      40.472  25.400  28.248  1.00  0.00    -0.206 F 
ATOM     73  C   UNL A   1      42.331  26.072  25.211  1.00  0.00     0.006 A 
ENDBRANCH  45  66
BRANCH  57  74
ATOM     74  C   UNL A   1      44.324  27.911  33.906  1.00  0.00     0.057 A 
ATOM     75  C   UNL A   1      44.313  26.657  34.528  1.00  0.00     0.134 A 
ATOM     76  C   UNL A   1      45.542  28.598  33.842  1.00  0.00     0.134 A 
ATOM     77  F   UNL A   1      43.172  25.960  34.630  1.00  0.00    -0.206 F 
ATOM     78  C   UNL A   1      45.471  26.110  35.079  1.00  0.00     0.040 A 
ATOM     79  C   UNL A   1      46.709  28.055  34.378  1.00  0.00     0.040 A 
ATOM     80  F   UNL A   1      45.615  29.803  33.257  1.00  0.00    -0.206 F 
ATOM     81  C   UNL A   1      46.675  26.808  35.002  1.00  0.00     0.006 A 
ENDBRANCH  57  74
ENDBRANCH  31  32
ENDBRANCH  24  26
ENDBRANCH  23  24
ENDBRANCH  22  23
ENDBRANCH   1  22
TORSDOF 15
ENDMDL
MODEL 2
REMARK VINA RESULT:     -10.6      5.504      9.593
REMARK SMILES Cc1n[nH]c(C)c1S(=O)(=O)N[C@H](C(=O)OCCOC(=O)c1ccc(-c2c3nc(c(-c4c(F)cccc4F)c4ccc([nH]4)c(-c4c(F)cccc4F)c4nc(c(-c5c(F)cccc5F)c5ccc2[nH]5)C=C4)C=C3)cc1)C(C)C
REMARK SMILES IDX 16 1 15 2 13 3 14 4 12 5 11 6 8 8 9 9 10 10 7 11 1 12 2 13
REMARK SMILES IDX 3 14 4 15 5 16 6 18 75 19 76 20 77 21 17 22 18 23 19 24
REMARK SMILES IDX 20 25 21 26 22 27 74 28 23 29 73 30 24 31 25 32 26 33 67 34
REMARK SMILES IDX 27 35 72 36 66 37 68 38 28 39 71 40 65 41 64 42 29 44 55 45
REMARK SMILES IDX 38 46 54 47 39 48 42 49 53 50 69 51 40 52 41 53 52 55 70 56
REMARK SMILES IDX 43 57 30 58 31 59 36 60 32 61 33 62 35 63 37 64 34 65 56 66
REMARK SMILES IDX 57 67 62 68 58 69 59 70 61 71 63 72 60 73 44 74 45 75 50 76
REMARK SMILES IDX 46 77 47 78 49 79 51 80 48 81
REMARK H PARENT 11 7 4 17 68 43 42 54
REMARK Flexibility Score: inf
ROOT
ATOM      1  C   UNL A   1      38.139  20.956  25.383  1.00  0.00     0.274 C 
ENDROOT
BRANCH   1   2
ATOM      2  O   UNL A   1      36.765  20.652  25.064  1.00  0.00    -0.461 OA
BRANCH   2   3
ATOM      3  C   UNL A   1      36.022  21.650  24.525  1.00  0.00     0.324 C 
ATOM      4  O   UNL A   1      36.400  22.330  23.575  1.00  0.00    -0.250 OA
BRANCH   3   5
ATOM      5  C   UNL A   1      34.621  21.829  25.188  1.00  0.00     0.182 C 
BRANCH   5   6
ATOM      6  N   UNL A   1      34.250  20.431  25.524  1.00  0.00    -0.196 NA
ATOM      7  H   UNL A   1      34.912  19.841  25.019  1.00  0.00     0.142 HD
BRANCH   6   8
ATOM      8  S   UNL A   1      32.743  19.768  25.239  1.00  0.00     0.245 S 
ATOM      9  O   UNL A   1      31.800  20.831  25.409  1.00  0.00    -0.207 OA
ATOM     10  O   UNL A   1      32.667  18.569  26.066  1.00  0.00    -0.207 OA
BRANCH   8  11
ATOM     11  C   UNL A   1      32.499  19.183  23.643  1.00  0.00     0.125 A 
ATOM     12  C   UNL A   1      33.285  16.697  23.978  1.00  0.00     0.070 C 
ATOM     13  C   UNL A   1      32.744  17.852  23.214  1.00  0.00     0.079 A 
ATOM     14  N   UNL A   1      32.452  17.699  21.914  1.00  0.00    -0.179 NA
ATOM     15  N   UNL A   1      32.120  18.929  21.505  1.00  0.00    -0.281 N 
ATOM     16  C   UNL A   1      32.162  19.874  22.492  1.00  0.00     0.052 A 
ATOM     17  H   UNL A   1      31.867  19.134  20.576  1.00  0.00     0.190 HD
ATOM     18  C   UNL A   1      31.921  21.300  22.189  1.00  0.00     0.067 C 
ENDBRANCH   8  11
ENDBRANCH   6   8
ENDBRANCH   5   6
BRANCH   5  19
ATOM     19  C   UNL A   1      34.587  22.746  26.434  1.00  0.00     0.012 C 
ATOM     20  C   UNL A   1      33.613  23.920  26.246  1.00  0.00     0.009 C 
ATOM     21  C   UNL A   1      34.163  21.988  27.698  1.00  0.00     0.009 C 
ENDBRANCH   5  19
ENDBRANCH   3   5
ENDBRANCH   2   3
ENDBRANCH   1   2
BRANCH   1  22
ATOM     22  C   UNL A   1      39.013  19.708  25.262  1.00  0.00     0.275 C 
BRANCH  22  23
ATOM     23  O   UNL A   1      39.892  19.582  26.395  1.00  0.00    -0.458 OA
BRANCH  23  24
ATOM     24  C   UNL A   1      41.209  19.637  26.103  1.00  0.00     0.338 C 
ATOM     25  O   UNL A   1      41.872  18.829  25.476  1.00  0.00    -0.246 OA
BRANCH  24  26
ATOM     26  C   UNL A   1      41.770  20.903  26.583  1.00  0.00     0.060 A 
ATOM     27  C   UNL A   1      41.843  21.110  27.957  1.00  0.00     0.016 A 
ATOM     28  C   UNL A   1      42.065  21.933  25.691  1.00  0.00     0.016 A 
ATOM     29  C   UNL A   1      42.111  22.381  28.452  1.00  0.00     0.010 A 
ATOM     30  C   UNL A   1      42.422  23.189  26.192  1.00  0.00     0.010 A 
ATOM     31  C   UNL A   1      42.413  23.435  27.578  1.00  0.00    -0.014 A 
BRANCH  31  32
ATOM     32  C   UNL A   1      42.699  24.790  28.117  1.00  0.00     0.031 A 
ATOM     33  C   UNL A   1      44.105  25.186  28.481  1.00  0.00     0.074 A 
ATOM     34  C   UNL A   1      41.698  25.679  28.265  1.00  0.00     0.049 A 
ATOM     35  N   UNL A   1      44.527  26.264  29.094  1.00  0.00    -0.248 NA
ATOM     36  C   UNL A   1      45.176  24.241  28.124  1.00  0.00     0.031 C 
ATOM     37  C   UNL A   1      40.295  25.443  27.918  1.00  0.00     0.029 A 
ATOM     38  N   UNL A   1      41.709  26.968  28.737  1.00  0.00    -0.354 N 
ATOM     39  C   UNL A   1      45.899  26.103  29.244  1.00  0.00     0.074 A 
ATOM     40  C   UNL A   1      46.243  24.827  28.651  1.00  0.00     0.031 C 
ATOM     41  C   UNL A   1      39.589  26.559  28.155  1.00  0.00     0.029 A 
ATOM     42  C   UNL A   1      40.474  27.567  28.730  1.00  0.00     0.049 A 
ATOM     43  H   UNL A   1      42.526  27.420  29.052  1.00  0.00     0.167 HD
ATOM     44  C   UNL A   1      46.789  26.941  29.826  1.00  0.00     0.037 A 
ATOM     45  C   UNL A   1      40.087  28.780  29.163  1.00  0.00     0.037 A 
ATOM     46  C   UNL A   1      46.462  28.241  30.352  1.00  0.00     0.049 A 
ATOM     47  C   UNL A   1      41.096  29.697  29.788  1.00  0.00     0.074 A 
ATOM     48  C   UNL A   1      47.304  29.170  30.938  1.00  0.00     0.029 A 
ATOM     49  N   UNL A   1      45.197  28.804  30.329  1.00  0.00    -0.354 N 
ATOM     50  N   UNL A   1      42.379  29.507  29.973  1.00  0.00    -0.248 NA
ATOM     51  C   UNL A   1      40.600  30.988  30.284  1.00  0.00     0.031 C 
ATOM     52  C   UNL A   1      46.543  30.292  31.287  1.00  0.00     0.029 A 
ATOM     53  C   UNL A   1      45.233  30.066  30.899  1.00  0.00     0.049 A 
ATOM     54  H   UNL A   1      44.392  28.371  29.964  1.00  0.00     0.167 HD
ATOM     55  C   UNL A   1      42.844  30.652  30.605  1.00  0.00     0.074 A 
ATOM     56  C   UNL A   1      41.710  31.541  30.754  1.00  0.00     0.031 C 
ATOM     57  C   UNL A   1      44.096  30.935  31.035  1.00  0.00     0.037 A 
BRANCH  44  58
ATOM     58  C   UNL A   1      48.204  26.470  29.954  1.00  0.00     0.057 A 
ATOM     59  C   UNL A   1      49.173  26.760  28.987  1.00  0.00     0.134 A 
ATOM     60  C   UNL A   1      48.613  25.764  31.092  1.00  0.00     0.134 A 
ATOM     61  F   UNL A   1      48.840  27.422  27.869  1.00  0.00    -0.206 F 
ATOM     62  C   UNL A   1      50.500  26.356  29.144  1.00  0.00     0.040 A 
ATOM     63  C   UNL A   1      49.940  25.368  31.269  1.00  0.00     0.040 A 
ATOM     64  F   UNL A   1      47.731  25.460  32.057  1.00  0.00    -0.206 F 
ATOM     65  C   UNL A   1      50.887  25.664  30.292  1.00  0.00     0.006 A 
ENDBRANCH  44  58
BRANCH  45  66
ATOM     66  C   UNL A   1      38.665  29.184  29.049  1.00  0.00     0.057 A 
ATOM     67  C   UNL A   1      38.140  29.641  27.835  1.00  0.00     0.134 A 
ATOM     68  C   UNL A   1      37.801  29.122  30.148  1.00  0.00     0.134 A 
ATOM     69  F   UNL A   1      38.928  29.744  26.755  1.00  0.00    -0.206 F 
ATOM     70  C   UNL A   1      36.805  30.028  27.720  1.00  0.00     0.040 A 
ATOM     71  C   UNL A   1      36.459  29.487  30.041  1.00  0.00     0.040 A 
ATOM     72  F   UNL A   1      38.248  28.692  31.337  1.00  0.00    -0.206 F 
ATOM     73  C   UNL A   1      35.958  29.946  28.825  1.00  0.00     0.006 A 
ENDBRANCH  45  66
BRANCH  57  74
ATOM     74  C   UNL A   1      44.299  32.262  31.695  1.00  0.00     0.057 A 
ATOM     75  C   UNL A   1      44.174  32.413  33.080  1.00  0.00     0.134 A 
ATOM     76  C   UNL A   1      44.646  33.391  30.942  1.00  0.00     0.134 A 
ATOM     77  F   UNL A   1      43.830  31.369  33.849  1.00  0.00    -0.206 F 
ATOM     78  C   UNL A   1      44.373  33.648  33.697  1.00  0.00     0.040 A 
ATOM     79  C   UNL A   1      44.861  34.628  31.550  1.00  0.00     0.040 A 
ATOM     80  F   UNL A   1      44.782  33.307  29.611  1.00  0.00    -0.206 F 
ATOM     81  C   UNL A   1      44.721  34.759  32.931  1.00  0.00     0.006 A 
ENDBRANCH  57  74
ENDBRANCH  31  32
ENDBRANCH  24  26
ENDBRANCH  23  24
ENDBRANCH  22  23
ENDBRANCH   1  22
TORSDOF 15
ENDMDL
MODEL 3
REMARK VINA RESULT:     -10.5      5.774      9.084
REMARK SMILES Cc1n[nH]c(C)c1S(=O)(=O)N[C@H](C(=O)OCCOC(=O)c1ccc(-c2c3nc(c(-c4c(F)cccc4F)c4ccc([nH]4)c(-c4c(F)cccc4F)c4nc(c(-c5c(F)cccc5F)c5ccc2[nH]5)C=C4)C=C3)cc1)C(C)C
REMARK SMILES IDX 16 1 15 2 13 3 14 4 12 5 11 6 8 8 9 9 10 10 7 11 1 12 2 13
REMARK SMILES IDX 3 14 4 15 5 16 6 18 75 19 76 20 77 21 17 22 18 23 19 24
REMARK SMILES IDX 20 25 21 26 22 27 74 28 23 29 73 30 24 31 25 32 26 33 67 34
REMARK SMILES IDX 27 35 72 36 66 37 68 38 28 39 71 40 65 41 64 42 29 44 55 45
REMARK SMILES IDX 38 46 54 47 39 48 42 49 53 50 69 51 40 52 41 53 52 55 70 56
REMARK SMILES IDX 43 57 30 58 31 59 36 60 32 61 33 62 35 63 37 64 34 65 56 66
REMARK SMILES IDX 57 67 62 68 58 69 59 70 61 71 63 72 60 73 44 74 45 75 50 76
REMARK SMILES IDX 46 77 47 78 49 79 51 80 48 81
REMARK H PARENT 11 7 4 17 68 43 42 54
REMARK Flexibility Score: inf
ROOT
ATOM      1  C   UNL A   1      38.089  21.036  25.485  1.00  0.00     0.274 C 
ENDROOT
BRANCH   1   2
ATOM      2  O   UNL A   1      36.731  20.745  25.096  1.00  0.00    -0.461 OA
BRANCH   2   3
ATOM      3  C   UNL A   1      36.019  21.757  24.539  1.00  0.00     0.324 C 
ATOM      4  O   UNL A   1      36.440  22.442  23.611  1.00  0.00    -0.250 OA
BRANCH   3   5
ATOM      5  C   UNL A   1      34.596  21.944  25.151  1.00  0.00     0.182 C 
BRANCH   5   6
ATOM      6  N   UNL A   1      34.237  20.558  25.545  1.00  0.00    -0.196 NA
ATOM      7  H   UNL A   1      34.914  19.954  25.078  1.00  0.00     0.142 HD
BRANCH   6   8
ATOM      8  S   UNL A   1      32.743  19.863  25.267  1.00  0.00     0.245 S 
ATOM      9  O   UNL A   1      31.782  20.916  25.400  1.00  0.00    -0.207 OA
ATOM     10  O   UNL A   1      32.680  18.686  26.126  1.00  0.00    -0.207 OA
BRANCH   8  11
ATOM     11  C   UNL A   1      32.521  19.231  23.686  1.00  0.00     0.125 A 
ATOM     12  C   UNL A   1      33.391  16.783  24.083  1.00  0.00     0.070 C 
ATOM     13  C   UNL A   1      32.812  17.899  23.290  1.00  0.00     0.079 A 
ATOM     14  N   UNL A   1      32.526  17.704  21.995  1.00  0.00    -0.179 NA
ATOM     15  N   UNL A   1      32.153  18.911  21.555  1.00  0.00    -0.281 N 
ATOM     16  C   UNL A   1      32.162  19.881  22.518  1.00  0.00     0.052 A 
ATOM     17  H   UNL A   1      31.895  19.085  20.621  1.00  0.00     0.190 HD
ATOM     18  C   UNL A   1      31.873  21.291  22.180  1.00  0.00     0.067 C 
ENDBRANCH   8  11
ENDBRANCH   6   8
ENDBRANCH   5   6
BRANCH   5  19
ATOM     19  C   UNL A   1      34.511  22.920  26.348  1.00  0.00     0.012 C 
ATOM     20  C   UNL A   1      33.437  23.997  26.124  1.00  0.00     0.009 C 
ATOM     21  C   UNL A   1      34.178  22.199  27.660  1.00  0.00     0.009 C 
ENDBRANCH   5  19
ENDBRANCH   3   5
ENDBRANCH   2   3
ENDBRANCH   1   2
BRANCH   1  22
ATOM     22  C   UNL A   1      38.962  19.785  25.385  1.00  0.00     0.275 C 
BRANCH  22  23
ATOM     23  O   UNL A   1      39.903  19.724  26.473  1.00  0.00    -0.458 OA
BRANCH  23  24
ATOM     24  C   UNL A   1      41.201  19.718  26.103  1.00  0.00     0.338 C 
ATOM     25  O   UNL A   1      41.787  18.883  25.436  1.00  0.00    -0.246 OA
BRANCH  24  26
ATOM     26  C   UNL A   1      41.849  20.954  26.553  1.00  0.00     0.060 A 
ATOM     27  C   UNL A   1      41.934  21.191  27.921  1.00  0.00     0.016 A 
ATOM     28  C   UNL A   1      42.216  21.938  25.635  1.00  0.00     0.016 A 
ATOM     29  C   UNL A   1      42.290  22.453  28.384  1.00  0.00     0.010 A 
ATOM     30  C   UNL A   1      42.660  23.178  26.105  1.00  0.00     0.010 A 
ATOM     31  C   UNL A   1      42.666  23.460  27.484  1.00  0.00    -0.014 A 
BRANCH  31  32
ATOM     32  C   UNL A   1      43.046  24.805  27.989  1.00  0.00     0.031 A 
ATOM     33  C   UNL A   1      41.988  25.809  28.359  1.00  0.00     0.074 A 
ATOM     34  C   UNL A   1      44.346  25.126  28.133  1.00  0.00     0.049 A 
ATOM     35  N   UNL A   1      42.122  27.072  28.679  1.00  0.00    -0.248 NA
ATOM     36  C   UNL A   1      40.593  25.338  28.356  1.00  0.00     0.031 C 
ATOM     37  C   UNL A   1      45.476  24.238  27.847  1.00  0.00     0.029 A 
ATOM     38  N   UNL A   1      44.939  26.285  28.567  1.00  0.00    -0.354 N 
ATOM     39  C   UNL A   1      40.834  27.558  28.860  1.00  0.00     0.074 A 
ATOM     40  C   UNL A   1      39.927  26.454  28.625  1.00  0.00     0.031 C 
ATOM     41  C   UNL A   1      46.620  24.871  28.147  1.00  0.00     0.029 A 
ATOM     42  C   UNL A   1      46.311  26.228  28.584  1.00  0.00     0.049 A 
ATOM     43  H   UNL A   1      44.429  27.082  28.841  1.00  0.00     0.167 HD
ATOM     44  C   UNL A   1      40.442  28.812  29.191  1.00  0.00     0.037 A 
ATOM     45  C   UNL A   1      47.222  27.170  28.889  1.00  0.00     0.037 A 
ATOM     46  C   UNL A   1      41.342  29.893  29.497  1.00  0.00     0.049 A 
ATOM     47  C   UNL A   1      46.762  28.545  29.269  1.00  0.00     0.074 A 
ATOM     48  C   UNL A   1      41.036  31.191  29.866  1.00  0.00     0.029 A 
ATOM     49  N   UNL A   1      42.724  29.792  29.495  1.00  0.00    -0.354 N 
ATOM     50  N   UNL A   1      45.540  29.005  29.382  1.00  0.00    -0.248 NA
ATOM     51  C   UNL A   1      47.808  29.541  29.543  1.00  0.00     0.031 C 
ATOM     52  C   UNL A   1      42.235  31.884  30.071  1.00  0.00     0.029 A 
ATOM     53  C   UNL A   1      43.285  31.008  29.848  1.00  0.00     0.049 A 
ATOM     54  H   UNL A   1      43.232  28.978  29.274  1.00  0.00     0.167 HD
ATOM     55  C   UNL A   1      45.668  30.339  29.741  1.00  0.00     0.074 A 
ATOM     56  C   UNL A   1      47.087  30.612  29.847  1.00  0.00     0.031 C 
ATOM     57  C   UNL A   1      44.697  31.259  29.951  1.00  0.00     0.037 A 
BRANCH  44  58
ATOM     58  C   UNL A   1      38.973  29.096  29.214  1.00  0.00     0.057 A 
ATOM     59  C   UNL A   1      38.219  29.011  30.389  1.00  0.00     0.134 A 
ATOM     60  C   UNL A   1      38.318  29.517  28.050  1.00  0.00     0.134 A 
ATOM     61  F   UNL A   1      38.787  28.602  31.533  1.00  0.00    -0.206 F 
ATOM     62  C   UNL A   1      36.859  29.328  30.404  1.00  0.00     0.040 A 
ATOM     63  C   UNL A   1      36.963  29.851  28.055  1.00  0.00     0.040 A 
ATOM     64  F   UNL A   1      38.989  29.623  26.892  1.00  0.00    -0.206 F 
ATOM     65  C   UNL A   1      36.230  29.756  29.236  1.00  0.00     0.006 A 
ENDBRANCH  44  58
BRANCH  45  66
ATOM     66  C   UNL A   1      48.667  26.849  28.813  1.00  0.00     0.057 A 
ATOM     67  C   UNL A   1      49.341  26.296  29.908  1.00  0.00     0.134 A 
ATOM     68  C   UNL A   1      49.405  27.085  27.648  1.00  0.00     0.134 A 
ATOM     69  F   UNL A   1      48.690  26.071  31.059  1.00  0.00    -0.206 F 
ATOM     70  C   UNL A   1      50.702  25.996  29.848  1.00  0.00     0.040 A 
ATOM     71  C   UNL A   1      50.761  26.770  27.568  1.00  0.00     0.040 A 
ATOM     72  F   UNL A   1      48.812  27.613  26.567  1.00  0.00    -0.206 F 
ATOM     73  C   UNL A   1      51.415  26.227  28.672  1.00  0.00     0.006 A 
ENDBRANCH  45  66
BRANCH  57  74
ATOM     74  C   UNL A   1      45.142  32.637  30.324  1.00  0.00     0.057 A 
ATOM     75  C   UNL A   1      45.361  33.620  29.352  1.00  0.00     0.134 A 
ATOM     76  C   UNL A   1      45.330  32.991  31.666  1.00  0.00     0.134 A 
ATOM     77  F   UNL A   1      45.210  33.334  28.051  1.00  0.00    -0.206 F 
ATOM     78  C   UNL A   1      45.766  34.908  29.701  1.00  0.00     0.040 A 
ATOM     79  C   UNL A   1      45.722  34.280  32.027  1.00  0.00     0.040 A 
ATOM     80  F   UNL A   1      45.134  32.092  32.642  1.00  0.00    -0.206 F 
ATOM     81  C   UNL A   1      45.944  35.242  31.042  1.00  0.00     0.006 A 
ENDBRANCH  57  74
ENDBRANCH  31  32
ENDBRANCH  24  26
ENDBRANCH  23  24
ENDBRANCH  22  23
ENDBRANCH   1  22
TORSDOF 15
ENDMDL
