MODEL 1
REMARK VINA RESULT:     -11.5      0.000      0.000
REMARK SMILES CCCc1cc2c(cc1Cl)C=C(C(=O)OCCOC(=O)c1ccc(-c3c4nc(c(-c5c(F)cccc5F)c5ccc([nH]5)c(-c5c(F)cccc5F)c5nc(c(-c6c(F)cccc6F)c6ccc3[nH]6)C=C5)C=C4)cc1)[C@@H](C(F)(F)F)O2
REMARK SMILES IDX 16 1 15 2 13 3 14 4 12 5 4 6 5 7 9 8 6 9 8 10 10 11 7 12
REMARK SMILES IDX 80 13 11 14 75 15 3 16 2 17 1 18 76 19 77 20 78 21 79 22
REMARK SMILES IDX 17 23 18 24 19 25 20 26 21 27 22 28 74 29 23 30 73 31 24 32
REMARK SMILES IDX 25 33 26 34 67 35 27 36 72 37 66 38 68 39 28 40 71 41 65 42
REMARK SMILES IDX 64 43 29 45 55 46 38 47 54 48 39 49 42 50 53 51 69 52 40 53
REMARK SMILES IDX 41 54 52 56 70 57 43 58 30 59 31 60 36 61 32 62 33 63 35 64
REMARK SMILES IDX 37 65 34 66 56 67 57 68 62 69 58 70 59 71 61 72 63 73 60 74
REMARK SMILES IDX 44 75 45 76 50 77 46 78 47 79 49 80 51 81 48 82
REMARK H PARENT 68 44 42 55
REMARK Flexibility Score: inf
ROOT
ATOM      1  C   UNL A   1      36.033  20.219  25.048  1.00  0.00     0.275 C 
ENDROOT
BRANCH   1   2
ATOM      2  O   UNL A   1      35.709  21.252  26.005  1.00  0.00    -0.459 OA
BRANCH   2   3
ATOM      3  C   UNL A   1      34.424  21.678  25.997  1.00  0.00     0.338 C 
ATOM      4  O   UNL A   1      33.487  21.176  26.598  1.00  0.00    -0.246 OA
BRANCH   3   5
ATOM      5  C   UNL A   1      34.295  22.911  25.196  1.00  0.00     0.087 C 
ATOM      6  C   UNL A   1      33.285  27.603  23.694  1.00  0.00    -0.026 A 
ATOM      7  C   UNL A   1      33.541  26.389  23.026  1.00  0.00     0.052 A 
ATOM      8  C   UNL A   1      33.517  27.655  25.081  1.00  0.00     0.045 A 
ATOM      9  C   UNL A   1      33.869  25.231  23.731  1.00  0.00     0.128 A 
ATOM     10  C   UNL A   1      33.866  26.504  25.784  1.00  0.00     0.032 A 
ATOM     11  Cl  UNL A   1      33.369  29.118  25.991  1.00  0.00    -0.084 Cl
ATOM     12  C   UNL A   1      33.995  25.287  25.112  1.00  0.00     0.019 A 
ATOM     13  O   UNL A   1      34.049  24.087  23.004  1.00  0.00    -0.475 OA
ATOM     14  C   UNL A   1      34.220  24.071  25.857  1.00  0.00     0.027 C 
ATOM     15  C   UNL A   1      34.108  22.812  23.709  1.00  0.00     0.316 C 
BRANCH   6  16
ATOM     16  C   UNL A   1      32.784  28.828  22.956  1.00  0.00     0.037 C 
BRANCH  16  17
ATOM     17  C   UNL A   1      31.284  28.903  22.643  1.00  0.00     0.001 C 
ATOM     18  C   UNL A   1      30.440  29.376  23.822  1.00  0.00     0.004 C 
ENDBRANCH  16  17
ENDBRANCH   6  16
BRANCH  15  19
ATOM     19  C   UNL A   1      32.842  22.003  23.377  1.00  0.00     0.430 C 
ATOM     20  F   UNL A   1      31.804  22.356  24.170  1.00  0.00    -0.167 F 
ATOM     21  F   UNL A   1      32.442  22.209  22.098  1.00  0.00    -0.167 F 
ATOM     22  F   UNL A   1      33.035  20.672  23.528  1.00  0.00    -0.167 F 
ENDBRANCH  15  19
ENDBRANCH   3   5
ENDBRANCH   2   3
ENDBRANCH   1   2
BRANCH   1  23
ATOM     23  C   UNL A   1      37.543  20.119  24.823  1.00  0.00     0.275 C 
BRANCH  23  24
ATOM     24  O   UNL A   1      38.216  21.259  25.389  1.00  0.00    -0.458 OA
BRANCH  24  25
ATOM     25  C   UNL A   1      39.323  20.978  26.112  1.00  0.00     0.338 C 
ATOM     26  O   UNL A   1      39.909  19.913  26.196  1.00  0.00    -0.246 OA
BRANCH  25  27
ATOM     27  C   UNL A   1      39.836  22.212  26.724  1.00  0.00     0.060 A 
ATOM     28  C   UNL A   1      40.915  22.214  27.597  1.00  0.00     0.016 A 
ATOM     29  C   UNL A   1      39.313  23.415  26.271  1.00  0.00     0.016 A 
ATOM     30  C   UNL A   1      41.444  23.442  28.019  1.00  0.00     0.010 A 
ATOM     31  C   UNL A   1      39.943  24.620  26.553  1.00  0.00     0.010 A 
ATOM     32  C   UNL A   1      40.992  24.664  27.474  1.00  0.00    -0.014 A 
BRANCH  32  33
ATOM     33  C   UNL A   1      41.592  25.973  27.875  1.00  0.00     0.031 A 
ATOM     34  C   UNL A   1      42.989  26.365  27.439  1.00  0.00     0.074 A 
ATOM     35  C   UNL A   1      40.892  26.812  28.665  1.00  0.00     0.049 A 
ATOM     36  N   UNL A   1      43.640  27.483  27.654  1.00  0.00    -0.248 NA
ATOM     37  C   UNL A   1      43.779  25.359  26.709  1.00  0.00     0.031 C 
ATOM     38  C   UNL A   1      39.587  26.524  29.266  1.00  0.00     0.029 A 
ATOM     39  N   UNL A   1      41.166  28.092  29.080  1.00  0.00    -0.354 N 
ATOM     40  C   UNL A   1      44.908  27.299  27.111  1.00  0.00     0.074 A 
ATOM     41  C   UNL A   1      44.969  25.936  26.640  1.00  0.00     0.031 C 
ATOM     42  C   UNL A   1      39.136  27.621  29.892  1.00  0.00     0.029 A 
ATOM     43  C   UNL A   1      40.133  28.679  29.773  1.00  0.00     0.049 A 
ATOM     44  H   UNL A   1      42.021  28.547  28.899  1.00  0.00     0.167 HD
ATOM     45  C   UNL A   1      45.918  28.191  26.963  1.00  0.00     0.037 A 
ATOM     46  C   UNL A   1      39.993  29.935  30.238  1.00  0.00     0.037 A 
ATOM     47  C   UNL A   1      45.843  29.567  27.378  1.00  0.00     0.049 A 
ATOM     48  C   UNL A   1      41.099  30.928  30.011  1.00  0.00     0.074 A 
ATOM     49  C   UNL A   1      46.773  30.576  27.200  1.00  0.00     0.029 A 
ATOM     50  N   UNL A   1      44.769  30.126  28.051  1.00  0.00    -0.354 N 
ATOM     51  N   UNL A   1      42.246  30.766  29.399  1.00  0.00    -0.248 NA
ATOM     52  C   UNL A   1      40.883  32.285  30.533  1.00  0.00     0.031 C 
ATOM     53  C   UNL A   1      46.273  31.740  27.795  1.00  0.00     0.029 A 
ATOM     54  C   UNL A   1      45.015  31.464  28.306  1.00  0.00     0.049 A 
ATOM     55  H   UNL A   1      43.950  29.643  28.309  1.00  0.00     0.167 HD
ATOM     56  C   UNL A   1      42.879  32.001  29.444  1.00  0.00     0.074 A 
ATOM     57  C   UNL A   1      41.975  32.909  30.120  1.00  0.00     0.031 C 
ATOM     58  C   UNL A   1      44.101  32.353  28.975  1.00  0.00     0.037 A 
BRANCH  45  59
ATOM     59  C   UNL A   1      47.175  27.710  26.291  1.00  0.00     0.057 A 
ATOM     60  C   UNL A   1      47.299  27.729  24.896  1.00  0.00     0.134 A 
ATOM     61  C   UNL A   1      48.263  27.217  27.027  1.00  0.00     0.134 A 
ATOM     62  F   UNL A   1      46.296  28.175  24.126  1.00  0.00    -0.206 F 
ATOM     63  C   UNL A   1      48.463  27.288  24.260  1.00  0.00     0.040 A 
ATOM     64  C   UNL A   1      49.442  26.803  26.405  1.00  0.00     0.040 A 
ATOM     65  F   UNL A   1      48.214  27.178  28.366  1.00  0.00    -0.206 F 
ATOM     66  C   UNL A   1      49.543  26.834  25.016  1.00  0.00     0.006 A 
ENDBRANCH  45  59
BRANCH  46  67
ATOM     67  C   UNL A   1      38.734  30.350  30.907  1.00  0.00     0.057 A 
ATOM     68  C   UNL A   1      37.676  30.924  30.194  1.00  0.00     0.134 A 
ATOM     69  C   UNL A   1      38.556  30.164  32.285  1.00  0.00     0.134 A 
ATOM     70  F   UNL A   1      37.786  31.139  28.874  1.00  0.00    -0.206 F 
ATOM     71  C   UNL A   1      36.487  31.297  30.824  1.00  0.00     0.040 A 
ATOM     72  C   UNL A   1      37.364  30.506  32.923  1.00  0.00     0.040 A 
ATOM     73  F   UNL A   1      39.528  29.603  33.020  1.00  0.00    -0.206 F 
ATOM     74  C   UNL A   1      36.325  31.079  32.191  1.00  0.00     0.006 A 
ENDBRANCH  46  67
BRANCH  58  75
ATOM     75  C   UNL A   1      44.512  33.784  29.154  1.00  0.00     0.057 A 
ATOM     76  C   UNL A   1      44.198  34.743  28.184  1.00  0.00     0.134 A 
ATOM     77  C   UNL A   1      45.230  34.210  30.278  1.00  0.00     0.134 A 
ATOM     78  F   UNL A   1      43.520  34.398  27.078  1.00  0.00    -0.206 F 
ATOM     79  C   UNL A   1      44.580  36.077  28.326  1.00  0.00     0.040 A 
ATOM     80  C   UNL A   1      45.593  35.547  30.447  1.00  0.00     0.040 A 
ATOM     81  F   UNL A   1      45.550  33.343  31.251  1.00  0.00    -0.206 F 
ATOM     82  C   UNL A   1      45.272  36.484  29.466  1.00  0.00     0.006 A 
ENDBRANCH  58  75
ENDBRANCH  32  33
ENDBRANCH  25  27
ENDBRANCH  24  25
ENDBRANCH  23  24
ENDBRANCH   1  23
TORSDOF 14
ENDMDL
MODEL 2
REMARK VINA RESULT:     -11.4      4.118      8.953
REMARK SMILES CCCc1cc2c(cc1Cl)C=C(C(=O)OCCOC(=O)c1ccc(-c3c4nc(c(-c5c(F)cccc5F)c5ccc([nH]5)c(-c5c(F)cccc5F)c5nc(c(-c6c(F)cccc6F)c6ccc3[nH]6)C=C5)C=C4)cc1)[C@@H](C(F)(F)F)O2
REMARK SMILES IDX 16 1 15 2 13 3 14 4 12 5 4 6 5 7 9 8 6 9 8 10 10 11 7 12
REMARK SMILES IDX 80 13 11 14 75 15 3 16 2 17 1 18 76 19 77 20 78 21 79 22
REMARK SMILES IDX 17 23 18 24 19 25 20 26 21 27 22 28 74 29 23 30 73 31 24 32
REMARK SMILES IDX 25 33 26 34 67 35 27 36 72 37 66 38 68 39 28 40 71 41 65 42
REMARK SMILES IDX 64 43 29 45 55 46 38 47 54 48 39 49 42 50 53 51 69 52 40 53
REMARK SMILES IDX 41 54 52 56 70 57 43 58 30 59 31 60 36 61 32 62 33 63 35 64
REMARK SMILES IDX 37 65 34 66 56 67 57 68 62 69 58 70 59 71 61 72 63 73 60 74
REMARK SMILES IDX 44 75 45 76 50 77 46 78 47 79 49 80 51 81 48 82
REMARK H PARENT 68 44 42 55
REMARK Flexibility Score: inf
ROOT
ATOM      1  C   UNL A   1      31.402  28.687  25.027  1.00  0.00     0.275 C 
ENDROOT
BRANCH   1   2
ATOM      2  O   UNL A   1      32.284  27.648  25.508  1.00  0.00    -0.459 OA
BRANCH   2   3
ATOM      3  C   UNL A   1      32.984  26.985  24.559  1.00  0.00     0.338 C 
ATOM      4  O   UNL A   1      33.652  27.482  23.666  1.00  0.00    -0.246 OA
BRANCH   3   5
ATOM      5  C   UNL A   1      32.893  25.527  24.776  1.00  0.00     0.087 C 
ATOM      6  C   UNL A   1      33.886  20.600  24.904  1.00  0.00    -0.026 A 
ATOM      7  C   UNL A   1      32.710  21.370  24.997  1.00  0.00     0.052 A 
ATOM      8  C   UNL A   1      35.121  21.271  24.966  1.00  0.00     0.045 A 
ATOM      9  C   UNL A   1      32.756  22.764  25.001  1.00  0.00     0.128 A 
ATOM     10  C   UNL A   1      35.170  22.663  24.992  1.00  0.00     0.032 A 
ATOM     11  Cl  UNL A   1      36.632  20.430  24.996  1.00  0.00    -0.084 Cl
ATOM     12  C   UNL A   1      33.987  23.404  24.961  1.00  0.00     0.019 A 
ATOM     13  O   UNL A   1      31.562  23.428  25.042  1.00  0.00    -0.475 OA
ATOM     14  C   UNL A   1      34.039  24.842  24.849  1.00  0.00     0.027 C 
ATOM     15  C   UNL A   1      31.547  24.859  24.760  1.00  0.00     0.316 C 
BRANCH   6  16
ATOM     16  C   UNL A   1      33.842  19.093  24.750  1.00  0.00     0.037 C 
BRANCH  16  17
ATOM     17  C   UNL A   1      32.526  18.468  24.268  1.00  0.00     0.001 C 
ATOM     18  C   UNL A   1      32.540  18.085  22.792  1.00  0.00     0.004 C 
ENDBRANCH  16  17
ENDBRANCH   6  16
BRANCH  15  19
ATOM     19  C   UNL A   1      30.844  25.091  23.412  1.00  0.00     0.430 C 
ATOM     20  F   UNL A   1      31.734  25.173  22.395  1.00  0.00    -0.167 F 
ATOM     21  F   UNL A   1      30.001  24.074  23.109  1.00  0.00    -0.167 F 
ATOM     22  F   UNL A   1      30.116  26.232  23.409  1.00  0.00    -0.167 F 
ENDBRANCH  15  19
ENDBRANCH   3   5
ENDBRANCH   2   3
ENDBRANCH   1   2
BRANCH   1  23
ATOM     23  C   UNL A   1      31.935  30.078  25.378  1.00  0.00     0.275 C 
BRANCH  23  24
ATOM     24  O   UNL A   1      32.408  30.113  26.737  1.00  0.00    -0.458 OA
BRANCH  24  25
ATOM     25  C   UNL A   1      32.960  31.284  27.128  1.00  0.00     0.338 C 
ATOM     26  O   UNL A   1      32.431  32.380  27.171  1.00  0.00    -0.246 OA
BRANCH  25  27
ATOM     27  C   UNL A   1      34.316  31.040  27.639  1.00  0.00     0.060 A 
ATOM     28  C   UNL A   1      35.172  32.073  27.993  1.00  0.00     0.016 A 
ATOM     29  C   UNL A   1      34.665  29.727  27.923  1.00  0.00     0.016 A 
ATOM     30  C   UNL A   1      36.389  31.764  28.618  1.00  0.00     0.010 A 
ATOM     31  C   UNL A   1      35.785  29.435  28.692  1.00  0.00     0.010 A 
ATOM     32  C   UNL A   1      36.697  30.443  29.011  1.00  0.00    -0.014 A 
BRANCH  32  33
ATOM     33  C   UNL A   1      37.966  30.114  29.730  1.00  0.00     0.031 A 
ATOM     34  C   UNL A   1      38.205  30.571  31.154  1.00  0.00     0.074 A 
ATOM     35  C   UNL A   1      38.933  29.423  29.093  1.00  0.00     0.049 A 
ATOM     36  N   UNL A   1      39.226  30.328  31.942  1.00  0.00    -0.248 NA
ATOM     37  C   UNL A   1      37.195  31.454  31.762  1.00  0.00     0.031 C 
ATOM     38  C   UNL A   1      38.902  29.021  27.684  1.00  0.00     0.029 A 
ATOM     39  N   UNL A   1      40.122  28.911  29.551  1.00  0.00    -0.354 N 
ATOM     40  C   UNL A   1      38.986  31.043  33.112  1.00  0.00     0.074 A 
ATOM     41  C   UNL A   1      37.776  31.801  32.900  1.00  0.00     0.031 C 
ATOM     42  C   UNL A   1      39.969  28.252  27.420  1.00  0.00     0.029 A 
ATOM     43  C   UNL A   1      40.782  28.138  28.626  1.00  0.00     0.049 A 
ATOM     44  H   UNL A   1      40.469  29.082  30.457  1.00  0.00     0.167 HD
ATOM     45  C   UNL A   1      39.674  31.036  34.280  1.00  0.00     0.037 A 
ATOM     46  C   UNL A   1      41.901  27.399  28.742  1.00  0.00     0.037 A 
ATOM     47  C   UNL A   1      40.848  30.239  34.517  1.00  0.00     0.049 A 
ATOM     48  C   UNL A   1      42.617  27.354  30.063  1.00  0.00     0.074 A 
ATOM     49  C   UNL A   1      41.571  30.090  35.687  1.00  0.00     0.029 A 
ATOM     50  N   UNL A   1      41.466  29.449  33.561  1.00  0.00    -0.354 N 
ATOM     51  N   UNL A   1      42.315  27.950  31.190  1.00  0.00    -0.248 NA
ATOM     52  C   UNL A   1      43.826  26.521  30.129  1.00  0.00     0.031 C 
ATOM     53  C   UNL A   1      42.648  29.234  35.430  1.00  0.00     0.029 A 
ATOM     54  C   UNL A   1      42.569  28.818  34.111  1.00  0.00     0.049 A 
ATOM     55  H   UNL A   1      41.165  29.351  32.628  1.00  0.00     0.167 HD
ATOM     56  C   UNL A   1      43.283  27.551  32.103  1.00  0.00     0.074 A 
ATOM     57  C   UNL A   1      44.165  26.639  31.404  1.00  0.00     0.031 C 
ATOM     58  C   UNL A   1      43.433  27.910  33.400  1.00  0.00     0.037 A 
BRANCH  45  59
ATOM     59  C   UNL A   1      39.146  31.890  35.400  1.00  0.00     0.057 A 
ATOM     60  C   UNL A   1      38.275  31.362  36.361  1.00  0.00     0.134 A 
ATOM     61  C   UNL A   1      39.493  33.244  35.522  1.00  0.00     0.134 A 
ATOM     62  F   UNL A   1      37.889  30.079  36.302  1.00  0.00    -0.206 F 
ATOM     63  C   UNL A   1      37.781  32.144  37.408  1.00  0.00     0.040 A 
ATOM     64  C   UNL A   1      39.031  34.027  36.582  1.00  0.00     0.040 A 
ATOM     65  F   UNL A   1      40.329  33.812  34.641  1.00  0.00    -0.206 F 
ATOM     66  C   UNL A   1      38.168  33.478  37.527  1.00  0.00     0.006 A 
ENDBRANCH  45  59
BRANCH  46  67
ATOM     67  C   UNL A   1      42.384  26.585  27.596  1.00  0.00     0.057 A 
ATOM     68  C   UNL A   1      41.998  25.251  27.426  1.00  0.00     0.134 A 
ATOM     69  C   UNL A   1      43.236  27.137  26.630  1.00  0.00     0.134 A 
ATOM     70  F   UNL A   1      41.193  24.660  28.321  1.00  0.00    -0.206 F 
ATOM     71  C   UNL A   1      42.440  24.496  26.339  1.00  0.00     0.040 A 
ATOM     72  C   UNL A   1      43.663  26.403  25.524  1.00  0.00     0.040 A 
ATOM     73  F   UNL A   1      43.628  28.416  26.729  1.00  0.00    -0.206 F 
ATOM     74  C   UNL A   1      43.267  25.074  25.378  1.00  0.00     0.006 A 
ENDBRANCH  46  67
BRANCH  58  75
ATOM     75  C   UNL A   1      44.575  27.292  34.149  1.00  0.00     0.057 A 
ATOM     76  C   UNL A   1      44.415  26.073  34.816  1.00  0.00     0.134 A 
ATOM     77  C   UNL A   1      45.830  27.912  34.222  1.00  0.00     0.134 A 
ATOM     78  F   UNL A   1      43.236  25.433  34.793  1.00  0.00    -0.206 F 
ATOM     79  C   UNL A   1      45.463  25.486  35.527  1.00  0.00     0.040 A 
ATOM     80  C   UNL A   1      46.894  27.322  34.906  1.00  0.00     0.040 A 
ATOM     81  F   UNL A   1      46.052  29.076  33.593  1.00  0.00    -0.206 F 
ATOM     82  C   UNL A   1      46.711  26.107  35.565  1.00  0.00     0.006 A 
ENDBRANCH  58  75
ENDBRANCH  32  33
ENDBRANCH  25  27
ENDBRANCH  24  25
ENDBRANCH  23  24
ENDBRANCH   1  23
TORSDOF 14
ENDMDL
MODEL 3
REMARK VINA RESULT:     -11.4      4.047      8.871
REMARK SMILES CCCc1cc2c(cc1Cl)C=C(C(=O)OCCOC(=O)c1ccc(-c3c4nc(c(-c5c(F)cccc5F)c5ccc([nH]5)c(-c5c(F)cccc5F)c5nc(c(-c6c(F)cccc6F)c6ccc3[nH]6)C=C5)C=C4)cc1)[C@@H](C(F)(F)F)O2
REMARK SMILES IDX 16 1 15 2 13 3 14 4 12 5 4 6 5 7 9 8 6 9 8 10 10 11 7 12
REMARK SMILES IDX 80 13 11 14 75 15 3 16 2 17 1 18 76 19 77 20 78 21 79 22
REMARK SMILES IDX 17 23 18 24 19 25 20 26 21 27 22 28 74 29 23 30 73 31 24 32
REMARK SMILES IDX 25 33 26 34 67 35 27 36 72 37 66 38 68 39 28 40 71 41 65 42
REMARK SMILES IDX 64 43 29 45 55 46 38 47 54 48 39 49 42 50 53 51 69 52 40 53
REMARK SMILES IDX 41 54 52 56 70 57 43 58 30 59 31 60 36 61 32 62 33 63 35 64
REMARK SMILES IDX 37 65 34 66 56 67 57 68 62 69 58 70 59 71 61 72 63 73 60 74
REMARK SMILES IDX 44 75 45 76 50 77 46 78 47 79 49 80 51 81 48 82
REMARK H PARENT 68 44 42 55
REMARK Flexibility Score: inf
ROOT
ATOM      1  C   UNL A   1      31.397  28.453  25.078  1.00  0.00     0.275 C 
ENDROOT
BRANCH   1   2
ATOM      2  O   UNL A   1      32.355  27.463  25.516  1.00  0.00    -0.459 OA
BRANCH   2   3
ATOM      3  C   UNL A   1      33.084  26.876  24.538  1.00  0.00     0.338 C 
ATOM      4  O   UNL A   1      33.688  27.443  23.640  1.00  0.00    -0.246 OA
BRANCH   3   5
ATOM      5  C   UNL A   1      33.116  25.412  24.727  1.00  0.00     0.087 C 
ATOM      6  C   UNL A   1      34.540  20.591  24.809  1.00  0.00    -0.026 A 
ATOM      7  C   UNL A   1      33.297  21.252  24.872  1.00  0.00     0.052 A 
ATOM      8  C   UNL A   1      35.708  21.367  24.926  1.00  0.00     0.045 A 
ATOM      9  C   UNL A   1      33.219  22.644  24.900  1.00  0.00     0.128 A 
ATOM     10  C   UNL A   1      35.630  22.758  24.977  1.00  0.00     0.032 A 
ATOM     11  Cl  UNL A   1      37.285  20.663  24.997  1.00  0.00    -0.084 Cl
ATOM     12  C   UNL A   1      34.388  23.391  24.916  1.00  0.00     0.019 A 
ATOM     13  O   UNL A   1      31.969  23.199  24.910  1.00  0.00    -0.475 OA
ATOM     14  C   UNL A   1      34.315  24.830  24.830  1.00  0.00     0.027 C 
ATOM     15  C   UNL A   1      31.837  24.628  24.651  1.00  0.00     0.316 C 
BRANCH   6  16
ATOM     16  C   UNL A   1      34.636  19.089  24.628  1.00  0.00     0.037 C 
BRANCH  16  17
ATOM     17  C   UNL A   1      33.360  18.341  24.221  1.00  0.00     0.001 C 
ATOM     18  C   UNL A   1      33.600  17.242  23.193  1.00  0.00     0.004 C 
ENDBRANCH  16  17
ENDBRANCH   6  16
BRANCH  15  19
ATOM     19  C   UNL A   1      31.163  24.824  23.282  1.00  0.00     0.430 C 
ATOM     20  F   UNL A   1      30.275  23.838  23.020  1.00  0.00    -0.167 F 
ATOM     21  F   UNL A   1      30.475  25.990  23.230  1.00  0.00    -0.167 F 
ATOM     22  F   UNL A   1      32.062  24.842  22.271  1.00  0.00    -0.167 F 
ENDBRANCH  15  19
ENDBRANCH   3   5
ENDBRANCH   2   3
ENDBRANCH   1   2
BRANCH   1  23
ATOM     23  C   UNL A   1      31.874  29.871  25.396  1.00  0.00     0.275 C 
BRANCH  23  24
ATOM     24  O   UNL A   1      32.391  29.943  26.739  1.00  0.00    -0.458 OA
BRANCH  24  25
ATOM     25  C   UNL A   1      32.948  31.126  27.081  1.00  0.00     0.338 C 
ATOM     26  O   UNL A   1      32.421  32.224  27.091  1.00  0.00    -0.246 OA
BRANCH  25  27
ATOM     27  C   UNL A   1      34.310  30.898  27.585  1.00  0.00     0.060 A 
ATOM     28  C   UNL A   1      35.174  31.942  27.885  1.00  0.00     0.016 A 
ATOM     29  C   UNL A   1      34.658  29.597  27.919  1.00  0.00     0.016 A 
ATOM     30  C   UNL A   1      36.397  31.654  28.507  1.00  0.00     0.010 A 
ATOM     31  C   UNL A   1      35.787  29.333  28.685  1.00  0.00     0.010 A 
ATOM     32  C   UNL A   1      36.707  30.349  28.951  1.00  0.00    -0.014 A 
BRANCH  32  33
ATOM     33  C   UNL A   1      37.983  30.046  29.667  1.00  0.00     0.031 A 
ATOM     34  C   UNL A   1      38.221  30.517  31.086  1.00  0.00     0.074 A 
ATOM     35  C   UNL A   1      38.957  29.364  29.031  1.00  0.00     0.049 A 
ATOM     36  N   UNL A   1      39.248  30.296  31.872  1.00  0.00    -0.248 NA
ATOM     37  C   UNL A   1      37.200  31.390  31.692  1.00  0.00     0.031 C 
ATOM     38  C   UNL A   1      38.927  28.950  27.625  1.00  0.00     0.029 A 
ATOM     39  N   UNL A   1      40.156  28.874  29.489  1.00  0.00    -0.354 N 
ATOM     40  C   UNL A   1      39.003  31.016  33.037  1.00  0.00     0.074 A 
ATOM     41  C   UNL A   1      37.781  31.754  32.824  1.00  0.00     0.031 C 
ATOM     42  C   UNL A   1      40.005  28.195  27.363  1.00  0.00     0.029 A 
ATOM     43  C   UNL A   1      40.824  28.103  28.566  1.00  0.00     0.049 A 
ATOM     44  H   UNL A   1      40.505  29.058  30.392  1.00  0.00     0.167 HD
ATOM     45  C   UNL A   1      39.695  31.029  34.202  1.00  0.00     0.037 A 
ATOM     46  C   UNL A   1      41.955  27.382  28.683  1.00  0.00     0.037 A 
ATOM     47  C   UNL A   1      40.882  30.252  34.440  1.00  0.00     0.049 A 
ATOM     48  C   UNL A   1      42.677  27.358  30.002  1.00  0.00     0.074 A 
ATOM     49  C   UNL A   1      41.612  30.124  35.609  1.00  0.00     0.029 A 
ATOM     50  N   UNL A   1      41.508  29.464  33.488  1.00  0.00    -0.354 N 
ATOM     51  N   UNL A   1      42.370  27.959  31.125  1.00  0.00    -0.248 NA
ATOM     52  C   UNL A   1      43.899  26.545  30.069  1.00  0.00     0.031 C 
ATOM     53  C   UNL A   1      42.701  29.282  35.354  1.00  0.00     0.029 A 
ATOM     54  C   UNL A   1      42.623  28.854  34.038  1.00  0.00     0.049 A 
ATOM     55  H   UNL A   1      41.205  29.353  32.558  1.00  0.00     0.167 HD
ATOM     56  C   UNL A   1      43.348  27.582  32.037  1.00  0.00     0.074 A 
ATOM     57  C   UNL A   1      44.241  26.678  31.342  1.00  0.00     0.031 C 
ATOM     58  C   UNL A   1      43.498  27.954  33.331  1.00  0.00     0.037 A 
BRANCH  45  59
ATOM     59  C   UNL A   1      39.159  31.884  35.318  1.00  0.00     0.057 A 
ATOM     60  C   UNL A   1      39.498  33.239  35.414  1.00  0.00     0.134 A 
ATOM     61  C   UNL A   1      38.310  31.362  36.305  1.00  0.00     0.134 A 
ATOM     62  F   UNL A   1      40.315  33.805  34.514  1.00  0.00    -0.206 F 
ATOM     63  C   UNL A   1      39.004  34.045  36.444  1.00  0.00     0.040 A 
ATOM     64  C   UNL A   1      37.784  32.164  37.320  1.00  0.00     0.040 A 
ATOM     65  F   UNL A   1      37.939  30.074  36.269  1.00  0.00    -0.206 F 
ATOM     66  C   UNL A   1      38.135  33.510  37.394  1.00  0.00     0.006 A 
ENDBRANCH  45  59
BRANCH  46  67
ATOM     67  C   UNL A   1      42.445  26.567  27.542  1.00  0.00     0.057 A 
ATOM     68  C   UNL A   1      43.306  27.097  26.575  1.00  0.00     0.134 A 
ATOM     69  C   UNL A   1      42.069  25.224  27.403  1.00  0.00     0.134 A 
ATOM     70  F   UNL A   1      43.695  28.379  26.644  1.00  0.00    -0.206 F 
ATOM     71  C   UNL A   1      43.778  26.323  25.514  1.00  0.00     0.040 A 
ATOM     72  C   UNL A   1      42.554  24.431  26.362  1.00  0.00     0.040 A 
ATOM     73  F   UNL A   1      41.258  24.654  28.306  1.00  0.00    -0.206 F 
ATOM     74  C   UNL A   1      43.410  24.983  25.411  1.00  0.00     0.006 A 
ENDBRANCH  46  67
BRANCH  58  75
ATOM     75  C   UNL A   1      44.653  27.359  34.080  1.00  0.00     0.057 A 
ATOM     76  C   UNL A   1      45.893  28.006  34.109  1.00  0.00     0.134 A 
ATOM     77  C   UNL A   1      44.540  26.141  34.762  1.00  0.00     0.134 A 
ATOM     78  F   UNL A   1      46.070  29.171  33.468  1.00  0.00    -0.206 F 
ATOM     79  C   UNL A   1      46.983  27.464  34.792  1.00  0.00     0.040 A 
ATOM     80  C   UNL A   1      45.614  25.602  35.473  1.00  0.00     0.040 A 
ATOM     81  F   UNL A   1      43.374  25.478  34.785  1.00  0.00    -0.206 F 
ATOM     82  C   UNL A   1      46.841  26.263  35.485  1.00  0.00     0.006 A 
ENDBRANCH  58  75
ENDBRANCH  32  33
ENDBRANCH  25  27
ENDBRANCH  24  25
ENDBRANCH  23  24
ENDBRANCH   1  23
TORSDOF 14
ENDMDL
