MODEL 1
REMARK VINA RESULT:     -11.2      0.000      0.000
REMARK SMILES Cc1ccc(NC(=O)C[C@H]([NH2+]Cc2cccnc2)C(=O)OCCOC(=O)c2ccc(-c3c4nc(c(-c5c(F)cccc5F)c5ccc([nH]5)c(-c5c(F)cccc5F)c5nc(c(-c6c(F)cccc6F)c6ccc3[nH]6)C=C5)C=C4)cc2)cc1Cl
REMARK SMILES IDX 22 1 21 2 19 3 20 4 10 5 9 6 7 7 6 8 8 10 5 11 1 12 2 13
REMARK SMILES IDX 3 14 82 15 4 16 81 17 83 18 11 19 12 22 13 23 14 24 18 25
REMARK SMILES IDX 15 26 17 27 16 28 23 29 24 30 25 31 26 32 27 33 28 34 80 35
REMARK SMILES IDX 29 36 79 37 30 38 31 39 32 40 73 41 33 42 78 43 72 44 74 45
REMARK SMILES IDX 34 46 77 47 71 48 70 49 35 51 61 52 44 53 60 54 45 55 48 56
REMARK SMILES IDX 59 57 75 58 46 59 47 60 58 62 76 63 49 64 36 65 37 66 42 67
REMARK SMILES IDX 38 68 39 69 41 70 43 71 40 72 62 73 63 74 68 75 64 76 65 77
REMARK SMILES IDX 67 78 69 79 66 80 50 81 51 82 56 83 52 84 53 85 55 86 57 87
REMARK SMILES IDX 54 88
REMARK H PARENT 6 9 11 20 11 21 74 50 48 61
REMARK Flexibility Score: inf
ROOT
ATOM      1  C   UNL A   1      35.386  20.463  24.963  1.00  0.00     0.274 C 
ENDROOT
BRANCH   1   2
ATOM      2  O   UNL A   1      34.765  21.028  26.136  1.00  0.00    -0.458 OA
BRANCH   2   3
ATOM      3  C   UNL A   1      33.477  21.450  26.044  1.00  0.00     0.365 C 
ATOM      4  O   UNL A   1      32.581  20.809  25.504  1.00  0.00    -0.245 OA
BRANCH   3   5
ATOM      5  C   UNL A   1      33.241  22.843  26.669  1.00  0.00     0.303 C 
BRANCH   5   6
ATOM      6  C   UNL A   1      31.857  22.902  27.286  1.00  0.00     0.177 C 
BRANCH   6   7
ATOM      7  C   UNL A   1      30.562  23.125  26.523  1.00  0.00     0.231 C 
ATOM      8  N   UNL A   1      30.010  24.270  26.061  1.00  0.00    -0.326 N 
ATOM      9  H   UNL A   1      29.033  24.163  26.019  1.00  0.00     0.169 HD
ATOM     10  O   UNL A   1      29.780  22.154  26.495  1.00  0.00    -0.274 OA
BRANCH   8  11
ATOM     11  C   UNL A   1      30.352  25.562  25.621  1.00  0.00     0.042 A 
ATOM     12  C   UNL A   1      31.396  29.704  24.758  1.00  0.00     0.046 C 
ATOM     13  C   UNL A   1      31.028  28.280  25.052  1.00  0.00    -0.032 A 
ATOM     14  C   UNL A   1      31.313  27.714  26.296  1.00  0.00     0.007 A 
ATOM     15  C   UNL A   1      30.400  27.475  24.101  1.00  0.00     0.046 A 
ATOM     16  C   UNL A   1      30.981  26.379  26.569  1.00  0.00     0.026 A 
ATOM     17  C   UNL A   1      30.033  26.151  24.406  1.00  0.00     0.047 A 
ATOM     18  Cl  UNL A   1      30.070  28.108  22.523  1.00  0.00    -0.084 Cl
ENDBRANCH   8  11
ENDBRANCH   6   7
ENDBRANCH   5   6
BRANCH   5  19
ATOM     19  N   UNL A   1      33.561  23.975  25.790  1.00  0.00    -0.330 N 
ATOM     20  H   UNL A   1      34.506  24.283  26.017  1.00  0.00     0.347 HD
ATOM     21  H   UNL A   1      32.830  24.664  25.968  1.00  0.00     0.347 HD
BRANCH  19  22
ATOM     22  C   UNL A   1      33.511  23.732  24.354  1.00  0.00     0.299 C 
BRANCH  22  23
ATOM     23  C   UNL A   1      33.540  25.027  23.584  1.00  0.00     0.024 A 
ATOM     24  C   UNL A   1      33.905  26.235  24.182  1.00  0.00     0.013 A 
ATOM     25  C   UNL A   1      33.250  25.059  22.220  1.00  0.00     0.120 A 
ATOM     26  C   UNL A   1      33.957  27.399  23.417  1.00  0.00     0.021 A 
ATOM     27  N   UNL A   1      33.278  26.176  21.454  1.00  0.00    -0.264 NA
ATOM     28  C   UNL A   1      33.640  27.319  22.072  1.00  0.00     0.111 A 
ENDBRANCH  22  23
ENDBRANCH  19  22
ENDBRANCH   5  19
ENDBRANCH   3   5
ENDBRANCH   2   3
ENDBRANCH   1   2
BRANCH   1  29
ATOM     29  C   UNL A   1      36.721  21.137  24.619  1.00  0.00     0.275 C 
BRANCH  29  30
ATOM     30  O   UNL A   1      37.290  21.809  25.758  1.00  0.00    -0.458 OA
BRANCH  30  31
ATOM     31  C   UNL A   1      38.581  21.493  25.987  1.00  0.00     0.338 C 
ATOM     32  O   UNL A   1      39.161  20.476  25.659  1.00  0.00    -0.246 OA
BRANCH  31  33
ATOM     33  C   UNL A   1      39.327  22.616  26.541  1.00  0.00     0.060 A 
ATOM     34  C   UNL A   1      38.958  23.889  26.088  1.00  0.00     0.016 A 
ATOM     35  C   UNL A   1      40.414  22.433  27.391  1.00  0.00     0.016 A 
ATOM     36  C   UNL A   1      39.666  25.001  26.497  1.00  0.00     0.010 A 
ATOM     37  C   UNL A   1      41.128  23.553  27.805  1.00  0.00     0.010 A 
ATOM     38  C   UNL A   1      40.750  24.833  27.361  1.00  0.00    -0.014 A 
BRANCH  38  39
ATOM     39  C   UNL A   1      41.483  26.020  27.821  1.00  0.00     0.031 A 
ATOM     40  C   UNL A   1      40.773  27.063  28.617  1.00  0.00     0.074 A 
ATOM     41  C   UNL A   1      42.777  26.136  27.488  1.00  0.00     0.049 A 
ATOM     42  N   UNL A   1      41.190  28.245  28.976  1.00  0.00    -0.248 NA
ATOM     43  C   UNL A   1      39.410  26.733  29.062  1.00  0.00     0.031 C 
ATOM     44  C   UNL A   1      43.551  25.130  26.757  1.00  0.00     0.029 A 
ATOM     45  N   UNL A   1      43.661  27.159  27.694  1.00  0.00    -0.354 N 
ATOM     46  C   UNL A   1      40.131  28.818  29.665  1.00  0.00     0.074 A 
ATOM     47  C   UNL A   1      39.054  27.852  29.675  1.00  0.00     0.031 C 
ATOM     48  C   UNL A   1      44.787  25.603  26.543  1.00  0.00     0.029 A 
ATOM     49  C   UNL A   1      44.867  26.959  27.073  1.00  0.00     0.049 A 
ATOM     50  H   UNL A   1      43.452  27.957  28.232  1.00  0.00     0.167 HD
ATOM     51  C   UNL A   1      40.076  30.049  30.222  1.00  0.00     0.037 A 
ATOM     52  C   UNL A   1      45.899  27.805  26.906  1.00  0.00     0.037 A 
ATOM     53  C   UNL A   1      41.168  30.985  30.192  1.00  0.00     0.049 A 
ATOM     54  C   UNL A   1      45.795  29.183  27.486  1.00  0.00     0.074 A 
ATOM     55  C   UNL A   1      41.240  32.250  30.742  1.00  0.00     0.029 A 
ATOM     56  N   UNL A   1      42.384  30.751  29.559  1.00  0.00    -0.354 N 
ATOM     57  N   UNL A   1      44.797  29.726  28.144  1.00  0.00    -0.248 NA
ATOM     58  C   UNL A   1      46.950  30.069  27.302  1.00  0.00     0.031 C 
ATOM     59  C   UNL A   1      42.482  32.800  30.404  1.00  0.00     0.029 A 
ATOM     60  C   UNL A   1      43.203  31.860  29.683  1.00  0.00     0.049 A 
ATOM     61  H   UNL A   1      42.627  29.919  29.092  1.00  0.00     0.167 HD
ATOM     62  C   UNL A   1      45.207  31.010  28.468  1.00  0.00     0.074 A 
ATOM     63  C   UNL A   1      46.549  31.162  27.940  1.00  0.00     0.031 C 
ATOM     64  C   UNL A   1      44.536  31.974  29.144  1.00  0.00     0.037 A 
BRANCH  51  65
ATOM     65  C   UNL A   1      38.779  30.460  30.850  1.00  0.00     0.057 A 
ATOM     66  C   UNL A   1      37.786  31.144  30.137  1.00  0.00     0.134 A 
ATOM     67  C   UNL A   1      38.523  30.171  32.197  1.00  0.00     0.134 A 
ATOM     68  F   UNL A   1      37.976  31.469  28.849  1.00  0.00    -0.206 F 
ATOM     69  C   UNL A   1      36.598  31.550  30.749  1.00  0.00     0.040 A 
ATOM     70  C   UNL A   1      37.330  30.551  32.813  1.00  0.00     0.040 A 
ATOM     71  F   UNL A   1      39.433  29.520  32.938  1.00  0.00    -0.206 F 
ATOM     72  C   UNL A   1      36.366  31.250  32.090  1.00  0.00     0.006 A 
ENDBRANCH  51  65
BRANCH  52  73
ATOM     73  C   UNL A   1      47.076  27.364  26.123  1.00  0.00     0.057 A 
ATOM     74  C   UNL A   1      47.133  27.534  24.738  1.00  0.00     0.134 A 
ATOM     75  C   UNL A   1      48.204  26.821  26.755  1.00  0.00     0.134 A 
ATOM     76  F   UNL A   1      46.080  28.039  24.077  1.00  0.00    -0.206 F 
ATOM     77  C   UNL A   1      48.267  27.180  24.006  1.00  0.00     0.040 A 
ATOM     78  C   UNL A   1      49.352  26.483  26.039  1.00  0.00     0.040 A 
ATOM     79  F   UNL A   1      48.215  26.645  28.085  1.00  0.00    -0.206 F 
ATOM     80  C   UNL A   1      49.385  26.661  24.658  1.00  0.00     0.006 A 
ENDBRANCH  52  73
BRANCH  64  81
ATOM     81  C   UNL A   1      45.258  33.266  29.374  1.00  0.00     0.057 A 
ATOM     82  C   UNL A   1      46.156  33.428  30.435  1.00  0.00     0.134 A 
ATOM     83  C   UNL A   1      45.099  34.335  28.484  1.00  0.00     0.134 A 
ATOM     84  F   UNL A   1      46.340  32.443  31.328  1.00  0.00    -0.206 F 
ATOM     85  C   UNL A   1      46.868  34.616  30.608  1.00  0.00     0.040 A 
ATOM     86  C   UNL A   1      45.821  35.519  28.634  1.00  0.00     0.040 A 
ATOM     87  F   UNL A   1      44.257  34.237  27.446  1.00  0.00    -0.206 F 
ATOM     88  C   UNL A   1      46.707  35.661  29.700  1.00  0.00     0.006 A 
ENDBRANCH  64  81
ENDBRANCH  38  39
ENDBRANCH  31  33
ENDBRANCH  30  31
ENDBRANCH  29  30
ENDBRANCH   1  29
TORSDOF 17
ENDMDL
MODEL 2
REMARK VINA RESULT:     -11.1      4.701      9.164
REMARK SMILES Cc1ccc(NC(=O)C[C@H]([NH2+]Cc2cccnc2)C(=O)OCCOC(=O)c2ccc(-c3c4nc(c(-c5c(F)cccc5F)c5ccc([nH]5)c(-c5c(F)cccc5F)c5nc(c(-c6c(F)cccc6F)c6ccc3[nH]6)C=C5)C=C4)cc2)cc1Cl
REMARK SMILES IDX 22 1 21 2 19 3 20 4 10 5 9 6 7 7 6 8 8 10 5 11 1 12 2 13
REMARK SMILES IDX 3 14 82 15 4 16 81 17 83 18 11 19 12 22 13 23 14 24 18 25
REMARK SMILES IDX 15 26 17 27 16 28 23 29 24 30 25 31 26 32 27 33 28 34 80 35
REMARK SMILES IDX 29 36 79 37 30 38 31 39 32 40 73 41 33 42 78 43 72 44 74 45
REMARK SMILES IDX 34 46 77 47 71 48 70 49 35 51 61 52 44 53 60 54 45 55 48 56
REMARK SMILES IDX 59 57 75 58 46 59 47 60 58 62 76 63 49 64 36 65 37 66 42 67
REMARK SMILES IDX 38 68 39 69 41 70 43 71 40 72 62 73 63 74 68 75 64 76 65 77
REMARK SMILES IDX 67 78 69 79 66 80 50 81 51 82 56 83 52 84 53 85 55 86 57 87
REMARK SMILES IDX 54 88
REMARK H PARENT 6 9 11 20 11 21 74 50 48 61
REMARK Flexibility Score: inf
ROOT
ATOM      1  C   UNL A   1      33.176  31.522  27.049  1.00  0.00     0.274 C 
ENDROOT
BRANCH   1   2
ATOM      2  O   UNL A   1      32.444  30.289  26.894  1.00  0.00    -0.458 OA
BRANCH   2   3
ATOM      3  C   UNL A   1      31.765  30.084  25.736  1.00  0.00     0.365 C 
ATOM      4  O   UNL A   1      31.045  30.923  25.204  1.00  0.00    -0.245 OA
BRANCH   3   5
ATOM      5  C   UNL A   1      31.964  28.668  25.150  1.00  0.00     0.303 C 
BRANCH   5   6
ATOM      6  C   UNL A   1      30.753  28.278  24.325  1.00  0.00     0.177 C 
BRANCH   6   7
ATOM      7  C   UNL A   1      30.784  27.837  22.871  1.00  0.00     0.231 C 
ATOM      8  N   UNL A   1      31.357  26.753  22.302  1.00  0.00    -0.326 N 
ATOM      9  H   UNL A   1      31.586  26.961  21.368  1.00  0.00     0.169 HD
ATOM     10  O   UNL A   1      30.415  28.692  22.041  1.00  0.00    -0.274 OA
BRANCH   8  11
ATOM     11  C   UNL A   1      31.742  25.429  22.587  1.00  0.00     0.042 A 
ATOM     12  C   UNL A   1      32.520  21.312  23.783  1.00  0.00     0.046 C 
ATOM     13  C   UNL A   1      32.259  22.732  23.377  1.00  0.00    -0.032 A 
ATOM     14  C   UNL A   1      30.969  23.262  23.434  1.00  0.00     0.007 A 
ATOM     15  C   UNL A   1      33.283  23.564  22.925  1.00  0.00     0.046 A 
ATOM     16  C   UNL A   1      30.720  24.585  23.043  1.00  0.00     0.026 A 
ATOM     17  C   UNL A   1      33.025  24.903  22.580  1.00  0.00     0.047 A 
ATOM     18  Cl  UNL A   1      34.895  22.943  22.783  1.00  0.00    -0.084 Cl
ENDBRANCH   8  11
ENDBRANCH   6   7
ENDBRANCH   5   6
BRANCH   5  19
ATOM     19  N   UNL A   1      32.387  27.653  26.121  1.00  0.00    -0.330 N 
ATOM     20  H   UNL A   1      31.551  27.166  26.443  1.00  0.00     0.347 HD
ATOM     21  H   UNL A   1      32.887  28.170  26.844  1.00  0.00     0.347 HD
BRANCH  19  22
ATOM     22  C   UNL A   1      33.330  26.644  25.656  1.00  0.00     0.299 C 
BRANCH  22  23
ATOM     23  C   UNL A   1      32.973  25.281  26.188  1.00  0.00     0.024 A 
ATOM     24  C   UNL A   1      33.925  24.269  26.331  1.00  0.00     0.013 A 
ATOM     25  C   UNL A   1      31.675  24.990  26.609  1.00  0.00     0.120 A 
ATOM     26  C   UNL A   1      33.553  23.038  26.868  1.00  0.00     0.021 A 
ATOM     27  N   UNL A   1      31.280  23.799  27.121  1.00  0.00    -0.264 NA
ATOM     28  C   UNL A   1      32.234  22.854  27.245  1.00  0.00     0.111 A 
ENDBRANCH  22  23
ENDBRANCH  19  22
ENDBRANCH   5  19
ENDBRANCH   3   5
ENDBRANCH   2   3
ENDBRANCH   1   2
BRANCH   1  29
ATOM     29  C   UNL A   1      32.294  32.672  27.553  1.00  0.00     0.275 C 
BRANCH  29  30
ATOM     30  O   UNL A   1      33.022  33.911  27.633  1.00  0.00    -0.458 OA
BRANCH  30  31
ATOM     31  C   UNL A   1      33.319  34.287  28.894  1.00  0.00     0.338 C 
ATOM     32  O   UNL A   1      32.607  34.893  29.670  1.00  0.00    -0.246 OA
BRANCH  31  33
ATOM     33  C   UNL A   1      34.581  33.716  29.349  1.00  0.00     0.060 A 
ATOM     34  C   UNL A   1      34.496  32.747  30.357  1.00  0.00     0.016 A 
ATOM     35  C   UNL A   1      35.809  34.179  28.886  1.00  0.00     0.016 A 
ATOM     36  C   UNL A   1      35.646  32.215  30.903  1.00  0.00     0.010 A 
ATOM     37  C   UNL A   1      36.969  33.642  29.436  1.00  0.00     0.010 A 
ATOM     38  C   UNL A   1      36.885  32.659  30.439  1.00  0.00    -0.014 A 
BRANCH  38  39
ATOM     39  C   UNL A   1      38.108  32.070  30.999  1.00  0.00     0.031 A 
ATOM     40  C   UNL A   1      38.815  30.991  30.252  1.00  0.00     0.074 A 
ATOM     41  C   UNL A   1      38.541  32.515  32.189  1.00  0.00     0.049 A 
ATOM     42  N   UNL A   1      39.806  30.238  30.642  1.00  0.00    -0.248 NA
ATOM     43  C   UNL A   1      38.341  30.720  28.886  1.00  0.00     0.031 C 
ATOM     44  C   UNL A   1      37.929  33.606  32.952  1.00  0.00     0.029 A 
ATOM     45  N   UNL A   1      39.574  32.088  32.976  1.00  0.00    -0.354 N 
ATOM     46  C   UNL A   1      40.057  29.378  29.583  1.00  0.00     0.074 A 
ATOM     47  C   UNL A   1      39.117  29.705  28.533  1.00  0.00     0.031 C 
ATOM     48  C   UNL A   1      38.579  33.738  34.117  1.00  0.00     0.029 A 
ATOM     49  C   UNL A   1      39.609  32.710  34.198  1.00  0.00     0.049 A 
ATOM     50  H   UNL A   1      40.225  31.406  32.694  1.00  0.00     0.167 HD
ATOM     51  C   UNL A   1      40.987  28.398  29.515  1.00  0.00     0.037 A 
ATOM     52  C   UNL A   1      40.356  32.434  35.282  1.00  0.00     0.037 A 
ATOM     53  C   UNL A   1      41.907  28.100  30.581  1.00  0.00     0.049 A 
ATOM     54  C   UNL A   1      41.343  31.309  35.202  1.00  0.00     0.074 A 
ATOM     55  C   UNL A   1      42.908  27.149  30.620  1.00  0.00     0.029 A 
ATOM     56  N   UNL A   1      41.922  28.751  31.809  1.00  0.00    -0.354 N 
ATOM     57  N   UNL A   1      41.588  30.498  34.199  1.00  0.00    -0.248 NA
ATOM     58  C   UNL A   1      42.156  31.053  36.397  1.00  0.00     0.031 C 
ATOM     59  C   UNL A   1      43.501  27.195  31.887  1.00  0.00     0.029 A 
ATOM     60  C   UNL A   1      42.900  28.206  32.622  1.00  0.00     0.049 A 
ATOM     61  H   UNL A   1      41.326  29.494  32.062  1.00  0.00     0.167 HD
ATOM     62  C   UNL A   1      42.592  29.647  34.632  1.00  0.00     0.074 A 
ATOM     63  C   UNL A   1      42.917  30.046  35.989  1.00  0.00     0.031 C 
ATOM     64  C   UNL A   1      43.195  28.630  33.968  1.00  0.00     0.037 A 
BRANCH  51  65
ATOM     65  C   UNL A   1      41.006  27.554  28.276  1.00  0.00     0.057 A 
ATOM     66  C   UNL A   1      41.790  27.879  27.162  1.00  0.00     0.134 A 
ATOM     67  C   UNL A   1      40.216  26.400  28.196  1.00  0.00     0.134 A 
ATOM     68  F   UNL A   1      42.553  28.982  27.166  1.00  0.00    -0.206 F 
ATOM     69  C   UNL A   1      41.767  27.099  26.003  1.00  0.00     0.040 A 
ATOM     70  C   UNL A   1      40.203  25.601  27.052  1.00  0.00     0.040 A 
ATOM     71  F   UNL A   1      39.440  26.033  29.227  1.00  0.00    -0.206 F 
ATOM     72  C   UNL A   1      40.974  25.955  25.948  1.00  0.00     0.006 A 
ENDBRANCH  51  65
BRANCH  52  73
ATOM     73  C   UNL A   1      40.149  33.217  36.521  1.00  0.00     0.057 A 
ATOM     74  C   UNL A   1      40.894  34.369  36.785  1.00  0.00     0.134 A 
ATOM     75  C   UNL A   1      39.152  32.866  37.442  1.00  0.00     0.134 A 
ATOM     76  F   UNL A   1      41.869  34.749  35.946  1.00  0.00    -0.206 F 
ATOM     77  C   UNL A   1      40.657  35.146  37.921  1.00  0.00     0.040 A 
ATOM     78  C   UNL A   1      38.889  33.645  38.568  1.00  0.00     0.040 A 
ATOM     79  F   UNL A   1      38.394  31.778  37.237  1.00  0.00    -0.206 F 
ATOM     80  C   UNL A   1      39.646  34.789  38.812  1.00  0.00     0.006 A 
ENDBRANCH  52  73
BRANCH  64  81
ATOM     81  C   UNL A   1      44.285  27.901  34.692  1.00  0.00     0.057 A 
ATOM     82  C   UNL A   1      44.029  26.739  35.429  1.00  0.00     0.134 A 
ATOM     83  C   UNL A   1      45.613  28.333  34.595  1.00  0.00     0.134 A 
ATOM     84  F   UNL A   1      42.774  26.285  35.569  1.00  0.00    -0.206 F 
ATOM     85  C   UNL A   1      45.059  26.034  36.053  1.00  0.00     0.040 A 
ATOM     86  C   UNL A   1      46.653  27.625  35.196  1.00  0.00     0.040 A 
ATOM     87  F   UNL A   1      45.920  29.437  33.898  1.00  0.00    -0.206 F 
ATOM     88  C   UNL A   1      46.376  26.473  35.929  1.00  0.00     0.006 A 
ENDBRANCH  64  81
ENDBRANCH  38  39
ENDBRANCH  31  33
ENDBRANCH  30  31
ENDBRANCH  29  30
ENDBRANCH   1  29
TORSDOF 17
ENDMDL
MODEL 3
REMARK VINA RESULT:     -11.1      1.070      2.179
REMARK SMILES Cc1ccc(NC(=O)C[C@H]([NH2+]Cc2cccnc2)C(=O)OCCOC(=O)c2ccc(-c3c4nc(c(-c5c(F)cccc5F)c5ccc([nH]5)c(-c5c(F)cccc5F)c5nc(c(-c6c(F)cccc6F)c6ccc3[nH]6)C=C5)C=C4)cc2)cc1Cl
REMARK SMILES IDX 22 1 21 2 19 3 20 4 10 5 9 6 7 7 6 8 8 10 5 11 1 12 2 13
REMARK SMILES IDX 3 14 82 15 4 16 81 17 83 18 11 19 12 22 13 23 14 24 18 25
REMARK SMILES IDX 15 26 17 27 16 28 23 29 24 30 25 31 26 32 27 33 28 34 80 35
REMARK SMILES IDX 29 36 79 37 30 38 31 39 32 40 73 41 33 42 78 43 72 44 74 45
REMARK SMILES IDX 34 46 77 47 71 48 70 49 35 51 61 52 44 53 60 54 45 55 48 56
REMARK SMILES IDX 59 57 75 58 46 59 47 60 58 62 76 63 49 64 36 65 37 66 42 67
REMARK SMILES IDX 38 68 39 69 41 70 43 71 40 72 62 73 63 74 68 75 64 76 65 77
REMARK SMILES IDX 67 78 69 79 66 80 50 81 51 82 56 83 52 84 53 85 55 86 57 87
REMARK SMILES IDX 54 88
REMARK H PARENT 6 9 11 20 11 21 74 50 48 61
REMARK Flexibility Score: inf
ROOT
ATOM      1  C   UNL A   1      35.107  20.336  24.992  1.00  0.00     0.274 C 
ENDROOT
BRANCH   1   2
ATOM      2  O   UNL A   1      33.884  21.066  24.758  1.00  0.00    -0.458 OA
BRANCH   2   3
ATOM      3  C   UNL A   1      33.370  21.804  25.775  1.00  0.00     0.365 C 
ATOM      4  O   UNL A   1      33.431  21.482  26.958  1.00  0.00    -0.245 OA
BRANCH   3   5
ATOM      5  C   UNL A   1      32.670  23.097  25.302  1.00  0.00     0.303 C 
BRANCH   5   6
ATOM      6  C   UNL A   1      32.825  23.248  23.801  1.00  0.00     0.177 C 
BRANCH   6   7
ATOM      7  C   UNL A   1      33.642  24.325  23.106  1.00  0.00     0.231 C 
ATOM      8  N   UNL A   1      33.258  25.519  22.603  1.00  0.00    -0.326 N 
ATOM      9  H   UNL A   1      33.862  25.769  21.867  1.00  0.00     0.169 HD
ATOM     10  O   UNL A   1      34.788  23.985  22.750  1.00  0.00    -0.274 OA
BRANCH   8  11
ATOM     11  C   UNL A   1      32.290  26.529  22.767  1.00  0.00     0.042 A 
ATOM     12  C   UNL A   1      29.686  29.956  23.445  1.00  0.00     0.046 C 
ATOM     13  C   UNL A   1      30.579  28.772  23.219  1.00  0.00    -0.032 A 
ATOM     14  C   UNL A   1      31.941  28.947  22.966  1.00  0.00     0.007 A 
ATOM     15  C   UNL A   1      30.087  27.467  23.247  1.00  0.00     0.046 A 
ATOM     16  C   UNL A   1      32.776  27.843  22.743  1.00  0.00     0.026 A 
ATOM     17  C   UNL A   1      30.946  26.368  23.066  1.00  0.00     0.047 A 
ATOM     18  Cl  UNL A   1      28.395  27.193  23.503  1.00  0.00    -0.084 Cl
ENDBRANCH   8  11
ENDBRANCH   6   7
ENDBRANCH   5   6
BRANCH   5  19
ATOM     19  N   UNL A   1      33.014  24.300  26.071  1.00  0.00    -0.330 N 
ATOM     20  H   UNL A   1      33.632  24.869  25.493  1.00  0.00     0.347 HD
ATOM     21  H   UNL A   1      33.432  23.952  26.934  1.00  0.00     0.347 HD
BRANCH  19  22
ATOM     22  C   UNL A   1      31.910  25.149  26.500  1.00  0.00     0.299 C 
BRANCH  22  23
ATOM     23  C   UNL A   1      32.299  26.604  26.462  1.00  0.00     0.024 A 
ATOM     24  C   UNL A   1      31.403  27.619  26.804  1.00  0.00     0.013 A 
ATOM     25  C   UNL A   1      33.596  26.994  26.128  1.00  0.00     0.120 A 
ATOM     26  C   UNL A   1      31.823  28.948  26.794  1.00  0.00     0.021 A 
ATOM     27  N   UNL A   1      34.030  28.277  26.095  1.00  0.00    -0.264 NA
ATOM     28  C   UNL A   1      33.132  29.223  26.438  1.00  0.00     0.111 A 
ENDBRANCH  22  23
ENDBRANCH  19  22
ENDBRANCH   5  19
ENDBRANCH   3   5
ENDBRANCH   2   3
ENDBRANCH   1   2
BRANCH   1  29
ATOM     29  C   UNL A   1      36.359  21.172  24.697  1.00  0.00     0.275 C 
BRANCH  29  30
ATOM     30  O   UNL A   1      36.994  21.630  25.905  1.00  0.00    -0.458 OA
BRANCH  30  31
ATOM     31  C   UNL A   1      38.323  21.402  25.942  1.00  0.00     0.338 C 
ATOM     32  O   UNL A   1      38.910  20.402  25.580  1.00  0.00    -0.246 OA
BRANCH  31  33
ATOM     33  C   UNL A   1      39.070  22.599  26.308  1.00  0.00     0.060 A 
ATOM     34  C   UNL A   1      40.161  22.412  27.165  1.00  0.00     0.016 A 
ATOM     35  C   UNL A   1      38.662  23.872  25.916  1.00  0.00     0.016 A 
ATOM     36  C   UNL A   1      40.872  23.500  27.628  1.00  0.00     0.010 A 
ATOM     37  C   UNL A   1      39.379  24.970  26.383  1.00  0.00     0.010 A 
ATOM     38  C   UNL A   1      40.484  24.781  27.232  1.00  0.00    -0.014 A 
BRANCH  38  39
ATOM     39  C   UNL A   1      41.261  25.936  27.701  1.00  0.00     0.031 A 
ATOM     40  C   UNL A   1      40.592  26.994  28.512  1.00  0.00     0.074 A 
ATOM     41  C   UNL A   1      42.557  26.010  27.362  1.00  0.00     0.049 A 
ATOM     42  N   UNL A   1      41.054  28.156  28.883  1.00  0.00    -0.248 NA
ATOM     43  C   UNL A   1      39.221  26.707  28.961  1.00  0.00     0.031 C 
ATOM     44  C   UNL A   1      43.291  24.985  26.616  1.00  0.00     0.029 A 
ATOM     45  N   UNL A   1      43.477  26.999  27.575  1.00  0.00    -0.354 N 
ATOM     46  C   UNL A   1      40.019  28.758  29.584  1.00  0.00     0.074 A 
ATOM     47  C   UNL A   1      38.908  27.831  29.589  1.00  0.00     0.031 C 
ATOM     48  C   UNL A   1      44.542  25.416  26.401  1.00  0.00     0.029 A 
ATOM     49  C   UNL A   1      44.673  26.762  26.946  1.00  0.00     0.049 A 
ATOM     50  H   UNL A   1      43.299  27.797  28.123  1.00  0.00     0.167 HD
ATOM     51  C   UNL A   1      40.010  29.984  30.155  1.00  0.00     0.037 A 
ATOM     52  C   UNL A   1      45.733  27.573  26.783  1.00  0.00     0.037 A 
ATOM     53  C   UNL A   1      41.135  30.881  30.130  1.00  0.00     0.049 A 
ATOM     54  C   UNL A   1      45.681  28.947  27.379  1.00  0.00     0.074 A 
ATOM     55  C   UNL A   1      41.255  32.136  30.694  1.00  0.00     0.029 A 
ATOM     56  N   UNL A   1      42.338  30.612  29.488  1.00  0.00    -0.354 N 
ATOM     57  N   UNL A   1      44.706  29.517  28.048  1.00  0.00    -0.248 NA
ATOM     58  C   UNL A   1      46.866  29.794  27.199  1.00  0.00     0.031 C 
ATOM     59  C   UNL A   1      42.514  32.646  30.356  1.00  0.00     0.029 A 
ATOM     60  C   UNL A   1      43.198  31.689  29.620  1.00  0.00     0.049 A 
ATOM     61  H   UNL A   1      42.550  29.776  29.010  1.00  0.00     0.167 HD
ATOM     62  C   UNL A   1      45.163  30.782  28.384  1.00  0.00     0.074 A 
ATOM     63  C   UNL A   1      46.507  30.893  27.851  1.00  0.00     0.031 C 
ATOM     64  C   UNL A   1      44.531  31.762  29.076  1.00  0.00     0.037 A 
BRANCH  51  65
ATOM     65  C   UNL A   1      38.732  30.434  30.795  1.00  0.00     0.057 A 
ATOM     66  C   UNL A   1      38.441  30.183  32.142  1.00  0.00     0.134 A 
ATOM     67  C   UNL A   1      37.771  31.123  30.045  1.00  0.00     0.134 A 
ATOM     68  F   UNL A   1      39.310  29.510  32.911  1.00  0.00    -0.206 F 
ATOM     69  C   UNL A   1      37.229  30.579  32.712  1.00  0.00     0.040 A 
ATOM     70  C   UNL A   1      36.565  31.544  30.610  1.00  0.00     0.040 A 
ATOM     71  F   UNL A   1      37.985  31.394  28.748  1.00  0.00    -0.206 F 
ATOM     72  C   UNL A   1      36.289  31.265  31.945  1.00  0.00     0.006 A 
ENDBRANCH  51  65
BRANCH  52  73
ATOM     73  C   UNL A   1      46.890  27.100  25.989  1.00  0.00     0.057 A 
ATOM     74  C   UNL A   1      46.999  27.382  24.624  1.00  0.00     0.134 A 
ATOM     75  C   UNL A   1      47.949  26.409  26.593  1.00  0.00     0.134 A 
ATOM     76  F   UNL A   1      46.012  28.031  23.989  1.00  0.00    -0.206 F 
ATOM     77  C   UNL A   1      48.119  26.994  23.887  1.00  0.00     0.040 A 
ATOM     78  C   UNL A   1      49.084  26.035  25.874  1.00  0.00     0.040 A 
ATOM     79  F   UNL A   1      47.909  26.120  27.903  1.00  0.00    -0.206 F 
ATOM     80  C   UNL A   1      49.170  26.326  24.515  1.00  0.00     0.006 A 
ENDBRANCH  52  73
BRANCH  64  81
ATOM     81  C   UNL A   1      45.300  33.025  29.316  1.00  0.00     0.057 A 
ATOM     82  C   UNL A   1      46.156  33.166  30.413  1.00  0.00     0.134 A 
ATOM     83  C   UNL A   1      45.228  34.083  28.402  1.00  0.00     0.134 A 
ATOM     84  F   UNL A   1      46.256  32.191  31.330  1.00  0.00    -0.206 F 
ATOM     85  C   UNL A   1      46.913  34.324  30.598  1.00  0.00     0.040 A 
ATOM     86  C   UNL A   1      45.995  35.236  28.565  1.00  0.00     0.040 A 
ATOM     87  F   UNL A   1      44.429  34.003  27.329  1.00  0.00    -0.206 F 
ATOM     88  C   UNL A   1      46.839  35.359  29.667  1.00  0.00     0.006 A 
ENDBRANCH  64  81
ENDBRANCH  38  39
ENDBRANCH  31  33
ENDBRANCH  30  31
ENDBRANCH  29  30
ENDBRANCH   1  29
TORSDOF 17
ENDMDL
