MODEL 1
REMARK VINA RESULT:     -11.9      0.000      0.000
REMARK SMILES O=C(OCCOC(=O)[C@H]1CCCN1C(=O)CN1C(=O)[C@@H]2[C@H](C1=O)[C@H]1C=C[C@@H]2C1)c1ccc(-c2c3nc(c(-c4c(F)cccc4F)c4ccc([nH]4)c(-c4c(F)cccc4F)c4nc(c(-c5c(F)cccc5F)c5ccc2[nH]5)C=C4)C=C3)cc1
REMARK SMILES IDX 5 1 4 2 3 3 2 4 1 5 29 6 30 7 82 8 31 9 81 10 32 11 33 12
REMARK SMILES IDX 34 13 75 14 35 15 80 16 74 17 76 18 36 19 79 20 73 21 72 22
REMARK SMILES IDX 37 24 63 25 46 26 62 27 47 28 50 29 61 30 77 31 48 32 49 33
REMARK SMILES IDX 60 35 78 36 51 37 38 38 39 39 44 40 40 41 41 42 43 43 45 44
REMARK SMILES IDX 42 45 64 46 65 47 70 48 66 49 67 50 69 51 71 52 68 53 52 54
REMARK SMILES IDX 53 55 58 56 54 57 55 58 57 59 59 60 56 61 6 62 7 63 8 64
REMARK SMILES IDX 9 65 10 66 13 67 11 68 12 69 14 70 15 71 16 72 17 73 18 74
REMARK SMILES IDX 22 75 20 76 19 77 21 78 23 79 27 80 24 81 26 82 28 83 25 84
REMARK H PARENT 76 23 50 34
REMARK Flexibility Score: inf
ROOT
ATOM      1  C   UNL A   1      31.961  30.816  26.578  1.00  0.00     0.274 C 
ENDROOT
BRANCH   1   2
ATOM      2  C   UNL A   1      31.536  32.265  26.876  1.00  0.00     0.275 C 
BRANCH   2   3
ATOM      3  O   UNL A   1      32.552  33.271  26.895  1.00  0.00    -0.458 OA
BRANCH   3   4
ATOM      4  C   UNL A   1      32.974  33.898  28.014  1.00  0.00     0.338 C 
ATOM      5  O   UNL A   1      32.527  34.982  28.367  1.00  0.00    -0.246 OA
BRANCH   4   6
ATOM      6  C   UNL A   1      34.203  33.379  28.643  1.00  0.00     0.060 A 
ATOM      7  C   UNL A   1      35.479  33.503  28.081  1.00  0.00     0.016 A 
ATOM      8  C   UNL A   1      34.034  32.700  29.852  1.00  0.00     0.016 A 
ATOM      9  C   UNL A   1      36.597  33.029  28.767  1.00  0.00     0.010 A 
ATOM     10  C   UNL A   1      35.146  32.218  30.535  1.00  0.00     0.010 A 
ATOM     11  C   UNL A   1      36.432  32.377  29.990  1.00  0.00    -0.014 A 
BRANCH  11  12
ATOM     12  C   UNL A   1      37.525  31.575  30.568  1.00  0.00     0.031 A 
ATOM     13  C   UNL A   1      38.081  32.073  31.867  1.00  0.00     0.074 A 
ATOM     14  C   UNL A   1      38.046  30.497  29.957  1.00  0.00     0.049 A 
ATOM     15  N   UNL A   1      39.039  31.572  32.594  1.00  0.00    -0.248 NA
ATOM     16  C   UNL A   1      37.443  33.274  32.440  1.00  0.00     0.031 C 
ATOM     17  C   UNL A   1      37.540  29.861  28.745  1.00  0.00     0.029 A 
ATOM     18  N   UNL A   1      39.182  29.787  30.245  1.00  0.00    -0.354 N 
ATOM     19  C   UNL A   1      39.040  32.330  33.753  1.00  0.00     0.074 A 
ATOM     20  C   UNL A   1      38.098  33.408  33.580  1.00  0.00     0.031 C 
ATOM     21  C   UNL A   1      38.453  28.985  28.289  1.00  0.00     0.029 A 
ATOM     22  C   UNL A   1      39.564  28.941  29.230  1.00  0.00     0.049 A 
ATOM     23  H   UNL A   1      39.674  29.873  31.093  1.00  0.00     0.167 HD
ATOM     24  C   UNL A   1      39.708  32.088  34.900  1.00  0.00     0.037 A 
ATOM     25  C   UNL A   1      40.692  28.220  29.093  1.00  0.00     0.037 A 
ATOM     26  C   UNL A   1      40.694  31.058  35.027  1.00  0.00     0.049 A 
ATOM     27  C   UNL A   1      41.614  28.138  30.275  1.00  0.00     0.074 A 
ATOM     28  C   UNL A   1      41.446  30.699  36.125  1.00  0.00     0.029 A 
ATOM     29  N   UNL A   1      41.090  30.243  33.974  1.00  0.00    -0.354 N 
ATOM     30  N   UNL A   1      41.520  28.752  31.431  1.00  0.00    -0.248 NA
ATOM     31  C   UNL A   1      42.746  27.209  30.174  1.00  0.00     0.031 C 
ATOM     32  C   UNL A   1      42.337  29.695  35.721  1.00  0.00     0.029 A 
ATOM     33  C   UNL A   1      42.112  29.409  34.381  1.00  0.00     0.049 A 
ATOM     34  H   UNL A   1      40.700  30.256  33.071  1.00  0.00     0.167 HD
ATOM     35  C   UNL A   1      42.521  28.218  32.228  1.00  0.00     0.074 A 
ATOM     36  C   UNL A   1      43.241  27.265  31.405  1.00  0.00     0.031 C 
ATOM     37  C   UNL A   1      42.791  28.460  33.535  1.00  0.00     0.037 A 
BRANCH  24  38
ATOM     38  C   UNL A   1      39.334  32.958  36.057  1.00  0.00     0.057 A 
ATOM     39  C   UNL A   1      40.003  34.172  36.283  1.00  0.00     0.134 A 
ATOM     40  C   UNL A   1      38.422  32.528  37.022  1.00  0.00     0.134 A 
ATOM     41  F   UNL A   1      40.925  34.613  35.412  1.00  0.00    -0.206 F 
ATOM     42  C   UNL A   1      39.804  34.908  37.451  1.00  0.00     0.040 A 
ATOM     43  C   UNL A   1      38.202  33.265  38.187  1.00  0.00     0.040 A 
ATOM     44  F   UNL A   1      37.775  31.362  36.876  1.00  0.00    -0.206 F 
ATOM     45  C   UNL A   1      38.903  34.451  38.409  1.00  0.00     0.006 A 
ENDBRANCH  24  38
BRANCH  25  46
ATOM     46  C   UNL A   1      40.969  27.483  27.836  1.00  0.00     0.057 A 
ATOM     47  C   UNL A   1      41.681  28.066  26.784  1.00  0.00     0.134 A 
ATOM     48  C   UNL A   1      40.511  26.171  27.655  1.00  0.00     0.134 A 
ATOM     49  F   UNL A   1      42.135  29.323  26.895  1.00  0.00    -0.206 F 
ATOM     50  C   UNL A   1      41.916  27.381  25.590  1.00  0.00     0.040 A 
ATOM     51  C   UNL A   1      40.748  25.469  26.469  1.00  0.00     0.040 A 
ATOM     52  F   UNL A   1      39.821  25.554  28.626  1.00  0.00    -0.206 F 
ATOM     53  C   UNL A   1      41.449  26.077  25.430  1.00  0.00     0.006 A 
ENDBRANCH  25  46
BRANCH  37  54
ATOM     54  C   UNL A   1      43.866  27.636  34.167  1.00  0.00     0.057 A 
ATOM     55  C   UNL A   1      45.192  28.074  34.226  1.00  0.00     0.134 A 
ATOM     56  C   UNL A   1      43.548  26.419  34.781  1.00  0.00     0.134 A 
ATOM     57  F   UNL A   1      45.555  29.225  33.638  1.00  0.00    -0.206 F 
ATOM     58  C   UNL A   1      46.172  27.323  34.873  1.00  0.00     0.040 A 
ATOM     59  C   UNL A   1      44.513  25.671  35.450  1.00  0.00     0.040 A 
ATOM     60  F   UNL A   1      42.290  25.952  34.759  1.00  0.00    -0.206 F 
ATOM     61  C   UNL A   1      45.831  26.122  35.496  1.00  0.00     0.006 A 
ENDBRANCH  37  54
ENDBRANCH  11  12
ENDBRANCH   4   6
ENDBRANCH   3   4
ENDBRANCH   2   3
ENDBRANCH   1   2
BRANCH   1  62
ATOM     62  O   UNL A   1      31.598  30.179  25.337  1.00  0.00    -0.461 OA
BRANCH  62  63
ATOM     63  C   UNL A   1      31.531  28.818  25.333  1.00  0.00     0.328 C 
ATOM     64  O   UNL A   1      31.415  28.164  26.359  1.00  0.00    -0.250 OA
BRANCH  63  65
ATOM     65  C   UNL A   1      31.663  28.165  23.924  1.00  0.00     0.195 C 
ATOM     66  C   UNL A   1      32.665  28.881  23.032  1.00  0.00     0.039 C 
ATOM     67  N   UNL A   1      32.193  26.791  23.836  1.00  0.00    -0.327 N 
ATOM     68  C   UNL A   1      33.994  28.244  23.421  1.00  0.00     0.024 C 
ATOM     69  C   UNL A   1      33.647  26.832  23.866  1.00  0.00     0.120 C 
BRANCH  67  70
ATOM     70  C   UNL A   1      31.593  25.826  23.024  1.00  0.00     0.243 C 
ATOM     71  O   UNL A   1      31.897  25.704  21.835  1.00  0.00    -0.273 OA
BRANCH  70  72
ATOM     72  C   UNL A   1      30.458  24.984  23.607  1.00  0.00     0.228 C 
BRANCH  72  73
ATOM     73  N   UNL A   1      31.023  24.025  24.532  1.00  0.00    -0.273 N 
ATOM     74  C   UNL A   1      31.629  22.876  24.110  1.00  0.00     0.234 C 
ATOM     75  C   UNL A   1      30.964  24.138  25.888  1.00  0.00     0.234 C 
ATOM     76  C   UNL A   1      32.169  22.144  25.304  1.00  0.00     0.099 C 
ATOM     77  O   UNL A   1      31.763  22.506  22.954  1.00  0.00    -0.274 OA
ATOM     78  C   UNL A   1      31.781  23.038  26.509  1.00  0.00     0.099 C 
ATOM     79  O   UNL A   1      30.327  24.980  26.503  1.00  0.00    -0.274 OA
ATOM     80  C   UNL A   1      33.712  22.154  25.330  1.00  0.00     0.025 C 
ATOM     81  C   UNL A   1      33.159  23.474  27.051  1.00  0.00     0.025 C 
ATOM     82  C   UNL A   1      34.155  21.452  26.594  1.00  0.00    -0.027 C 
ATOM     83  C   UNL A   1      34.014  23.586  25.779  1.00  0.00     0.017 C 
ATOM     84  C   UNL A   1      33.827  22.245  27.627  1.00  0.00    -0.027 C 
ENDBRANCH  72  73
ENDBRANCH  70  72
ENDBRANCH  67  70
ENDBRANCH  63  65
ENDBRANCH  62  63
ENDBRANCH   1  62
TORSDOF 14
ENDMDL
MODEL 2
REMARK VINA RESULT:     -11.9      4.687      9.864
REMARK SMILES O=C(OCCOC(=O)[C@H]1CCCN1C(=O)CN1C(=O)[C@@H]2[C@H](C1=O)[C@H]1C=C[C@@H]2C1)c1ccc(-c2c3nc(c(-c4c(F)cccc4F)c4ccc([nH]4)c(-c4c(F)cccc4F)c4nc(c(-c5c(F)cccc5F)c5ccc2[nH]5)C=C4)C=C3)cc1
REMARK SMILES IDX 5 1 4 2 3 3 2 4 1 5 29 6 30 7 82 8 31 9 81 10 32 11 33 12
REMARK SMILES IDX 34 13 75 14 35 15 80 16 74 17 76 18 36 19 79 20 73 21 72 22
REMARK SMILES IDX 37 24 63 25 46 26 62 27 47 28 50 29 61 30 77 31 48 32 49 33
REMARK SMILES IDX 60 35 78 36 51 37 38 38 39 39 44 40 40 41 41 42 43 43 45 44
REMARK SMILES IDX 42 45 64 46 65 47 70 48 66 49 67 50 69 51 71 52 68 53 52 54
REMARK SMILES IDX 53 55 58 56 54 57 55 58 57 59 59 60 56 61 6 62 7 63 8 64
REMARK SMILES IDX 9 65 10 66 13 67 11 68 12 69 14 70 15 71 16 72 17 73 18 74
REMARK SMILES IDX 22 75 20 76 19 77 21 78 23 79 27 80 24 81 26 82 28 83 25 84
REMARK H PARENT 76 23 50 34
REMARK Flexibility Score: inf
ROOT
ATOM      1  C   UNL A   1      37.776  19.794  25.003  1.00  0.00     0.274 C 
ENDROOT
BRANCH   1   2
ATOM      2  C   UNL A   1      39.201  20.150  25.460  1.00  0.00     0.275 C 
BRANCH   2   3
ATOM      3  O   UNL A   1      40.083  19.077  25.798  1.00  0.00    -0.458 OA
BRANCH   3   4
ATOM      4  C   UNL A   1      41.417  19.216  25.960  1.00  0.00     0.338 C 
ATOM      5  O   UNL A   1      42.181  18.259  25.968  1.00  0.00    -0.246 OA
BRANCH   4   6
ATOM      6  C   UNL A   1      41.895  20.532  26.424  1.00  0.00     0.060 A 
ATOM      7  C   UNL A   1      41.677  21.030  27.713  1.00  0.00     0.016 A 
ATOM      8  C   UNL A   1      42.571  21.307  25.480  1.00  0.00     0.016 A 
ATOM      9  C   UNL A   1      42.209  22.263  28.089  1.00  0.00     0.010 A 
ATOM     10  C   UNL A   1      43.095  22.542  25.847  1.00  0.00     0.010 A 
ATOM     11  C   UNL A   1      42.911  23.026  27.154  1.00  0.00    -0.014 A 
BRANCH  11  12
ATOM     12  C   UNL A   1      43.185  24.453  27.401  1.00  0.00     0.031 A 
ATOM     13  C   UNL A   1      44.628  24.820  27.563  1.00  0.00     0.074 A 
ATOM     14  C   UNL A   1      42.215  25.374  27.536  1.00  0.00     0.049 A 
ATOM     15  N   UNL A   1      45.157  25.988  27.788  1.00  0.00    -0.248 NA
ATOM     16  C   UNL A   1      45.608  23.726  27.408  1.00  0.00     0.031 C 
ATOM     17  C   UNL A   1      40.788  25.166  27.315  1.00  0.00     0.029 A 
ATOM     18  N   UNL A   1      42.289  26.670  27.976  1.00  0.00    -0.354 N 
ATOM     19  C   UNL A   1      46.524  25.786  27.693  1.00  0.00     0.074 A 
ATOM     20  C   UNL A   1      46.753  24.371  27.536  1.00  0.00     0.031 C 
ATOM     21  C   UNL A   1      40.105  26.221  27.793  1.00  0.00     0.029 A 
ATOM     22  C   UNL A   1      41.060  27.211  28.273  1.00  0.00     0.049 A 
ATOM     23  H   UNL A   1      43.135  27.163  28.068  1.00  0.00     0.167 HD
ATOM     24  C   UNL A   1      47.498  26.720  27.649  1.00  0.00     0.037 A 
ATOM     25  C   UNL A   1      40.759  28.380  28.869  1.00  0.00     0.037 A 
ATOM     26  C   UNL A   1      47.257  28.111  27.882  1.00  0.00     0.049 A 
ATOM     27  C   UNL A   1      41.877  29.359  29.087  1.00  0.00     0.074 A 
ATOM     28  C   UNL A   1      48.144  29.166  27.868  1.00  0.00     0.029 A 
ATOM     29  N   UNL A   1      46.012  28.627  28.220  1.00  0.00    -0.354 N 
ATOM     30  N   UNL A   1      43.158  29.205  28.850  1.00  0.00    -0.248 NA
ATOM     31  C   UNL A   1      41.508  30.694  29.572  1.00  0.00     0.031 C 
ATOM     32  C   UNL A   1      47.443  30.318  28.248  1.00  0.00     0.029 A 
ATOM     33  C   UNL A   1      46.113  29.982  28.464  1.00  0.00     0.049 A 
ATOM     34  H   UNL A   1      45.180  28.105  28.277  1.00  0.00     0.167 HD
ATOM     35  C   UNL A   1      43.737  30.445  29.066  1.00  0.00     0.074 A 
ATOM     36  C   UNL A   1      42.672  31.329  29.502  1.00  0.00     0.031 C 
ATOM     37  C   UNL A   1      45.023  30.830  28.878  1.00  0.00     0.037 A 
BRANCH  24  38
ATOM     38  C   UNL A   1      48.861  26.208  27.314  1.00  0.00     0.057 A 
ATOM     39  C   UNL A   1      49.757  25.842  28.333  1.00  0.00     0.134 A 
ATOM     40  C   UNL A   1      49.337  26.218  26.002  1.00  0.00     0.134 A 
ATOM     41  F   UNL A   1      49.369  25.858  29.618  1.00  0.00    -0.206 F 
ATOM     42  C   UNL A   1      51.091  25.541  28.057  1.00  0.00     0.040 A 
ATOM     43  C   UNL A   1      50.666  25.902  25.713  1.00  0.00     0.040 A 
ATOM     44  F   UNL A   1      48.537  26.589  24.991  1.00  0.00    -0.206 F 
ATOM     45  C   UNL A   1      51.548  25.575  26.742  1.00  0.00     0.006 A 
ENDBRANCH  24  38
BRANCH  25  46
ATOM     46  C   UNL A   1      39.357  28.704  29.231  1.00  0.00     0.057 A 
ATOM     47  C   UNL A   1      38.482  29.301  28.319  1.00  0.00     0.134 A 
ATOM     48  C   UNL A   1      38.865  28.432  30.514  1.00  0.00     0.134 A 
ATOM     49  F   UNL A   1      38.900  29.596  27.080  1.00  0.00    -0.206 F 
ATOM     50  C   UNL A   1      37.172  29.632  28.671  1.00  0.00     0.040 A 
ATOM     51  C   UNL A   1      37.552  28.748  30.877  1.00  0.00     0.040 A 
ATOM     52  F   UNL A   1      39.653  27.860  31.436  1.00  0.00    -0.206 F 
ATOM     53  C   UNL A   1      36.702  29.355  29.954  1.00  0.00     0.006 A 
ENDBRANCH  25  46
BRANCH  37  54
ATOM     54  C   UNL A   1      45.332  32.279  29.079  1.00  0.00     0.057 A 
ATOM     55  C   UNL A   1      45.150  33.219  28.060  1.00  0.00     0.134 A 
ATOM     56  C   UNL A   1      45.752  32.741  30.332  1.00  0.00     0.134 A 
ATOM     57  F   UNL A   1      44.766  32.830  26.835  1.00  0.00    -0.206 F 
ATOM     58  C   UNL A   1      45.383  34.576  28.281  1.00  0.00     0.040 A 
ATOM     59  C   UNL A   1      45.966  34.096  30.571  1.00  0.00     0.040 A 
ATOM     60  F   UNL A   1      45.938  31.883  31.347  1.00  0.00    -0.206 F 
ATOM     61  C   UNL A   1      45.783  35.018  29.542  1.00  0.00     0.006 A 
ENDBRANCH  37  54
ENDBRANCH  11  12
ENDBRANCH   4   6
ENDBRANCH   3   4
ENDBRANCH   2   3
ENDBRANCH   1   2
BRANCH   1  62
ATOM     62  O   UNL A   1      36.740  20.795  24.964  1.00  0.00    -0.461 OA
BRANCH  62  63
ATOM     63  C   UNL A   1      35.455  20.357  24.856  1.00  0.00     0.328 C 
ATOM     64  O   UNL A   1      35.154  19.175  24.944  1.00  0.00    -0.250 OA
BRANCH  63  65
ATOM     65  C   UNL A   1      34.408  21.475  24.563  1.00  0.00     0.195 C 
ATOM     66  C   UNL A   1      33.267  21.493  25.567  1.00  0.00     0.039 C 
ATOM     67  N   UNL A   1      34.842  22.882  24.657  1.00  0.00    -0.327 N 
ATOM     68  C   UNL A   1      33.817  22.344  26.704  1.00  0.00     0.024 C 
ATOM     69  C   UNL A   1      34.794  23.309  26.048  1.00  0.00     0.120 C 
BRANCH  67  70
ATOM     70  C   UNL A   1      34.498  23.821  23.683  1.00  0.00     0.243 C 
ATOM     71  O   UNL A   1      34.435  23.517  22.489  1.00  0.00    -0.273 OA
BRANCH  70  72
ATOM     72  C   UNL A   1      34.304  25.277  24.107  1.00  0.00     0.228 C 
BRANCH  72  73
ATOM     73  N   UNL A   1      33.057  25.758  23.552  1.00  0.00    -0.273 N 
ATOM     74  C   UNL A   1      31.847  25.448  24.105  1.00  0.00     0.234 C 
ATOM     75  C   UNL A   1      32.958  26.506  22.419  1.00  0.00     0.234 C 
ATOM     76  C   UNL A   1      30.768  26.158  23.342  1.00  0.00     0.099 C 
ATOM     77  O   UNL A   1      31.653  24.748  25.086  1.00  0.00    -0.274 OA
ATOM     78  C   UNL A   1      31.528  26.938  22.239  1.00  0.00     0.099 C 
ATOM     79  O   UNL A   1      33.876  26.763  21.655  1.00  0.00    -0.274 OA
ATOM     80  C   UNL A   1      30.113  27.273  24.185  1.00  0.00     0.025 C 
ATOM     81  C   UNL A   1      31.236  28.407  22.615  1.00  0.00     0.025 C 
ATOM     82  C   UNL A   1      29.090  27.967  23.313  1.00  0.00    -0.027 C 
ATOM     83  C   UNL A   1      31.181  28.369  24.150  1.00  0.00     0.017 C 
ATOM     84  C   UNL A   1      29.763  28.650  22.374  1.00  0.00    -0.027 C 
ENDBRANCH  72  73
ENDBRANCH  70  72
ENDBRANCH  67  70
ENDBRANCH  63  65
ENDBRANCH  62  63
ENDBRANCH   1  62
TORSDOF 14
ENDMDL
MODEL 3
REMARK VINA RESULT:     -11.9      4.776      9.936
REMARK SMILES O=C(OCCOC(=O)[C@H]1CCCN1C(=O)CN1C(=O)[C@@H]2[C@H](C1=O)[C@H]1C=C[C@@H]2C1)c1ccc(-c2c3nc(c(-c4c(F)cccc4F)c4ccc([nH]4)c(-c4c(F)cccc4F)c4nc(c(-c5c(F)cccc5F)c5ccc2[nH]5)C=C4)C=C3)cc1
REMARK SMILES IDX 5 1 4 2 3 3 2 4 1 5 29 6 30 7 82 8 31 9 81 10 32 11 33 12
REMARK SMILES IDX 34 13 75 14 35 15 80 16 74 17 76 18 36 19 79 20 73 21 72 22
REMARK SMILES IDX 37 24 63 25 46 26 62 27 47 28 50 29 61 30 77 31 48 32 49 33
REMARK SMILES IDX 60 35 78 36 51 37 38 38 39 39 44 40 40 41 41 42 43 43 45 44
REMARK SMILES IDX 42 45 64 46 65 47 70 48 66 49 67 50 69 51 71 52 68 53 52 54
REMARK SMILES IDX 53 55 58 56 54 57 55 58 57 59 59 60 56 61 6 62 7 63 8 64
REMARK SMILES IDX 9 65 10 66 13 67 11 68 12 69 14 70 15 71 16 72 17 73 18 74
REMARK SMILES IDX 22 75 20 76 19 77 21 78 23 79 27 80 24 81 26 82 28 83 25 84
REMARK H PARENT 76 23 50 34
REMARK Flexibility Score: inf
ROOT
ATOM      1  C   UNL A   1      37.957  20.189  24.910  1.00  0.00     0.274 C 
ENDROOT
BRANCH   1   2
ATOM      2  C   UNL A   1      39.215  20.252  25.794  1.00  0.00     0.275 C 
BRANCH   2   3
ATOM      3  O   UNL A   1      40.121  19.147  25.750  1.00  0.00    -0.458 OA
BRANCH   3   4
ATOM      4  C   UNL A   1      41.453  19.252  25.946  1.00  0.00     0.338 C 
ATOM      5  O   UNL A   1      42.186  18.273  26.011  1.00  0.00    -0.246 OA
BRANCH   4   6
ATOM      6  C   UNL A   1      41.958  20.569  26.377  1.00  0.00     0.060 A 
ATOM      7  C   UNL A   1      41.872  21.046  27.689  1.00  0.00     0.016 A 
ATOM      8  C   UNL A   1      42.518  21.368  25.377  1.00  0.00     0.016 A 
ATOM      9  C   UNL A   1      42.423  22.283  28.025  1.00  0.00     0.010 A 
ATOM     10  C   UNL A   1      43.060  22.606  25.705  1.00  0.00     0.010 A 
ATOM     11  C   UNL A   1      43.009  23.070  27.031  1.00  0.00    -0.014 A 
BRANCH  11  12
ATOM     12  C   UNL A   1      43.287  24.497  27.269  1.00  0.00     0.031 A 
ATOM     13  C   UNL A   1      44.734  24.867  27.393  1.00  0.00     0.074 A 
ATOM     14  C   UNL A   1      42.319  25.417  27.429  1.00  0.00     0.049 A 
ATOM     15  N   UNL A   1      45.266  26.036  27.603  1.00  0.00    -0.248 NA
ATOM     16  C   UNL A   1      45.711  23.775  27.214  1.00  0.00     0.031 C 
ATOM     17  C   UNL A   1      40.888  25.206  27.244  1.00  0.00     0.029 A 
ATOM     18  N   UNL A   1      42.403  26.713  27.864  1.00  0.00    -0.354 N 
ATOM     19  C   UNL A   1      46.630  25.837  27.473  1.00  0.00     0.074 A 
ATOM     20  C   UNL A   1      46.858  24.422  27.312  1.00  0.00     0.031 C 
ATOM     21  C   UNL A   1      40.216  26.261  27.739  1.00  0.00     0.029 A 
ATOM     22  C   UNL A   1      41.181  27.253  28.193  1.00  0.00     0.049 A 
ATOM     23  H   UNL A   1      43.250  27.208  27.934  1.00  0.00     0.167 HD
ATOM     24  C   UNL A   1      47.601  26.771  27.402  1.00  0.00     0.037 A 
ATOM     25  C   UNL A   1      40.893  28.422  28.794  1.00  0.00     0.037 A 
ATOM     26  C   UNL A   1      47.364  28.163  27.639  1.00  0.00     0.049 A 
ATOM     27  C   UNL A   1      42.015  29.403  28.983  1.00  0.00     0.074 A 
ATOM     28  C   UNL A   1      48.249  29.219  27.601  1.00  0.00     0.029 A 
ATOM     29  N   UNL A   1      46.127  28.677  28.009  1.00  0.00    -0.354 N 
ATOM     30  N   UNL A   1      43.290  29.251  28.712  1.00  0.00    -0.248 NA
ATOM     31  C   UNL A   1      41.657  30.739  29.475  1.00  0.00     0.031 C 
ATOM     32  C   UNL A   1      47.556  30.370  27.997  1.00  0.00     0.029 A 
ATOM     33  C   UNL A   1      46.232  30.033  28.248  1.00  0.00     0.049 A 
ATOM     34  H   UNL A   1      45.298  28.154  28.088  1.00  0.00     0.167 HD
ATOM     35  C   UNL A   1      43.873  30.493  28.912  1.00  0.00     0.074 A 
ATOM     36  C   UNL A   1      42.817  31.375  29.374  1.00  0.00     0.031 C 
ATOM     37  C   UNL A   1      45.153  30.880  28.690  1.00  0.00     0.037 A 
BRANCH  24  38
ATOM     38  C   UNL A   1      48.956  26.262  27.033  1.00  0.00     0.057 A 
ATOM     39  C   UNL A   1      49.888  25.921  28.028  1.00  0.00     0.134 A 
ATOM     40  C   UNL A   1      49.389  26.249  25.705  1.00  0.00     0.134 A 
ATOM     41  F   UNL A   1      49.541  25.959  29.325  1.00  0.00    -0.206 F 
ATOM     42  C   UNL A   1      51.213  25.622  27.714  1.00  0.00     0.040 A 
ATOM     43  C   UNL A   1      50.710  25.935  25.379  1.00  0.00     0.040 A 
ATOM     44  F   UNL A   1      48.554  26.595  24.714  1.00  0.00    -0.206 F 
ATOM     45  C   UNL A   1      51.628  25.634  26.385  1.00  0.00     0.006 A 
ENDBRANCH  24  38
BRANCH  25  46
ATOM     46  C   UNL A   1      39.501  28.744  29.193  1.00  0.00     0.057 A 
ATOM     47  C   UNL A   1      39.015  28.449  30.469  1.00  0.00     0.134 A 
ATOM     48  C   UNL A   1      38.617  29.350  28.290  1.00  0.00     0.134 A 
ATOM     49  F   UNL A   1      39.812  27.859  31.372  1.00  0.00    -0.206 F 
ATOM     50  C   UNL A   1      37.696  28.726  30.833  1.00  0.00     0.040 A 
ATOM     51  C   UNL A   1      37.296  29.643  28.644  1.00  0.00     0.040 A 
ATOM     52  F   UNL A   1      39.021  29.659  27.049  1.00  0.00    -0.206 F 
ATOM     53  C   UNL A   1      36.831  29.327  29.918  1.00  0.00     0.006 A 
ENDBRANCH  25  46
BRANCH  37  54
ATOM     54  C   UNL A   1      45.464  32.329  28.880  1.00  0.00     0.057 A 
ATOM     55  C   UNL A   1      45.962  32.823  30.090  1.00  0.00     0.134 A 
ATOM     56  C   UNL A   1      45.322  33.225  27.814  1.00  0.00     0.134 A 
ATOM     57  F   UNL A   1      46.102  32.012  31.150  1.00  0.00    -0.206 F 
ATOM     58  C   UNL A   1      46.306  34.166  30.233  1.00  0.00     0.040 A 
ATOM     59  C   UNL A   1      45.683  34.564  27.938  1.00  0.00     0.040 A 
ATOM     60  F   UNL A   1      44.852  32.804  26.629  1.00  0.00    -0.206 F 
ATOM     61  C   UNL A   1      46.175  35.038  29.153  1.00  0.00     0.006 A 
ENDBRANCH  37  54
ENDBRANCH  11  12
ENDBRANCH   4   6
ENDBRANCH   3   4
ENDBRANCH   2   3
ENDBRANCH   1   2
BRANCH   1  62
ATOM     62  O   UNL A   1      36.808  21.011  25.198  1.00  0.00    -0.461 OA
BRANCH  62  63
ATOM     63  C   UNL A   1      35.581  20.455  25.001  1.00  0.00     0.328 C 
ATOM     64  O   UNL A   1      35.426  19.260  24.795  1.00  0.00    -0.250 OA
BRANCH  63  65
ATOM     65  C   UNL A   1      34.398  21.470  25.012  1.00  0.00     0.195 C 
ATOM     66  C   UNL A   1      33.220  20.996  25.847  1.00  0.00     0.039 C 
ATOM     67  N   UNL A   1      34.617  22.794  25.624  1.00  0.00    -0.327 N 
ATOM     68  C   UNL A   1      33.585  21.450  27.255  1.00  0.00     0.024 C 
ATOM     69  C   UNL A   1      34.440  22.694  27.066  1.00  0.00     0.120 C 
BRANCH  67  70
ATOM     70  C   UNL A   1      34.186  23.969  25.004  1.00  0.00     0.243 C 
ATOM     71  O   UNL A   1      34.926  24.949  24.895  1.00  0.00    -0.273 OA
BRANCH  70  72
ATOM     72  C   UNL A   1      32.728  24.064  24.552  1.00  0.00     0.228 C 
BRANCH  72  73
ATOM     73  N   UNL A   1      32.215  25.366  24.919  1.00  0.00    -0.273 N 
ATOM     74  C   UNL A   1      31.639  25.605  26.135  1.00  0.00     0.234 C 
ATOM     75  C   UNL A   1      32.202  26.448  24.093  1.00  0.00     0.234 C 
ATOM     76  C   UNL A   1      31.283  27.060  26.226  1.00  0.00     0.099 C 
ATOM     77  O   UNL A   1      31.474  24.795  27.033  1.00  0.00    -0.274 OA
ATOM     78  C   UNL A   1      31.733  27.651  24.866  1.00  0.00     0.099 C 
ATOM     79  O   UNL A   1      32.498  26.440  22.908  1.00  0.00    -0.274 OA
ATOM     80  C   UNL A   1      32.169  27.801  27.251  1.00  0.00     0.025 C 
ATOM     81  C   UNL A   1      32.847  28.634  25.286  1.00  0.00     0.025 C 
ATOM     82  C   UNL A   1      31.779  29.262  27.224  1.00  0.00    -0.027 C 
ATOM     83  C   UNL A   1      33.492  27.933  26.492  1.00  0.00     0.017 C 
ATOM     84  C   UNL A   1      32.188  29.763  26.047  1.00  0.00    -0.027 C 
ENDBRANCH  72  73
ENDBRANCH  70  72
ENDBRANCH  67  70
ENDBRANCH  63  65
ENDBRANCH  62  63
ENDBRANCH   1  62
TORSDOF 14
ENDMDL
