MODEL 1
REMARK VINA RESULT:     -11.0      0.000      0.000
REMARK SMILES O=C(/C=C\C(F)(C(F)(F)F)C(F)(F)F)OCCOC(=O)c1ccc(-c2c3nc(c(-c4c(F)cccc4F)c4ccc([nH]4)c(-c4c(F)cccc4F)c4nc(c(-c5c(F)cccc5F)c5ccc2[nH]5)C=C4)C=C3)cc1
REMARK SMILES IDX 16 1 15 2 2 3 1 4 3 5 4 6 5 7 6 8 7 9 8 10 9 11 10 12 11 13
REMARK SMILES IDX 12 14 13 15 14 16 17 17 18 18 19 19 20 20 21 21 22 22 74 23
REMARK SMILES IDX 23 24 73 25 24 26 25 27 26 28 67 29 27 30 72 31 66 32 68 33
REMARK SMILES IDX 28 34 71 35 65 36 64 37 29 39 55 40 38 41 54 42 39 43 42 44
REMARK SMILES IDX 53 45 69 46 40 47 41 48 52 50 70 51 43 52 30 53 31 54 36 55
REMARK SMILES IDX 32 56 33 57 35 58 37 59 34 60 56 61 57 62 62 63 58 64 59 65
REMARK SMILES IDX 61 66 63 67 60 68 44 69 45 70 50 71 46 72 47 73 49 74 51 75
REMARK SMILES IDX 48 76
REMARK H PARENT 68 38 42 49
REMARK Flexibility Score: inf
ROOT
ATOM      1  C   UNL A   1      36.328  22.189  23.975  1.00  0.00     0.275 C 
ENDROOT
BRANCH   1   2
ATOM      2  O   UNL A   1      35.065  22.361  24.658  1.00  0.00    -0.459 OA
BRANCH   2   3
ATOM      3  C   UNL A   1      34.179  21.497  25.177  1.00  0.00     0.330 C 
ATOM      4  O   UNL A   1      34.321  21.063  26.317  1.00  0.00    -0.247 OA
BRANCH   3   5
ATOM      5  C   UNL A   1      33.165  20.834  24.342  1.00  0.00     0.093 C 
ATOM      6  C   UNL A   1      32.897  19.572  23.981  1.00  0.00     0.040 C 
BRANCH   6   7
ATOM      7  C   UNL A   1      33.559  18.239  24.300  1.00  0.00     0.317 C 
ATOM      8  F   UNL A   1      34.868  18.512  24.610  1.00  0.00    -0.219 F 
BRANCH   7   9
ATOM      9  C   UNL A   1      32.902  17.584  25.515  1.00  0.00     0.435 C 
ATOM     10  F   UNL A   1      31.715  17.010  25.212  1.00  0.00    -0.167 F 
ATOM     11  F   UNL A   1      33.679  16.639  26.086  1.00  0.00    -0.167 F 
ATOM     12  F   UNL A   1      32.643  18.504  26.483  1.00  0.00    -0.167 F 
ENDBRANCH   7   9
BRANCH   7  13
ATOM     13  C   UNL A   1      33.501  17.165  23.225  1.00  0.00     0.435 C 
ATOM     14  F   UNL A   1      33.371  15.925  23.745  1.00  0.00    -0.167 F 
ATOM     15  F   UNL A   1      32.449  17.343  22.393  1.00  0.00    -0.167 F 
ATOM     16  F   UNL A   1      34.603  17.166  22.442  1.00  0.00    -0.167 F 
ENDBRANCH   7  13
ENDBRANCH   6   7
ENDBRANCH   3   5
ENDBRANCH   2   3
ENDBRANCH   1   2
BRANCH   1  17
ATOM     17  C   UNL A   1      37.348  21.192  24.528  1.00  0.00     0.275 C 
BRANCH  17  18
ATOM     18  O   UNL A   1      37.730  21.419  25.879  1.00  0.00    -0.458 OA
BRANCH  18  19
ATOM     19  C   UNL A   1      39.054  21.257  26.099  1.00  0.00     0.338 C 
ATOM     20  O   UNL A   1      39.759  20.334  25.728  1.00  0.00    -0.246 OA
BRANCH  19  21
ATOM     21  C   UNL A   1      39.557  22.467  26.760  1.00  0.00     0.060 A 
ATOM     22  C   UNL A   1      38.929  23.679  26.468  1.00  0.00     0.016 A 
ATOM     23  C   UNL A   1      40.649  22.411  27.632  1.00  0.00     0.016 A 
ATOM     24  C   UNL A   1      39.445  24.858  26.992  1.00  0.00     0.010 A 
ATOM     25  C   UNL A   1      41.165  23.595  28.158  1.00  0.00     0.010 A 
ATOM     26  C   UNL A   1      40.595  24.827  27.795  1.00  0.00    -0.014 A 
BRANCH  26  27
ATOM     27  C   UNL A   1      41.278  26.104  28.102  1.00  0.00     0.031 A 
ATOM     28  C   UNL A   1      42.676  26.324  27.594  1.00  0.00     0.074 A 
ATOM     29  C   UNL A   1      40.624  27.089  28.739  1.00  0.00     0.049 A 
ATOM     30  N   UNL A   1      43.415  27.402  27.643  1.00  0.00    -0.248 NA
ATOM     31  C   UNL A   1      43.328  25.177  26.940  1.00  0.00     0.031 C 
ATOM     32  C   UNL A   1      39.263  26.999  29.264  1.00  0.00     0.029 A 
ATOM     33  N   UNL A   1      41.018  28.369  29.036  1.00  0.00    -0.354 N 
ATOM     34  C   UNL A   1      44.604  27.074  27.004  1.00  0.00     0.074 A 
ATOM     35  C   UNL A   1      44.515  25.679  26.633  1.00  0.00     0.031 C 
ATOM     36  C   UNL A   1      38.932  28.179  29.815  1.00  0.00     0.029 A 
ATOM     37  C   UNL A   1      40.062  29.099  29.695  1.00  0.00     0.049 A 
ATOM     38  H   UNL A   1      41.904  28.729  28.799  1.00  0.00     0.167 HD
ATOM     39  C   UNL A   1      45.664  27.870  26.725  1.00  0.00     0.037 A 
ATOM     40  C   UNL A   1      40.098  30.365  30.150  1.00  0.00     0.037 A 
ATOM     41  C   UNL A   1      45.761  29.253  27.112  1.00  0.00     0.049 A 
ATOM     42  C   UNL A   1      41.318  31.209  29.890  1.00  0.00     0.074 A 
ATOM     43  C   UNL A   1      46.796  30.143  26.881  1.00  0.00     0.029 A 
ATOM     44  N   UNL A   1      44.789  29.946  27.818  1.00  0.00    -0.354 N 
ATOM     45  N   UNL A   1      42.419  30.902  29.246  1.00  0.00    -0.248 NA
ATOM     46  C   UNL A   1      41.291  32.584  30.406  1.00  0.00     0.031 C 
ATOM     47  C   UNL A   1      46.475  31.357  27.495  1.00  0.00     0.029 A 
ATOM     48  C   UNL A   1      45.211  31.245  28.053  1.00  0.00     0.049 A 
ATOM     49  H   UNL A   1      43.928  29.571  28.109  1.00  0.00     0.167 HD
ATOM     50  C   UNL A   1      43.201  32.051  29.256  1.00  0.00     0.074 A 
ATOM     51  C   UNL A   1      42.435  33.069  29.945  1.00  0.00     0.031 C 
ATOM     52  C   UNL A   1      44.442  32.248  28.744  1.00  0.00     0.037 A 
BRANCH  39  53
ATOM     53  C   UNL A   1      46.808  27.256  25.972  1.00  0.00     0.057 A 
ATOM     54  C   UNL A   1      46.957  27.427  24.590  1.00  0.00     0.134 A 
ATOM     55  C   UNL A   1      47.793  26.517  26.640  1.00  0.00     0.134 A 
ATOM     56  F   UNL A   1      46.041  28.109  23.885  1.00  0.00    -0.206 F 
ATOM     57  C   UNL A   1      48.033  26.868  23.895  1.00  0.00     0.040 A 
ATOM     58  C   UNL A   1      48.887  25.979  25.962  1.00  0.00     0.040 A 
ATOM     59  F   UNL A   1      47.713  26.317  27.965  1.00  0.00    -0.206 F 
ATOM     60  C   UNL A   1      49.007  26.150  24.584  1.00  0.00     0.006 A 
ENDBRANCH  39  53
BRANCH  40  61
ATOM     61  C   UNL A   1      38.946  30.916  30.910  1.00  0.00     0.057 A 
ATOM     62  C   UNL A   1      38.835  30.755  32.296  1.00  0.00     0.134 A 
ATOM     63  C   UNL A   1      37.902  31.580  30.254  1.00  0.00     0.134 A 
ATOM     64  F   UNL A   1      39.791  30.108  32.979  1.00  0.00    -0.206 F 
ATOM     65  C   UNL A   1      37.715  31.205  32.997  1.00  0.00     0.040 A 
ATOM     66  C   UNL A   1      36.792  32.064  30.946  1.00  0.00     0.040 A 
ATOM     67  F   UNL A   1      37.950  31.772  28.927  1.00  0.00    -0.206 F 
ATOM     68  C   UNL A   1      36.690  31.864  32.321  1.00  0.00     0.006 A 
ENDBRANCH  40  61
BRANCH  52  69
ATOM     69  C   UNL A   1      45.031  33.624  28.889  1.00  0.00     0.057 A 
ATOM     70  C   UNL A   1      45.837  33.980  29.980  1.00  0.00     0.134 A 
ATOM     71  C   UNL A   1      44.795  34.607  27.919  1.00  0.00     0.134 A 
ATOM     72  F   UNL A   1      46.097  33.090  30.950  1.00  0.00    -0.206 F 
ATOM     73  C   UNL A   1      46.345  35.272  30.124  1.00  0.00     0.040 A 
ATOM     74  C   UNL A   1      45.328  35.892  28.034  1.00  0.00     0.040 A 
ATOM     75  F   UNL A   1      44.046  34.336  26.839  1.00  0.00    -0.206 F 
ATOM     76  C   UNL A   1      46.095  36.231  29.146  1.00  0.00     0.006 A 
ENDBRANCH  52  69
ENDBRANCH  26  27
ENDBRANCH  19  21
ENDBRANCH  18  19
ENDBRANCH  17  18
ENDBRANCH   1  17
TORSDOF 14
ENDMDL
MODEL 2
REMARK VINA RESULT:     -10.8      6.212     11.656
REMARK SMILES O=C(/C=C\C(F)(C(F)(F)F)C(F)(F)F)OCCOC(=O)c1ccc(-c2c3nc(c(-c4c(F)cccc4F)c4ccc([nH]4)c(-c4c(F)cccc4F)c4nc(c(-c5c(F)cccc5F)c5ccc2[nH]5)C=C4)C=C3)cc1
REMARK SMILES IDX 16 1 15 2 2 3 1 4 3 5 4 6 5 7 6 8 7 9 8 10 9 11 10 12 11 13
REMARK SMILES IDX 12 14 13 15 14 16 17 17 18 18 19 19 20 20 21 21 22 22 74 23
REMARK SMILES IDX 23 24 73 25 24 26 25 27 26 28 67 29 27 30 72 31 66 32 68 33
REMARK SMILES IDX 28 34 71 35 65 36 64 37 29 39 55 40 38 41 54 42 39 43 42 44
REMARK SMILES IDX 53 45 69 46 40 47 41 48 52 50 70 51 43 52 30 53 31 54 36 55
REMARK SMILES IDX 32 56 33 57 35 58 37 59 34 60 56 61 57 62 62 63 58 64 59 65
REMARK SMILES IDX 61 66 63 67 60 68 44 69 45 70 50 71 46 72 47 73 49 74 51 75
REMARK SMILES IDX 48 76
REMARK H PARENT 68 38 42 49
REMARK Flexibility Score: inf
ROOT
ATOM      1  C   UNL A   1      33.544  35.012  28.995  1.00  0.00     0.275 C 
ENDROOT
BRANCH   1   2
ATOM      2  O   UNL A   1      32.836  34.950  30.253  1.00  0.00    -0.459 OA
BRANCH   2   3
ATOM      3  C   UNL A   1      32.778  35.770  31.314  1.00  0.00     0.330 C 
ATOM      4  O   UNL A   1      31.779  36.455  31.523  1.00  0.00    -0.247 OA
BRANCH   3   5
ATOM      5  C   UNL A   1      33.971  36.088  32.113  1.00  0.00     0.093 C 
ATOM      6  C   UNL A   1      34.876  35.384  32.807  1.00  0.00     0.040 C 
BRANCH   6   7
ATOM      7  C   UNL A   1      35.052  33.895  33.069  1.00  0.00     0.317 C 
ATOM      8  F   UNL A   1      33.827  33.415  33.462  1.00  0.00    -0.219 F 
BRANCH   7   9
ATOM      9  C   UNL A   1      35.469  33.166  31.791  1.00  0.00     0.435 C 
ATOM     10  F   UNL A   1      35.993  34.004  30.868  1.00  0.00    -0.167 F 
ATOM     11  F   UNL A   1      36.375  32.189  32.016  1.00  0.00    -0.167 F 
ATOM     12  F   UNL A   1      34.400  32.568  31.201  1.00  0.00    -0.167 F 
ENDBRANCH   7   9
BRANCH   7  13
ATOM     13  C   UNL A   1      36.109  33.494  34.085  1.00  0.00     0.435 C 
ATOM     14  F   UNL A   1      36.335  32.162  34.092  1.00  0.00    -0.167 F 
ATOM     15  F   UNL A   1      37.301  34.082  33.831  1.00  0.00    -0.167 F 
ATOM     16  F   UNL A   1      35.772  33.857  35.343  1.00  0.00    -0.167 F 
ENDBRANCH   7  13
ENDBRANCH   6   7
ENDBRANCH   3   5
ENDBRANCH   2   3
ENDBRANCH   1   2
BRANCH   1  17
ATOM     17  C   UNL A   1      33.486  33.815  28.044  1.00  0.00     0.275 C 
BRANCH  17  18
ATOM     18  O   UNL A   1      34.743  33.207  27.775  1.00  0.00    -0.458 OA
BRANCH  18  19
ATOM     19  C   UNL A   1      34.707  31.856  27.811  1.00  0.00     0.338 C 
ATOM     20  O   UNL A   1      33.917  31.121  27.243  1.00  0.00    -0.246 OA
BRANCH  19  21
ATOM     21  C   UNL A   1      35.880  31.389  28.558  1.00  0.00     0.060 A 
ATOM     22  C   UNL A   1      37.041  32.161  28.499  1.00  0.00     0.016 A 
ATOM     23  C   UNL A   1      35.844  30.192  29.283  1.00  0.00     0.016 A 
ATOM     24  C   UNL A   1      38.202  31.695  29.105  1.00  0.00     0.010 A 
ATOM     25  C   UNL A   1      37.009  29.728  29.892  1.00  0.00     0.010 A 
ATOM     26  C   UNL A   1      38.205  30.453  29.759  1.00  0.00    -0.014 A 
BRANCH  26  27
ATOM     27  C   UNL A   1      39.505  29.861  30.144  1.00  0.00     0.031 A 
ATOM     28  C   UNL A   1      40.201  30.368  31.378  1.00  0.00     0.074 A 
ATOM     29  C   UNL A   1      40.009  28.821  29.460  1.00  0.00     0.049 A 
ATOM     30  N   UNL A   1      41.281  29.918  31.963  1.00  0.00    -0.248 NA
ATOM     31  C   UNL A   1      39.596  31.533  32.043  1.00  0.00     0.031 C 
ATOM     32  C   UNL A   1      39.418  28.233  28.259  1.00  0.00     0.029 A 
ATOM     33  N   UNL A   1      41.129  28.064  29.692  1.00  0.00    -0.354 N 
ATOM     34  C   UNL A   1      41.469  30.726  33.077  1.00  0.00     0.074 A 
ATOM     35  C   UNL A   1      40.431  31.733  33.052  1.00  0.00     0.031 C 
ATOM     36  C   UNL A   1      40.180  27.200  27.862  1.00  0.00     0.029 A 
ATOM     37  C   UNL A   1      41.316  27.065  28.771  1.00  0.00     0.049 A 
ATOM     38  H   UNL A   1      41.739  28.222  30.449  1.00  0.00     0.167 HD
ATOM     39  C   UNL A   1      42.405  30.622  34.051  1.00  0.00     0.037 A 
ATOM     40  C   UNL A   1      42.298  26.149  28.673  1.00  0.00     0.037 A 
ATOM     41  C   UNL A   1      43.450  29.632  34.065  1.00  0.00     0.049 A 
ATOM     42  C   UNL A   1      43.369  26.099  29.730  1.00  0.00     0.074 A 
ATOM     43  C   UNL A   1      44.450  29.447  35.005  1.00  0.00     0.029 A 
ATOM     44  N   UNL A   1      43.636  28.663  33.090  1.00  0.00    -0.354 N 
ATOM     45  N   UNL A   1      43.513  26.839  30.804  1.00  0.00    -0.248 NA
ATOM     46  C   UNL A   1      44.406  25.070  29.570  1.00  0.00     0.031 C 
ATOM     47  C   UNL A   1      45.272  28.403  34.570  1.00  0.00     0.029 A 
ATOM     48  C   UNL A   1      44.748  27.894  33.392  1.00  0.00     0.049 A 
ATOM     49  H   UNL A   1      43.062  28.541  32.300  1.00  0.00     0.167 HD
ATOM     50  C   UNL A   1      44.637  26.349  31.458  1.00  0.00     0.074 A 
ATOM     51  C   UNL A   1      45.119  25.230  30.676  1.00  0.00     0.031 C 
ATOM     52  C   UNL A   1      45.221  26.786  32.603  1.00  0.00     0.037 A 
BRANCH  39  53
ATOM     53  C   UNL A   1      42.344  31.614  35.176  1.00  0.00     0.057 A 
ATOM     54  C   UNL A   1      41.532  31.406  36.298  1.00  0.00     0.134 A 
ATOM     55  C   UNL A   1      43.132  32.771  35.156  1.00  0.00     0.134 A 
ATOM     56  F   UNL A   1      40.739  30.326  36.374  1.00  0.00    -0.206 F 
ATOM     57  C   UNL A   1      41.491  32.323  37.351  1.00  0.00     0.040 A 
ATOM     58  C   UNL A   1      43.121  33.680  36.215  1.00  0.00     0.040 A 
ATOM     59  F   UNL A   1      43.935  33.031  34.112  1.00  0.00    -0.206 F 
ATOM     60  C   UNL A   1      42.295  33.460  37.315  1.00  0.00     0.006 A 
ENDBRANCH  39  53
BRANCH  40  61
ATOM     61  C   UNL A   1      42.323  25.205  27.526  1.00  0.00     0.057 A 
ATOM     62  C   UNL A   1      41.763  23.925  27.615  1.00  0.00     0.134 A 
ATOM     63  C   UNL A   1      42.952  25.550  26.323  1.00  0.00     0.134 A 
ATOM     64  F   UNL A   1      41.166  23.526  28.747  1.00  0.00    -0.206 F 
ATOM     65  C   UNL A   1      41.856  23.012  26.562  1.00  0.00     0.040 A 
ATOM     66  C   UNL A   1      43.023  24.660  25.251  1.00  0.00     0.040 A 
ATOM     67  F   UNL A   1      43.504  26.763  26.172  1.00  0.00    -0.206 F 
ATOM     68  C   UNL A   1      42.485  23.381  25.375  1.00  0.00     0.006 A 
ENDBRANCH  40  61
BRANCH  52  69
ATOM     69  C   UNL A   1      46.428  26.030  33.087  1.00  0.00     0.057 A 
ATOM     70  C   UNL A   1      47.731  26.388  32.712  1.00  0.00     0.134 A 
ATOM     71  C   UNL A   1      46.287  24.932  33.945  1.00  0.00     0.134 A 
ATOM     72  F   UNL A   1      47.940  27.425  31.885  1.00  0.00    -0.206 F 
ATOM     73  C   UNL A   1      48.841  25.655  33.134  1.00  0.00     0.040 A 
ATOM     74  C   UNL A   1      47.392  24.214  34.403  1.00  0.00     0.040 A 
ATOM     75  F   UNL A   1      45.072  24.541  34.359  1.00  0.00    -0.206 F 
ATOM     76  C   UNL A   1      48.674  24.567  33.987  1.00  0.00     0.006 A 
ENDBRANCH  52  69
ENDBRANCH  26  27
ENDBRANCH  19  21
ENDBRANCH  18  19
ENDBRANCH  17  18
ENDBRANCH   1  17
TORSDOF 14
ENDMDL
MODEL 3
REMARK VINA RESULT:     -10.7      4.669      7.377
REMARK SMILES O=C(/C=C\C(F)(C(F)(F)F)C(F)(F)F)OCCOC(=O)c1ccc(-c2c3nc(c(-c4c(F)cccc4F)c4ccc([nH]4)c(-c4c(F)cccc4F)c4nc(c(-c5c(F)cccc5F)c5ccc2[nH]5)C=C4)C=C3)cc1
REMARK SMILES IDX 16 1 15 2 2 3 1 4 3 5 4 6 5 7 6 8 7 9 8 10 9 11 10 12 11 13
REMARK SMILES IDX 12 14 13 15 14 16 17 17 18 18 19 19 20 20 21 21 22 22 74 23
REMARK SMILES IDX 23 24 73 25 24 26 25 27 26 28 67 29 27 30 72 31 66 32 68 33
REMARK SMILES IDX 28 34 71 35 65 36 64 37 29 39 55 40 38 41 54 42 39 43 42 44
REMARK SMILES IDX 53 45 69 46 40 47 41 48 52 50 70 51 43 52 30 53 31 54 36 55
REMARK SMILES IDX 32 56 33 57 35 58 37 59 34 60 56 61 57 62 62 63 58 64 59 65
REMARK SMILES IDX 61 66 63 67 60 68 44 69 45 70 50 71 46 72 47 73 49 74 51 75
REMARK SMILES IDX 48 76
REMARK H PARENT 68 38 42 49
REMARK Flexibility Score: inf
ROOT
ATOM      1  C   UNL A   1      44.297  21.449  25.005  1.00  0.00     0.275 C 
ENDROOT
BRANCH   1   2
ATOM      2  O   UNL A   1      43.235  21.597  25.974  1.00  0.00    -0.459 OA
BRANCH   2   3
ATOM      3  C   UNL A   1      42.394  20.725  26.553  1.00  0.00     0.330 C 
ATOM      4  O   UNL A   1      42.277  19.583  26.117  1.00  0.00    -0.247 OA
BRANCH   3   5
ATOM      5  C   UNL A   1      41.398  21.155  27.546  1.00  0.00     0.093 C 
ATOM      6  C   UNL A   1      40.310  21.938  27.536  1.00  0.00     0.040 C 
BRANCH   6   7
ATOM      7  C   UNL A   1      39.623  22.744  26.443  1.00  0.00     0.317 C 
ATOM      8  F   UNL A   1      40.589  23.064  25.522  1.00  0.00    -0.219 F 
BRANCH   7   9
ATOM      9  C   UNL A   1      38.550  21.907  25.746  1.00  0.00     0.435 C 
ATOM     10  F   UNL A   1      38.999  20.679  25.400  1.00  0.00    -0.167 F 
ATOM     11  F   UNL A   1      37.443  21.738  26.501  1.00  0.00    -0.167 F 
ATOM     12  F   UNL A   1      38.141  22.502  24.594  1.00  0.00    -0.167 F 
ENDBRANCH   7   9
BRANCH   7  13
ATOM     13  C   UNL A   1      38.887  24.003  26.873  1.00  0.00     0.435 C 
ATOM     14  F   UNL A   1      38.970  24.216  28.204  1.00  0.00    -0.167 F 
ATOM     15  F   UNL A   1      39.392  25.108  26.277  1.00  0.00    -0.167 F 
ATOM     16  F   UNL A   1      37.576  23.966  26.546  1.00  0.00    -0.167 F 
ENDBRANCH   7  13
ENDBRANCH   6   7
ENDBRANCH   3   5
ENDBRANCH   2   3
ENDBRANCH   1   2
BRANCH   1  17
ATOM     17  C   UNL A   1      44.971  22.698  24.437  1.00  0.00     0.275 C 
BRANCH  17  18
ATOM     18  O   UNL A   1      44.174  23.877  24.482  1.00  0.00    -0.458 OA
BRANCH  18  19
ATOM     19  C   UNL A   1      44.821  24.944  25.001  1.00  0.00     0.338 C 
ATOM     20  O   UNL A   1      45.923  25.365  24.690  1.00  0.00    -0.246 OA
BRANCH  19  21
ATOM     21  C   UNL A   1      43.911  25.619  25.934  1.00  0.00     0.060 A 
ATOM     22  C   UNL A   1      44.040  27.001  26.086  1.00  0.00     0.016 A 
ATOM     23  C   UNL A   1      42.966  24.896  26.670  1.00  0.00     0.016 A 
ATOM     24  C   UNL A   1      43.268  27.657  27.038  1.00  0.00     0.010 A 
ATOM     25  C   UNL A   1      42.193  25.556  27.624  1.00  0.00     0.010 A 
ATOM     26  C   UNL A   1      42.381  26.930  27.846  1.00  0.00    -0.014 A 
BRANCH  26  27
ATOM     27  C   UNL A   1      41.790  27.601  29.026  1.00  0.00     0.031 A 
ATOM     28  C   UNL A   1      42.462  27.450  30.363  1.00  0.00     0.074 A 
ATOM     29  C   UNL A   1      40.727  28.410  28.888  1.00  0.00     0.049 A 
ATOM     30  N   UNL A   1      42.187  28.039  31.499  1.00  0.00    -0.248 NA
ATOM     31  C   UNL A   1      43.597  26.515  30.429  1.00  0.00     0.031 C 
ATOM     32  C   UNL A   1      40.001  28.647  27.642  1.00  0.00     0.029 A 
ATOM     33  N   UNL A   1      40.085  29.197  29.809  1.00  0.00    -0.354 N 
ATOM     34  C   UNL A   1      43.130  27.568  32.404  1.00  0.00     0.074 A 
ATOM     35  C   UNL A   1      43.942  26.598  31.705  1.00  0.00     0.031 C 
ATOM     36  C   UNL A   1      39.014  29.528  27.875  1.00  0.00     0.029 A 
ATOM     37  C   UNL A   1      39.030  29.903  29.287  1.00  0.00     0.049 A 
ATOM     38  H   UNL A   1      40.355  29.251  30.754  1.00  0.00     0.167 HD
ATOM     39  C   UNL A   1      43.320  27.932  33.695  1.00  0.00     0.037 A 
ATOM     40  C   UNL A   1      38.175  30.753  29.886  1.00  0.00     0.037 A 
ATOM     41  C   UNL A   1      42.499  28.884  34.397  1.00  0.00     0.049 A 
ATOM     42  C   UNL A   1      38.364  31.088  31.342  1.00  0.00     0.074 A 
ATOM     43  C   UNL A   1      42.608  29.316  35.708  1.00  0.00     0.029 A 
ATOM     44  N   UNL A   1      41.411  29.546  33.848  1.00  0.00    -0.354 N 
ATOM     45  N   UNL A   1      39.286  30.671  32.178  1.00  0.00    -0.248 NA
ATOM     46  C   UNL A   1      37.403  32.029  31.933  1.00  0.00     0.031 C 
ATOM     47  C   UNL A   1      41.553  30.196  35.967  1.00  0.00     0.029 A 
ATOM     48  C   UNL A   1      40.825  30.364  34.800  1.00  0.00     0.049 A 
ATOM     49  H   UNL A   1      41.101  29.449  32.919  1.00  0.00     0.167 HD
ATOM     50  C   UNL A   1      39.031  31.318  33.382  1.00  0.00     0.074 A 
ATOM     51  C   UNL A   1      37.887  32.176  33.158  1.00  0.00     0.031 C 
ATOM     52  C   UNL A   1      39.682  31.211  34.567  1.00  0.00     0.037 A 
BRANCH  39  53
ATOM     53  C   UNL A   1      44.458  27.288  34.433  1.00  0.00     0.057 A 
ATOM     54  C   UNL A   1      45.723  27.887  34.505  1.00  0.00     0.134 A 
ATOM     55  C   UNL A   1      44.280  26.076  35.110  1.00  0.00     0.134 A 
ATOM     56  F   UNL A   1      45.967  29.041  33.864  1.00  0.00    -0.206 F 
ATOM     57  C   UNL A   1      46.774  27.294  35.207  1.00  0.00     0.040 A 
ATOM     58  C   UNL A   1      45.314  25.488  35.839  1.00  0.00     0.040 A 
ATOM     59  F   UNL A   1      43.093  25.450  35.085  1.00  0.00    -0.206 F 
ATOM     60  C   UNL A   1      46.568  26.095  35.885  1.00  0.00     0.006 A 
ENDBRANCH  39  53
BRANCH  40  61
ATOM     61  C   UNL A   1      37.052  31.345  29.114  1.00  0.00     0.057 A 
ATOM     62  C   UNL A   1      37.090  32.667  28.657  1.00  0.00     0.134 A 
ATOM     63  C   UNL A   1      35.890  30.608  28.855  1.00  0.00     0.134 A 
ATOM     64  F   UNL A   1      38.166  33.432  28.892  1.00  0.00    -0.206 F 
ATOM     65  C   UNL A   1      36.003  33.245  27.999  1.00  0.00     0.040 A 
ATOM     66  C   UNL A   1      34.808  31.162  28.170  1.00  0.00     0.040 A 
ATOM     67  F   UNL A   1      35.792  29.333  29.261  1.00  0.00    -0.206 F 
ATOM     68  C   UNL A   1      34.858  32.490  27.752  1.00  0.00     0.006 A 
ENDBRANCH  40  61
BRANCH  52  69
ATOM     69  C   UNL A   1      39.185  32.065  35.701  1.00  0.00     0.057 A 
ATOM     70  C   UNL A   1      38.261  31.590  36.642  1.00  0.00     0.134 A 
ATOM     71  C   UNL A   1      39.642  33.380  35.857  1.00  0.00     0.134 A 
ATOM     72  F   UNL A   1      37.776  30.343  36.549  1.00  0.00    -0.206 F 
ATOM     73  C   UNL A   1      37.777  32.405  37.667  1.00  0.00     0.040 A 
ATOM     74  C   UNL A   1      39.192  34.193  36.898  1.00  0.00     0.040 A 
ATOM     75  F   UNL A   1      40.539  33.898  35.003  1.00  0.00    -0.206 F 
ATOM     76  C   UNL A   1      38.246  33.710  37.800  1.00  0.00     0.006 A 
ENDBRANCH  52  69
ENDBRANCH  26  27
ENDBRANCH  19  21
ENDBRANCH  18  19
ENDBRANCH  17  18
ENDBRANCH   1  17
TORSDOF 14
ENDMDL
