MODEL 1
REMARK VINA RESULT:     -10.8      0.000      0.000
REMARK SMILES O=C(OCCOC(=O)c1cc2ccc(F)cc2o1)c1ccc(-c2c3nc(c(-c4c(F)cccc4F)c4ccc([nH]4)c(-c4c(F)cccc4F)c4nc(c(-c5c(F)cccc5F)c5ccc2[nH]5)C=C4)C=C3)cc1
REMARK SMILES IDX 4 1 3 2 2 3 1 4 19 5 20 6 72 7 21 8 71 9 22 10 23 11 24 12
REMARK SMILES IDX 65 13 25 14 70 15 64 16 66 17 26 18 69 19 63 20 62 21 27 23
REMARK SMILES IDX 53 24 36 25 52 26 37 27 40 28 51 29 67 30 38 31 39 32 50 34
REMARK SMILES IDX 68 35 41 36 28 37 29 38 34 39 30 40 31 41 33 42 35 43 32 44
REMARK SMILES IDX 54 45 55 46 60 47 56 48 57 49 59 50 61 51 58 52 42 53 43 54
REMARK SMILES IDX 48 55 44 56 45 57 47 58 49 59 46 60 5 61 6 62 7 63 8 64 9 65
REMARK SMILES IDX 10 66 18 67 11 68 17 69 12 70 16 71 13 72 14 73 15 74
REMARK H PARENT 66 22 40 33
REMARK Flexibility Score: inf
ROOT
ATOM      1  C   UNL A   1      45.823  19.599  24.295  1.00  0.00     0.275 C 
ENDROOT
BRANCH   1   2
ATOM      2  O   UNL A   1      45.753  21.019  24.598  1.00  0.00    -0.458 OA
BRANCH   2   3
ATOM      3  C   UNL A   1      44.779  21.893  24.233  1.00  0.00     0.338 C 
ATOM      4  O   UNL A   1      44.443  22.066  23.069  1.00  0.00    -0.246 OA
BRANCH   3   5
ATOM      5  C   UNL A   1      44.228  22.736  25.299  1.00  0.00     0.060 A 
ATOM      6  C   UNL A   1      43.162  23.565  24.959  1.00  0.00     0.016 A 
ATOM      7  C   UNL A   1      44.859  22.833  26.539  1.00  0.00     0.016 A 
ATOM      8  C   UNL A   1      42.910  24.673  25.746  1.00  0.00     0.010 A 
ATOM      9  C   UNL A   1      44.584  23.930  27.341  1.00  0.00     0.010 A 
ATOM     10  C   UNL A   1      43.682  24.899  26.891  1.00  0.00    -0.014 A 
BRANCH  10  11
ATOM     11  C   UNL A   1      43.429  26.134  27.636  1.00  0.00     0.031 A 
ATOM     12  C   UNL A   1      44.446  27.205  27.439  1.00  0.00     0.074 A 
ATOM     13  C   UNL A   1      42.303  26.368  28.339  1.00  0.00     0.049 A 
ATOM     14  N   UNL A   1      45.097  27.885  28.327  1.00  0.00    -0.248 NA
ATOM     15  C   UNL A   1      44.842  27.487  26.048  1.00  0.00     0.031 C 
ATOM     16  C   UNL A   1      41.104  25.531  28.419  1.00  0.00     0.029 A 
ATOM     17  N   UNL A   1      41.945  27.489  29.032  1.00  0.00    -0.354 N 
ATOM     18  C   UNL A   1      45.860  28.800  27.608  1.00  0.00     0.074 A 
ATOM     19  C   UNL A   1      45.765  28.429  26.219  1.00  0.00     0.031 C 
ATOM     20  C   UNL A   1      40.083  26.270  28.904  1.00  0.00     0.029 A 
ATOM     21  C   UNL A   1      40.579  27.591  29.255  1.00  0.00     0.049 A 
ATOM     22  H   UNL A   1      42.593  28.161  29.345  1.00  0.00     0.167 HD
ATOM     23  C   UNL A   1      46.351  29.943  28.153  1.00  0.00     0.037 A 
ATOM     24  C   UNL A   1      39.888  28.705  29.597  1.00  0.00     0.037 A 
ATOM     25  C   UNL A   1      46.447  29.897  29.582  1.00  0.00     0.049 A 
ATOM     26  C   UNL A   1      40.846  29.707  30.123  1.00  0.00     0.074 A 
ATOM     27  C   UNL A   1      47.103  29.086  30.489  1.00  0.00     0.029 A 
ATOM     28  N   UNL A   1      45.556  30.629  30.325  1.00  0.00    -0.354 N 
ATOM     29  N   UNL A   1      41.432  29.634  31.284  1.00  0.00    -0.248 NA
ATOM     30  C   UNL A   1      41.451  30.632  29.176  1.00  0.00     0.031 C 
ATOM     31  C   UNL A   1      46.246  29.026  31.625  1.00  0.00     0.029 A 
ATOM     32  C   UNL A   1      45.130  29.809  31.338  1.00  0.00     0.049 A 
ATOM     33  H   UNL A   1      45.277  31.559  30.162  1.00  0.00     0.167 HD
ATOM     34  C   UNL A   1      42.695  30.167  31.074  1.00  0.00     0.074 A 
ATOM     35  C   UNL A   1      42.608  30.868  29.797  1.00  0.00     0.031 C 
ATOM     36  C   UNL A   1      43.768  29.759  31.812  1.00  0.00     0.037 A 
BRANCH  23  37
ATOM     37  C   UNL A   1      46.429  31.217  27.366  1.00  0.00     0.057 A 
ATOM     38  C   UNL A   1      45.281  31.873  26.871  1.00  0.00     0.134 A 
ATOM     39  C   UNL A   1      47.621  31.950  27.306  1.00  0.00     0.134 A 
ATOM     40  F   UNL A   1      44.055  31.344  26.996  1.00  0.00    -0.206 F 
ATOM     41  C   UNL A   1      45.322  33.149  26.311  1.00  0.00     0.040 A 
ATOM     42  C   UNL A   1      47.665  33.253  26.794  1.00  0.00     0.040 A 
ATOM     43  F   UNL A   1      48.761  31.446  27.801  1.00  0.00    -0.206 F 
ATOM     44  C   UNL A   1      46.515  33.853  26.289  1.00  0.00     0.006 A 
ENDBRANCH  23  37
BRANCH  24  45
ATOM     45  C   UNL A   1      38.488  29.053  29.260  1.00  0.00     0.057 A 
ATOM     46  C   UNL A   1      38.120  29.495  27.976  1.00  0.00     0.134 A 
ATOM     47  C   UNL A   1      37.510  29.187  30.255  1.00  0.00     0.134 A 
ATOM     48  F   UNL A   1      39.002  29.513  26.965  1.00  0.00    -0.206 F 
ATOM     49  C   UNL A   1      36.856  30.019  27.693  1.00  0.00     0.040 A 
ATOM     50  C   UNL A   1      36.245  29.726  29.989  1.00  0.00     0.040 A 
ATOM     51  F   UNL A   1      37.777  28.845  31.524  1.00  0.00    -0.206 F 
ATOM     52  C   UNL A   1      35.915  30.147  28.704  1.00  0.00     0.006 A 
ENDBRANCH  24  45
BRANCH  36  53
ATOM     53  C   UNL A   1      43.500  28.931  33.034  1.00  0.00     0.057 A 
ATOM     54  C   UNL A   1      43.544  29.538  34.294  1.00  0.00     0.134 A 
ATOM     55  C   UNL A   1      43.332  27.538  33.003  1.00  0.00     0.134 A 
ATOM     56  F   UNL A   1      43.765  30.858  34.403  1.00  0.00    -0.206 F 
ATOM     57  C   UNL A   1      43.405  28.799  35.471  1.00  0.00     0.040 A 
ATOM     58  C   UNL A   1      43.160  26.792  34.171  1.00  0.00     0.040 A 
ATOM     59  F   UNL A   1      43.384  26.861  31.847  1.00  0.00    -0.206 F 
ATOM     60  C   UNL A   1      43.199  27.423  35.411  1.00  0.00     0.006 A 
ENDBRANCH  36  53
ENDBRANCH  10  11
ENDBRANCH   3   5
ENDBRANCH   2   3
ENDBRANCH   1   2
BRANCH   1  61
ATOM     61  C   UNL A   1      45.085  18.645  25.248  1.00  0.00     0.275 C 
BRANCH  61  62
ATOM     62  O   UNL A   1      43.665  18.735  25.114  1.00  0.00    -0.456 OA
BRANCH  62  63
ATOM     63  C   UNL A   1      42.978  18.333  26.232  1.00  0.00     0.374 C 
ATOM     64  O   UNL A   1      43.121  17.250  26.772  1.00  0.00    -0.242 OA
BRANCH  63  65
ATOM     65  C   UNL A   1      41.978  19.330  26.531  1.00  0.00     0.212 A 
ATOM     66  C   UNL A   1      42.027  20.491  27.281  1.00  0.00     0.067 A 
ATOM     67  O   UNL A   1      40.783  19.269  25.861  1.00  0.00    -0.449 OA
ATOM     68  C   UNL A   1      40.853  21.229  26.979  1.00  0.00     0.021 A 
ATOM     69  C   UNL A   1      40.130  20.441  26.090  1.00  0.00     0.138 A 
ATOM     70  C   UNL A   1      40.355  22.498  27.318  1.00  0.00     0.015 A 
ATOM     71  C   UNL A   1      38.938  20.833  25.486  1.00  0.00     0.087 A 
ATOM     72  C   UNL A   1      39.159  22.925  26.725  1.00  0.00     0.040 A 
ATOM     73  C   UNL A   1      38.479  22.104  25.826  1.00  0.00     0.126 A 
ATOM     74  F   UNL A   1      37.353  22.562  25.261  1.00  0.00    -0.207 F 
ENDBRANCH  63  65
ENDBRANCH  62  63
ENDBRANCH  61  62
ENDBRANCH   1  61
TORSDOF 11
ENDMDL
MODEL 2
REMARK VINA RESULT:     -10.7      2.251      6.736
REMARK SMILES O=C(OCCOC(=O)c1cc2ccc(F)cc2o1)c1ccc(-c2c3nc(c(-c4c(F)cccc4F)c4ccc([nH]4)c(-c4c(F)cccc4F)c4nc(c(-c5c(F)cccc5F)c5ccc2[nH]5)C=C4)C=C3)cc1
REMARK SMILES IDX 4 1 3 2 2 3 1 4 19 5 20 6 72 7 21 8 71 9 22 10 23 11 24 12
REMARK SMILES IDX 65 13 25 14 70 15 64 16 66 17 26 18 69 19 63 20 62 21 27 23
REMARK SMILES IDX 53 24 36 25 52 26 37 27 40 28 51 29 67 30 38 31 39 32 50 34
REMARK SMILES IDX 68 35 41 36 28 37 29 38 34 39 30 40 31 41 33 42 35 43 32 44
REMARK SMILES IDX 54 45 55 46 60 47 56 48 57 49 59 50 61 51 58 52 42 53 43 54
REMARK SMILES IDX 48 55 44 56 45 57 47 58 49 59 46 60 5 61 6 62 7 63 8 64 9 65
REMARK SMILES IDX 10 66 18 67 11 68 17 69 12 70 16 71 13 72 14 73 15 74
REMARK H PARENT 66 22 40 33
REMARK Flexibility Score: inf
ROOT
ATOM      1  C   UNL A   1      42.861  18.015  26.369  1.00  0.00     0.275 C 
ENDROOT
BRANCH   1   2
ATOM      2  O   UNL A   1      41.642  18.459  25.712  1.00  0.00    -0.458 OA
BRANCH   2   3
ATOM      3  C   UNL A   1      40.887  19.545  26.023  1.00  0.00     0.338 C 
ATOM      4  O   UNL A   1      39.702  19.635  25.734  1.00  0.00    -0.246 OA
BRANCH   3   5
ATOM      5  C   UNL A   1      41.597  20.683  26.615  1.00  0.00     0.060 A 
ATOM      6  C   UNL A   1      41.682  20.719  28.004  1.00  0.00     0.016 A 
ATOM      7  C   UNL A   1      42.005  21.763  25.832  1.00  0.00     0.016 A 
ATOM      8  C   UNL A   1      41.913  21.934  28.621  1.00  0.00     0.010 A 
ATOM      9  C   UNL A   1      42.263  22.975  26.454  1.00  0.00     0.010 A 
ATOM     10  C   UNL A   1      42.116  23.079  27.841  1.00  0.00    -0.014 A 
BRANCH  10  11
ATOM     11  C   UNL A   1      42.266  24.352  28.547  1.00  0.00     0.031 A 
ATOM     12  C   UNL A   1      41.162  25.327  28.323  1.00  0.00     0.074 A 
ATOM     13  C   UNL A   1      43.239  24.601  29.446  1.00  0.00     0.049 A 
ATOM     14  N   UNL A   1      41.230  26.569  27.964  1.00  0.00    -0.248 NA
ATOM     15  C   UNL A   1      39.790  24.804  28.443  1.00  0.00     0.031 C 
ATOM     16  C   UNL A   1      44.239  23.667  29.969  1.00  0.00     0.029 A 
ATOM     17  N   UNL A   1      43.449  25.727  30.190  1.00  0.00    -0.354 N 
ATOM     18  C   UNL A   1      39.918  27.031  27.976  1.00  0.00     0.074 A 
ATOM     19  C   UNL A   1      39.066  25.882  28.150  1.00  0.00     0.031 C 
ATOM     20  C   UNL A   1      44.775  24.181  31.096  1.00  0.00     0.029 A 
ATOM     21  C   UNL A   1      44.229  25.510  31.318  1.00  0.00     0.049 A 
ATOM     22  H   UNL A   1      43.084  26.609  29.949  1.00  0.00     0.167 HD
ATOM     23  C   UNL A   1      39.600  28.349  28.065  1.00  0.00     0.037 A 
ATOM     24  C   UNL A   1      44.334  26.313  32.405  1.00  0.00     0.037 A 
ATOM     25  C   UNL A   1      40.662  29.220  27.661  1.00  0.00     0.049 A 
ATOM     26  C   UNL A   1      43.839  27.662  32.040  1.00  0.00     0.074 A 
ATOM     27  C   UNL A   1      41.393  29.392  26.500  1.00  0.00     0.029 A 
ATOM     28  N   UNL A   1      41.335  29.928  28.624  1.00  0.00    -0.354 N 
ATOM     29  N   UNL A   1      44.474  28.503  31.275  1.00  0.00    -0.248 NA
ATOM     30  C   UNL A   1      42.424  27.943  32.235  1.00  0.00     0.031 C 
ATOM     31  C   UNL A   1      42.695  29.776  26.931  1.00  0.00     0.029 A 
ATOM     32  C   UNL A   1      42.669  29.820  28.324  1.00  0.00     0.049 A 
ATOM     33  H   UNL A   1      40.939  30.416  29.381  1.00  0.00     0.167 HD
ATOM     34  C   UNL A   1      43.477  29.157  30.567  1.00  0.00     0.074 A 
ATOM     35  C   UNL A   1      42.240  28.856  31.280  1.00  0.00     0.031 C 
ATOM     36  C   UNL A   1      43.703  29.648  29.314  1.00  0.00     0.037 A 
BRANCH  23  37
ATOM     37  C   UNL A   1      38.406  28.816  28.845  1.00  0.00     0.057 A 
ATOM     38  C   UNL A   1      38.286  28.617  30.237  1.00  0.00     0.134 A 
ATOM     39  C   UNL A   1      37.478  29.696  28.274  1.00  0.00     0.134 A 
ATOM     40  F   UNL A   1      39.191  27.912  30.932  1.00  0.00    -0.206 F 
ATOM     41  C   UNL A   1      37.283  29.212  31.002  1.00  0.00     0.040 A 
ATOM     42  C   UNL A   1      36.501  30.342  29.042  1.00  0.00     0.040 A 
ATOM     43  F   UNL A   1      37.537  30.004  26.970  1.00  0.00    -0.206 F 
ATOM     44  C   UNL A   1      36.397  30.095  30.407  1.00  0.00     0.006 A 
ENDBRANCH  23  37
BRANCH  24  45
ATOM     45  C   UNL A   1      44.595  25.921  33.810  1.00  0.00     0.057 A 
ATOM     46  C   UNL A   1      45.900  25.714  34.293  1.00  0.00     0.134 A 
ATOM     47  C   UNL A   1      43.557  25.510  34.656  1.00  0.00     0.134 A 
ATOM     48  F   UNL A   1      46.974  25.972  33.534  1.00  0.00    -0.206 F 
ATOM     49  C   UNL A   1      46.158  25.151  35.546  1.00  0.00     0.040 A 
ATOM     50  C   UNL A   1      43.802  24.929  35.907  1.00  0.00     0.040 A 
ATOM     51  F   UNL A   1      42.277  25.614  34.268  1.00  0.00    -0.206 F 
ATOM     52  C   UNL A   1      45.107  24.745  36.355  1.00  0.00     0.006 A 
ENDBRANCH  24  45
BRANCH  36  53
ATOM     53  C   UNL A   1      45.125  29.711  28.836  1.00  0.00     0.057 A 
ATOM     54  C   UNL A   1      45.687  28.592  28.213  1.00  0.00     0.134 A 
ATOM     55  C   UNL A   1      45.979  30.793  29.096  1.00  0.00     0.134 A 
ATOM     56  F   UNL A   1      44.944  27.495  27.990  1.00  0.00    -0.206 F 
ATOM     57  C   UNL A   1      47.033  28.556  27.841  1.00  0.00     0.040 A 
ATOM     58  C   UNL A   1      47.319  30.783  28.701  1.00  0.00     0.040 A 
ATOM     59  F   UNL A   1      45.553  31.862  29.782  1.00  0.00    -0.206 F 
ATOM     60  C   UNL A   1      47.850  29.660  28.073  1.00  0.00     0.006 A 
ENDBRANCH  36  53
ENDBRANCH  10  11
ENDBRANCH   3   5
ENDBRANCH   2   3
ENDBRANCH   1   2
BRANCH   1  61
ATOM     61  C   UNL A   1      44.193  18.438  25.730  1.00  0.00     0.275 C 
BRANCH  61  62
ATOM     62  O   UNL A   1      44.004  19.173  24.520  1.00  0.00    -0.456 OA
BRANCH  62  63
ATOM     63  C   UNL A   1      45.176  19.581  23.933  1.00  0.00     0.374 C 
ATOM     64  O   UNL A   1      45.941  18.840  23.339  1.00  0.00    -0.242 OA
BRANCH  63  65
ATOM     65  C   UNL A   1      45.400  20.963  24.283  1.00  0.00     0.212 A 
ATOM     66  C   UNL A   1      44.948  22.144  23.723  1.00  0.00     0.067 A 
ATOM     67  O   UNL A   1      46.036  21.235  25.467  1.00  0.00    -0.449 OA
ATOM     68  C   UNL A   1      45.228  23.178  24.652  1.00  0.00     0.021 A 
ATOM     69  C   UNL A   1      45.883  22.565  25.714  1.00  0.00     0.138 A 
ATOM     70  C   UNL A   1      44.947  24.553  24.733  1.00  0.00     0.015 A 
ATOM     71  C   UNL A   1      46.271  23.221  26.879  1.00  0.00     0.087 A 
ATOM     72  C   UNL A   1      45.320  25.242  25.894  1.00  0.00     0.040 A 
ATOM     73  C   UNL A   1      45.962  24.578  26.940  1.00  0.00     0.126 A 
ATOM     74  F   UNL A   1      46.278  25.269  28.044  1.00  0.00    -0.207 F 
ENDBRANCH  63  65
ENDBRANCH  62  63
ENDBRANCH  61  62
ENDBRANCH   1  61
TORSDOF 11
ENDMDL
MODEL 3
REMARK VINA RESULT:     -10.6      1.925      3.514
REMARK SMILES O=C(OCCOC(=O)c1cc2ccc(F)cc2o1)c1ccc(-c2c3nc(c(-c4c(F)cccc4F)c4ccc([nH]4)c(-c4c(F)cccc4F)c4nc(c(-c5c(F)cccc5F)c5ccc2[nH]5)C=C4)C=C3)cc1
REMARK SMILES IDX 4 1 3 2 2 3 1 4 19 5 20 6 72 7 21 8 71 9 22 10 23 11 24 12
REMARK SMILES IDX 65 13 25 14 70 15 64 16 66 17 26 18 69 19 63 20 62 21 27 23
REMARK SMILES IDX 53 24 36 25 52 26 37 27 40 28 51 29 67 30 38 31 39 32 50 34
REMARK SMILES IDX 68 35 41 36 28 37 29 38 34 39 30 40 31 41 33 42 35 43 32 44
REMARK SMILES IDX 54 45 55 46 60 47 56 48 57 49 59 50 61 51 58 52 42 53 43 54
REMARK SMILES IDX 48 55 44 56 45 57 47 58 49 59 46 60 5 61 6 62 7 63 8 64 9 65
REMARK SMILES IDX 10 66 18 67 11 68 17 69 12 70 16 71 13 72 14 73 15 74
REMARK H PARENT 66 22 40 33
REMARK Flexibility Score: inf
ROOT
ATOM      1  C   UNL A   1      41.937  19.759  26.055  1.00  0.00     0.275 C 
ENDROOT
BRANCH   1   2
ATOM      2  O   UNL A   1      41.939  21.199  25.852  1.00  0.00    -0.458 OA
BRANCH   2   3
ATOM      3  C   UNL A   1      40.974  22.083  26.217  1.00  0.00     0.338 C 
ATOM      4  O   UNL A   1      39.779  21.834  26.139  1.00  0.00    -0.246 OA
BRANCH   3   5
ATOM      5  C   UNL A   1      41.432  23.426  26.589  1.00  0.00     0.060 A 
ATOM      6  C   UNL A   1      42.236  23.526  27.722  1.00  0.00     0.016 A 
ATOM      7  C   UNL A   1      40.935  24.560  25.947  1.00  0.00     0.016 A 
ATOM      8  C   UNL A   1      42.313  24.743  28.372  1.00  0.00     0.010 A 
ATOM      9  C   UNL A   1      41.037  25.786  26.586  1.00  0.00     0.010 A 
ATOM     10  C   UNL A   1      41.639  25.853  27.847  1.00  0.00    -0.014 A 
BRANCH  10  11
ATOM     11  C   UNL A   1      41.683  27.092  28.625  1.00  0.00     0.031 A 
ATOM     12  C   UNL A   1      42.858  27.965  28.347  1.00  0.00     0.074 A 
ATOM     13  C   UNL A   1      40.686  27.507  29.432  1.00  0.00     0.049 A 
ATOM     14  N   UNL A   1      43.697  28.492  29.179  1.00  0.00    -0.248 NA
ATOM     15  C   UNL A   1      43.173  28.210  26.929  1.00  0.00     0.031 C 
ATOM     16  C   UNL A   1      39.366  26.899  29.612  1.00  0.00     0.029 A 
ATOM     17  N   UNL A   1      40.601  28.655  30.166  1.00  0.00    -0.354 N 
ATOM     18  C   UNL A   1      44.548  29.273  28.403  1.00  0.00     0.074 A 
ATOM     19  C   UNL A   1      44.265  28.964  27.024  1.00  0.00     0.031 C 
ATOM     20  C   UNL A   1      38.544  27.797  30.197  1.00  0.00     0.029 A 
ATOM     21  C   UNL A   1      39.302  28.996  30.516  1.00  0.00     0.049 A 
ATOM     22  H   UNL A   1      41.387  29.189  30.425  1.00  0.00     0.167 HD
ATOM     23  C   UNL A   1      45.287  30.292  28.913  1.00  0.00     0.037 A 
ATOM     24  C   UNL A   1      38.860  30.208  30.931  1.00  0.00     0.037 A 
ATOM     25  C   UNL A   1      45.498  30.191  30.326  1.00  0.00     0.049 A 
ATOM     26  C   UNL A   1      40.028  31.004  31.378  1.00  0.00     0.074 A 
ATOM     27  C   UNL A   1      46.073  29.250  31.160  1.00  0.00     0.029 A 
ATOM     28  N   UNL A   1      44.826  31.051  31.155  1.00  0.00    -0.354 N 
ATOM     29  N   UNL A   1      40.691  30.795  32.479  1.00  0.00    -0.248 NA
ATOM     30  C   UNL A   1      40.705  31.830  30.389  1.00  0.00     0.031 C 
ATOM     31  C   UNL A   1      45.323  29.315  32.370  1.00  0.00     0.029 A 
ATOM     32  C   UNL A   1      44.348  30.295  32.195  1.00  0.00     0.049 A 
ATOM     33  H   UNL A   1      44.708  32.021  31.029  1.00  0.00     0.167 HD
ATOM     34  C   UNL A   1      42.007  31.096  32.159  1.00  0.00     0.074 A 
ATOM     35  C   UNL A   1      41.937  31.835  30.904  1.00  0.00     0.031 C 
ATOM     36  C   UNL A   1      43.048  30.479  32.791  1.00  0.00     0.037 A 
BRANCH  23  37
ATOM     37  C   UNL A   1      45.526  31.553  28.135  1.00  0.00     0.057 A 
ATOM     38  C   UNL A   1      46.767  31.844  27.527  1.00  0.00     0.134 A 
ATOM     39  C   UNL A   1      44.457  32.376  27.760  1.00  0.00     0.134 A 
ATOM     40  F   UNL A   1      47.837  31.052  27.689  1.00  0.00    -0.206 F 
ATOM     41  C   UNL A   1      46.945  32.909  26.645  1.00  0.00     0.040 A 
ATOM     42  C   UNL A   1      44.612  33.415  26.834  1.00  0.00     0.040 A 
ATOM     43  F   UNL A   1      43.222  32.152  28.231  1.00  0.00    -0.206 F 
ATOM     44  C   UNL A   1      45.859  33.689  26.280  1.00  0.00     0.006 A 
ENDBRANCH  23  37
BRANCH  24  45
ATOM     45  C   UNL A   1      37.523  30.813  30.728  1.00  0.00     0.057 A 
ATOM     46  C   UNL A   1      37.118  31.319  29.480  1.00  0.00     0.134 A 
ATOM     47  C   UNL A   1      36.691  31.123  31.813  1.00  0.00     0.134 A 
ATOM     48  F   UNL A   1      37.883  31.176  28.388  1.00  0.00    -0.206 F 
ATOM     49  C   UNL A   1      35.952  32.072  29.314  1.00  0.00     0.040 A 
ATOM     50  C   UNL A   1      35.528  31.891  31.664  1.00  0.00     0.040 A 
ATOM     51  F   UNL A   1      37.014  30.733  33.054  1.00  0.00    -0.206 F 
ATOM     52  C   UNL A   1      35.157  32.370  30.411  1.00  0.00     0.006 A 
ENDBRANCH  24  45
BRANCH  36  53
ATOM     53  C   UNL A   1      42.741  29.681  34.024  1.00  0.00     0.057 A 
ATOM     54  C   UNL A   1      42.292  28.362  33.890  1.00  0.00     0.134 A 
ATOM     55  C   UNL A   1      42.752  30.223  35.318  1.00  0.00     0.134 A 
ATOM     56  F   UNL A   1      42.195  27.799  32.675  1.00  0.00    -0.206 F 
ATOM     57  C   UNL A   1      41.894  27.606  34.995  1.00  0.00     0.040 A 
ATOM     58  C   UNL A   1      42.386  29.467  36.434  1.00  0.00     0.040 A 
ATOM     59  F   UNL A   1      43.066  31.509  35.527  1.00  0.00    -0.206 F 
ATOM     60  C   UNL A   1      41.953  28.155  36.274  1.00  0.00     0.006 A 
ENDBRANCH  36  53
ENDBRANCH  10  11
ENDBRANCH   3   5
ENDBRANCH   2   3
ENDBRANCH   1   2
BRANCH   1  61
ATOM     61  C   UNL A   1      43.253  19.014  25.781  1.00  0.00     0.275 C 
BRANCH  61  62
ATOM     62  O   UNL A   1      43.794  19.323  24.496  1.00  0.00    -0.456 OA
BRANCH  62  63
ATOM     63  C   UNL A   1      45.132  19.628  24.519  1.00  0.00     0.374 C 
ATOM     64  O   UNL A   1      46.026  18.800  24.500  1.00  0.00    -0.242 OA
BRANCH  63  65
ATOM     65  C   UNL A   1      45.268  21.050  24.730  1.00  0.00     0.212 A 
ATOM     66  C   UNL A   1      44.741  22.139  24.059  1.00  0.00     0.067 A 
ATOM     67  O   UNL A   1      45.886  21.477  25.877  1.00  0.00    -0.449 OA
ATOM     68  C   UNL A   1      44.956  23.275  24.880  1.00  0.00     0.021 A 
ATOM     69  C   UNL A   1      45.649  22.813  25.993  1.00  0.00     0.138 A 
ATOM     70  C   UNL A   1      44.587  24.631  24.827  1.00  0.00     0.015 A 
ATOM     71  C   UNL A   1      45.995  23.603  27.085  1.00  0.00     0.087 A 
ATOM     72  C   UNL A   1      44.917  25.453  25.912  1.00  0.00     0.040 A 
ATOM     73  C   UNL A   1      45.600  24.938  27.014  1.00  0.00     0.126 A 
ATOM     74  F   UNL A   1      45.872  25.753  28.042  1.00  0.00    -0.207 F 
ENDBRANCH  63  65
ENDBRANCH  62  63
ENDBRANCH  61  62
ENDBRANCH   1  61
TORSDOF 11
ENDMDL
