MODEL 1
REMARK VINA RESULT:     -11.9      0.000      0.000
REMARK SMILES Cc1ccc(C(=O)OCCOC(=O)c2ccc(-c3c4nc(c(-c5c(F)cccc5F)c5ccc([nH]5)c(-c5c(F)cccc5F)c5nc(c(-c6c(F)cccc6F)c6ccc3[nH]6)C=C5)C=C4)cc2)cc1CNC(=O)C[N@@H+]1CCC[C@]2(CCOC2)C1
REMARK SMILES IDX 9 1 8 2 6 3 7 4 5 5 1 6 2 7 3 8 69 9 4 10 68 11 70 12 71 13
REMARK SMILES IDX 72 14 73 16 74 17 75 18 76 19 84 20 77 22 79 23 78 24 80 25
REMARK SMILES IDX 83 26 81 27 82 28 10 29 11 30 12 31 13 32 14 33 15 34 67 35
REMARK SMILES IDX 16 36 66 37 17 38 18 39 19 40 60 41 20 42 65 43 59 44 61 45
REMARK SMILES IDX 21 46 64 47 58 48 57 49 22 51 48 52 31 53 47 54 32 55 35 56
REMARK SMILES IDX 46 57 62 58 33 59 34 60 45 62 63 63 36 64 23 65 24 66 29 67
REMARK SMILES IDX 25 68 26 69 28 70 30 71 27 72 49 73 50 74 55 75 51 76 52 77
REMARK SMILES IDX 54 78 56 79 53 80 37 81 38 82 43 83 39 84 40 85 42 86 44 87
REMARK SMILES IDX 41 88
REMARK H PARENT 71 15 75 21 61 50 35 61
REMARK Flexibility Score: inf
ROOT
ATOM      1  C   UNL A   1      32.905  35.948  29.531  1.00  0.00     0.275 C 
ENDROOT
BRANCH   1   2
ATOM      2  O   UNL A   1      34.027  35.208  29.020  1.00  0.00    -0.458 OA
BRANCH   2   3
ATOM      3  C   UNL A   1      33.629  34.080  28.378  1.00  0.00     0.338 C 
ATOM      4  O   UNL A   1      32.491  33.855  27.983  1.00  0.00    -0.246 OA
BRANCH   3   5
ATOM      5  C   UNL A   1      34.639  33.010  28.317  1.00  0.00     0.060 A 
ATOM      6  C   UNL A   1      37.249  29.705  27.346  1.00  0.00     0.044 C 
ATOM      7  C   UNL A   1      36.281  30.789  27.732  1.00  0.00    -0.046 A 
ATOM      8  C   UNL A   1      36.809  31.988  28.275  1.00  0.00     0.004 A 
ATOM      9  C   UNL A   1      34.898  30.692  27.543  1.00  0.00    -0.025 A 
ATOM     10  C   UNL A   1      35.988  33.080  28.610  1.00  0.00     0.016 A 
ATOM     11  C   UNL A   1      34.135  31.839  27.779  1.00  0.00     0.021 A 
BRANCH   9  12
ATOM     12  C   UNL A   1      34.102  29.470  27.143  1.00  0.00     0.152 C 
BRANCH  12  13
ATOM     13  N   UNL A   1      33.536  29.706  25.815  1.00  0.00    -0.347 N 
ATOM     14  C   UNL A   1      33.472  28.845  24.754  1.00  0.00     0.275 C 
ATOM     15  H   UNL A   1      33.152  30.600  25.667  1.00  0.00     0.164 HD
ATOM     16  O   UNL A   1      33.393  29.322  23.618  1.00  0.00    -0.268 OA
BRANCH  14  17
ATOM     17  C   UNL A   1      33.440  27.334  24.985  1.00  0.00     0.363 C 
BRANCH  17  18
ATOM     18  N   UNL A   1      32.347  26.864  25.857  1.00  0.00    -0.327 N 
ATOM     19  C   UNL A   1      32.378  25.421  26.143  1.00  0.00     0.262 C 
ATOM     20  C   UNL A   1      31.008  27.226  25.355  1.00  0.00     0.272 C 
ATOM     21  H   UNL A   1      32.520  27.359  26.732  1.00  0.00     0.348 HD
ATOM     22  C   UNL A   1      32.055  24.552  24.932  1.00  0.00     0.062 C 
ATOM     23  C   UNL A   1      30.511  26.445  24.112  1.00  0.00     0.045 C 
ATOM     24  C   UNL A   1      30.716  24.931  24.311  1.00  0.00     0.021 C 
ATOM     25  C   UNL A   1      31.073  27.015  22.809  1.00  0.00     0.043 C 
ATOM     26  C   UNL A   1      29.020  26.699  23.882  1.00  0.00     0.173 C 
ATOM     27  C   UNL A   1      30.074  28.083  22.382  1.00  0.00     0.161 C 
ATOM     28  O   UNL A   1      28.918  27.951  23.210  1.00  0.00    -0.381 OA
ENDBRANCH  17  18
ENDBRANCH  14  17
ENDBRANCH  12  13
ENDBRANCH   9  12
ENDBRANCH   3   5
ENDBRANCH   2   3
ENDBRANCH   1   2
BRANCH   1  29
ATOM     29  C   UNL A   1      32.986  36.282  31.024  1.00  0.00     0.275 C 
BRANCH  29  30
ATOM     30  O   UNL A   1      34.024  35.686  31.852  1.00  0.00    -0.458 OA
BRANCH  30  31
ATOM     31  C   UNL A   1      34.069  34.464  32.423  1.00  0.00     0.338 C 
ATOM     32  O   UNL A   1      33.068  33.925  32.891  1.00  0.00    -0.246 OA
BRANCH  31  33
ATOM     33  C   UNL A   1      35.358  33.768  32.466  1.00  0.00     0.060 A 
ATOM     34  C   UNL A   1      36.413  34.258  31.675  1.00  0.00     0.016 A 
ATOM     35  C   UNL A   1      35.543  32.701  33.339  1.00  0.00     0.016 A 
ATOM     36  C   UNL A   1      37.687  33.732  31.805  1.00  0.00     0.010 A 
ATOM     37  C   UNL A   1      36.821  32.265  33.574  1.00  0.00     0.010 A 
ATOM     38  C   UNL A   1      37.866  32.726  32.748  1.00  0.00    -0.014 A 
BRANCH  38  39
ATOM     39  C   UNL A   1      38.921  31.743  32.619  1.00  0.00     0.031 A 
ATOM     40  C   UNL A   1      38.741  30.482  31.896  1.00  0.00     0.074 A 
ATOM     41  C   UNL A   1      40.087  32.323  32.984  1.00  0.00     0.049 A 
ATOM     42  N   UNL A   1      39.628  29.553  31.875  1.00  0.00    -0.248 NA
ATOM     43  C   UNL A   1      37.534  30.116  31.156  1.00  0.00     0.031 C 
ATOM     44  C   UNL A   1      41.463  32.057  32.628  1.00  0.00     0.029 A 
ATOM     45  N   UNL A   1      40.189  33.365  33.927  1.00  0.00    -0.354 N 
ATOM     46  C   UNL A   1      39.302  28.699  30.843  1.00  0.00     0.074 A 
ATOM     47  C   UNL A   1      37.929  28.994  30.538  1.00  0.00     0.031 C 
ATOM     48  C   UNL A   1      42.259  32.645  33.547  1.00  0.00     0.029 A 
ATOM     49  C   UNL A   1      41.393  33.177  34.597  1.00  0.00     0.049 A 
ATOM     50  H   UNL A   1      39.534  34.084  34.082  1.00  0.00     0.167 HD
ATOM     51  C   UNL A   1      40.314  28.005  30.245  1.00  0.00     0.037 A 
ATOM     52  C   UNL A   1      41.312  32.712  35.881  1.00  0.00     0.037 A 
ATOM     53  C   UNL A   1      41.551  28.231  30.982  1.00  0.00     0.049 A 
ATOM     54  C   UNL A   1      41.840  31.298  35.950  1.00  0.00     0.074 A 
ATOM     55  C   UNL A   1      42.573  29.150  30.816  1.00  0.00     0.029 A 
ATOM     56  N   UNL A   1      41.621  27.795  32.298  1.00  0.00    -0.354 N 
ATOM     57  N   UNL A   1      41.756  30.429  34.975  1.00  0.00    -0.248 NA
ATOM     58  C   UNL A   1      42.611  30.802  37.083  1.00  0.00     0.031 C 
ATOM     59  C   UNL A   1      43.193  29.340  32.080  1.00  0.00     0.029 A 
ATOM     60  C   UNL A   1      42.536  28.548  33.007  1.00  0.00     0.049 A 
ATOM     61  H   UNL A   1      41.092  27.055  32.674  1.00  0.00     0.167 HD
ATOM     62  C   UNL A   1      42.514  29.332  35.284  1.00  0.00     0.074 A 
ATOM     63  C   UNL A   1      43.001  29.598  36.626  1.00  0.00     0.031 C 
ATOM     64  C   UNL A   1      42.736  28.296  34.422  1.00  0.00     0.037 A 
BRANCH  51  65
ATOM     65  C   UNL A   1      40.263  27.433  28.849  1.00  0.00     0.057 A 
ATOM     66  C   UNL A   1      39.612  26.206  28.597  1.00  0.00     0.134 A 
ATOM     67  C   UNL A   1      40.863  28.012  27.722  1.00  0.00     0.134 A 
ATOM     68  F   UNL A   1      38.920  25.566  29.547  1.00  0.00    -0.206 F 
ATOM     69  C   UNL A   1      39.643  25.559  27.355  1.00  0.00     0.040 A 
ATOM     70  C   UNL A   1      40.922  27.363  26.474  1.00  0.00     0.040 A 
ATOM     71  F   UNL A   1      41.394  29.240  27.776  1.00  0.00    -0.206 F 
ATOM     72  C   UNL A   1      40.325  26.122  26.292  1.00  0.00     0.006 A 
ENDBRANCH  51  65
BRANCH  52  73
ATOM     73  C   UNL A   1      40.144  33.273  36.649  1.00  0.00     0.057 A 
ATOM     74  C   UNL A   1      38.994  32.465  36.814  1.00  0.00     0.134 A 
ATOM     75  C   UNL A   1      40.211  34.410  37.460  1.00  0.00     0.134 A 
ATOM     76  F   UNL A   1      38.843  31.351  36.078  1.00  0.00    -0.206 F 
ATOM     77  C   UNL A   1      38.026  32.712  37.796  1.00  0.00     0.040 A 
ATOM     78  C   UNL A   1      39.229  34.686  38.432  1.00  0.00     0.040 A 
ATOM     79  F   UNL A   1      41.264  35.237  37.396  1.00  0.00    -0.206 F 
ATOM     80  C   UNL A   1      38.150  33.821  38.622  1.00  0.00     0.006 A 
ENDBRANCH  52  73
BRANCH  64  81
ATOM     81  C   UNL A   1      43.222  26.931  34.826  1.00  0.00     0.057 A 
ATOM     82  C   UNL A   1      42.399  25.975  35.433  1.00  0.00     0.134 A 
ATOM     83  C   UNL A   1      44.488  26.463  34.403  1.00  0.00     0.134 A 
ATOM     84  F   UNL A   1      41.135  26.250  35.779  1.00  0.00    -0.206 F 
ATOM     85  C   UNL A   1      42.823  24.661  35.654  1.00  0.00     0.040 A 
ATOM     86  C   UNL A   1      44.889  25.136  34.548  1.00  0.00     0.040 A 
ATOM     87  F   UNL A   1      45.373  27.263  33.788  1.00  0.00    -0.206 F 
ATOM     88  C   UNL A   1      44.061  24.233  35.193  1.00  0.00     0.006 A 
ENDBRANCH  64  81
ENDBRANCH  38  39
ENDBRANCH  31  33
ENDBRANCH  30  31
ENDBRANCH  29  30
ENDBRANCH   1  29
TORSDOF 15
ENDMDL
MODEL 2
REMARK VINA RESULT:     -11.9      0.850      1.463
REMARK SMILES Cc1ccc(C(=O)OCCOC(=O)c2ccc(-c3c4nc(c(-c5c(F)cccc5F)c5ccc([nH]5)c(-c5c(F)cccc5F)c5nc(c(-c6c(F)cccc6F)c6ccc3[nH]6)C=C5)C=C4)cc2)cc1CNC(=O)C[N@@H+]1CCC[C@]2(CCOC2)C1
REMARK SMILES IDX 9 1 8 2 6 3 7 4 5 5 1 6 2 7 3 8 69 9 4 10 68 11 70 12 71 13
REMARK SMILES IDX 72 14 73 16 74 17 75 18 76 19 84 20 77 22 79 23 78 24 80 25
REMARK SMILES IDX 83 26 81 27 82 28 10 29 11 30 12 31 13 32 14 33 15 34 67 35
REMARK SMILES IDX 16 36 66 37 17 38 18 39 19 40 60 41 20 42 65 43 59 44 61 45
REMARK SMILES IDX 21 46 64 47 58 48 57 49 22 51 48 52 31 53 47 54 32 55 35 56
REMARK SMILES IDX 46 57 62 58 33 59 34 60 45 62 63 63 36 64 23 65 24 66 29 67
REMARK SMILES IDX 25 68 26 69 28 70 30 71 27 72 49 73 50 74 55 75 51 76 52 77
REMARK SMILES IDX 54 78 56 79 53 80 37 81 38 82 43 83 39 84 40 85 42 86 44 87
REMARK SMILES IDX 41 88
REMARK H PARENT 71 15 75 21 61 50 35 61
REMARK Flexibility Score: inf
ROOT
ATOM      1  C   UNL A   1      33.011  36.137  29.421  1.00  0.00     0.275 C 
ENDROOT
BRANCH   1   2
ATOM      2  O   UNL A   1      34.087  35.338  28.901  1.00  0.00    -0.458 OA
BRANCH   2   3
ATOM      3  C   UNL A   1      33.629  34.189  28.343  1.00  0.00     0.338 C 
ATOM      4  O   UNL A   1      32.471  33.981  28.001  1.00  0.00    -0.246 OA
BRANCH   3   5
ATOM      5  C   UNL A   1      34.600  33.083  28.313  1.00  0.00     0.060 A 
ATOM      6  C   UNL A   1      37.127  29.693  27.415  1.00  0.00     0.044 C 
ATOM      7  C   UNL A   1      36.183  30.808  27.772  1.00  0.00    -0.046 A 
ATOM      8  C   UNL A   1      36.730  31.979  28.355  1.00  0.00     0.004 A 
ATOM      9  C   UNL A   1      34.808  30.766  27.519  1.00  0.00    -0.025 A 
ATOM     10  C   UNL A   1      35.936  33.098  28.667  1.00  0.00     0.016 A 
ATOM     11  C   UNL A   1      34.078  31.938  27.736  1.00  0.00     0.021 A 
BRANCH   9  12
ATOM     12  C   UNL A   1      33.986  29.580  27.065  1.00  0.00     0.152 C 
BRANCH  12  13
ATOM     13  N   UNL A   1      33.653  29.765  25.654  1.00  0.00    -0.347 N 
ATOM     14  C   UNL A   1      33.061  28.878  24.797  1.00  0.00     0.275 C 
ATOM     15  H   UNL A   1      33.885  30.642  25.271  1.00  0.00     0.164 HD
ATOM     16  O   UNL A   1      33.264  29.009  23.587  1.00  0.00    -0.268 OA
BRANCH  14  17
ATOM     17  C   UNL A   1      32.125  27.793  25.333  1.00  0.00     0.363 C 
BRANCH  17  18
ATOM     18  N   UNL A   1      31.483  26.964  24.296  1.00  0.00    -0.327 N 
ATOM     19  C   UNL A   1      30.098  26.573  24.604  1.00  0.00     0.262 C 
ATOM     20  C   UNL A   1      32.259  25.755  23.957  1.00  0.00     0.272 C 
ATOM     21  H   UNL A   1      31.460  27.582  23.486  1.00  0.00     0.348 HD
ATOM     22  C   UNL A   1      29.986  25.579  25.754  1.00  0.00     0.062 C 
ATOM     23  C   UNL A   1      32.266  24.628  25.022  1.00  0.00     0.045 C 
ATOM     24  C   UNL A   1      30.833  24.337  25.506  1.00  0.00     0.021 C 
ATOM     25  C   UNL A   1      33.290  24.887  26.128  1.00  0.00     0.043 C 
ATOM     26  C   UNL A   1      32.843  23.340  24.432  1.00  0.00     0.173 C 
ATOM     27  C   UNL A   1      34.581  24.251  25.626  1.00  0.00     0.161 C 
ATOM     28  O   UNL A   1      34.261  23.471  24.473  1.00  0.00    -0.381 OA
ENDBRANCH  17  18
ENDBRANCH  14  17
ENDBRANCH  12  13
ENDBRANCH   9  12
ENDBRANCH   3   5
ENDBRANCH   2   3
ENDBRANCH   1   2
BRANCH   1  29
ATOM     29  C   UNL A   1      32.911  36.157  30.950  1.00  0.00     0.275 C 
BRANCH  29  30
ATOM     30  O   UNL A   1      33.985  35.604  31.761  1.00  0.00    -0.458 OA
BRANCH  30  31
ATOM     31  C   UNL A   1      34.052  34.416  32.399  1.00  0.00     0.338 C 
ATOM     32  O   UNL A   1      33.067  33.896  32.919  1.00  0.00    -0.246 OA
BRANCH  31  33
ATOM     33  C   UNL A   1      35.348  33.732  32.451  1.00  0.00     0.060 A 
ATOM     34  C   UNL A   1      36.412  34.249  31.689  1.00  0.00     0.016 A 
ATOM     35  C   UNL A   1      35.529  32.650  33.305  1.00  0.00     0.016 A 
ATOM     36  C   UNL A   1      37.689  33.733  31.832  1.00  0.00     0.010 A 
ATOM     37  C   UNL A   1      36.806  32.222  33.555  1.00  0.00     0.010 A 
ATOM     38  C   UNL A   1      37.861  32.710  32.757  1.00  0.00    -0.014 A 
BRANCH  38  39
ATOM     39  C   UNL A   1      38.929  31.741  32.628  1.00  0.00     0.031 A 
ATOM     40  C   UNL A   1      38.762  30.474  31.911  1.00  0.00     0.074 A 
ATOM     41  C   UNL A   1      40.089  32.338  32.985  1.00  0.00     0.049 A 
ATOM     42  N   UNL A   1      39.662  29.557  31.890  1.00  0.00    -0.248 NA
ATOM     43  C   UNL A   1      37.557  30.090  31.177  1.00  0.00     0.031 C 
ATOM     44  C   UNL A   1      41.467  32.089  32.625  1.00  0.00     0.029 A 
ATOM     45  N   UNL A   1      40.180  33.385  33.924  1.00  0.00    -0.354 N 
ATOM     46  C   UNL A   1      39.343  28.696  30.862  1.00  0.00     0.074 A 
ATOM     47  C   UNL A   1      37.965  28.971  30.562  1.00  0.00     0.031 C 
ATOM     48  C   UNL A   1      42.259  32.692  33.537  1.00  0.00     0.029 A 
ATOM     49  C   UNL A   1      41.390  33.216  34.589  1.00  0.00     0.049 A 
ATOM     50  H   UNL A   1      39.517  34.096  34.078  1.00  0.00     0.167 HD
ATOM     51  C   UNL A   1      40.362  28.013  30.262  1.00  0.00     0.037 A 
ATOM     52  C   UNL A   1      41.321  32.755  35.875  1.00  0.00     0.037 A 
ATOM     53  C   UNL A   1      41.599  28.258  30.993  1.00  0.00     0.049 A 
ATOM     54  C   UNL A   1      41.868  31.349  35.947  1.00  0.00     0.074 A 
ATOM     55  C   UNL A   1      42.608  29.190  30.819  1.00  0.00     0.029 A 
ATOM     56  N   UNL A   1      41.680  27.828  32.311  1.00  0.00    -0.354 N 
ATOM     57  N   UNL A   1      41.791  30.475  34.976  1.00  0.00    -0.248 NA
ATOM     58  C   UNL A   1      42.650  30.868  37.079  1.00  0.00     0.031 C 
ATOM     59  C   UNL A   1      43.230  29.393  32.080  1.00  0.00     0.029 A 
ATOM     60  C   UNL A   1      42.588  28.597  33.013  1.00  0.00     0.049 A 
ATOM     61  H   UNL A   1      41.162  27.083  32.692  1.00  0.00     0.167 HD
ATOM     62  C   UNL A   1      42.565  29.389  35.287  1.00  0.00     0.074 A 
ATOM     63  C   UNL A   1      43.054  29.668  36.626  1.00  0.00     0.031 C 
ATOM     64  C   UNL A   1      42.798  28.353  34.428  1.00  0.00     0.037 A 
BRANCH  51  65
ATOM     65  C   UNL A   1      40.313  27.434  28.870  1.00  0.00     0.057 A 
ATOM     66  C   UNL A   1      39.639  26.219  28.617  1.00  0.00     0.134 A 
ATOM     67  C   UNL A   1      40.934  27.995  27.745  1.00  0.00     0.134 A 
ATOM     68  F   UNL A   1      38.925  25.598  29.564  1.00  0.00    -0.206 F 
ATOM     69  C   UNL A   1      39.668  25.565  27.379  1.00  0.00     0.040 A 
ATOM     70  C   UNL A   1      40.992  27.338  26.501  1.00  0.00     0.040 A 
ATOM     71  F   UNL A   1      41.490  29.213  27.798  1.00  0.00    -0.206 F 
ATOM     72  C   UNL A   1      40.372  26.109  26.320  1.00  0.00     0.006 A 
ENDBRANCH  51  65
BRANCH  52  73
ATOM     73  C   UNL A   1      40.148  33.304  36.646  1.00  0.00     0.057 A 
ATOM     74  C   UNL A   1      39.006  32.484  36.811  1.00  0.00     0.134 A 
ATOM     75  C   UNL A   1      40.206  34.440  37.459  1.00  0.00     0.134 A 
ATOM     76  F   UNL A   1      38.865  31.371  36.073  1.00  0.00    -0.206 F 
ATOM     77  C   UNL A   1      38.037  32.721  37.795  1.00  0.00     0.040 A 
ATOM     78  C   UNL A   1      39.223  34.704  38.434  1.00  0.00     0.040 A 
ATOM     79  F   UNL A   1      41.251  35.276  37.395  1.00  0.00    -0.206 F 
ATOM     80  C   UNL A   1      38.153  33.829  38.623  1.00  0.00     0.006 A 
ENDBRANCH  52  73
BRANCH  64  81
ATOM     81  C   UNL A   1      43.303  26.996  34.835  1.00  0.00     0.057 A 
ATOM     82  C   UNL A   1      42.457  25.919  35.125  1.00  0.00     0.134 A 
ATOM     83  C   UNL A   1      44.677  26.677  34.727  1.00  0.00     0.134 A 
ATOM     84  F   UNL A   1      41.125  26.056  35.145  1.00  0.00    -0.206 F 
ATOM     85  C   UNL A   1      42.944  24.628  35.344  1.00  0.00     0.040 A 
ATOM     86  C   UNL A   1      45.163  25.379  34.866  1.00  0.00     0.040 A 
ATOM     87  F   UNL A   1      45.602  27.604  34.433  1.00  0.00    -0.206 F 
ATOM     88  C   UNL A   1      44.297  24.350  35.194  1.00  0.00     0.006 A 
ENDBRANCH  64  81
ENDBRANCH  38  39
ENDBRANCH  31  33
ENDBRANCH  30  31
ENDBRANCH  29  30
ENDBRANCH   1  29
TORSDOF 15
ENDMDL
MODEL 3
REMARK VINA RESULT:     -11.9      1.079      1.788
REMARK SMILES Cc1ccc(C(=O)OCCOC(=O)c2ccc(-c3c4nc(c(-c5c(F)cccc5F)c5ccc([nH]5)c(-c5c(F)cccc5F)c5nc(c(-c6c(F)cccc6F)c6ccc3[nH]6)C=C5)C=C4)cc2)cc1CNC(=O)C[N@@H+]1CCC[C@]2(CCOC2)C1
REMARK SMILES IDX 9 1 8 2 6 3 7 4 5 5 1 6 2 7 3 8 69 9 4 10 68 11 70 12 71 13
REMARK SMILES IDX 72 14 73 16 74 17 75 18 76 19 84 20 77 22 79 23 78 24 80 25
REMARK SMILES IDX 83 26 81 27 82 28 10 29 11 30 12 31 13 32 14 33 15 34 67 35
REMARK SMILES IDX 16 36 66 37 17 38 18 39 19 40 60 41 20 42 65 43 59 44 61 45
REMARK SMILES IDX 21 46 64 47 58 48 57 49 22 51 48 52 31 53 47 54 32 55 35 56
REMARK SMILES IDX 46 57 62 58 33 59 34 60 45 62 63 63 36 64 23 65 24 66 29 67
REMARK SMILES IDX 25 68 26 69 28 70 30 71 27 72 49 73 50 74 55 75 51 76 52 77
REMARK SMILES IDX 54 78 56 79 53 80 37 81 38 82 43 83 39 84 40 85 42 86 44 87
REMARK SMILES IDX 41 88
REMARK H PARENT 71 15 75 21 61 50 35 61
REMARK Flexibility Score: inf
ROOT
ATOM      1  C   UNL A   1      32.915  35.899  29.711  1.00  0.00     0.275 C 
ENDROOT
BRANCH   1   2
ATOM      2  O   UNL A   1      33.230  34.590  29.209  1.00  0.00    -0.458 OA
BRANCH   2   3
ATOM      3  C   UNL A   1      34.299  34.621  28.372  1.00  0.00     0.338 C 
ATOM      4  O   UNL A   1      34.559  35.529  27.591  1.00  0.00    -0.246 OA
BRANCH   3   5
ATOM      5  C   UNL A   1      35.087  33.379  28.322  1.00  0.00     0.060 A 
ATOM      6  C   UNL A   1      36.951  29.583  27.430  1.00  0.00     0.044 C 
ATOM      7  C   UNL A   1      36.236  30.853  27.799  1.00  0.00    -0.046 A 
ATOM      8  C   UNL A   1      37.021  31.966  28.197  1.00  0.00     0.004 A 
ATOM      9  C   UNL A   1      34.848  31.007  27.726  1.00  0.00    -0.025 A 
ATOM     10  C   UNL A   1      36.448  33.213  28.502  1.00  0.00     0.016 A 
ATOM     11  C   UNL A   1      34.331  32.290  27.924  1.00  0.00     0.021 A 
BRANCH   9  12
ATOM     12  C   UNL A   1      33.809  29.933  27.491  1.00  0.00     0.152 C 
BRANCH  12  13
ATOM     13  N   UNL A   1      32.544  30.584  27.154  1.00  0.00    -0.347 N 
ATOM     14  C   UNL A   1      31.828  30.498  25.992  1.00  0.00     0.275 C 
ATOM     15  H   UNL A   1      32.159  31.158  27.854  1.00  0.00     0.164 HD
ATOM     16  O   UNL A   1      31.065  31.426  25.704  1.00  0.00    -0.268 OA
BRANCH  14  17
ATOM     17  C   UNL A   1      31.932  29.253  25.110  1.00  0.00     0.363 C 
BRANCH  17  18
ATOM     18  N   UNL A   1      31.657  29.484  23.679  1.00  0.00    -0.327 N 
ATOM     19  C   UNL A   1      30.232  29.422  23.318  1.00  0.00     0.262 C 
ATOM     20  C   UNL A   1      32.418  28.586  22.789  1.00  0.00     0.272 C 
ATOM     21  H   UNL A   1      31.974  30.443  23.534  1.00  0.00     0.348 HD
ATOM     22  C   UNL A   1      29.639  28.020  23.412  1.00  0.00     0.062 C 
ATOM     23  C   UNL A   1      31.958  27.106  22.760  1.00  0.00     0.045 C 
ATOM     24  C   UNL A   1      30.431  27.021  22.578  1.00  0.00     0.021 C 
ATOM     25  C   UNL A   1      32.524  26.303  23.932  1.00  0.00     0.043 C 
ATOM     26  C   UNL A   1      32.620  26.364  21.597  1.00  0.00     0.173 C 
ATOM     27  C   UNL A   1      33.861  25.768  23.436  1.00  0.00     0.161 C 
ATOM     28  O   UNL A   1      33.931  26.011  22.031  1.00  0.00    -0.381 OA
ENDBRANCH  17  18
ENDBRANCH  14  17
ENDBRANCH  12  13
ENDBRANCH   9  12
ENDBRANCH   3   5
ENDBRANCH   2   3
ENDBRANCH   1   2
BRANCH   1  29
ATOM     29  C   UNL A   1      32.836  35.996  31.239  1.00  0.00     0.275 C 
BRANCH  29  30
ATOM     30  O   UNL A   1      33.911  35.462  32.061  1.00  0.00    -0.458 OA
BRANCH  30  31
ATOM     31  C   UNL A   1      34.030  34.243  32.630  1.00  0.00     0.338 C 
ATOM     32  O   UNL A   1      33.072  33.660  33.132  1.00  0.00    -0.246 OA
BRANCH  31  33
ATOM     33  C   UNL A   1      35.351  33.606  32.629  1.00  0.00     0.060 A 
ATOM     34  C   UNL A   1      36.341  34.114  31.768  1.00  0.00     0.016 A 
ATOM     35  C   UNL A   1      35.628  32.579  33.524  1.00  0.00     0.016 A 
ATOM     36  C   UNL A   1      37.643  33.649  31.849  1.00  0.00     0.010 A 
ATOM     37  C   UNL A   1      36.934  32.208  33.707  1.00  0.00     0.010 A 
ATOM     38  C   UNL A   1      37.914  32.685  32.814  1.00  0.00    -0.014 A 
BRANCH  38  39
ATOM     39  C   UNL A   1      39.005  31.745  32.662  1.00  0.00     0.031 A 
ATOM     40  C   UNL A   1      38.870  30.493  31.914  1.00  0.00     0.074 A 
ATOM     41  C   UNL A   1      40.150  32.361  33.035  1.00  0.00     0.049 A 
ATOM     42  N   UNL A   1      39.791  29.598  31.872  1.00  0.00    -0.248 NA
ATOM     43  C   UNL A   1      37.675  30.097  31.170  1.00  0.00     0.031 C 
ATOM     44  C   UNL A   1      41.534  32.154  32.670  1.00  0.00     0.029 A 
ATOM     45  N   UNL A   1      40.215  33.386  33.999  1.00  0.00    -0.354 N 
ATOM     46  C   UNL A   1      39.494  28.754  30.823  1.00  0.00     0.074 A 
ATOM     47  C   UNL A   1      38.110  29.003  30.528  1.00  0.00     0.031 C 
ATOM     48  C   UNL A   1      42.310  32.753  33.599  1.00  0.00     0.029 A 
ATOM     49  C   UNL A   1      41.428  33.231  34.662  1.00  0.00     0.049 A 
ATOM     50  H   UNL A   1      39.535  34.077  34.170  1.00  0.00     0.167 HD
ATOM     51  C   UNL A   1      40.529  28.111  30.208  1.00  0.00     0.037 A 
ATOM     52  C   UNL A   1      41.370  32.737  35.936  1.00  0.00     0.037 A 
ATOM     53  C   UNL A   1      41.759  28.368  30.946  1.00  0.00     0.049 A 
ATOM     54  C   UNL A   1      41.950  31.343  35.975  1.00  0.00     0.074 A 
ATOM     55  C   UNL A   1      42.746  29.328  30.797  1.00  0.00     0.029 A 
ATOM     56  N   UNL A   1      41.850  27.909  32.253  1.00  0.00    -0.354 N 
ATOM     57  N   UNL A   1      41.895  30.492  34.983  1.00  0.00    -0.248 NA
ATOM     58  C   UNL A   1      42.743  30.853  37.096  1.00  0.00     0.031 C 
ATOM     59  C   UNL A   1      43.362  29.516  32.063  1.00  0.00     0.029 A 
ATOM     60  C   UNL A   1      42.739  28.681  32.975  1.00  0.00     0.049 A 
ATOM     61  H   UNL A   1      41.350  27.142  32.615  1.00  0.00     0.167 HD
ATOM     62  C   UNL A   1      42.695  29.417  35.268  1.00  0.00     0.074 A 
ATOM     63  C   UNL A   1      43.176  29.675  36.614  1.00  0.00     0.031 C 
ATOM     64  C   UNL A   1      42.953  28.409  34.384  1.00  0.00     0.037 A 
BRANCH  51  65
ATOM     65  C   UNL A   1      40.495  27.566  28.802  1.00  0.00     0.057 A 
ATOM     66  C   UNL A   1      39.838  26.349  28.516  1.00  0.00     0.134 A 
ATOM     67  C   UNL A   1      41.116  28.161  27.694  1.00  0.00     0.134 A 
ATOM     68  F   UNL A   1      39.126  25.697  29.444  1.00  0.00    -0.206 F 
ATOM     69  C   UNL A   1      39.882  25.725  27.263  1.00  0.00     0.040 A 
ATOM     70  C   UNL A   1      41.189  27.535  26.436  1.00  0.00     0.040 A 
ATOM     71  F   UNL A   1      41.656  29.384  27.780  1.00  0.00    -0.206 F 
ATOM     72  C   UNL A   1      40.585  26.303  26.222  1.00  0.00     0.006 A 
ENDBRANCH  51  65
BRANCH  52  73
ATOM     73  C   UNL A   1      40.183  33.238  36.718  1.00  0.00     0.057 A 
ATOM     74  C   UNL A   1      39.080  32.371  36.901  1.00  0.00     0.134 A 
ATOM     75  C   UNL A   1      40.202  34.380  37.526  1.00  0.00     0.134 A 
ATOM     76  F   UNL A   1      38.979  31.249  36.170  1.00  0.00    -0.206 F 
ATOM     77  C   UNL A   1      38.113  32.571  37.895  1.00  0.00     0.040 A 
ATOM     78  C   UNL A   1      39.220  34.606  38.511  1.00  0.00     0.040 A 
ATOM     79  F   UNL A   1      41.208  35.261  37.445  1.00  0.00    -0.206 F 
ATOM     80  C   UNL A   1      38.190  33.687  38.717  1.00  0.00     0.006 A 
ENDBRANCH  52  73
BRANCH  64  81
ATOM     81  C   UNL A   1      43.491  27.054  34.759  1.00  0.00     0.057 A 
ATOM     82  C   UNL A   1      44.855  26.796  34.942  1.00  0.00     0.134 A 
ATOM     83  C   UNL A   1      42.616  26.020  35.167  1.00  0.00     0.134 A 
ATOM     84  F   UNL A   1      45.787  27.729  34.705  1.00  0.00    -0.206 F 
ATOM     85  C   UNL A   1      45.320  25.578  35.445  1.00  0.00     0.040 A 
ATOM     86  C   UNL A   1      43.068  24.834  35.742  1.00  0.00     0.040 A 
ATOM     87  F   UNL A   1      41.283  26.137  35.069  1.00  0.00    -0.206 F 
ATOM     88  C   UNL A   1      44.427  24.601  35.866  1.00  0.00     0.006 A 
ENDBRANCH  64  81
ENDBRANCH  38  39
ENDBRANCH  31  33
ENDBRANCH  30  31
ENDBRANCH  29  30
ENDBRANCH   1  29
TORSDOF 15
ENDMDL
