MODEL 1
REMARK VINA RESULT:     -12.3      0.000      0.000
REMARK SMILES O=C(NC1(C(=O)OCCOC(=O)c2ccc(-c3c4nc(c(-c5c(F)cccc5F)c5ccc([nH]5)c(-c5c(F)cccc5F)c5nc(c(-c6c(F)cccc6F)c6ccc3[nH]6)C=C5)C=C4)cc2)CC[NH2+]CC1)OCC1c2ccccc2-c2ccccc21
REMARK SMILES IDX 8 1 7 2 5 3 6 4 4 5 67 6 71 7 68 8 70 9 69 10 3 13 1 14 2 15
REMARK SMILES IDX 72 17 73 18 74 19 75 20 86 21 76 22 80 23 81 24 85 25 77 26
REMARK SMILES IDX 79 27 82 28 84 29 78 30 83 31 9 32 10 33 11 34 12 35 13 36
REMARK SMILES IDX 14 37 66 38 15 39 65 40 16 41 17 42 18 43 59 44 19 45 64 46
REMARK SMILES IDX 58 47 60 48 20 49 63 50 57 51 56 52 21 54 47 55 30 56 46 57
REMARK SMILES IDX 31 58 34 59 45 60 61 61 32 62 33 63 44 65 62 66 35 67 22 68
REMARK SMILES IDX 23 69 28 70 24 71 25 72 27 73 29 74 26 75 48 76 49 77 54 78
REMARK SMILES IDX 50 79 51 80 53 81 55 82 52 83 36 84 37 85 42 86 38 87 39 88
REMARK SMILES IDX 41 89 43 90 40 91
REMARK H PARENT 69 11 69 12 3 16 60 53 34 64
REMARK Flexibility Score: inf
ROOT
ATOM      1  C   UNL A   1      32.284  29.426  26.729  1.00  0.00     0.274 C 
ENDROOT
BRANCH   1   2
ATOM      2  O   UNL A   1      32.808  28.300  25.994  1.00  0.00    -0.460 OA
BRANCH   2   3
ATOM      3  C   UNL A   1      32.674  28.354  24.641  1.00  0.00     0.332 C 
ATOM      4  O   UNL A   1      33.294  29.131  23.918  1.00  0.00    -0.249 OA
BRANCH   3   5
ATOM      5  C   UNL A   1      31.677  27.318  24.073  1.00  0.00     0.151 C 
ATOM      6  C   UNL A   1      31.421  26.119  24.997  1.00  0.00     0.102 C 
ATOM      7  C   UNL A   1      30.317  28.047  23.948  1.00  0.00     0.102 C 
ATOM      8  C   UNL A   1      30.363  25.194  24.409  1.00  0.00     0.263 C 
ATOM      9  C   UNL A   1      29.217  27.108  23.450  1.00  0.00     0.263 C 
ATOM     10  N   UNL A   1      29.093  25.907  24.274  1.00  0.00    -0.346 N 
ATOM     11  H   UNL A   1      28.769  26.179  25.202  1.00  0.00     0.346 HD
ATOM     12  H   UNL A   1      28.431  25.281  23.815  1.00  0.00     0.346 HD
BRANCH   5  13
ATOM     13  N   UNL A   1      32.131  26.949  22.706  1.00  0.00    -0.305 N 
ATOM     14  O   UNL A   1      33.275  25.790  21.144  1.00  0.00    -0.225 OA
ATOM     15  C   UNL A   1      33.050  26.018  22.326  1.00  0.00     0.408 C 
ATOM     16  H   UNL A   1      31.708  27.448  21.971  1.00  0.00     0.168 HD
BRANCH  15  17
ATOM     17  O   UNL A   1      33.642  25.398  23.364  1.00  0.00    -0.449 OA
BRANCH  17  18
ATOM     18  C   UNL A   1      34.158  24.081  23.116  1.00  0.00     0.248 C 
BRANCH  18  19
ATOM     19  C   UNL A   1      34.192  23.228  24.403  1.00  0.00     0.088 C 
ATOM     20  C   UNL A   1      33.754  21.768  24.284  1.00  0.00    -0.029 A 
ATOM     21  C   UNL A   1      35.614  23.069  24.941  1.00  0.00    -0.029 A 
ATOM     22  C   UNL A   1      32.542  21.253  23.854  1.00  0.00     0.005 A 
ATOM     23  C   UNL A   1      34.802  20.908  24.692  1.00  0.00    -0.014 A 
ATOM     24  C   UNL A   1      35.948  21.706  25.065  1.00  0.00    -0.014 A 
ATOM     25  C   UNL A   1      36.512  24.065  25.294  1.00  0.00     0.005 A 
ATOM     26  C   UNL A   1      32.383  19.861  23.836  1.00  0.00     0.000 A 
ATOM     27  C   UNL A   1      34.640  19.530  24.682  1.00  0.00     0.009 A 
ATOM     28  C   UNL A   1      37.217  21.328  25.472  1.00  0.00     0.009 A 
ATOM     29  C   UNL A   1      37.787  23.684  25.714  1.00  0.00     0.000 A 
ATOM     30  C   UNL A   1      33.419  19.008  24.248  1.00  0.00     0.001 A 
ATOM     31  C   UNL A   1      38.142  22.328  25.785  1.00  0.00     0.001 A 
ENDBRANCH  18  19
ENDBRANCH  17  18
ENDBRANCH  15  17
ENDBRANCH   5  13
ENDBRANCH   3   5
ENDBRANCH   2   3
ENDBRANCH   1   2
BRANCH   1  32
ATOM     32  C   UNL A   1      33.384  30.403  27.136  1.00  0.00     0.275 C 
BRANCH  32  33
ATOM     33  O   UNL A   1      34.331  29.741  27.985  1.00  0.00    -0.458 OA
BRANCH  33  34
ATOM     34  C   UNL A   1      35.164  30.546  28.683  1.00  0.00     0.338 C 
ATOM     35  O   UNL A   1      34.886  31.596  29.237  1.00  0.00    -0.246 OA
BRANCH  34  36
ATOM     36  C   UNL A   1      36.524  29.972  28.676  1.00  0.00     0.060 A 
ATOM     37  C   UNL A   1      37.062  29.408  29.832  1.00  0.00     0.016 A 
ATOM     38  C   UNL A   1      37.303  30.072  27.523  1.00  0.00     0.016 A 
ATOM     39  C   UNL A   1      38.399  29.019  29.865  1.00  0.00     0.010 A 
ATOM     40  C   UNL A   1      38.611  29.581  27.527  1.00  0.00     0.010 A 
ATOM     41  C   UNL A   1      39.182  29.070  28.707  1.00  0.00    -0.014 A 
BRANCH  41  42
ATOM     42  C   UNL A   1      40.587  28.582  28.712  1.00  0.00     0.031 A 
ATOM     43  C   UNL A   1      41.719  29.535  28.982  1.00  0.00     0.074 A 
ATOM     44  C   UNL A   1      40.850  27.288  28.439  1.00  0.00     0.049 A 
ATOM     45  N   UNL A   1      43.005  29.368  28.801  1.00  0.00    -0.248 NA
ATOM     46  C   UNL A   1      41.355  30.862  29.503  1.00  0.00     0.031 C 
ATOM     47  C   UNL A   1      39.846  26.251  28.196  1.00  0.00     0.029 A 
ATOM     48  N   UNL A   1      42.045  26.625  28.310  1.00  0.00    -0.354 N 
ATOM     49  C   UNL A   1      43.595  30.584  29.123  1.00  0.00     0.074 A 
ATOM     50  C   UNL A   1      42.527  31.482  29.512  1.00  0.00     0.031 C 
ATOM     51  C   UNL A   1      40.462  25.080  27.981  1.00  0.00     0.029 A 
ATOM     52  C   UNL A   1      41.902  25.301  27.975  1.00  0.00     0.049 A 
ATOM     53  H   UNL A   1      42.919  27.057  28.445  1.00  0.00     0.167 HD
ATOM     54  C   UNL A   1      44.908  30.917  29.091  1.00  0.00     0.037 A 
ATOM     55  C   UNL A   1      42.822  24.375  27.646  1.00  0.00     0.037 A 
ATOM     56  C   UNL A   1      45.965  29.996  28.757  1.00  0.00     0.049 A 
ATOM     57  C   UNL A   1      44.267  24.774  27.595  1.00  0.00     0.074 A 
ATOM     58  C   UNL A   1      47.331  30.222  28.724  1.00  0.00     0.029 A 
ATOM     59  N   UNL A   1      45.773  28.665  28.413  1.00  0.00    -0.354 N 
ATOM     60  N   UNL A   1      44.812  25.938  27.855  1.00  0.00    -0.248 NA
ATOM     61  C   UNL A   1      45.224  23.738  27.185  1.00  0.00     0.031 C 
ATOM     62  C   UNL A   1      47.961  29.040  28.324  1.00  0.00     0.029 A 
ATOM     63  C   UNL A   1      46.993  28.064  28.151  1.00  0.00     0.049 A 
ATOM     64  H   UNL A   1      44.899  28.216  28.362  1.00  0.00     0.167 HD
ATOM     65  C   UNL A   1      46.175  25.773  27.654  1.00  0.00     0.074 A 
ATOM     66  C   UNL A   1      46.375  24.391  27.269  1.00  0.00     0.031 C 
ATOM     67  C   UNL A   1      47.170  26.685  27.772  1.00  0.00     0.037 A 
BRANCH  54  68
ATOM     68  C   UNL A   1      45.275  32.343  29.389  1.00  0.00     0.057 A 
ATOM     69  C   UNL A   1      45.618  32.776  30.675  1.00  0.00     0.134 A 
ATOM     70  C   UNL A   1      45.322  33.291  28.356  1.00  0.00     0.134 A 
ATOM     71  F   UNL A   1      45.585  31.925  31.711  1.00  0.00    -0.206 F 
ATOM     72  C   UNL A   1      45.970  34.105  30.929  1.00  0.00     0.040 A 
ATOM     73  C   UNL A   1      45.697  34.615  28.593  1.00  0.00     0.040 A 
ATOM     74  F   UNL A   1      45.014  32.943  27.098  1.00  0.00    -0.206 F 
ATOM     75  C   UNL A   1      46.016  35.027  29.885  1.00  0.00     0.006 A 
ENDBRANCH  54  68
BRANCH  55  76
ATOM     76  C   UNL A   1      42.394  22.994  27.305  1.00  0.00     0.057 A 
ATOM     77  C   UNL A   1      42.112  22.060  28.307  1.00  0.00     0.134 A 
ATOM     78  C   UNL A   1      42.236  22.583  25.976  1.00  0.00     0.134 A 
ATOM     79  F   UNL A   1      42.266  22.388  29.599  1.00  0.00    -0.206 F 
ATOM     80  C   UNL A   1      41.691  20.764  28.001  1.00  0.00     0.040 A 
ATOM     81  C   UNL A   1      41.790  21.300  25.656  1.00  0.00     0.040 A 
ATOM     82  F   UNL A   1      42.486  23.432  24.969  1.00  0.00    -0.206 F 
ATOM     83  C   UNL A   1      41.520  20.385  26.671  1.00  0.00     0.006 A 
ENDBRANCH  55  76
BRANCH  67  84
ATOM     84  C   UNL A   1      48.564  26.200  27.515  1.00  0.00     0.057 A 
ATOM     85  C   UNL A   1      49.158  26.299  26.251  1.00  0.00     0.134 A 
ATOM     86  C   UNL A   1      49.327  25.646  28.550  1.00  0.00     0.134 A 
ATOM     87  F   UNL A   1      48.472  26.805  25.215  1.00  0.00    -0.206 F 
ATOM     88  C   UNL A   1      50.456  25.842  26.019  1.00  0.00     0.040 A 
ATOM     89  C   UNL A   1      50.634  25.208  28.337  1.00  0.00     0.040 A 
ATOM     90  F   UNL A   1      48.817  25.528  29.785  1.00  0.00    -0.206 F 
ATOM     91  C   UNL A   1      51.200  25.299  27.067  1.00  0.00     0.006 A 
ENDBRANCH  67  84
ENDBRANCH  41  42
ENDBRANCH  34  36
ENDBRANCH  33  34
ENDBRANCH  32  33
ENDBRANCH   1  32
TORSDOF 15
ENDMDL
MODEL 2
REMARK VINA RESULT:     -12.2      1.041      2.598
REMARK SMILES O=C(NC1(C(=O)OCCOC(=O)c2ccc(-c3c4nc(c(-c5c(F)cccc5F)c5ccc([nH]5)c(-c5c(F)cccc5F)c5nc(c(-c6c(F)cccc6F)c6ccc3[nH]6)C=C5)C=C4)cc2)CC[NH2+]CC1)OCC1c2ccccc2-c2ccccc21
REMARK SMILES IDX 8 1 7 2 5 3 6 4 4 5 67 6 71 7 68 8 70 9 69 10 3 13 1 14 2 15
REMARK SMILES IDX 72 17 73 18 74 19 75 20 86 21 76 22 80 23 81 24 85 25 77 26
REMARK SMILES IDX 79 27 82 28 84 29 78 30 83 31 9 32 10 33 11 34 12 35 13 36
REMARK SMILES IDX 14 37 66 38 15 39 65 40 16 41 17 42 18 43 59 44 19 45 64 46
REMARK SMILES IDX 58 47 60 48 20 49 63 50 57 51 56 52 21 54 47 55 30 56 46 57
REMARK SMILES IDX 31 58 34 59 45 60 61 61 32 62 33 63 44 65 62 66 35 67 22 68
REMARK SMILES IDX 23 69 28 70 24 71 25 72 27 73 29 74 26 75 48 76 49 77 54 78
REMARK SMILES IDX 50 79 51 80 53 81 55 82 52 83 36 84 37 85 42 86 38 87 39 88
REMARK SMILES IDX 41 89 43 90 40 91
REMARK H PARENT 69 11 69 12 3 16 60 53 34 64
REMARK Flexibility Score: inf
ROOT
ATOM      1  C   UNL A   1      32.867  29.700  26.099  1.00  0.00     0.274 C 
ENDROOT
BRANCH   1   2
ATOM      2  O   UNL A   1      33.041  28.280  26.292  1.00  0.00    -0.460 OA
BRANCH   2   3
ATOM      3  C   UNL A   1      31.932  27.586  26.664  1.00  0.00     0.332 C 
ATOM      4  O   UNL A   1      31.421  27.653  27.780  1.00  0.00    -0.249 OA
BRANCH   3   5
ATOM      5  C   UNL A   1      31.340  26.707  25.538  1.00  0.00     0.151 C 
ATOM      6  C   UNL A   1      30.358  27.444  24.616  1.00  0.00     0.102 C 
ATOM      7  C   UNL A   1      32.530  26.295  24.638  1.00  0.00     0.102 C 
ATOM      8  C   UNL A   1      29.892  26.539  23.483  1.00  0.00     0.263 C 
ATOM      9  C   UNL A   1      32.069  25.465  23.438  1.00  0.00     0.263 C 
ATOM     10  N   UNL A   1      31.032  26.139  22.659  1.00  0.00    -0.346 N 
ATOM     11  H   UNL A   1      31.435  26.971  22.229  1.00  0.00     0.346 HD
ATOM     12  H   UNL A   1      30.694  25.482  21.956  1.00  0.00     0.346 HD
BRANCH   5  13
ATOM     13  N   UNL A   1      30.785  25.477  26.163  1.00  0.00    -0.305 N 
ATOM     14  O   UNL A   1      30.833  23.501  27.250  1.00  0.00    -0.225 OA
ATOM     15  C   UNL A   1      31.442  24.422  26.719  1.00  0.00     0.408 C 
ATOM     16  H   UNL A   1      29.802  25.417  26.177  1.00  0.00     0.168 HD
BRANCH  15  17
ATOM     17  O   UNL A   1      32.781  24.521  26.630  1.00  0.00    -0.449 OA
BRANCH  17  18
ATOM     18  C   UNL A   1      33.528  23.310  26.826  1.00  0.00     0.248 C 
BRANCH  18  19
ATOM     19  C   UNL A   1      34.307  22.906  25.555  1.00  0.00     0.088 C 
ATOM     20  C   UNL A   1      35.823  22.764  25.682  1.00  0.00    -0.029 A 
ATOM     21  C   UNL A   1      33.917  21.509  25.072  1.00  0.00    -0.029 A 
ATOM     22  C   UNL A   1      36.758  23.708  26.076  1.00  0.00     0.005 A 
ATOM     23  C   UNL A   1      36.224  21.455  25.325  1.00  0.00    -0.014 A 
ATOM     24  C   UNL A   1      35.052  20.680  24.981  1.00  0.00    -0.014 A 
ATOM     25  C   UNL A   1      32.656  21.040  24.734  1.00  0.00     0.005 A 
ATOM     26  C   UNL A   1      38.107  23.331  26.110  1.00  0.00     0.000 A 
ATOM     27  C   UNL A   1      37.561  21.085  25.352  1.00  0.00     0.009 A 
ATOM     28  C   UNL A   1      34.924  19.348  24.626  1.00  0.00     0.009 A 
ATOM     29  C   UNL A   1      32.527  19.701  24.367  1.00  0.00     0.000 A 
ATOM     30  C   UNL A   1      38.505  22.034  25.750  1.00  0.00     0.001 A 
ATOM     31  C   UNL A   1      33.649  18.857  24.331  1.00  0.00     0.001 A 
ENDBRANCH  18  19
ENDBRANCH  17  18
ENDBRANCH  15  17
ENDBRANCH   5  13
ENDBRANCH   3   5
ENDBRANCH   2   3
ENDBRANCH   1   2
BRANCH   1  32
ATOM     32  C   UNL A   1      33.448  30.508  27.256  1.00  0.00     0.275 C 
BRANCH  32  33
ATOM     33  O   UNL A   1      34.548  29.797  27.840  1.00  0.00    -0.458 OA
BRANCH  33  34
ATOM     34  C   UNL A   1      35.362  30.520  28.642  1.00  0.00     0.338 C 
ATOM     35  O   UNL A   1      35.067  31.501  29.304  1.00  0.00    -0.246 OA
BRANCH  34  36
ATOM     36  C   UNL A   1      36.725  29.955  28.600  1.00  0.00     0.060 A 
ATOM     37  C   UNL A   1      37.293  29.387  29.739  1.00  0.00     0.016 A 
ATOM     38  C   UNL A   1      37.475  30.066  27.429  1.00  0.00     0.016 A 
ATOM     39  C   UNL A   1      38.632  29.006  29.738  1.00  0.00     0.010 A 
ATOM     40  C   UNL A   1      38.786  29.582  27.399  1.00  0.00     0.010 A 
ATOM     41  C   UNL A   1      39.387  29.068  28.562  1.00  0.00    -0.014 A 
BRANCH  41  42
ATOM     42  C   UNL A   1      40.795  28.588  28.531  1.00  0.00     0.031 A 
ATOM     43  C   UNL A   1      41.928  29.546  28.782  1.00  0.00     0.074 A 
ATOM     44  C   UNL A   1      41.059  27.298  28.243  1.00  0.00     0.049 A 
ATOM     45  N   UNL A   1      43.209  29.387  28.570  1.00  0.00    -0.248 NA
ATOM     46  C   UNL A   1      41.568  30.867  29.321  1.00  0.00     0.031 C 
ATOM     47  C   UNL A   1      40.055  26.257  28.015  1.00  0.00     0.029 A 
ATOM     48  N   UNL A   1      42.254  26.643  28.081  1.00  0.00    -0.354 N 
ATOM     49  C   UNL A   1      43.800  30.605  28.888  1.00  0.00     0.074 A 
ATOM     50  C   UNL A   1      42.737  31.493  29.308  1.00  0.00     0.031 C 
ATOM     51  C   UNL A   1      40.673  25.091  27.777  1.00  0.00     0.029 A 
ATOM     52  C   UNL A   1      42.112  25.320  27.739  1.00  0.00     0.049 A 
ATOM     53  H   UNL A   1      43.129  27.079  28.200  1.00  0.00     0.167 HD
ATOM     54  C   UNL A   1      45.110  30.946  28.828  1.00  0.00     0.037 A 
ATOM     55  C   UNL A   1      43.029  24.403  27.383  1.00  0.00     0.037 A 
ATOM     56  C   UNL A   1      46.165  30.034  28.463  1.00  0.00     0.049 A 
ATOM     57  C   UNL A   1      44.470  24.810  27.302  1.00  0.00     0.074 A 
ATOM     58  C   UNL A   1      47.528  30.269  28.400  1.00  0.00     0.029 A 
ATOM     59  N   UNL A   1      45.972  28.705  28.113  1.00  0.00    -0.354 N 
ATOM     60  N   UNL A   1      45.014  25.976  27.558  1.00  0.00    -0.248 NA
ATOM     61  C   UNL A   1      45.423  23.783  26.862  1.00  0.00     0.031 C 
ATOM     62  C   UNL A   1      48.155  29.093  27.977  1.00  0.00     0.029 A 
ATOM     63  C   UNL A   1      47.189  28.112  27.819  1.00  0.00     0.049 A 
ATOM     64  H   UNL A   1      45.100  28.250  28.079  1.00  0.00     0.167 HD
ATOM     65  C   UNL A   1      46.373  25.820  27.323  1.00  0.00     0.074 A 
ATOM     66  C   UNL A   1      46.573  24.442  26.924  1.00  0.00     0.031 C 
ATOM     67  C   UNL A   1      47.365  26.738  27.425  1.00  0.00     0.037 A 
BRANCH  54  68
ATOM     68  C   UNL A   1      45.476  32.372  29.128  1.00  0.00     0.057 A 
ATOM     69  C   UNL A   1      45.862  32.794  30.406  1.00  0.00     0.134 A 
ATOM     70  C   UNL A   1      45.477  33.331  28.105  1.00  0.00     0.134 A 
ATOM     71  F   UNL A   1      45.874  31.932  31.433  1.00  0.00    -0.206 F 
ATOM     72  C   UNL A   1      46.211  34.123  30.661  1.00  0.00     0.040 A 
ATOM     73  C   UNL A   1      45.849  34.656  28.342  1.00  0.00     0.040 A 
ATOM     74  F   UNL A   1      45.126  32.994  26.855  1.00  0.00    -0.206 F 
ATOM     75  C   UNL A   1      46.212  35.057  29.626  1.00  0.00     0.006 A 
ENDBRANCH  54  68
BRANCH  55  76
ATOM     76  C   UNL A   1      42.601  23.022  27.042  1.00  0.00     0.057 A 
ATOM     77  C   UNL A   1      42.544  22.594  25.711  1.00  0.00     0.134 A 
ATOM     78  C   UNL A   1      42.261  22.093  28.033  1.00  0.00     0.134 A 
ATOM     79  F   UNL A   1      42.837  23.444  24.715  1.00  0.00    -0.206 F 
ATOM     80  C   UNL A   1      42.161  21.293  25.378  1.00  0.00     0.040 A 
ATOM     81  C   UNL A   1      41.903  20.783  27.717  1.00  0.00     0.040 A 
ATOM     82  F   UNL A   1      42.299  22.440  29.328  1.00  0.00    -0.206 F 
ATOM     83  C   UNL A   1      41.848  20.381  26.384  1.00  0.00     0.006 A 
ENDBRANCH  55  76
BRANCH  67  84
ATOM     84  C   UNL A   1      48.756  26.262  27.133  1.00  0.00     0.057 A 
ATOM     85  C   UNL A   1      49.544  25.644  28.111  1.00  0.00     0.134 A 
ATOM     86  C   UNL A   1      49.303  26.407  25.852  1.00  0.00     0.134 A 
ATOM     87  F   UNL A   1      49.082  25.491  29.361  1.00  0.00    -0.206 F 
ATOM     88  C   UNL A   1      50.840  25.207  27.831  1.00  0.00     0.040 A 
ATOM     89  C   UNL A   1      50.588  25.953  25.554  1.00  0.00     0.040 A 
ATOM     90  F   UNL A   1      48.597  26.987  24.871  1.00  0.00    -0.206 F 
ATOM     91  C   UNL A   1      51.363  25.356  26.547  1.00  0.00     0.006 A 
ENDBRANCH  67  84
ENDBRANCH  41  42
ENDBRANCH  34  36
ENDBRANCH  33  34
ENDBRANCH  32  33
ENDBRANCH   1  32
TORSDOF 15
ENDMDL
MODEL 3
REMARK VINA RESULT:     -12.1      4.616      9.468
REMARK SMILES O=C(NC1(C(=O)OCCOC(=O)c2ccc(-c3c4nc(c(-c5c(F)cccc5F)c5ccc([nH]5)c(-c5c(F)cccc5F)c5nc(c(-c6c(F)cccc6F)c6ccc3[nH]6)C=C5)C=C4)cc2)CC[NH2+]CC1)OCC1c2ccccc2-c2ccccc21
REMARK SMILES IDX 8 1 7 2 5 3 6 4 4 5 67 6 71 7 68 8 70 9 69 10 3 13 1 14 2 15
REMARK SMILES IDX 72 17 73 18 74 19 75 20 86 21 76 22 80 23 81 24 85 25 77 26
REMARK SMILES IDX 79 27 82 28 84 29 78 30 83 31 9 32 10 33 11 34 12 35 13 36
REMARK SMILES IDX 14 37 66 38 15 39 65 40 16 41 17 42 18 43 59 44 19 45 64 46
REMARK SMILES IDX 58 47 60 48 20 49 63 50 57 51 56 52 21 54 47 55 30 56 46 57
REMARK SMILES IDX 31 58 34 59 45 60 61 61 32 62 33 63 44 65 62 66 35 67 22 68
REMARK SMILES IDX 23 69 28 70 24 71 25 72 27 73 29 74 26 75 48 76 49 77 54 78
REMARK SMILES IDX 50 79 51 80 53 81 55 82 52 83 36 84 37 85 42 86 38 87 39 88
REMARK SMILES IDX 41 89 43 90 40 91
REMARK H PARENT 69 11 69 12 3 16 60 53 34 64
REMARK Flexibility Score: inf
ROOT
ATOM      1  C   UNL A   1      36.926  22.163  24.596  1.00  0.00     0.274 C 
ENDROOT
BRANCH   1   2
ATOM      2  O   UNL A   1      35.876  23.007  25.112  1.00  0.00    -0.460 OA
BRANCH   2   3
ATOM      3  C   UNL A   1      34.836  22.369  25.714  1.00  0.00     0.332 C 
ATOM      4  O   UNL A   1      34.908  21.821  26.813  1.00  0.00    -0.249 OA
BRANCH   3   5
ATOM      5  C   UNL A   1      33.522  22.412  24.900  1.00  0.00     0.151 C 
ATOM      6  C   UNL A   1      33.519  23.448  23.767  1.00  0.00     0.102 C 
ATOM      7  C   UNL A   1      33.395  21.034  24.207  1.00  0.00     0.102 C 
ATOM      8  C   UNL A   1      32.231  23.365  22.958  1.00  0.00     0.263 C 
ATOM      9  C   UNL A   1      32.157  20.964  23.312  1.00  0.00     0.263 C 
ATOM     10  N   UNL A   1      32.115  22.048  22.333  1.00  0.00    -0.346 N 
ATOM     11  H   UNL A   1      32.887  21.926  21.677  1.00  0.00     0.346 HD
ATOM     12  H   UNL A   1      31.213  22.005  21.858  1.00  0.00     0.346 HD
BRANCH   5  13
ATOM     13  N   UNL A   1      32.395  22.554  25.859  1.00  0.00    -0.305 N 
ATOM     14  O   UNL A   1      30.979  23.627  27.251  1.00  0.00    -0.225 OA
ATOM     15  C   UNL A   1      31.971  23.660  26.532  1.00  0.00     0.408 C 
ATOM     16  H   UNL A   1      31.881  21.732  26.033  1.00  0.00     0.168 HD
BRANCH  15  17
ATOM     17  O   UNL A   1      32.733  24.746  26.307  1.00  0.00    -0.449 OA
BRANCH  17  18
ATOM     18  C   UNL A   1      32.138  26.020  26.601  1.00  0.00     0.248 C 
BRANCH  18  19
ATOM     19  C   UNL A   1      32.520  27.086  25.552  1.00  0.00     0.088 C 
ATOM     20  C   UNL A   1      31.415  27.567  24.612  1.00  0.00    -0.029 A 
ATOM     21  C   UNL A   1      32.946  28.400  26.207  1.00  0.00    -0.029 A 
ATOM     22  C   UNL A   1      30.638  26.833  23.730  1.00  0.00     0.005 A 
ATOM     23  C   UNL A   1      31.241  28.966  24.737  1.00  0.00    -0.014 A 
ATOM     24  C   UNL A   1      32.159  29.468  25.735  1.00  0.00    -0.014 A 
ATOM     25  C   UNL A   1      33.959  28.607  27.133  1.00  0.00     0.005 A 
ATOM     26  C   UNL A   1      29.679  27.513  22.968  1.00  0.00     0.000 A 
ATOM     27  C   UNL A   1      30.297  29.640  23.975  1.00  0.00     0.009 A 
ATOM     28  C   UNL A   1      32.327  30.744  26.246  1.00  0.00     0.009 A 
ATOM     29  C   UNL A   1      34.135  29.894  27.640  1.00  0.00     0.000 A 
ATOM     30  C   UNL A   1      29.512  28.902  23.086  1.00  0.00     0.001 A 
ATOM     31  C   UNL A   1      33.315  30.951  27.213  1.00  0.00     0.001 A 
ENDBRANCH  18  19
ENDBRANCH  17  18
ENDBRANCH  15  17
ENDBRANCH   5  13
ENDBRANCH   3   5
ENDBRANCH   2   3
ENDBRANCH   1   2
BRANCH   1  32
ATOM     32  C   UNL A   1      38.111  22.079  25.555  1.00  0.00     0.275 C 
BRANCH  32  33
ATOM     33  O   UNL A   1      38.370  23.371  26.121  1.00  0.00    -0.458 OA
BRANCH  33  34
ATOM     34  C   UNL A   1      39.658  23.627  26.444  1.00  0.00     0.338 C 
ATOM     35  O   UNL A   1      40.642  22.978  26.134  1.00  0.00    -0.246 OA
BRANCH  34  36
ATOM     36  C   UNL A   1      39.724  24.845  27.276  1.00  0.00     0.060 A 
ATOM     37  C   UNL A   1      40.555  25.905  26.917  1.00  0.00     0.016 A 
ATOM     38  C   UNL A   1      39.008  24.896  28.472  1.00  0.00     0.016 A 
ATOM     39  C   UNL A   1      40.738  26.977  27.786  1.00  0.00     0.010 A 
ATOM     40  C   UNL A   1      39.109  26.024  29.291  1.00  0.00     0.010 A 
ATOM     41  C   UNL A   1      39.994  27.068  28.969  1.00  0.00    -0.014 A 
BRANCH  41  42
ATOM     42  C   UNL A   1      40.123  28.249  29.864  1.00  0.00     0.031 A 
ATOM     43  C   UNL A   1      41.201  28.290  30.913  1.00  0.00     0.074 A 
ATOM     44  C   UNL A   1      39.249  29.270  29.760  1.00  0.00     0.049 A 
ATOM     45  N   UNL A   1      41.335  29.101  31.932  1.00  0.00    -0.248 NA
ATOM     46  C   UNL A   1      42.255  27.268  30.817  1.00  0.00     0.031 C 
ATOM     47  C   UNL A   1      38.181  29.374  28.764  1.00  0.00     0.029 A 
ATOM     48  N   UNL A   1      39.114  30.413  30.508  1.00  0.00    -0.354 N 
ATOM     49  C   UNL A   1      42.448  28.649  32.632  1.00  0.00     0.074 A 
ATOM     50  C   UNL A   1      42.953  27.493  31.922  1.00  0.00     0.031 C 
ATOM     51  C   UNL A   1      37.523  30.529  28.940  1.00  0.00     0.029 A 
ATOM     52  C   UNL A   1      38.058  31.200  30.118  1.00  0.00     0.049 A 
ATOM     53  H   UNL A   1      39.716  30.646  31.251  1.00  0.00     0.167 HD
ATOM     54  C   UNL A   1      42.991  29.155  33.766  1.00  0.00     0.037 A 
ATOM     55  C   UNL A   1      37.541  32.311  30.672  1.00  0.00     0.037 A 
ATOM     56  C   UNL A   1      42.512  30.341  34.430  1.00  0.00     0.049 A 
ATOM     57  C   UNL A   1      38.145  32.839  31.940  1.00  0.00     0.074 A 
ATOM     58  C   UNL A   1      43.008  30.956  35.567  1.00  0.00     0.029 A 
ATOM     59  N   UNL A   1      41.431  31.101  34.005  1.00  0.00    -0.354 N 
ATOM     60  N   UNL A   1      39.167  32.379  32.621  1.00  0.00    -0.248 NA
ATOM     61  C   UNL A   1      37.513  34.026  32.529  1.00  0.00     0.031 C 
ATOM     62  C   UNL A   1      42.206  32.065  35.850  1.00  0.00     0.029 A 
ATOM     63  C   UNL A   1      41.237  32.169  34.865  1.00  0.00     0.049 A 
ATOM     64  H   UNL A   1      40.884  30.909  33.209  1.00  0.00     0.167 HD
ATOM     65  C   UNL A   1      39.310  33.226  33.711  1.00  0.00     0.074 A 
ATOM     66  C   UNL A   1      38.281  34.239  33.589  1.00  0.00     0.031 C 
ATOM     67  C   UNL A   1      40.208  33.167  34.724  1.00  0.00     0.037 A 
BRANCH  54  68
ATOM     68  C   UNL A   1      44.141  28.410  34.383  1.00  0.00     0.057 A 
ATOM     69  C   UNL A   1      45.476  28.729  34.106  1.00  0.00     0.134 A 
ATOM     70  C   UNL A   1      43.902  27.378  35.301  1.00  0.00     0.134 A 
ATOM     71  F   UNL A   1      45.776  29.698  33.229  1.00  0.00    -0.206 F 
ATOM     72  C   UNL A   1      46.532  28.033  34.701  1.00  0.00     0.040 A 
ATOM     73  C   UNL A   1      44.948  26.693  35.922  1.00  0.00     0.040 A 
ATOM     74  F   UNL A   1      42.648  27.026  35.619  1.00  0.00    -0.206 F 
ATOM     75  C   UNL A   1      46.269  27.015  35.617  1.00  0.00     0.006 A 
ENDBRANCH  54  68
BRANCH  55  76
ATOM     76  C   UNL A   1      36.366  32.973  30.048  1.00  0.00     0.057 A 
ATOM     77  C   UNL A   1      36.519  33.821  28.947  1.00  0.00     0.134 A 
ATOM     78  C   UNL A   1      35.066  32.757  30.521  1.00  0.00     0.134 A 
ATOM     79  F   UNL A   1      37.742  34.085  28.462  1.00  0.00    -0.206 F 
ATOM     80  C   UNL A   1      35.422  34.435  28.340  1.00  0.00     0.040 A 
ATOM     81  C   UNL A   1      33.958  33.341  29.908  1.00  0.00     0.040 A 
ATOM     82  F   UNL A   1      34.852  31.951  31.571  1.00  0.00    -0.206 F 
ATOM     83  C   UNL A   1      34.135  34.188  28.815  1.00  0.00     0.006 A 
ENDBRANCH  55  76
BRANCH  67  84
ATOM     84  C   UNL A   1      40.134  34.252  35.755  1.00  0.00     0.057 A 
ATOM     85  C   UNL A   1      39.366  34.112  36.918  1.00  0.00     0.134 A 
ATOM     86  C   UNL A   1      40.855  35.441  35.591  1.00  0.00     0.134 A 
ATOM     87  F   UNL A   1      38.640  33.003  37.125  1.00  0.00    -0.206 F 
ATOM     88  C   UNL A   1      39.300  35.128  37.872  1.00  0.00     0.040 A 
ATOM     89  C   UNL A   1      40.816  36.454  36.550  1.00  0.00     0.040 A 
ATOM     90  F   UNL A   1      41.612  35.633  34.501  1.00  0.00    -0.206 F 
ATOM     91  C   UNL A   1      40.032  36.301  37.691  1.00  0.00     0.006 A 
ENDBRANCH  67  84
ENDBRANCH  41  42
ENDBRANCH  34  36
ENDBRANCH  33  34
ENDBRANCH  32  33
ENDBRANCH   1  32
TORSDOF 15
ENDMDL
