MODEL 1
REMARK VINA RESULT:     -10.1      0.000      0.000
REMARK SMILES O=C(Cc1ccccc1F)NC[C@@H]1CC[C@@H](C(=O)OCCOC(=O)c2ccc(-c3c4nc(c(-c5c(F)cccc5F)c5ccc([nH]5)c(-c5c(F)cccc5F)c5nc(c(-c6c(F)cccc6F)c6ccc3[nH]6)C=C5)C=C4)cc2)O1
REMARK SMILES IDX 20 1 19 2 17 3 18 4 16 5 13 6 14 7 79 8 15 9 12 10 11 11
REMARK SMILES IDX 1 12 2 13 3 15 4 16 5 17 9 18 6 19 8 20 10 21 7 22 21 23
REMARK SMILES IDX 22 24 23 25 24 26 25 27 26 28 78 29 27 30 77 31 28 32 29 33
REMARK SMILES IDX 30 34 71 35 31 36 76 37 70 38 72 39 32 40 75 41 69 42 68 43
REMARK SMILES IDX 33 45 59 46 42 47 58 48 43 49 46 50 57 51 73 52 44 53 45 54
REMARK SMILES IDX 56 56 74 57 47 58 34 59 35 60 40 61 36 62 37 63 39 64 41 65
REMARK SMILES IDX 38 66 60 67 61 68 66 69 62 70 63 71 65 72 67 73 64 74 48 75
REMARK SMILES IDX 49 76 54 77 50 78 51 79 53 80 55 81 52 82
REMARK H PARENT 11 14 72 44 46 55
REMARK Flexibility Score: inf
ROOT
ATOM      1  C   UNL A   1      32.617  36.404  31.010  1.00  0.00     0.274 C 
ENDROOT
BRANCH   1   2
ATOM      2  O   UNL A   1      33.774  37.041  31.593  1.00  0.00    -0.460 OA
BRANCH   2   3
ATOM      3  C   UNL A   1      34.135  36.596  32.830  1.00  0.00     0.335 C 
ATOM      4  O   UNL A   1      33.740  37.067  33.889  1.00  0.00    -0.249 OA
BRANCH   3   5
ATOM      5  C   UNL A   1      35.111  35.416  32.719  1.00  0.00     0.228 C 
ATOM      6  C   UNL A   1      35.364  34.254  34.714  1.00  0.00     0.138 C 
ATOM      7  C   UNL A   1      34.967  33.217  33.690  1.00  0.00     0.037 C 
ATOM      8  O   UNL A   1      35.910  35.322  33.917  1.00  0.00    -0.361 OA
ATOM      9  C   UNL A   1      34.394  34.074  32.576  1.00  0.00     0.047 C 
BRANCH   6  10
ATOM     10  C   UNL A   1      36.387  33.800  35.747  1.00  0.00     0.147 C 
BRANCH  10  11
ATOM     11  N   UNL A   1      37.556  33.265  35.074  1.00  0.00    -0.353 N 
ATOM     12  O   UNL A   1      37.733  31.379  36.361  1.00  0.00    -0.275 OA
ATOM     13  C   UNL A   1      38.107  32.048  35.403  1.00  0.00     0.224 C 
ATOM     14  H   UNL A   1      37.971  33.793  34.354  1.00  0.00     0.163 HD
BRANCH  13  15
ATOM     15  C   UNL A   1      39.178  31.581  34.434  1.00  0.00     0.138 C 
BRANCH  15  16
ATOM     16  C   UNL A   1      38.812  30.347  33.640  1.00  0.00    -0.003 A 
ATOM     17  C   UNL A   1      37.547  30.147  33.066  1.00  0.00     0.007 A 
ATOM     18  C   UNL A   1      39.795  29.379  33.409  1.00  0.00     0.126 A 
ATOM     19  C   UNL A   1      37.277  29.003  32.309  1.00  0.00     0.001 A 
ATOM     20  C   UNL A   1      39.532  28.236  32.656  1.00  0.00     0.039 A 
ATOM     21  F   UNL A   1      41.027  29.547  33.910  1.00  0.00    -0.207 F 
ATOM     22  C   UNL A   1      38.268  28.046  32.106  1.00  0.00     0.003 A 
ENDBRANCH  15  16
ENDBRANCH  13  15
ENDBRANCH  10  11
ENDBRANCH   6  10
ENDBRANCH   3   5
ENDBRANCH   2   3
ENDBRANCH   1   2
BRANCH   1  23
ATOM     23  C   UNL A   1      32.898  35.978  29.573  1.00  0.00     0.275 C 
BRANCH  23  24
ATOM     24  O   UNL A   1      32.480  34.616  29.384  1.00  0.00    -0.458 OA
BRANCH  24  25
ATOM     25  C   UNL A   1      33.166  33.911  28.459  1.00  0.00     0.338 C 
ATOM     26  O   UNL A   1      32.819  33.621  27.328  1.00  0.00    -0.246 OA
BRANCH  25  27
ATOM     27  C   UNL A   1      34.476  33.535  29.011  1.00  0.00     0.060 A 
ATOM     28  C   UNL A   1      35.600  34.297  28.695  1.00  0.00     0.016 A 
ATOM     29  C   UNL A   1      34.605  32.356  29.744  1.00  0.00     0.016 A 
ATOM     30  C   UNL A   1      36.870  33.844  29.046  1.00  0.00     0.010 A 
ATOM     31  C   UNL A   1      35.872  31.943  30.163  1.00  0.00     0.010 A 
ATOM     32  C   UNL A   1      37.020  32.663  29.789  1.00  0.00    -0.014 A 
BRANCH  32  33
ATOM     33  C   UNL A   1      38.373  32.156  30.131  1.00  0.00     0.031 A 
ATOM     34  C   UNL A   1      38.861  30.860  29.543  1.00  0.00     0.074 A 
ATOM     35  C   UNL A   1      39.184  32.864  30.940  1.00  0.00     0.049 A 
ATOM     36  N   UNL A   1      39.939  30.174  29.830  1.00  0.00    -0.248 NA
ATOM     37  C   UNL A   1      38.026  30.253  28.495  1.00  0.00     0.031 C 
ATOM     38  C   UNL A   1      38.872  34.169  31.522  1.00  0.00     0.029 A 
ATOM     39  N   UNL A   1      40.449  32.589  31.398  1.00  0.00    -0.354 N 
ATOM     40  C   UNL A   1      39.893  29.041  29.027  1.00  0.00     0.074 A 
ATOM     41  C   UNL A   1      38.679  29.127  28.244  1.00  0.00     0.031 C 
ATOM     42  C   UNL A   1      39.934  34.604  32.218  1.00  0.00     0.029 A 
ATOM     43  C   UNL A   1      40.970  33.577  32.196  1.00  0.00     0.049 A 
ATOM     44  H   UNL A   1      40.935  31.763  31.174  1.00  0.00     0.167 HD
ATOM     45  C   UNL A   1      40.782  28.023  28.950  1.00  0.00     0.037 A 
ATOM     46  C   UNL A   1      42.140  33.637  32.860  1.00  0.00     0.037 A 
ATOM     47  C   UNL A   1      42.006  27.952  29.703  1.00  0.00     0.049 A 
ATOM     48  C   UNL A   1      43.080  32.470  32.811  1.00  0.00     0.074 A 
ATOM     49  C   UNL A   1      42.953  26.942  29.719  1.00  0.00     0.029 A 
ATOM     50  N   UNL A   1      42.463  28.943  30.558  1.00  0.00    -0.354 N 
ATOM     51  N   UNL A   1      42.974  31.353  32.134  1.00  0.00    -0.248 NA
ATOM     52  C   UNL A   1      44.288  32.555  33.646  1.00  0.00     0.031 C 
ATOM     53  C   UNL A   1      43.975  27.314  30.600  1.00  0.00     0.029 A 
ATOM     54  C   UNL A   1      43.677  28.567  31.110  1.00  0.00     0.049 A 
ATOM     55  H   UNL A   1      41.994  29.787  30.746  1.00  0.00     0.167 HD
ATOM     56  C   UNL A   1      44.096  30.604  32.457  1.00  0.00     0.074 A 
ATOM     57  C   UNL A   1      44.880  31.399  33.380  1.00  0.00     0.031 C 
ATOM     58  C   UNL A   1      44.441  29.365  32.032  1.00  0.00     0.037 A 
BRANCH  45  59
ATOM     59  C   UNL A   1      40.448  26.887  28.033  1.00  0.00     0.057 A 
ATOM     60  C   UNL A   1      39.588  25.864  28.453  1.00  0.00     0.134 A 
ATOM     61  C   UNL A   1      41.003  26.784  26.752  1.00  0.00     0.134 A 
ATOM     62  F   UNL A   1      39.026  25.904  29.670  1.00  0.00    -0.206 F 
ATOM     63  C   UNL A   1      39.293  24.776  27.630  1.00  0.00     0.040 A 
ATOM     64  C   UNL A   1      40.701  25.710  25.913  1.00  0.00     0.040 A 
ATOM     65  F   UNL A   1      41.821  27.740  26.287  1.00  0.00    -0.206 F 
ATOM     66  C   UNL A   1      39.849  24.698  26.354  1.00  0.00     0.006 A 
ENDBRANCH  45  59
BRANCH  46  67
ATOM     67  C   UNL A   1      42.473  34.850  33.646  1.00  0.00     0.057 A 
ATOM     68  C   UNL A   1      42.122  34.968  34.996  1.00  0.00     0.134 A 
ATOM     69  C   UNL A   1      43.125  35.932  33.048  1.00  0.00     0.134 A 
ATOM     70  F   UNL A   1      41.496  33.960  35.623  1.00  0.00    -0.206 F 
ATOM     71  C   UNL A   1      42.387  36.131  35.718  1.00  0.00     0.040 A 
ATOM     72  C   UNL A   1      43.412  37.095  33.763  1.00  0.00     0.040 A 
ATOM     73  F   UNL A   1      43.506  35.865  31.763  1.00  0.00    -0.206 F 
ATOM     74  C   UNL A   1      43.034  37.200  35.100  1.00  0.00     0.006 A 
ENDBRANCH  46  67
BRANCH  58  75
ATOM     75  C   UNL A   1      45.722  28.793  32.554  1.00  0.00     0.057 A 
ATOM     76  C   UNL A   1      45.744  28.050  33.739  1.00  0.00     0.134 A 
ATOM     77  C   UNL A   1      46.941  29.028  31.908  1.00  0.00     0.134 A 
ATOM     78  F   UNL A   1      44.608  27.798  34.406  1.00  0.00    -0.206 F 
ATOM     79  C   UNL A   1      46.939  27.563  34.270  1.00  0.00     0.040 A 
ATOM     80  C   UNL A   1      48.141  28.534  32.420  1.00  0.00     0.040 A 
ATOM     81  F   UNL A   1      46.980  29.725  30.762  1.00  0.00    -0.206 F 
ATOM     82  C   UNL A   1      48.142  27.804  33.608  1.00  0.00     0.006 A 
ENDBRANCH  58  75
ENDBRANCH  32  33
ENDBRANCH  25  27
ENDBRANCH  24  25
ENDBRANCH  23  24
ENDBRANCH   1  23
TORSDOF 15
ENDMDL
MODEL 2
REMARK VINA RESULT:      -9.9      0.851      6.362
REMARK SMILES O=C(Cc1ccccc1F)NC[C@@H]1CC[C@@H](C(=O)OCCOC(=O)c2ccc(-c3c4nc(c(-c5c(F)cccc5F)c5ccc([nH]5)c(-c5c(F)cccc5F)c5nc(c(-c6c(F)cccc6F)c6ccc3[nH]6)C=C5)C=C4)cc2)O1
REMARK SMILES IDX 20 1 19 2 17 3 18 4 16 5 13 6 14 7 79 8 15 9 12 10 11 11
REMARK SMILES IDX 1 12 2 13 3 15 4 16 5 17 9 18 6 19 8 20 10 21 7 22 21 23
REMARK SMILES IDX 22 24 23 25 24 26 25 27 26 28 78 29 27 30 77 31 28 32 29 33
REMARK SMILES IDX 30 34 71 35 31 36 76 37 70 38 72 39 32 40 75 41 69 42 68 43
REMARK SMILES IDX 33 45 59 46 42 47 58 48 43 49 46 50 57 51 73 52 44 53 45 54
REMARK SMILES IDX 56 56 74 57 47 58 34 59 35 60 40 61 36 62 37 63 39 64 41 65
REMARK SMILES IDX 38 66 60 67 61 68 66 69 62 70 63 71 65 72 67 73 64 74 48 75
REMARK SMILES IDX 49 76 54 77 50 78 51 79 53 80 55 81 52 82
REMARK H PARENT 11 14 72 44 46 55
REMARK Flexibility Score: inf
ROOT
ATOM      1  C   UNL A   1      32.712  36.757  31.071  1.00  0.00     0.274 C 
ENDROOT
BRANCH   1   2
ATOM      2  O   UNL A   1      33.903  37.274  31.701  1.00  0.00    -0.460 OA
BRANCH   2   3
ATOM      3  C   UNL A   1      34.200  36.750  32.925  1.00  0.00     0.335 C 
ATOM      4  O   UNL A   1      33.853  37.230  33.997  1.00  0.00    -0.249 OA
BRANCH   3   5
ATOM      5  C   UNL A   1      35.033  35.469  32.779  1.00  0.00     0.228 C 
ATOM      6  C   UNL A   1      35.366  34.366  34.796  1.00  0.00     0.138 C 
ATOM      7  C   UNL A   1      34.764  33.338  33.868  1.00  0.00     0.037 C 
ATOM      8  O   UNL A   1      35.935  35.337  33.898  1.00  0.00    -0.361 OA
ATOM      9  C   UNL A   1      34.173  34.207  32.773  1.00  0.00     0.047 C 
BRANCH   6  10
ATOM     10  C   UNL A   1      36.436  33.847  35.748  1.00  0.00     0.147 C 
BRANCH  10  11
ATOM     11  N   UNL A   1      37.571  33.357  34.986  1.00  0.00    -0.353 N 
ATOM     12  O   UNL A   1      37.681  31.310  36.004  1.00  0.00    -0.275 OA
ATOM     13  C   UNL A   1      38.071  32.085  35.137  1.00  0.00     0.224 C 
ATOM     14  H   UNL A   1      37.999  33.960  34.335  1.00  0.00     0.163 HD
BRANCH  13  15
ATOM     15  C   UNL A   1      39.106  31.707  34.094  1.00  0.00     0.138 C 
BRANCH  15  16
ATOM     16  C   UNL A   1      38.835  30.400  33.385  1.00  0.00    -0.003 A 
ATOM     17  C   UNL A   1      37.581  30.053  32.859  1.00  0.00     0.007 A 
ATOM     18  C   UNL A   1      39.896  29.510  33.185  1.00  0.00     0.126 A 
ATOM     19  C   UNL A   1      37.398  28.845  32.179  1.00  0.00     0.001 A 
ATOM     20  C   UNL A   1      39.721  28.304  32.509  1.00  0.00     0.039 A 
ATOM     21  F   UNL A   1      41.119  29.817  33.641  1.00  0.00    -0.207 F 
ATOM     22  C   UNL A   1      38.467  27.969  32.006  1.00  0.00     0.003 A 
ENDBRANCH  15  16
ENDBRANCH  13  15
ENDBRANCH  10  11
ENDBRANCH   6  10
ENDBRANCH   3   5
ENDBRANCH   2   3
ENDBRANCH   1   2
BRANCH   1  23
ATOM     23  C   UNL A   1      33.033  36.176  29.698  1.00  0.00     0.275 C 
BRANCH  23  24
ATOM     24  O   UNL A   1      32.533  34.830  29.615  1.00  0.00    -0.458 OA
BRANCH  24  25
ATOM     25  C   UNL A   1      33.074  34.059  28.647  1.00  0.00     0.338 C 
ATOM     26  O   UNL A   1      32.581  33.742  27.579  1.00  0.00    -0.246 OA
BRANCH  25  27
ATOM     27  C   UNL A   1      34.423  33.643  29.056  1.00  0.00     0.060 A 
ATOM     28  C   UNL A   1      35.535  34.186  28.414  1.00  0.00     0.016 A 
ATOM     29  C   UNL A   1      34.578  32.625  29.996  1.00  0.00     0.016 A 
ATOM     30  C   UNL A   1      36.803  33.662  28.652  1.00  0.00     0.010 A 
ATOM     31  C   UNL A   1      35.859  32.152  30.292  1.00  0.00     0.010 A 
ATOM     32  C   UNL A   1      36.980  32.641  29.598  1.00  0.00    -0.014 A 
BRANCH  32  33
ATOM     33  C   UNL A   1      38.324  32.050  29.826  1.00  0.00     0.031 A 
ATOM     34  C   UNL A   1      39.334  32.782  30.668  1.00  0.00     0.074 A 
ATOM     35  C   UNL A   1      38.638  30.847  29.310  1.00  0.00     0.049 A 
ATOM     36  N   UNL A   1      40.600  32.514  30.862  1.00  0.00    -0.248 NA
ATOM     37  C   UNL A   1      38.856  33.973  31.388  1.00  0.00     0.031 C 
ATOM     38  C   UNL A   1      37.736  29.995  28.536  1.00  0.00     0.029 A 
ATOM     39  N   UNL A   1      39.804  30.125  29.376  1.00  0.00    -0.354 N 
ATOM     40  C   UNL A   1      41.078  33.519  31.693  1.00  0.00     0.074 A 
ATOM     41  C   UNL A   1      39.968  34.408  31.963  1.00  0.00     0.031 C 
ATOM     42  C   UNL A   1      38.364  28.845  28.242  1.00  0.00     0.029 A 
ATOM     43  C   UNL A   1      39.734  28.911  28.738  1.00  0.00     0.049 A 
ATOM     44  H   UNL A   1      40.611  30.447  29.838  1.00  0.00     0.167 HD
ATOM     45  C   UNL A   1      42.328  33.687  32.185  1.00  0.00     0.037 A 
ATOM     46  C   UNL A   1      40.677  27.969  28.548  1.00  0.00     0.037 A 
ATOM     47  C   UNL A   1      43.425  32.788  31.944  1.00  0.00     0.049 A 
ATOM     48  C   UNL A   1      42.072  28.206  29.046  1.00  0.00     0.074 A 
ATOM     49  C   UNL A   1      44.738  32.893  32.371  1.00  0.00     0.029 A 
ATOM     50  N   UNL A   1      43.330  31.604  31.230  1.00  0.00    -0.354 N 
ATOM     51  N   UNL A   1      42.540  29.216  29.737  1.00  0.00    -0.248 NA
ATOM     52  C   UNL A   1      43.079  27.188  28.709  1.00  0.00     0.031 C 
ATOM     53  C   UNL A   1      45.443  31.781  31.897  1.00  0.00     0.029 A 
ATOM     54  C   UNL A   1      44.562  30.971  31.200  1.00  0.00     0.049 A 
ATOM     55  H   UNL A   1      42.510  31.264  30.806  1.00  0.00     0.167 HD
ATOM     56  C   UNL A   1      43.891  28.958  29.919  1.00  0.00     0.074 A 
ATOM     57  C   UNL A   1      44.167  27.687  29.280  1.00  0.00     0.031 C 
ATOM     58  C   UNL A   1      44.821  29.711  30.553  1.00  0.00     0.037 A 
BRANCH  45  59
ATOM     59  C   UNL A   1      42.583  34.907  33.016  1.00  0.00     0.057 A 
ATOM     60  C   UNL A   1      43.170  36.044  32.447  1.00  0.00     0.134 A 
ATOM     61  C   UNL A   1      42.280  34.947  34.382  1.00  0.00     0.134 A 
ATOM     62  F   UNL A   1      43.486  36.068  31.143  1.00  0.00    -0.206 F 
ATOM     63  C   UNL A   1      43.452  37.179  33.210  1.00  0.00     0.040 A 
ATOM     64  C   UNL A   1      42.541  36.082  35.151  1.00  0.00     0.040 A 
ATOM     65  F   UNL A   1      41.700  33.895  34.980  1.00  0.00    -0.206 F 
ATOM     66  C   UNL A   1      43.134  37.200  34.567  1.00  0.00     0.006 A 
ENDBRANCH  45  59
BRANCH  46  67
ATOM     67  C   UNL A   1      40.327  26.719  27.831  1.00  0.00     0.057 A 
ATOM     68  C   UNL A   1      39.592  25.700  28.449  1.00  0.00     0.134 A 
ATOM     69  C   UNL A   1      40.751  26.507  26.516  1.00  0.00     0.134 A 
ATOM     70  F   UNL A   1      39.157  25.849  29.709  1.00  0.00    -0.206 F 
ATOM     71  C   UNL A   1      39.312  24.503  27.792  1.00  0.00     0.040 A 
ATOM     72  C   UNL A   1      40.463  25.321  25.841  1.00  0.00     0.040 A 
ATOM     73  F   UNL A   1      41.439  27.459  25.866  1.00  0.00    -0.206 F 
ATOM     74  C   UNL A   1      39.749  24.311  26.482  1.00  0.00     0.006 A 
ENDBRANCH  46  67
BRANCH  58  75
ATOM     75  C   UNL A   1      46.221  29.182  30.594  1.00  0.00     0.057 A 
ATOM     76  C   UNL A   1      47.132  29.488  29.577  1.00  0.00     0.134 A 
ATOM     77  C   UNL A   1      46.646  28.323  31.615  1.00  0.00     0.134 A 
ATOM     78  F   UNL A   1      46.780  30.300  28.570  1.00  0.00    -0.206 F 
ATOM     79  C   UNL A   1      48.420  28.952  29.570  1.00  0.00     0.040 A 
ATOM     80  C   UNL A   1      47.936  27.792  31.627  1.00  0.00     0.040 A 
ATOM     81  F   UNL A   1      45.819  28.003  32.621  1.00  0.00    -0.206 F 
ATOM     82  C   UNL A   1      48.825  28.102  30.599  1.00  0.00     0.006 A 
ENDBRANCH  58  75
ENDBRANCH  32  33
ENDBRANCH  25  27
ENDBRANCH  24  25
ENDBRANCH  23  24
ENDBRANCH   1  23
TORSDOF 15
ENDMDL
MODEL 3
REMARK VINA RESULT:      -9.4      2.780      7.523
REMARK SMILES O=C(Cc1ccccc1F)NC[C@@H]1CC[C@@H](C(=O)OCCOC(=O)c2ccc(-c3c4nc(c(-c5c(F)cccc5F)c5ccc([nH]5)c(-c5c(F)cccc5F)c5nc(c(-c6c(F)cccc6F)c6ccc3[nH]6)C=C5)C=C4)cc2)O1
REMARK SMILES IDX 20 1 19 2 17 3 18 4 16 5 13 6 14 7 79 8 15 9 12 10 11 11
REMARK SMILES IDX 1 12 2 13 3 15 4 16 5 17 9 18 6 19 8 20 10 21 7 22 21 23
REMARK SMILES IDX 22 24 23 25 24 26 25 27 26 28 78 29 27 30 77 31 28 32 29 33
REMARK SMILES IDX 30 34 71 35 31 36 76 37 70 38 72 39 32 40 75 41 69 42 68 43
REMARK SMILES IDX 33 45 59 46 42 47 58 48 43 49 46 50 57 51 73 52 44 53 45 54
REMARK SMILES IDX 56 56 74 57 47 58 34 59 35 60 40 61 36 62 37 63 39 64 41 65
REMARK SMILES IDX 38 66 60 67 61 68 66 69 62 70 63 71 65 72 67 73 64 74 48 75
REMARK SMILES IDX 49 76 54 77 50 78 51 79 53 80 55 81 52 82
REMARK H PARENT 11 14 72 44 46 55
REMARK Flexibility Score: inf
ROOT
ATOM      1  C   UNL A   1      34.050  34.298  28.582  1.00  0.00     0.274 C 
ENDROOT
BRANCH   1   2
ATOM      2  O   UNL A   1      32.815  34.890  29.037  1.00  0.00    -0.460 OA
BRANCH   2   3
ATOM      3  C   UNL A   1      32.909  36.165  29.512  1.00  0.00     0.335 C 
ATOM      4  O   UNL A   1      33.254  37.137  28.851  1.00  0.00    -0.249 OA
BRANCH   3   5
ATOM      5  C   UNL A   1      32.524  36.221  30.997  1.00  0.00     0.228 C 
ATOM      6  C   UNL A   1      34.026  35.101  32.369  1.00  0.00     0.138 C 
ATOM      7  C   UNL A   1      33.929  36.499  32.932  1.00  0.00     0.037 C 
ATOM      8  O   UNL A   1      32.801  34.952  31.626  1.00  0.00    -0.361 OA
ATOM      9  C   UNL A   1      33.323  37.267  31.772  1.00  0.00     0.047 C 
BRANCH   6  10
ATOM     10  C   UNL A   1      34.149  33.984  33.398  1.00  0.00     0.147 C 
BRANCH  10  11
ATOM     11  N   UNL A   1      35.395  33.268  33.195  1.00  0.00    -0.353 N 
ATOM     12  O   UNL A   1      34.650  31.976  31.458  1.00  0.00    -0.275 OA
ATOM     13  C   UNL A   1      35.564  32.349  32.185  1.00  0.00     0.224 C 
ATOM     14  H   UNL A   1      36.148  33.447  33.803  1.00  0.00     0.163 HD
BRANCH  13  15
ATOM     15  C   UNL A   1      37.000  31.887  32.015  1.00  0.00     0.138 C 
BRANCH  15  16
ATOM     16  C   UNL A   1      37.866  32.818  31.196  1.00  0.00    -0.003 A 
ATOM     17  C   UNL A   1      37.671  33.047  29.825  1.00  0.00     0.007 A 
ATOM     18  C   UNL A   1      38.877  33.539  31.841  1.00  0.00     0.126 A 
ATOM     19  C   UNL A   1      38.479  33.949  29.127  1.00  0.00     0.001 A 
ATOM     20  C   UNL A   1      39.686  34.439  31.151  1.00  0.00     0.039 A 
ATOM     21  F   UNL A   1      39.075  33.377  33.157  1.00  0.00    -0.207 F 
ATOM     22  C   UNL A   1      39.489  34.643  29.788  1.00  0.00     0.003 A 
ENDBRANCH  15  16
ENDBRANCH  13  15
ENDBRANCH  10  11
ENDBRANCH   6  10
ENDBRANCH   3   5
ENDBRANCH   2   3
ENDBRANCH   1   2
BRANCH   1  23
ATOM     23  C   UNL A   1      33.810  32.895  28.034  1.00  0.00     0.275 C 
BRANCH  23  24
ATOM     24  O   UNL A   1      34.999  32.103  28.200  1.00  0.00    -0.458 OA
BRANCH  24  25
ATOM     25  C   UNL A   1      34.846  30.771  28.045  1.00  0.00     0.338 C 
ATOM     26  O   UNL A   1      33.817  30.155  27.832  1.00  0.00    -0.246 OA
BRANCH  25  27
ATOM     27  C   UNL A   1      36.158  30.117  28.148  1.00  0.00     0.060 A 
ATOM     28  C   UNL A   1      36.525  29.495  29.341  1.00  0.00     0.016 A 
ATOM     29  C   UNL A   1      37.070  30.225  27.099  1.00  0.00     0.016 A 
ATOM     30  C   UNL A   1      37.831  29.046  29.521  1.00  0.00     0.010 A 
ATOM     31  C   UNL A   1      38.357  29.704  27.251  1.00  0.00     0.010 A 
ATOM     32  C   UNL A   1      38.761  29.141  28.475  1.00  0.00    -0.014 A 
BRANCH  32  33
ATOM     33  C   UNL A   1      40.166  28.700  28.674  1.00  0.00     0.031 A 
ATOM     34  C   UNL A   1      41.157  29.620  29.333  1.00  0.00     0.074 A 
ATOM     35  C   UNL A   1      40.554  27.466  28.299  1.00  0.00     0.049 A 
ATOM     36  N   UNL A   1      42.453  29.487  29.462  1.00  0.00    -0.248 NA
ATOM     37  C   UNL A   1      40.620  30.857  29.924  1.00  0.00     0.031 C 
ATOM     38  C   UNL A   1      39.686  26.445  27.716  1.00  0.00     0.029 A 
ATOM     39  N   UNL A   1      41.783  26.858  28.370  1.00  0.00    -0.354 N 
ATOM     40  C   UNL A   1      42.890  30.632  30.114  1.00  0.00     0.074 A 
ATOM     41  C   UNL A   1      41.723  31.456  30.349  1.00  0.00     0.031 C 
ATOM     42  C   UNL A   1      40.395  25.321  27.528  1.00  0.00     0.029 A 
ATOM     43  C   UNL A   1      41.783  25.566  27.905  1.00  0.00     0.049 A 
ATOM     44  H   UNL A   1      42.586  27.305  28.722  1.00  0.00     0.167 HD
ATOM     45  C   UNL A   1      44.149  30.968  30.482  1.00  0.00     0.037 A 
ATOM     46  C   UNL A   1      42.794  24.687  27.769  1.00  0.00     0.037 A 
ATOM     47  C   UNL A   1      45.305  30.137  30.279  1.00  0.00     0.049 A 
ATOM     48  C   UNL A   1      44.191  25.103  28.122  1.00  0.00     0.074 A 
ATOM     49  C   UNL A   1      46.628  30.407  30.585  1.00  0.00     0.029 A 
ATOM     50  N   UNL A   1      45.272  28.862  29.736  1.00  0.00    -0.354 N 
ATOM     51  N   UNL A   1      44.609  26.235  28.636  1.00  0.00    -0.248 NA
ATOM     52  C   UNL A   1      45.262  24.134  27.846  1.00  0.00     0.031 C 
ATOM     53  C   UNL A   1      47.399  29.302  30.209  1.00  0.00     0.029 A 
ATOM     54  C   UNL A   1      46.552  28.333  29.695  1.00  0.00     0.049 A 
ATOM     55  H   UNL A   1      44.461  28.401  29.425  1.00  0.00     0.167 HD
ATOM     56  C   UNL A   1      45.987  26.115  28.746  1.00  0.00     0.074 A 
ATOM     57  C   UNL A   1      46.335  24.795  28.261  1.00  0.00     0.031 C 
ATOM     58  C   UNL A   1      46.883  27.022  29.202  1.00  0.00     0.037 A 
BRANCH  45  59
ATOM     59  C   UNL A   1      44.344  32.308  31.123  1.00  0.00     0.057 A 
ATOM     60  C   UNL A   1      44.591  33.441  30.338  1.00  0.00     0.134 A 
ATOM     61  C   UNL A   1      44.323  32.472  32.513  1.00  0.00     0.134 A 
ATOM     62  F   UNL A   1      44.626  33.349  29.000  1.00  0.00    -0.206 F 
ATOM     63  C   UNL A   1      44.815  34.693  30.914  1.00  0.00     0.040 A 
ATOM     64  C   UNL A   1      44.527  33.722  33.100  1.00  0.00     0.040 A 
ATOM     65  F   UNL A   1      44.074  31.427  33.317  1.00  0.00    -0.206 F 
ATOM     66  C   UNL A   1      44.780  34.835  32.300  1.00  0.00     0.006 A 
ENDBRANCH  45  59
BRANCH  46  67
ATOM     67  C   UNL A   1      42.514  23.326  27.252  1.00  0.00     0.057 A 
ATOM     68  C   UNL A   1      42.130  22.283  28.103  1.00  0.00     0.134 A 
ATOM     69  C   UNL A   1      42.656  23.035  25.892  1.00  0.00     0.134 A 
ATOM     70  F   UNL A   1      41.976  22.504  29.417  1.00  0.00    -0.206 F 
ATOM     71  C   UNL A   1      41.921  20.990  27.623  1.00  0.00     0.040 A 
ATOM     72  C   UNL A   1      42.433  21.750  25.395  1.00  0.00     0.040 A 
ATOM     73  F   UNL A   1      42.998  24.001  25.026  1.00  0.00    -0.206 F 
ATOM     74  C   UNL A   1      42.073  20.721  26.263  1.00  0.00     0.006 A 
ENDBRANCH  46  67
BRANCH  58  75
ATOM     75  C   UNL A   1      48.325  26.620  29.204  1.00  0.00     0.057 A 
ATOM     76  C   UNL A   1      48.878  25.943  30.297  1.00  0.00     0.134 A 
ATOM     77  C   UNL A   1      49.176  26.954  28.145  1.00  0.00     0.134 A 
ATOM     78  F   UNL A   1      48.113  25.602  31.345  1.00  0.00    -0.206 F 
ATOM     79  C   UNL A   1      50.234  25.616  30.339  1.00  0.00     0.040 A 
ATOM     80  C   UNL A   1      50.531  26.619  28.168  1.00  0.00     0.040 A 
ATOM     81  F   UNL A   1      48.700  27.593  27.066  1.00  0.00    -0.206 F 
ATOM     82  C   UNL A   1      51.063  25.954  29.271  1.00  0.00     0.006 A 
ENDBRANCH  58  75
ENDBRANCH  32  33
ENDBRANCH  25  27
ENDBRANCH  24  25
ENDBRANCH  23  24
ENDBRANCH   1  23
TORSDOF 15
ENDMDL
