MODEL 1
REMARK VINA RESULT:     -12.4      0.000      0.000
REMARK SMILES NS(=O)(=O)c1ccc(-n2nc(C(=O)OCCOC(=O)c3ccc(-c4c5nc(c(-c6c(F)cccc6F)c6ccc([nH]6)c(-c6c(F)cccc6F)c6nc(c(-c7c(F)cccc7F)c7ccc4[nH]7)C=C6)C=C5)cc3)c(Cl)c2-c2ccc(Cl)cc2)cc1
REMARK SMILES IDX 15 1 14 2 12 3 13 4 11 5 9 6 10 7 76 8 74 9 75 10 8 11 5 12
REMARK SMILES IDX 6 13 85 14 7 15 84 16 2 17 3 18 4 19 1 20 77 23 78 24 83 25
REMARK SMILES IDX 79 26 82 27 80 28 81 29 16 30 17 31 18 32 19 33 20 34 21 35
REMARK SMILES IDX 73 36 22 37 72 38 23 39 24 40 25 41 66 42 26 43 71 44 65 45
REMARK SMILES IDX 67 46 27 47 70 48 64 49 63 50 28 52 54 53 37 54 53 55 38 56
REMARK SMILES IDX 41 57 52 58 68 59 39 60 40 61 51 63 69 64 42 65 29 66 30 67
REMARK SMILES IDX 35 68 31 69 32 70 34 71 36 72 33 73 55 74 56 75 61 76 57 77
REMARK SMILES IDX 58 78 60 79 62 80 59 81 43 82 44 83 49 84 45 85 46 86 48 87
REMARK SMILES IDX 50 88 47 89
REMARK H PARENT 1 21 1 22 67 51 41 62
REMARK Flexibility Score: inf
ROOT
ATOM      1  C   UNL A   1      41.510  19.590  26.037  1.00  0.00     0.275 C 
ENDROOT
BRANCH   1   2
ATOM      2  O   UNL A   1      40.849  20.522  26.903  1.00  0.00    -0.457 OA
BRANCH   2   3
ATOM      3  C   UNL A   1      40.466  21.747  26.431  1.00  0.00     0.360 C 
ATOM      4  O   UNL A   1      41.228  22.704  26.331  1.00  0.00    -0.244 OA
BRANCH   3   5
ATOM      5  C   UNL A   1      39.038  21.766  26.060  1.00  0.00     0.190 A 
ATOM      6  N   UNL A   1      37.098  21.089  25.407  1.00  0.00    -0.231 N 
ATOM      7  N   UNL A   1      38.289  20.648  25.897  1.00  0.00    -0.159 NA
ATOM      8  C   UNL A   1      37.054  22.470  25.307  1.00  0.00     0.094 A 
ATOM      9  C   UNL A   1      38.249  22.917  25.833  1.00  0.00     0.102 A 
ATOM     10  Cl  UNL A   1      38.670  24.557  26.086  1.00  0.00    -0.079 Cl
BRANCH   6  11
ATOM     11  C   UNL A   1      36.086  20.166  25.021  1.00  0.00     0.065 A 
ATOM     12  C   UNL A   1      34.073  18.313  24.456  1.00  0.00     0.082 A 
ATOM     13  C   UNL A   1      35.414  17.909  24.439  1.00  0.00     0.024 A 
ATOM     14  C   UNL A   1      33.736  19.642  24.718  1.00  0.00     0.024 A 
ATOM     15  C   UNL A   1      36.428  18.844  24.694  1.00  0.00     0.030 A 
ATOM     16  C   UNL A   1      34.740  20.564  25.017  1.00  0.00     0.030 A 
BRANCH  12  17
ATOM     17  S   UNL A   1      32.780  17.151  24.117  1.00  0.00     0.238 S 
ATOM     18  O   UNL A   1      31.693  17.350  25.040  1.00  0.00    -0.207 OA
ATOM     19  O   UNL A   1      33.377  15.853  23.877  1.00  0.00    -0.207 OA
BRANCH  17  20
ATOM     20  N   UNL A   1      32.198  17.671  22.626  1.00  0.00    -0.225 NA
ATOM     21  H   UNL A   1      31.178  17.685  22.646  1.00  0.00     0.137 HD
ATOM     22  H   UNL A   1      32.515  17.034  21.896  1.00  0.00     0.137 HD
ENDBRANCH  17  20
ENDBRANCH  12  17
ENDBRANCH   6  11
BRANCH   8  23
ATOM     23  C   UNL A   1      35.949  23.309  24.851  1.00  0.00     0.002 A 
ATOM     24  C   UNL A   1      35.139  23.920  25.822  1.00  0.00     0.012 A 
ATOM     25  C   UNL A   1      35.583  23.378  23.505  1.00  0.00     0.012 A 
ATOM     26  C   UNL A   1      33.946  24.538  25.464  1.00  0.00     0.021 A 
ATOM     27  C   UNL A   1      34.394  24.018  23.142  1.00  0.00     0.021 A 
ATOM     28  C   UNL A   1      33.572  24.575  24.125  1.00  0.00     0.041 A 
ATOM     29  Cl  UNL A   1      32.068  25.282  23.686  1.00  0.00    -0.084 Cl
ENDBRANCH   8  23
ENDBRANCH   3   5
ENDBRANCH   2   3
ENDBRANCH   1   2
BRANCH   1  30
ATOM     30  C   UNL A   1      43.015  19.790  26.076  1.00  0.00     0.275 C 
BRANCH  30  31
ATOM     31  O   UNL A   1      43.414  20.617  24.990  1.00  0.00    -0.458 OA
BRANCH  31  32
ATOM     32  C   UNL A   1      44.730  20.914  24.931  1.00  0.00     0.338 C 
ATOM     33  O   UNL A   1      45.662  20.134  24.826  1.00  0.00    -0.246 OA
BRANCH  32  34
ATOM     34  C   UNL A   1      44.888  22.335  25.235  1.00  0.00     0.060 A 
ATOM     35  C   UNL A   1      45.588  22.666  26.396  1.00  0.00     0.016 A 
ATOM     36  C   UNL A   1      44.077  23.259  24.558  1.00  0.00     0.016 A 
ATOM     37  C   UNL A   1      45.296  23.867  27.002  1.00  0.00     0.010 A 
ATOM     38  C   UNL A   1      43.773  24.444  25.171  1.00  0.00     0.010 A 
ATOM     39  C   UNL A   1      44.318  24.689  26.425  1.00  0.00    -0.014 A 
BRANCH  39  40
ATOM     40  C   UNL A   1      43.961  25.912  27.098  1.00  0.00     0.031 A 
ATOM     41  C   UNL A   1      44.904  27.004  26.785  1.00  0.00     0.074 A 
ATOM     42  C   UNL A   1      42.841  26.050  27.828  1.00  0.00     0.049 A 
ATOM     43  N   UNL A   1      45.807  27.487  27.568  1.00  0.00    -0.248 NA
ATOM     44  C   UNL A   1      45.009  27.453  25.388  1.00  0.00     0.031 C 
ATOM     45  C   UNL A   1      41.718  25.126  27.988  1.00  0.00     0.029 A 
ATOM     46  N   UNL A   1      42.448  27.135  28.545  1.00  0.00    -0.354 N 
ATOM     47  C   UNL A   1      46.455  28.465  26.825  1.00  0.00     0.074 A 
ATOM     48  C   UNL A   1      46.076  28.250  25.454  1.00  0.00     0.031 C 
ATOM     49  C   UNL A   1      40.681  25.781  28.568  1.00  0.00     0.029 A 
ATOM     50  C   UNL A   1      41.117  27.117  28.940  1.00  0.00     0.049 A 
ATOM     51  H   UNL A   1      43.059  27.874  28.767  1.00  0.00     0.167 HD
ATOM     52  C   UNL A   1      47.028  29.530  27.446  1.00  0.00     0.037 A 
ATOM     53  C   UNL A   1      40.445  28.172  29.470  1.00  0.00     0.037 A 
ATOM     54  C   UNL A   1      47.205  29.268  28.855  1.00  0.00     0.049 A 
ATOM     55  C   UNL A   1      41.466  29.117  30.002  1.00  0.00     0.074 A 
ATOM     56  C   UNL A   1      47.900  28.318  29.581  1.00  0.00     0.029 A 
ATOM     57  N   UNL A   1      46.281  29.801  29.721  1.00  0.00    -0.354 N 
ATOM     58  N   UNL A   1      42.214  28.852  31.038  1.00  0.00    -0.248 NA
ATOM     59  C   UNL A   1      42.002  30.116  29.086  1.00  0.00     0.031 C 
ATOM     60  C   UNL A   1      47.042  27.990  30.673  1.00  0.00     0.029 A 
ATOM     61  C   UNL A   1      45.917  28.811  30.598  1.00  0.00     0.049 A 
ATOM     62  H   UNL A   1      45.940  30.725  29.713  1.00  0.00     0.167 HD
ATOM     63  C   UNL A   1      43.480  29.299  30.686  1.00  0.00     0.074 A 
ATOM     64  C   UNL A   1      43.275  30.129  29.498  1.00  0.00     0.031 C 
ATOM     65  C   UNL A   1      44.605  28.715  31.194  1.00  0.00     0.037 A 
BRANCH  52  66
ATOM     66  C   UNL A   1      47.028  30.927  26.883  1.00  0.00     0.057 A 
ATOM     67  C   UNL A   1      48.229  31.658  26.901  1.00  0.00     0.134 A 
ATOM     68  C   UNL A   1      45.869  31.686  26.617  1.00  0.00     0.134 A 
ATOM     69  F   UNL A   1      49.401  31.051  27.142  1.00  0.00    -0.206 F 
ATOM     70  C   UNL A   1      48.259  33.050  26.770  1.00  0.00     0.040 A 
ATOM     71  C   UNL A   1      45.896  33.070  26.432  1.00  0.00     0.040 A 
ATOM     72  F   UNL A   1      44.639  31.163  26.623  1.00  0.00    -0.206 F 
ATOM     73  C   UNL A   1      47.088  33.762  26.547  1.00  0.00     0.006 A 
ENDBRANCH  52  66
BRANCH  53  74
ATOM     74  C   UNL A   1      39.036  28.574  29.253  1.00  0.00     0.057 A 
ATOM     75  C   UNL A   1      38.121  28.628  30.316  1.00  0.00     0.134 A 
ATOM     76  C   UNL A   1      38.622  29.190  28.059  1.00  0.00     0.134 A 
ATOM     77  F   UNL A   1      38.438  28.108  31.512  1.00  0.00    -0.206 F 
ATOM     78  C   UNL A   1      36.884  29.277  30.207  1.00  0.00     0.040 A 
ATOM     79  C   UNL A   1      37.388  29.838  27.935  1.00  0.00     0.040 A 
ATOM     80  F   UNL A   1      39.440  29.264  26.998  1.00  0.00    -0.206 F 
ATOM     81  C   UNL A   1      36.519  29.896  29.015  1.00  0.00     0.006 A 
ENDBRANCH  53  74
BRANCH  65  82
ATOM     82  C   UNL A   1      44.443  27.722  32.312  1.00  0.00     0.057 A 
ATOM     83  C   UNL A   1      44.267  26.342  32.124  1.00  0.00     0.134 A 
ATOM     84  C   UNL A   1      44.642  28.158  33.626  1.00  0.00     0.134 A 
ATOM     85  F   UNL A   1      44.170  25.816  30.896  1.00  0.00    -0.206 F 
ATOM     86  C   UNL A   1      44.248  25.445  33.198  1.00  0.00     0.040 A 
ATOM     87  C   UNL A   1      44.660  27.271  34.704  1.00  0.00     0.040 A 
ATOM     88  F   UNL A   1      44.876  29.455  33.878  1.00  0.00    -0.206 F 
ATOM     89  C   UNL A   1      44.453  25.910  34.493  1.00  0.00     0.006 A 
ENDBRANCH  65  82
ENDBRANCH  39  40
ENDBRANCH  32  34
ENDBRANCH  31  32
ENDBRANCH  30  31
ENDBRANCH   1  30
TORSDOF 15
ENDMDL
MODEL 2
REMARK VINA RESULT:     -12.1      6.499     10.745
REMARK SMILES NS(=O)(=O)c1ccc(-n2nc(C(=O)OCCOC(=O)c3ccc(-c4c5nc(c(-c6c(F)cccc6F)c6ccc([nH]6)c(-c6c(F)cccc6F)c6nc(c(-c7c(F)cccc7F)c7ccc4[nH]7)C=C6)C=C5)cc3)c(Cl)c2-c2ccc(Cl)cc2)cc1
REMARK SMILES IDX 15 1 14 2 12 3 13 4 11 5 9 6 10 7 76 8 74 9 75 10 8 11 5 12
REMARK SMILES IDX 6 13 85 14 7 15 84 16 2 17 3 18 4 19 1 20 77 23 78 24 83 25
REMARK SMILES IDX 79 26 82 27 80 28 81 29 16 30 17 31 18 32 19 33 20 34 21 35
REMARK SMILES IDX 73 36 22 37 72 38 23 39 24 40 25 41 66 42 26 43 71 44 65 45
REMARK SMILES IDX 67 46 27 47 70 48 64 49 63 50 28 52 54 53 37 54 53 55 38 56
REMARK SMILES IDX 41 57 52 58 68 59 39 60 40 61 51 63 69 64 42 65 29 66 30 67
REMARK SMILES IDX 35 68 31 69 32 70 34 71 36 72 33 73 55 74 56 75 61 76 57 77
REMARK SMILES IDX 58 78 60 79 62 80 59 81 43 82 44 83 49 84 45 85 46 86 48 87
REMARK SMILES IDX 50 88 47 89
REMARK H PARENT 1 21 1 22 67 51 41 62
REMARK Flexibility Score: inf
ROOT
ATOM      1  C   UNL A   1      33.370  35.091  28.874  1.00  0.00     0.275 C 
ENDROOT
BRANCH   1   2
ATOM      2  O   UNL A   1      33.381  33.671  29.074  1.00  0.00    -0.457 OA
BRANCH   2   3
ATOM      3  C   UNL A   1      34.320  32.896  28.452  1.00  0.00     0.360 C 
ATOM      4  O   UNL A   1      35.530  33.059  28.583  1.00  0.00    -0.244 OA
BRANCH   3   5
ATOM      5  C   UNL A   1      33.697  31.850  27.617  1.00  0.00     0.190 A 
ATOM      6  N   UNL A   1      32.319  30.869  26.280  1.00  0.00    -0.231 N 
ATOM      7  N   UNL A   1      32.726  32.097  26.705  1.00  0.00    -0.159 NA
ATOM      8  C   UNL A   1      33.051  29.847  26.863  1.00  0.00     0.094 A 
ATOM      9  C   UNL A   1      34.013  30.472  27.631  1.00  0.00     0.102 A 
ATOM     10  Cl  UNL A   1      35.282  29.684  28.466  1.00  0.00    -0.079 Cl
BRANCH   6  11
ATOM     11  C   UNL A   1      31.228  30.738  25.377  1.00  0.00     0.065 A 
ATOM     12  C   UNL A   1      29.202  30.562  23.462  1.00  0.00     0.082 A 
ATOM     13  C   UNL A   1      29.263  31.676  24.307  1.00  0.00     0.024 A 
ATOM     14  C   UNL A   1      30.123  29.521  23.592  1.00  0.00     0.024 A 
ATOM     15  C   UNL A   1      30.263  31.753  25.288  1.00  0.00     0.030 A 
ATOM     16  C   UNL A   1      31.146  29.617  24.537  1.00  0.00     0.030 A 
BRANCH  12  17
ATOM     17  S   UNL A   1      27.934  30.436  22.230  1.00  0.00     0.238 S 
ATOM     18  O   UNL A   1      28.466  29.809  21.048  1.00  0.00    -0.207 OA
ATOM     19  O   UNL A   1      27.203  31.686  22.193  1.00  0.00    -0.207 OA
BRANCH  17  20
ATOM     20  N   UNL A   1      26.881  29.306  22.898  1.00  0.00    -0.225 NA
ATOM     21  H   UNL A   1      26.693  28.572  22.215  1.00  0.00     0.137 HD
ATOM     22  H   UNL A   1      26.006  29.766  23.151  1.00  0.00     0.137 HD
ENDBRANCH  17  20
ENDBRANCH  12  17
ENDBRANCH   6  11
BRANCH   8  23
ATOM     23  C   UNL A   1      32.929  28.408  26.644  1.00  0.00     0.002 A 
ATOM     24  C   UNL A   1      33.864  27.786  25.801  1.00  0.00     0.012 A 
ATOM     25  C   UNL A   1      31.828  27.683  27.107  1.00  0.00     0.012 A 
ATOM     26  C   UNL A   1      33.671  26.478  25.372  1.00  0.00     0.021 A 
ATOM     27  C   UNL A   1      31.645  26.361  26.692  1.00  0.00     0.021 A 
ATOM     28  C   UNL A   1      32.555  25.773  25.811  1.00  0.00     0.041 A 
ATOM     29  Cl  UNL A   1      32.281  24.178  25.233  1.00  0.00    -0.084 Cl
ENDBRANCH   8  23
ENDBRANCH   3   5
ENDBRANCH   2   3
ENDBRANCH   1   2
BRANCH   1  30
ATOM     30  C   UNL A   1      32.949  35.812  30.143  1.00  0.00     0.275 C 
BRANCH  30  31
ATOM     31  O   UNL A   1      32.886  34.885  31.219  1.00  0.00    -0.458 OA
BRANCH  31  32
ATOM     32  C   UNL A   1      33.295  35.351  32.419  1.00  0.00     0.338 C 
ATOM     33  O   UNL A   1      32.920  36.362  32.988  1.00  0.00    -0.246 OA
BRANCH  32  34
ATOM     34  C   UNL A   1      34.441  34.551  32.849  1.00  0.00     0.060 A 
ATOM     35  C   UNL A   1      35.574  35.241  33.282  1.00  0.00     0.016 A 
ATOM     36  C   UNL A   1      34.476  33.191  32.506  1.00  0.00     0.016 A 
ATOM     37  C   UNL A   1      36.794  34.615  33.158  1.00  0.00     0.010 A 
ATOM     38  C   UNL A   1      35.690  32.576  32.364  1.00  0.00     0.010 A 
ATOM     39  C   UNL A   1      36.834  33.327  32.608  1.00  0.00    -0.014 A 
BRANCH  39  40
ATOM     40  C   UNL A   1      38.116  32.701  32.411  1.00  0.00     0.031 A 
ATOM     41  C   UNL A   1      38.919  32.697  33.650  1.00  0.00     0.074 A 
ATOM     42  C   UNL A   1      38.474  32.100  31.263  1.00  0.00     0.049 A 
ATOM     43  N   UNL A   1      39.941  33.441  33.905  1.00  0.00    -0.248 NA
ATOM     44  C   UNL A   1      38.402  31.959  34.812  1.00  0.00     0.031 C 
ATOM     45  C   UNL A   1      37.670  31.817  30.074  1.00  0.00     0.029 A 
ATOM     46  N   UNL A   1      39.673  31.538  30.961  1.00  0.00    -0.354 N 
ATOM     47  C   UNL A   1      40.334  33.100  35.192  1.00  0.00     0.074 A 
ATOM     48  C   UNL A   1      39.242  32.361  35.767  1.00  0.00     0.031 C 
ATOM     49  C   UNL A   1      38.340  30.945  29.280  1.00  0.00     0.029 A 
ATOM     50  C   UNL A   1      39.663  30.723  29.836  1.00  0.00     0.049 A 
ATOM     51  H   UNL A   1      40.483  31.697  31.496  1.00  0.00     0.167 HD
ATOM     52  C   UNL A   1      41.634  33.226  35.567  1.00  0.00     0.037 A 
ATOM     53  C   UNL A   1      40.671  29.892  29.466  1.00  0.00     0.037 A 
ATOM     54  C   UNL A   1      42.352  34.082  34.653  1.00  0.00     0.049 A 
ATOM     55  C   UNL A   1      41.908  30.376  30.142  1.00  0.00     0.074 A 
ATOM     56  C   UNL A   1      42.215  35.398  34.252  1.00  0.00     0.029 A 
ATOM     57  N   UNL A   1      43.129  33.476  33.694  1.00  0.00    -0.354 N 
ATOM     58  N   UNL A   1      42.494  31.502  29.838  1.00  0.00    -0.248 NA
ATOM     59  C   UNL A   1      42.188  29.869  31.479  1.00  0.00     0.031 C 
ATOM     60  C   UNL A   1      42.495  35.388  32.853  1.00  0.00     0.029 A 
ATOM     61  C   UNL A   1      42.864  34.090  32.497  1.00  0.00     0.049 A 
ATOM     62  H   UNL A   1      43.761  32.735  33.841  1.00  0.00     0.167 HD
ATOM     63  C   UNL A   1      42.842  32.061  31.060  1.00  0.00     0.074 A 
ATOM     64  C   UNL A   1      42.688  30.979  32.033  1.00  0.00     0.031 C 
ATOM     65  C   UNL A   1      42.925  33.414  31.222  1.00  0.00     0.037 A 
BRANCH  52  66
ATOM     66  C   UNL A   1      42.339  32.258  36.483  1.00  0.00     0.057 A 
ATOM     67  C   UNL A   1      43.087  32.773  37.556  1.00  0.00     0.134 A 
ATOM     68  C   UNL A   1      42.572  30.899  36.189  1.00  0.00     0.134 A 
ATOM     69  F   UNL A   1      42.955  34.054  37.935  1.00  0.00    -0.206 F 
ATOM     70  C   UNL A   1      44.065  32.022  38.215  1.00  0.00     0.040 A 
ATOM     71  C   UNL A   1      43.509  30.125  36.876  1.00  0.00     0.040 A 
ATOM     72  F   UNL A   1      41.992  30.266  35.163  1.00  0.00    -0.206 F 
ATOM     73  C   UNL A   1      44.288  30.696  37.867  1.00  0.00     0.006 A 
ENDBRANCH  52  66
BRANCH  53  74
ATOM     74  C   UNL A   1      40.583  28.544  28.857  1.00  0.00     0.057 A 
ATOM     75  C   UNL A   1      39.937  27.487  29.517  1.00  0.00     0.134 A 
ATOM     76  C   UNL A   1      40.872  28.330  27.498  1.00  0.00     0.134 A 
ATOM     77  F   UNL A   1      39.579  27.608  30.805  1.00  0.00    -0.206 F 
ATOM     78  C   UNL A   1      39.579  26.302  28.861  1.00  0.00     0.040 A 
ATOM     79  C   UNL A   1      40.524  27.150  26.831  1.00  0.00     0.040 A 
ATOM     80  F   UNL A   1      41.423  29.296  26.747  1.00  0.00    -0.206 F 
ATOM     81  C   UNL A   1      39.861  26.136  27.508  1.00  0.00     0.006 A 
ENDBRANCH  53  74
BRANCH  65  82
ATOM     82  C   UNL A   1      42.845  34.281  29.995  1.00  0.00     0.057 A 
ATOM     83  C   UNL A   1      41.648  34.776  29.455  1.00  0.00     0.134 A 
ATOM     84  C   UNL A   1      44.034  34.766  29.442  1.00  0.00     0.134 A 
ATOM     85  F   UNL A   1      40.461  34.450  29.982  1.00  0.00    -0.206 F 
ATOM     86  C   UNL A   1      41.637  35.681  28.388  1.00  0.00     0.040 A 
ATOM     87  C   UNL A   1      44.039  35.695  28.400  1.00  0.00     0.040 A 
ATOM     88  F   UNL A   1      45.218  34.383  29.946  1.00  0.00    -0.206 F 
ATOM     89  C   UNL A   1      42.837  36.148  27.862  1.00  0.00     0.006 A 
ENDBRANCH  65  82
ENDBRANCH  39  40
ENDBRANCH  32  34
ENDBRANCH  31  32
ENDBRANCH  30  31
ENDBRANCH   1  30
TORSDOF 15
ENDMDL
MODEL 3
REMARK VINA RESULT:     -12.0      5.907     10.191
REMARK SMILES NS(=O)(=O)c1ccc(-n2nc(C(=O)OCCOC(=O)c3ccc(-c4c5nc(c(-c6c(F)cccc6F)c6ccc([nH]6)c(-c6c(F)cccc6F)c6nc(c(-c7c(F)cccc7F)c7ccc4[nH]7)C=C6)C=C5)cc3)c(Cl)c2-c2ccc(Cl)cc2)cc1
REMARK SMILES IDX 15 1 14 2 12 3 13 4 11 5 9 6 10 7 76 8 74 9 75 10 8 11 5 12
REMARK SMILES IDX 6 13 85 14 7 15 84 16 2 17 3 18 4 19 1 20 77 23 78 24 83 25
REMARK SMILES IDX 79 26 82 27 80 28 81 29 16 30 17 31 18 32 19 33 20 34 21 35
REMARK SMILES IDX 73 36 22 37 72 38 23 39 24 40 25 41 66 42 26 43 71 44 65 45
REMARK SMILES IDX 67 46 27 47 70 48 64 49 63 50 28 52 54 53 37 54 53 55 38 56
REMARK SMILES IDX 41 57 52 58 68 59 39 60 40 61 51 63 69 64 42 65 29 66 30 67
REMARK SMILES IDX 35 68 31 69 32 70 34 71 36 72 33 73 55 74 56 75 61 76 57 77
REMARK SMILES IDX 58 78 60 79 62 80 59 81 43 82 44 83 49 84 45 85 46 86 48 87
REMARK SMILES IDX 50 88 47 89
REMARK H PARENT 1 21 1 22 67 51 41 62
REMARK Flexibility Score: inf
ROOT
ATOM      1  C   UNL A   1      34.327  34.599  29.435  1.00  0.00     0.275 C 
ENDROOT
BRANCH   1   2
ATOM      2  O   UNL A   1      33.738  33.518  28.701  1.00  0.00    -0.457 OA
BRANCH   2   3
ATOM      3  C   UNL A   1      34.275  32.262  28.775  1.00  0.00     0.360 C 
ATOM      4  O   UNL A   1      35.103  31.927  29.617  1.00  0.00    -0.244 OA
BRANCH   3   5
ATOM      5  C   UNL A   1      33.732  31.375  27.728  1.00  0.00     0.190 A 
ATOM      6  N   UNL A   1      32.403  30.569  26.234  1.00  0.00    -0.231 N 
ATOM      7  N   UNL A   1      32.684  31.702  26.935  1.00  0.00    -0.159 NA
ATOM      8  C   UNL A   1      33.288  29.544  26.524  1.00  0.00     0.094 A 
ATOM      9  C   UNL A   1      34.213  30.088  27.392  1.00  0.00     0.102 A 
ATOM     10  Cl  UNL A   1      35.617  29.298  27.968  1.00  0.00    -0.079 Cl
BRANCH   6  11
ATOM     11  C   UNL A   1      31.281  30.516  25.360  1.00  0.00     0.065 A 
ATOM     12  C   UNL A   1      29.198  30.480  23.499  1.00  0.00     0.082 A 
ATOM     13  C   UNL A   1      29.373  31.598  24.324  1.00  0.00     0.024 A 
ATOM     14  C   UNL A   1      30.034  29.368  23.624  1.00  0.00     0.024 A 
ATOM     15  C   UNL A   1      30.401  31.606  25.278  1.00  0.00     0.030 A 
ATOM     16  C   UNL A   1      31.085  29.393  24.541  1.00  0.00     0.030 A 
BRANCH  12  17
ATOM     17  S   UNL A   1      27.893  30.442  22.302  1.00  0.00     0.238 S 
ATOM     18  O   UNL A   1      28.395  29.930  21.052  1.00  0.00    -0.207 OA
ATOM     19  O   UNL A   1      27.143  31.676  22.398  1.00  0.00    -0.207 OA
BRANCH  17  20
ATOM     20  N   UNL A   1      26.879  29.239  22.899  1.00  0.00    -0.225 NA
ATOM     21  H   UNL A   1      27.250  28.324  22.644  1.00  0.00     0.137 HD
ATOM     22  H   UNL A   1      25.947  29.351  22.499  1.00  0.00     0.137 HD
ENDBRANCH  17  20
ENDBRANCH  12  17
ENDBRANCH   6  11
BRANCH   8  23
ATOM     23  C   UNL A   1      33.327  28.197  25.962  1.00  0.00     0.002 A 
ATOM     24  C   UNL A   1      33.938  28.022  24.709  1.00  0.00     0.012 A 
ATOM     25  C   UNL A   1      32.638  27.133  26.548  1.00  0.00     0.012 A 
ATOM     26  C   UNL A   1      33.808  26.821  24.019  1.00  0.00     0.021 A 
ATOM     27  C   UNL A   1      32.525  25.919  25.863  1.00  0.00     0.021 A 
ATOM     28  C   UNL A   1      33.092  25.777  24.595  1.00  0.00     0.041 A 
ATOM     29  Cl  UNL A   1      32.878  24.314  23.718  1.00  0.00    -0.084 Cl
ENDBRANCH   8  23
ENDBRANCH   3   5
ENDBRANCH   2   3
ENDBRANCH   1   2
BRANCH   1  30
ATOM     30  C   UNL A   1      33.406  35.060  30.551  1.00  0.00     0.275 C 
BRANCH  30  31
ATOM     31  O   UNL A   1      33.663  34.299  31.725  1.00  0.00    -0.458 OA
BRANCH  31  32
ATOM     32  C   UNL A   1      34.374  34.927  32.686  1.00  0.00     0.338 C 
ATOM     33  O   UNL A   1      34.216  36.062  33.103  1.00  0.00    -0.246 OA
BRANCH  32  34
ATOM     34  C   UNL A   1      35.528  34.092  33.014  1.00  0.00     0.060 A 
ATOM     35  C   UNL A   1      36.788  34.690  32.949  1.00  0.00     0.016 A 
ATOM     36  C   UNL A   1      35.359  32.699  33.052  1.00  0.00     0.016 A 
ATOM     37  C   UNL A   1      37.871  33.878  32.696  1.00  0.00     0.010 A 
ATOM     38  C   UNL A   1      36.433  31.896  32.781  1.00  0.00     0.010 A 
ATOM     39  C   UNL A   1      37.654  32.505  32.520  1.00  0.00    -0.014 A 
BRANCH  39  40
ATOM     40  C   UNL A   1      38.778  31.668  32.184  1.00  0.00     0.031 A 
ATOM     41  C   UNL A   1      39.567  31.306  33.379  1.00  0.00     0.074 A 
ATOM     42  C   UNL A   1      38.998  31.194  30.947  1.00  0.00     0.049 A 
ATOM     43  N   UNL A   1      40.722  31.775  33.707  1.00  0.00    -0.248 NA
ATOM     44  C   UNL A   1      38.911  30.517  34.433  1.00  0.00     0.031 C 
ATOM     45  C   UNL A   1      38.148  31.270  29.758  1.00  0.00     0.029 A 
ATOM     46  N   UNL A   1      40.053  30.452  30.519  1.00  0.00    -0.354 N 
ATOM     47  C   UNL A   1      41.040  31.165  34.912  1.00  0.00     0.074 A 
ATOM     48  C   UNL A   1      39.820  30.584  35.407  1.00  0.00     0.031 C 
ATOM     49  C   UNL A   1      38.619  30.415  28.817  1.00  0.00     0.029 A 
ATOM     50  C   UNL A   1      39.869  29.842  29.285  1.00  0.00     0.049 A 
ATOM     51  H   UNL A   1      40.880  30.355  31.042  1.00  0.00     0.167 HD
ATOM     52  C   UNL A   1      42.340  30.960  35.255  1.00  0.00     0.037 A 
ATOM     53  C   UNL A   1      40.681  28.890  28.756  1.00  0.00     0.037 A 
ATOM     54  C   UNL A   1      43.216  31.783  34.455  1.00  0.00     0.049 A 
ATOM     55  C   UNL A   1      41.994  28.998  29.453  1.00  0.00     0.074 A 
ATOM     56  C   UNL A   1      43.356  33.145  34.265  1.00  0.00     0.029 A 
ATOM     57  N   UNL A   1      43.847  31.188  33.389  1.00  0.00    -0.354 N 
ATOM     58  N   UNL A   1      42.800  30.013  29.303  1.00  0.00    -0.248 NA
ATOM     59  C   UNL A   1      42.166  28.242  30.687  1.00  0.00     0.031 C 
ATOM     60  C   UNL A   1      43.622  33.297  32.871  1.00  0.00     0.029 A 
ATOM     61  C   UNL A   1      43.711  32.022  32.309  1.00  0.00     0.049 A 
ATOM     62  H   UNL A   1      44.311  30.320  33.398  1.00  0.00     0.167 HD
ATOM     63  C   UNL A   1      43.262  30.291  30.582  1.00  0.00     0.074 A 
ATOM     64  C   UNL A   1      42.889  29.125  31.384  1.00  0.00     0.031 C 
ATOM     65  C   UNL A   1      43.626  31.556  30.945  1.00  0.00     0.037 A 
BRANCH  52  66
ATOM     66  C   UNL A   1      42.830  29.738  35.986  1.00  0.00     0.057 A 
ATOM     67  C   UNL A   1      43.765  29.907  37.023  1.00  0.00     0.134 A 
ATOM     68  C   UNL A   1      42.675  28.413  35.530  1.00  0.00     0.134 A 
ATOM     69  F   UNL A   1      44.004  31.120  37.545  1.00  0.00    -0.206 F 
ATOM     70  C   UNL A   1      44.557  28.855  37.495  1.00  0.00     0.040 A 
ATOM     71  C   UNL A   1      43.424  27.347  36.032  1.00  0.00     0.040 A 
ATOM     72  F   UNL A   1      41.875  28.083  34.511  1.00  0.00    -0.206 F 
ATOM     73  C   UNL A   1      44.397  27.572  36.990  1.00  0.00     0.006 A 
ENDBRANCH  52  66
BRANCH  53  74
ATOM     74  C   UNL A   1      40.311  27.701  27.953  1.00  0.00     0.057 A 
ATOM     75  C   UNL A   1      40.894  27.457  26.700  1.00  0.00     0.134 A 
ATOM     76  C   UNL A   1      39.596  26.628  28.515  1.00  0.00     0.134 A 
ATOM     77  F   UNL A   1      41.633  28.401  26.099  1.00  0.00    -0.206 F 
ATOM     78  C   UNL A   1      40.795  26.215  26.057  1.00  0.00     0.040 A 
ATOM     79  C   UNL A   1      39.486  25.384  27.882  1.00  0.00     0.040 A 
ATOM     80  F   UNL A   1      39.057  26.720  29.740  1.00  0.00    -0.206 F 
ATOM     81  C   UNL A   1      40.099  25.168  26.655  1.00  0.00     0.006 A 
ENDBRANCH  53  74
BRANCH  65  82
ATOM     82  C   UNL A   1      43.723  32.602  29.868  1.00  0.00     0.057 A 
ATOM     83  C   UNL A   1      42.678  33.468  29.512  1.00  0.00     0.134 A 
ATOM     84  C   UNL A   1      44.972  32.848  29.288  1.00  0.00     0.134 A 
ATOM     85  F   UNL A   1      41.473  33.377  30.088  1.00  0.00    -0.206 F 
ATOM     86  C   UNL A   1      42.860  34.507  28.591  1.00  0.00     0.040 A 
ATOM     87  C   UNL A   1      45.176  33.901  28.394  1.00  0.00     0.040 A 
ATOM     88  F   UNL A   1      46.032  32.097  29.625  1.00  0.00    -0.206 F 
ATOM     89  C   UNL A   1      44.115  34.729  28.035  1.00  0.00     0.006 A 
ENDBRANCH  65  82
ENDBRANCH  39  40
ENDBRANCH  32  34
ENDBRANCH  31  32
ENDBRANCH  30  31
ENDBRANCH   1  30
TORSDOF 15
ENDMDL
