MODEL 1
REMARK VINA RESULT:     -11.9      0.000      0.000
REMARK SMILES O=C(OCCOC(=O)c1ccsc1NC(=O)c1cc2c(F)cccc2s1)c1ccc(-c2c3nc(c(-c4c(F)cccc4F)c4ccc([nH]4)c(-c4c(F)cccc4F)c4nc(c(-c5c(F)cccc5F)c5ccc2[nH]5)C=C4)C=C3)cc1
REMARK SMILES IDX 4 1 3 2 2 3 1 4 27 5 28 6 80 7 29 8 79 9 30 10 31 11 32 12
REMARK SMILES IDX 73 13 33 14 78 15 72 16 74 17 34 18 77 19 71 20 70 21 35 23
REMARK SMILES IDX 61 24 44 25 60 26 45 27 48 28 59 29 75 30 46 31 47 32 58 34
REMARK SMILES IDX 76 35 49 36 36 37 37 38 42 39 38 40 39 41 41 42 43 43 40 44
REMARK SMILES IDX 62 45 63 46 68 47 64 48 65 49 67 50 69 51 66 52 50 53 51 54
REMARK SMILES IDX 56 55 52 56 53 57 55 58 57 59 54 60 5 61 6 62 7 63 8 64 9 65
REMARK SMILES IDX 10 66 13 67 11 68 12 69 14 70 15 71 16 73 17 74 18 75 26 76
REMARK SMILES IDX 19 77 25 78 20 79 24 80 21 81 22 82 23 83
REMARK H PARENT 74 22 48 33 14 72
REMARK Flexibility Score: inf
ROOT
ATOM      1  C   UNL A   1      34.868  34.119  28.248  1.00  0.00     0.275 C 
ENDROOT
BRANCH   1   2
ATOM      2  O   UNL A   1      35.541  33.071  27.529  1.00  0.00    -0.458 OA
BRANCH   2   3
ATOM      3  C   UNL A   1      35.320  31.798  27.894  1.00  0.00     0.338 C 
ATOM      4  O   UNL A   1      34.269  31.201  27.703  1.00  0.00    -0.246 OA
BRANCH   3   5
ATOM      5  C   UNL A   1      36.522  31.085  28.364  1.00  0.00     0.060 A 
ATOM      6  C   UNL A   1      37.722  31.692  28.751  1.00  0.00     0.016 A 
ATOM      7  C   UNL A   1      36.364  29.707  28.491  1.00  0.00     0.016 A 
ATOM      8  C   UNL A   1      38.783  30.903  29.177  1.00  0.00     0.010 A 
ATOM      9  C   UNL A   1      37.372  28.943  29.030  1.00  0.00     0.010 A 
ATOM     10  C   UNL A   1      38.611  29.520  29.274  1.00  0.00    -0.014 A 
BRANCH  10  11
ATOM     11  C   UNL A   1      39.748  28.657  29.550  1.00  0.00     0.031 A 
ATOM     12  C   UNL A   1      40.127  28.473  30.980  1.00  0.00     0.074 A 
ATOM     13  C   UNL A   1      40.377  28.005  28.549  1.00  0.00     0.049 A 
ATOM     14  N   UNL A   1      41.165  28.926  31.601  1.00  0.00    -0.248 NA
ATOM     15  C   UNL A   1      39.182  27.780  31.860  1.00  0.00     0.031 C 
ATOM     16  C   UNL A   1      40.008  27.865  27.133  1.00  0.00     0.029 A 
ATOM     17  N   UNL A   1      41.513  27.268  28.629  1.00  0.00    -0.354 N 
ATOM     18  C   UNL A   1      41.102  28.427  32.905  1.00  0.00     0.074 A 
ATOM     19  C   UNL A   1      39.802  27.828  33.040  1.00  0.00     0.031 C 
ATOM     20  C   UNL A   1      40.778  26.921  26.549  1.00  0.00     0.029 A 
ATOM     21  C   UNL A   1      41.812  26.542  27.487  1.00  0.00     0.049 A 
ATOM     22  H   UNL A   1      42.080  27.251  29.435  1.00  0.00     0.167 HD
ATOM     23  C   UNL A   1      42.198  28.405  33.715  1.00  0.00     0.037 A 
ATOM     24  C   UNL A   1      42.849  25.689  27.329  1.00  0.00     0.037 A 
ATOM     25  C   UNL A   1      43.233  29.261  33.196  1.00  0.00     0.049 A 
ATOM     26  C   UNL A   1      43.865  26.047  28.352  1.00  0.00     0.074 A 
ATOM     27  C   UNL A   1      43.346  30.620  32.983  1.00  0.00     0.029 A 
ATOM     28  N   UNL A   1      44.224  28.681  32.442  1.00  0.00    -0.354 N 
ATOM     29  N   UNL A   1      44.523  27.176  28.338  1.00  0.00    -0.248 NA
ATOM     30  C   UNL A   1      43.771  25.396  29.650  1.00  0.00     0.031 C 
ATOM     31  C   UNL A   1      44.031  30.732  31.737  1.00  0.00     0.029 A 
ATOM     32  C   UNL A   1      44.359  29.444  31.309  1.00  0.00     0.049 A 
ATOM     33  H   UNL A   1      44.739  27.874  32.669  1.00  0.00     0.167 HD
ATOM     34  C   UNL A   1      44.573  27.581  29.665  1.00  0.00     0.074 A 
ATOM     35  C   UNL A   1      44.149  26.410  30.435  1.00  0.00     0.031 C 
ATOM     36  C   UNL A   1      44.675  28.901  30.007  1.00  0.00     0.037 A 
BRANCH  23  37
ATOM     37  C   UNL A   1      42.486  27.385  34.790  1.00  0.00     0.057 A 
ATOM     38  C   UNL A   1      42.050  27.494  36.124  1.00  0.00     0.134 A 
ATOM     39  C   UNL A   1      42.938  26.103  34.415  1.00  0.00     0.134 A 
ATOM     40  F   UNL A   1      41.560  28.633  36.626  1.00  0.00    -0.206 F 
ATOM     41  C   UNL A   1      42.003  26.401  36.996  1.00  0.00     0.040 A 
ATOM     42  C   UNL A   1      42.853  24.995  35.266  1.00  0.00     0.040 A 
ATOM     43  F   UNL A   1      43.403  25.870  33.178  1.00  0.00    -0.206 F 
ATOM     44  C   UNL A   1      42.366  25.138  36.557  1.00  0.00     0.006 A 
ENDBRANCH  23  37
BRANCH  24  45
ATOM     45  C   UNL A   1      42.835  24.412  26.588  1.00  0.00     0.057 A 
ATOM     46  C   UNL A   1      42.246  23.261  27.144  1.00  0.00     0.134 A 
ATOM     47  C   UNL A   1      43.608  24.217  25.439  1.00  0.00     0.134 A 
ATOM     48  F   UNL A   1      41.547  23.327  28.287  1.00  0.00    -0.206 F 
ATOM     49  C   UNL A   1      42.425  21.988  26.597  1.00  0.00     0.040 A 
ATOM     50  C   UNL A   1      43.797  22.945  24.880  1.00  0.00     0.040 A 
ATOM     51  F   UNL A   1      44.240  25.250  24.863  1.00  0.00    -0.206 F 
ATOM     52  C   UNL A   1      43.213  21.824  25.466  1.00  0.00     0.006 A 
ENDBRANCH  24  45
BRANCH  36  53
ATOM     53  C   UNL A   1      44.901  29.899  28.903  1.00  0.00     0.057 A 
ATOM     54  C   UNL A   1      46.205  30.303  28.607  1.00  0.00     0.134 A 
ATOM     55  C   UNL A   1      43.866  30.594  28.256  1.00  0.00     0.134 A 
ATOM     56  F   UNL A   1      47.246  29.736  29.239  1.00  0.00    -0.206 F 
ATOM     57  C   UNL A   1      46.473  31.336  27.705  1.00  0.00     0.040 A 
ATOM     58  C   UNL A   1      44.119  31.608  27.327  1.00  0.00     0.040 A 
ATOM     59  F   UNL A   1      42.585  30.359  28.553  1.00  0.00    -0.206 F 
ATOM     60  C   UNL A   1      45.428  31.987  27.053  1.00  0.00     0.006 A 
ENDBRANCH  36  53
ENDBRANCH  10  11
ENDBRANCH   3   5
ENDBRANCH   2   3
ENDBRANCH   1   2
BRANCH   1  61
ATOM     61  C   UNL A   1      33.335  34.081  28.266  1.00  0.00     0.275 C 
BRANCH  61  62
ATOM     62  O   UNL A   1      32.809  34.593  29.504  1.00  0.00    -0.458 OA
BRANCH  62  63
ATOM     63  C   UNL A   1      32.903  35.935  29.733  1.00  0.00     0.341 C 
ATOM     64  O   UNL A   1      32.700  36.823  28.904  1.00  0.00    -0.246 OA
BRANCH  63  65
ATOM     65  C   UNL A   1      33.337  36.198  31.088  1.00  0.00     0.094 A 
ATOM     66  C   UNL A   1      33.288  37.530  31.639  1.00  0.00     0.029 A 
ATOM     67  C   UNL A   1      33.838  35.269  32.000  1.00  0.00     0.110 A 
ATOM     68  C   UNL A   1      33.804  37.594  32.904  1.00  0.00     0.068 A 
ATOM     69  S   UNL A   1      34.354  36.078  33.399  1.00  0.00    -0.126 S 
BRANCH  67  70
ATOM     70  N   UNL A   1      34.025  33.894  31.837  1.00  0.00    -0.312 N 
ATOM     71  C   UNL A   1      35.148  33.084  31.613  1.00  0.00     0.266 C 
ATOM     72  H   UNL A   1      33.186  33.381  31.890  1.00  0.00     0.171 HD
ATOM     73  O   UNL A   1      34.950  31.909  31.295  1.00  0.00    -0.268 OA
BRANCH  71  74
ATOM     74  C   UNL A   1      36.484  33.567  31.840  1.00  0.00     0.094 A 
ATOM     75  C   UNL A   1      37.247  34.415  31.061  1.00  0.00     0.037 A 
ATOM     76  S   UNL A   1      37.344  33.252  33.288  1.00  0.00    -0.130 S 
ATOM     77  C   UNL A   1      38.639  34.137  31.279  1.00  0.00     0.029 A 
ATOM     78  C   UNL A   1      38.802  33.254  32.351  1.00  0.00     0.038 A 
ATOM     79  C   UNL A   1      39.748  34.389  30.456  1.00  0.00     0.131 A 
ATOM     80  C   UNL A   1      39.949  32.454  32.489  1.00  0.00     0.020 A 
ATOM     81  F   UNL A   1      39.689  35.328  29.502  1.00  0.00    -0.206 F 
ATOM     82  C   UNL A   1      40.814  33.496  30.477  1.00  0.00     0.040 A 
ATOM     83  C   UNL A   1      40.879  32.499  31.446  1.00  0.00     0.005 A 
ENDBRANCH  71  74
ENDBRANCH  67  70
ENDBRANCH  63  65
ENDBRANCH  62  63
ENDBRANCH  61  62
ENDBRANCH   1  61
TORSDOF 13
ENDMDL
MODEL 2
REMARK VINA RESULT:     -11.2      4.976      9.233
REMARK SMILES O=C(OCCOC(=O)c1ccsc1NC(=O)c1cc2c(F)cccc2s1)c1ccc(-c2c3nc(c(-c4c(F)cccc4F)c4ccc([nH]4)c(-c4c(F)cccc4F)c4nc(c(-c5c(F)cccc5F)c5ccc2[nH]5)C=C4)C=C3)cc1
REMARK SMILES IDX 4 1 3 2 2 3 1 4 27 5 28 6 80 7 29 8 79 9 30 10 31 11 32 12
REMARK SMILES IDX 73 13 33 14 78 15 72 16 74 17 34 18 77 19 71 20 70 21 35 23
REMARK SMILES IDX 61 24 44 25 60 26 45 27 48 28 59 29 75 30 46 31 47 32 58 34
REMARK SMILES IDX 76 35 49 36 36 37 37 38 42 39 38 40 39 41 41 42 43 43 40 44
REMARK SMILES IDX 62 45 63 46 68 47 64 48 65 49 67 50 69 51 66 52 50 53 51 54
REMARK SMILES IDX 56 55 52 56 53 57 55 58 57 59 54 60 5 61 6 62 7 63 8 64 9 65
REMARK SMILES IDX 10 66 13 67 11 68 12 69 14 70 15 71 16 73 17 74 18 75 26 76
REMARK SMILES IDX 19 77 25 78 20 79 24 80 21 81 22 82 23 83
REMARK H PARENT 74 22 48 33 14 72
REMARK Flexibility Score: inf
ROOT
ATOM      1  C   UNL A   1      34.733  30.308  27.472  1.00  0.00     0.275 C 
ENDROOT
BRANCH   1   2
ATOM      2  O   UNL A   1      35.524  29.304  28.131  1.00  0.00    -0.458 OA
BRANCH   2   3
ATOM      3  C   UNL A   1      36.383  29.689  29.089  1.00  0.00     0.338 C 
ATOM      4  O   UNL A   1      36.055  30.287  30.105  1.00  0.00    -0.246 OA
BRANCH   3   5
ATOM      5  C   UNL A   1      37.746  29.150  28.933  1.00  0.00     0.060 A 
ATOM      6  C   UNL A   1      38.348  28.218  29.785  1.00  0.00     0.016 A 
ATOM      7  C   UNL A   1      38.407  29.573  27.782  1.00  0.00     0.016 A 
ATOM      8  C   UNL A   1      39.644  27.787  29.524  1.00  0.00     0.010 A 
ATOM      9  C   UNL A   1      39.637  29.051  27.461  1.00  0.00     0.010 A 
ATOM     10  C   UNL A   1      40.297  28.244  28.377  1.00  0.00    -0.014 A 
BRANCH  10  11
ATOM     11  C   UNL A   1      41.706  27.949  28.169  1.00  0.00     0.031 A 
ATOM     12  C   UNL A   1      42.034  26.685  27.450  1.00  0.00     0.074 A 
ATOM     13  C   UNL A   1      42.658  28.825  28.554  1.00  0.00     0.049 A 
ATOM     14  N   UNL A   1      42.559  25.604  27.924  1.00  0.00    -0.248 NA
ATOM     15  C   UNL A   1      41.636  26.568  26.045  1.00  0.00     0.031 C 
ATOM     16  C   UNL A   1      42.530  30.205  29.045  1.00  0.00     0.029 A 
ATOM     17  N   UNL A   1      44.002  28.644  28.539  1.00  0.00    -0.354 N 
ATOM     18  C   UNL A   1      42.728  24.733  26.845  1.00  0.00     0.074 A 
ATOM     19  C   UNL A   1      42.034  25.332  25.737  1.00  0.00     0.031 C 
ATOM     20  C   UNL A   1      43.744  30.798  29.070  1.00  0.00     0.029 A 
ATOM     21  C   UNL A   1      44.742  29.788  28.792  1.00  0.00     0.049 A 
ATOM     22  H   UNL A   1      44.419  27.769  28.362  1.00  0.00     0.167 HD
ATOM     23  C   UNL A   1      43.571  23.665  26.913  1.00  0.00     0.037 A 
ATOM     24  C   UNL A   1      46.090  29.891  28.777  1.00  0.00     0.037 A 
ATOM     25  C   UNL A   1      43.923  23.380  28.280  1.00  0.00     0.049 A 
ATOM     26  C   UNL A   1      46.630  28.519  28.958  1.00  0.00     0.074 A 
ATOM     27  C   UNL A   1      43.218  22.969  29.394  1.00  0.00     0.029 A 
ATOM     28  N   UNL A   1      45.107  23.888  28.755  1.00  0.00    -0.354 N 
ATOM     29  N   UNL A   1      46.488  27.836  30.063  1.00  0.00    -0.248 NA
ATOM     30  C   UNL A   1      46.865  27.725  27.760  1.00  0.00     0.031 C 
ATOM     31  C   UNL A   1      43.775  23.723  30.470  1.00  0.00     0.029 A 
ATOM     32  C   UNL A   1      44.830  24.483  29.960  1.00  0.00     0.049 A 
ATOM     33  H   UNL A   1      45.987  23.837  28.316  1.00  0.00     0.167 HD
ATOM     34  C   UNL A   1      46.207  26.540  29.653  1.00  0.00     0.074 A 
ATOM     35  C   UNL A   1      46.518  26.519  28.223  1.00  0.00     0.031 C 
ATOM     36  C   UNL A   1      45.484  25.682  30.435  1.00  0.00     0.037 A 
BRANCH  23  37
ATOM     37  C   UNL A   1      44.344  23.069  25.761  1.00  0.00     0.057 A 
ATOM     38  C   UNL A   1      45.354  23.744  25.050  1.00  0.00     0.134 A 
ATOM     39  C   UNL A   1      44.304  21.674  25.558  1.00  0.00     0.134 A 
ATOM     40  F   UNL A   1      45.547  25.063  25.160  1.00  0.00    -0.206 F 
ATOM     41  C   UNL A   1      46.293  23.079  24.254  1.00  0.00     0.040 A 
ATOM     42  C   UNL A   1      45.264  20.995  24.799  1.00  0.00     0.040 A 
ATOM     43  F   UNL A   1      43.374  20.916  26.158  1.00  0.00    -0.206 F 
ATOM     44  C   UNL A   1      46.276  21.697  24.159  1.00  0.00     0.006 A 
ENDBRANCH  23  37
BRANCH  24  45
ATOM     45  C   UNL A   1      46.883  31.033  28.282  1.00  0.00     0.057 A 
ATOM     46  C   UNL A   1      47.612  31.846  29.171  1.00  0.00     0.134 A 
ATOM     47  C   UNL A   1      46.752  31.510  26.974  1.00  0.00     0.134 A 
ATOM     48  F   UNL A   1      47.733  31.517  30.465  1.00  0.00    -0.206 F 
ATOM     49  C   UNL A   1      48.168  33.068  28.785  1.00  0.00     0.040 A 
ATOM     50  C   UNL A   1      47.304  32.735  26.574  1.00  0.00     0.040 A 
ATOM     51  F   UNL A   1      46.041  30.822  26.069  1.00  0.00    -0.206 F 
ATOM     52  C   UNL A   1      48.005  33.523  27.483  1.00  0.00     0.006 A 
ENDBRANCH  24  45
BRANCH  36  53
ATOM     53  C   UNL A   1      45.137  26.125  31.832  1.00  0.00     0.057 A 
ATOM     54  C   UNL A   1      45.964  25.742  32.891  1.00  0.00     0.134 A 
ATOM     55  C   UNL A   1      43.931  26.758  32.172  1.00  0.00     0.134 A 
ATOM     56  F   UNL A   1      47.099  25.068  32.650  1.00  0.00    -0.206 F 
ATOM     57  C   UNL A   1      45.618  25.986  34.224  1.00  0.00     0.040 A 
ATOM     58  C   UNL A   1      43.586  27.037  33.498  1.00  0.00     0.040 A 
ATOM     59  F   UNL A   1      43.023  27.063  31.240  1.00  0.00    -0.206 F 
ATOM     60  C   UNL A   1      44.430  26.645  34.531  1.00  0.00     0.006 A 
ENDBRANCH  36  53
ENDBRANCH  10  11
ENDBRANCH   3   5
ENDBRANCH   2   3
ENDBRANCH   1   2
BRANCH   1  61
ATOM     61  C   UNL A   1      33.254  29.985  27.231  1.00  0.00     0.275 C 
BRANCH  61  62
ATOM     62  O   UNL A   1      33.077  28.637  26.758  1.00  0.00    -0.458 OA
BRANCH  62  63
ATOM     63  C   UNL A   1      31.864  28.044  26.955  1.00  0.00     0.341 C 
ATOM     64  O   UNL A   1      31.324  27.854  28.046  1.00  0.00    -0.246 OA
BRANCH  63  65
ATOM     65  C   UNL A   1      31.297  27.599  25.700  1.00  0.00     0.094 A 
ATOM     66  C   UNL A   1      31.510  28.346  24.484  1.00  0.00     0.029 A 
ATOM     67  C   UNL A   1      30.512  26.466  25.491  1.00  0.00     0.110 A 
ATOM     68  C   UNL A   1      30.841  27.813  23.417  1.00  0.00     0.068 A 
ATOM     69  S   UNL A   1      29.960  26.452  23.888  1.00  0.00    -0.126 S 
BRANCH  67  70
ATOM     70  N   UNL A   1      30.104  25.501  26.416  1.00  0.00    -0.312 N 
ATOM     71  C   UNL A   1      30.310  24.120  26.538  1.00  0.00     0.266 C 
ATOM     72  H   UNL A   1      29.551  25.872  27.141  1.00  0.00     0.171 HD
ATOM     73  O   UNL A   1      29.626  23.510  27.363  1.00  0.00    -0.268 OA
BRANCH  71  74
ATOM     74  C   UNL A   1      31.348  23.444  25.804  1.00  0.00     0.094 A 
ATOM     75  C   UNL A   1      31.352  23.029  24.486  1.00  0.00     0.037 A 
ATOM     76  S   UNL A   1      32.904  23.157  26.460  1.00  0.00    -0.130 S 
ATOM     77  C   UNL A   1      32.232  21.902  24.347  1.00  0.00     0.029 A 
ATOM     78  C   UNL A   1      32.966  21.703  25.520  1.00  0.00     0.038 A 
ATOM     79  C   UNL A   1      32.250  20.888  23.375  1.00  0.00     0.131 A 
ATOM     80  C   UNL A   1      33.521  20.455  25.848  1.00  0.00     0.020 A 
ATOM     81  F   UNL A   1      31.681  21.081  22.178  1.00  0.00    -0.206 F 
ATOM     82  C   UNL A   1      32.645  19.608  23.751  1.00  0.00     0.040 A 
ATOM     83  C   UNL A   1      33.216  19.385  25.001  1.00  0.00     0.005 A 
ENDBRANCH  71  74
ENDBRANCH  67  70
ENDBRANCH  63  65
ENDBRANCH  62  63
ENDBRANCH  61  62
ENDBRANCH   1  61
TORSDOF 13
ENDMDL
MODEL 3
REMARK VINA RESULT:     -10.9      4.405      6.564
REMARK SMILES O=C(OCCOC(=O)c1ccsc1NC(=O)c1cc2c(F)cccc2s1)c1ccc(-c2c3nc(c(-c4c(F)cccc4F)c4ccc([nH]4)c(-c4c(F)cccc4F)c4nc(c(-c5c(F)cccc5F)c5ccc2[nH]5)C=C4)C=C3)cc1
REMARK SMILES IDX 4 1 3 2 2 3 1 4 27 5 28 6 80 7 29 8 79 9 30 10 31 11 32 12
REMARK SMILES IDX 73 13 33 14 78 15 72 16 74 17 34 18 77 19 71 20 70 21 35 23
REMARK SMILES IDX 61 24 44 25 60 26 45 27 48 28 59 29 75 30 46 31 47 32 58 34
REMARK SMILES IDX 76 35 49 36 36 37 37 38 42 39 38 40 39 41 41 42 43 43 40 44
REMARK SMILES IDX 62 45 63 46 68 47 64 48 65 49 67 50 69 51 66 52 50 53 51 54
REMARK SMILES IDX 56 55 52 56 53 57 55 58 57 59 54 60 5 61 6 62 7 63 8 64 9 65
REMARK SMILES IDX 10 66 13 67 11 68 12 69 14 70 15 71 16 73 17 74 18 75 26 76
REMARK SMILES IDX 19 77 25 78 20 79 24 80 21 81 22 82 23 83
REMARK H PARENT 74 22 48 33 14 72
REMARK Flexibility Score: inf
ROOT
ATOM      1  C   UNL A   1      33.181  30.909  27.240  1.00  0.00     0.275 C 
ENDROOT
BRANCH   1   2
ATOM      2  O   UNL A   1      34.051  31.256  28.331  1.00  0.00    -0.458 OA
BRANCH   2   3
ATOM      3  C   UNL A   1      35.240  31.813  28.051  1.00  0.00     0.338 C 
ATOM      4  O   UNL A   1      35.405  33.003  27.820  1.00  0.00    -0.246 OA
BRANCH   3   5
ATOM      5  C   UNL A   1      36.391  30.912  28.248  1.00  0.00     0.060 A 
ATOM      6  C   UNL A   1      36.427  29.559  27.897  1.00  0.00     0.016 A 
ATOM      7  C   UNL A   1      37.532  31.534  28.751  1.00  0.00     0.016 A 
ATOM      8  C   UNL A   1      37.579  28.819  28.136  1.00  0.00     0.010 A 
ATOM      9  C   UNL A   1      38.706  30.830  28.870  1.00  0.00     0.010 A 
ATOM     10  C   UNL A   1      38.704  29.457  28.664  1.00  0.00    -0.014 A 
BRANCH  10  11
ATOM     11  C   UNL A   1      39.859  28.680  29.083  1.00  0.00     0.031 A 
ATOM     12  C   UNL A   1      40.107  28.571  30.548  1.00  0.00     0.074 A 
ATOM     13  C   UNL A   1      40.621  28.034  28.174  1.00  0.00     0.049 A 
ATOM     14  N   UNL A   1      41.049  29.112  31.246  1.00  0.00    -0.248 NA
ATOM     15  C   UNL A   1      39.124  27.851  31.362  1.00  0.00     0.031 C 
ATOM     16  C   UNL A   1      40.402  27.821  26.736  1.00  0.00     0.029 A 
ATOM     17  N   UNL A   1      41.787  27.376  28.393  1.00  0.00    -0.354 N 
ATOM     18  C   UNL A   1      40.890  28.658  32.558  1.00  0.00     0.074 A 
ATOM     19  C   UNL A   1      39.622  27.980  32.593  1.00  0.00     0.031 C 
ATOM     20  C   UNL A   1      41.281  26.908  26.268  1.00  0.00     0.029 A 
ATOM     21  C   UNL A   1      42.240  26.631  27.316  1.00  0.00     0.049 A 
ATOM     22  H   UNL A   1      42.272  27.424  29.249  1.00  0.00     0.167 HD
ATOM     23  C   UNL A   1      41.901  28.735  33.469  1.00  0.00     0.037 A 
ATOM     24  C   UNL A   1      43.337  25.841  27.293  1.00  0.00     0.037 A 
ATOM     25  C   UNL A   1      42.927  29.637  33.016  1.00  0.00     0.049 A 
ATOM     26  C   UNL A   1      44.224  26.301  28.392  1.00  0.00     0.074 A 
ATOM     27  C   UNL A   1      42.978  30.992  32.758  1.00  0.00     0.029 A 
ATOM     28  N   UNL A   1      44.021  29.096  32.385  1.00  0.00    -0.354 N 
ATOM     29  N   UNL A   1      44.811  27.468  28.395  1.00  0.00    -0.248 NA
ATOM     30  C   UNL A   1      44.044  25.691  29.702  1.00  0.00     0.031 C 
ATOM     31  C   UNL A   1      43.774  31.104  31.579  1.00  0.00     0.029 A 
ATOM     32  C   UNL A   1      44.220  29.825  31.239  1.00  0.00     0.049 A 
ATOM     33  H   UNL A   1      44.559  28.332  32.694  1.00  0.00     0.167 HD
ATOM     34  C   UNL A   1      44.706  27.923  29.702  1.00  0.00     0.074 A 
ATOM     35  C   UNL A   1      44.281  26.755  30.476  1.00  0.00     0.031 C 
ATOM     36  C   UNL A   1      44.694  29.258  29.997  1.00  0.00     0.037 A 
BRANCH  23  37
ATOM     37  C   UNL A   1      42.143  27.774  34.609  1.00  0.00     0.057 A 
ATOM     38  C   UNL A   1      41.599  27.920  35.898  1.00  0.00     0.134 A 
ATOM     39  C   UNL A   1      42.676  26.499  34.327  1.00  0.00     0.134 A 
ATOM     40  F   UNL A   1      41.025  29.057  36.309  1.00  0.00    -0.206 F 
ATOM     41  C   UNL A   1      41.527  26.864  36.813  1.00  0.00     0.040 A 
ATOM     42  C   UNL A   1      42.569  25.425  35.219  1.00  0.00     0.040 A 
ATOM     43  F   UNL A   1      43.247  26.235  33.142  1.00  0.00    -0.206 F 
ATOM     44  C   UNL A   1      41.975  25.601  36.460  1.00  0.00     0.006 A 
ENDBRANCH  23  37
BRANCH  24  45
ATOM     45  C   UNL A   1      43.474  24.540  26.609  1.00  0.00     0.057 A 
ATOM     46  C   UNL A   1      44.130  24.442  25.367  1.00  0.00     0.134 A 
ATOM     47  C   UNL A   1      42.758  23.412  27.020  1.00  0.00     0.134 A 
ATOM     48  F   UNL A   1      44.782  25.493  24.847  1.00  0.00    -0.206 F 
ATOM     49  C   UNL A   1      44.068  23.294  24.575  1.00  0.00     0.040 A 
ATOM     50  C   UNL A   1      42.687  22.253  26.234  1.00  0.00     0.040 A 
ATOM     51  F   UNL A   1      42.070  23.427  28.171  1.00  0.00    -0.206 F 
ATOM     52  C   UNL A   1      43.334  22.195  25.002  1.00  0.00     0.006 A 
ENDBRANCH  24  45
BRANCH  36  53
ATOM     53  C   UNL A   1      44.965  30.229  28.879  1.00  0.00     0.057 A 
ATOM     54  C   UNL A   1      46.255  30.741  28.722  1.00  0.00     0.134 A 
ATOM     55  C   UNL A   1      43.962  30.796  28.078  1.00  0.00     0.134 A 
ATOM     56  F   UNL A   1      47.255  30.302  29.502  1.00  0.00    -0.206 F 
ATOM     57  C   UNL A   1      46.540  31.760  27.807  1.00  0.00     0.040 A 
ATOM     58  C   UNL A   1      44.236  31.792  27.136  1.00  0.00     0.040 A 
ATOM     59  F   UNL A   1      42.679  30.453  28.230  1.00  0.00    -0.206 F 
ATOM     60  C   UNL A   1      45.530  32.282  27.002  1.00  0.00     0.006 A 
ENDBRANCH  36  53
ENDBRANCH  10  11
ENDBRANCH   3   5
ENDBRANCH   2   3
ENDBRANCH   1   2
BRANCH   1  61
ATOM     61  C   UNL A   1      33.174  29.443  26.790  1.00  0.00     0.275 C 
BRANCH  61  62
ATOM     62  O   UNL A   1      31.916  29.080  26.192  1.00  0.00    -0.458 OA
BRANCH  62  63
ATOM     63  C   UNL A   1      31.376  27.870  26.522  1.00  0.00     0.341 C 
ATOM     64  O   UNL A   1      31.187  27.453  27.665  1.00  0.00    -0.246 OA
BRANCH  63  65
ATOM     65  C   UNL A   1      31.099  27.088  25.336  1.00  0.00     0.094 A 
ATOM     66  C   UNL A   1      31.378  27.612  24.020  1.00  0.00     0.029 A 
ATOM     67  C   UNL A   1      30.556  25.805  25.288  1.00  0.00     0.110 A 
ATOM     68  C   UNL A   1      30.985  26.761  23.024  1.00  0.00     0.068 A 
ATOM     69  S   UNL A   1      30.277  25.373  23.671  1.00  0.00    -0.126 S 
BRANCH  67  70
ATOM     70  N   UNL A   1      30.169  24.978  26.346  1.00  0.00    -0.312 N 
ATOM     71  C   UNL A   1      30.544  23.693  26.764  1.00  0.00     0.266 C 
ATOM     72  H   UNL A   1      29.485  25.385  26.924  1.00  0.00     0.171 HD
ATOM     73  O   UNL A   1      29.851  23.148  27.626  1.00  0.00    -0.268 OA
BRANCH  71  74
ATOM     74  C   UNL A   1      31.747  23.064  26.284  1.00  0.00     0.094 A 
ATOM     75  C   UNL A   1      33.040  23.188  26.754  1.00  0.00     0.037 A 
ATOM     76  S   UNL A   1      31.736  21.870  25.057  1.00  0.00    -0.130 S 
ATOM     77  C   UNL A   1      33.961  22.945  25.679  1.00  0.00     0.029 A 
ATOM     78  C   UNL A   1      33.287  22.457  24.555  1.00  0.00     0.038 A 
ATOM     79  C   UNL A   1      35.294  23.359  25.523  1.00  0.00     0.131 A 
ATOM     80  C   UNL A   1      33.815  22.581  23.259  1.00  0.00     0.020 A 
ATOM     81  F   UNL A   1      36.029  23.704  26.589  1.00  0.00    -0.206 F 
ATOM     82  C   UNL A   1      35.761  23.641  24.244  1.00  0.00     0.040 A 
ATOM     83  C   UNL A   1      34.999  23.313  23.126  1.00  0.00     0.005 A 
ENDBRANCH  71  74
ENDBRANCH  67  70
ENDBRANCH  63  65
ENDBRANCH  62  63
ENDBRANCH  61  62
ENDBRANCH   1  61
TORSDOF 13
ENDMDL
