MODEL 1
REMARK VINA RESULT:     -10.2      0.000      0.000
REMARK SMILES CC[C@@H]1CCC[C@](CCCCCO)(C(=O)OCCOC(=O)c2ccc(-c3c4nc(c(-c5c(F)cccc5F)c5ccc([nH]5)c(-c5c(F)cccc5F)c5nc(c(-c6c(F)cccc6F)c6ccc3[nH]6)C=C5)C=C4)cc2)C1
REMARK SMILES IDX 14 1 15 2 7 3 3 4 4 5 76 6 5 7 6 8 2 9 1 10 8 11 9 12 10 13
REMARK SMILES IDX 11 14 12 15 13 16 16 18 17 19 18 20 19 21 20 22 21 23 22 24
REMARK SMILES IDX 23 25 75 26 24 27 74 28 25 29 26 30 27 31 68 32 28 33 73 34
REMARK SMILES IDX 67 35 69 36 29 37 72 38 66 39 65 40 30 42 56 43 39 44 55 45
REMARK SMILES IDX 40 46 43 47 54 48 70 49 41 50 42 51 53 53 71 54 44 55 31 56
REMARK SMILES IDX 32 57 37 58 33 59 34 60 36 61 38 62 35 63 57 64 58 65 63 66
REMARK SMILES IDX 59 67 60 68 62 69 64 70 61 71 45 72 46 73 51 74 47 75 48 76
REMARK SMILES IDX 50 77 52 78 49 79
REMARK H PARENT 13 17 69 41 43 52
REMARK Flexibility Score: inf
ROOT
ATOM      1  C   UNL A   1      34.272  23.805  23.615  1.00  0.00     0.312 C 
ATOM      2  O   UNL A   1      34.419  23.402  22.467  1.00  0.00    -0.252 OA
ENDROOT
BRANCH   1   3
ATOM      3  C   UNL A   1      33.305  24.946  24.000  1.00  0.00     0.068 C 
ATOM      4  C   UNL A   1      33.092  26.873  25.736  1.00  0.00    -0.010 C 
ATOM      5  C   UNL A   1      31.975  26.114  26.461  1.00  0.00     0.003 C 
ATOM      6  C   UNL A   1      34.030  25.878  25.019  1.00  0.00     0.022 C 
ATOM      7  C   UNL A   1      31.186  25.245  25.491  1.00  0.00     0.001 C 
ATOM      8  C   UNL A   1      32.101  24.279  24.738  1.00  0.00     0.019 C 
BRANCH   4   9
ATOM      9  C   UNL A   1      33.843  27.843  26.673  1.00  0.00     0.000 C 
ATOM     10  C   UNL A   1      33.799  29.316  26.296  1.00  0.00     0.004 C 
ENDBRANCH   4   9
BRANCH   3  11
ATOM     11  C   UNL A   1      32.790  25.780  22.775  1.00  0.00     0.019 C 
BRANCH  11  12
ATOM     12  C   UNL A   1      33.499  27.076  22.345  1.00  0.00     0.001 C 
BRANCH  12  13
ATOM     13  C   UNL A   1      32.804  28.399  22.666  1.00  0.00     0.002 C 
BRANCH  13  14
ATOM     14  C   UNL A   1      31.349  28.276  23.118  1.00  0.00     0.028 C 
BRANCH  14  15
ATOM     15  C   UNL A   1      30.347  29.048  22.267  1.00  0.00     0.156 C 
BRANCH  15  16
ATOM     16  O   UNL A   1      30.988  30.072  21.520  1.00  0.00    -0.396 OA
ATOM     17  H   UNL A   1      31.516  29.673  20.811  1.00  0.00     0.210 HD
ENDBRANCH  15  16
ENDBRANCH  14  15
ENDBRANCH  13  14
ENDBRANCH  12  13
ENDBRANCH  11  12
ENDBRANCH   3  11
ENDBRANCH   1   3
BRANCH   1  18
ATOM     18  O   UNL A   1      34.960  23.310  24.680  1.00  0.00    -0.462 OA
BRANCH  18  19
ATOM     19  C   UNL A   1      34.599  21.968  25.084  1.00  0.00     0.274 C 
BRANCH  19  20
ATOM     20  C   UNL A   1      35.783  21.024  24.947  1.00  0.00     0.275 C 
BRANCH  20  21
ATOM     21  O   UNL A   1      36.966  21.816  24.781  1.00  0.00    -0.458 OA
BRANCH  21  22
ATOM     22  C   UNL A   1      38.070  21.350  25.400  1.00  0.00     0.338 C 
ATOM     23  O   UNL A   1      38.556  20.231  25.315  1.00  0.00    -0.246 OA
BRANCH  22  24
ATOM     24  C   UNL A   1      38.685  22.436  26.182  1.00  0.00     0.060 A 
ATOM     25  C   UNL A   1      38.143  23.720  26.139  1.00  0.00     0.016 A 
ATOM     26  C   UNL A   1      39.895  22.210  26.834  1.00  0.00     0.016 A 
ATOM     27  C   UNL A   1      38.873  24.800  26.629  1.00  0.00     0.010 A 
ATOM     28  C   UNL A   1      40.575  23.284  27.417  1.00  0.00     0.010 A 
ATOM     29  C   UNL A   1      40.106  24.601  27.262  1.00  0.00    -0.014 A 
BRANCH  29  30
ATOM     30  C   UNL A   1      40.960  25.756  27.661  1.00  0.00     0.031 A 
ATOM     31  C   UNL A   1      40.407  26.803  28.597  1.00  0.00     0.074 A 
ATOM     32  C   UNL A   1      42.231  25.878  27.231  1.00  0.00     0.049 A 
ATOM     33  N   UNL A   1      40.854  28.006  28.854  1.00  0.00    -0.248 NA
ATOM     34  C   UNL A   1      39.169  26.459  29.318  1.00  0.00     0.031 C 
ATOM     35  C   UNL A   1      42.941  24.922  26.380  1.00  0.00     0.029 A 
ATOM     36  N   UNL A   1      43.159  26.862  27.467  1.00  0.00    -0.354 N 
ATOM     37  C   UNL A   1      39.902  28.595  29.677  1.00  0.00     0.074 A 
ATOM     38  C   UNL A   1      38.868  27.608  29.905  1.00  0.00     0.031 C 
ATOM     39  C   UNL A   1      44.207  25.336  26.216  1.00  0.00     0.029 A 
ATOM     40  C   UNL A   1      44.371  26.632  26.864  1.00  0.00     0.049 A 
ATOM     41  H   UNL A   1      42.973  27.656  28.019  1.00  0.00     0.167 HD
ATOM     42  C   UNL A   1      39.885  29.852  30.181  1.00  0.00     0.037 A 
ATOM     43  C   UNL A   1      45.477  27.397  26.799  1.00  0.00     0.037 A 
ATOM     44  C   UNL A   1      40.964  30.795  30.041  1.00  0.00     0.049 A 
ATOM     45  C   UNL A   1      45.465  28.764  27.416  1.00  0.00     0.074 A 
ATOM     46  C   UNL A   1      41.045  32.096  30.506  1.00  0.00     0.029 A 
ATOM     47  N   UNL A   1      42.174  30.514  29.425  1.00  0.00    -0.354 N 
ATOM     48  N   UNL A   1      44.501  29.368  28.066  1.00  0.00    -0.248 NA
ATOM     49  C   UNL A   1      46.684  29.570  27.260  1.00  0.00     0.031 C 
ATOM     50  C   UNL A   1      42.305  32.604  30.167  1.00  0.00     0.029 A 
ATOM     51  C   UNL A   1      43.014  31.611  29.513  1.00  0.00     0.049 A 
ATOM     52  H   UNL A   1      42.402  29.662  28.989  1.00  0.00     0.167 HD
ATOM     53  C   UNL A   1      44.989  30.628  28.383  1.00  0.00     0.074 A 
ATOM     54  C   UNL A   1      46.349  30.689  27.887  1.00  0.00     0.031 C 
ATOM     55  C   UNL A   1      44.361  31.651  29.011  1.00  0.00     0.037 A 
BRANCH  42  56
ATOM     56  C   UNL A   1      38.643  30.297  30.893  1.00  0.00     0.057 A 
ATOM     57  C   UNL A   1      38.467  30.130  32.270  1.00  0.00     0.134 A 
ATOM     58  C   UNL A   1      37.616  30.931  30.180  1.00  0.00     0.134 A 
ATOM     59  F   UNL A   1      39.404  29.513  33.006  1.00  0.00    -0.206 F 
ATOM     60  C   UNL A   1      37.305  30.565  32.913  1.00  0.00     0.040 A 
ATOM     61  C   UNL A   1      36.461  31.388  30.814  1.00  0.00     0.040 A 
ATOM     62  F   UNL A   1      37.724  31.124  28.856  1.00  0.00    -0.206 F 
ATOM     63  C   UNL A   1      36.301  31.201  32.185  1.00  0.00     0.006 A 
ENDBRANCH  42  56
BRANCH  43  64
ATOM     64  C   UNL A   1      46.674  26.898  26.080  1.00  0.00     0.057 A 
ATOM     65  C   UNL A   1      46.893  27.224  24.738  1.00  0.00     0.134 A 
ATOM     66  C   UNL A   1      47.633  26.105  26.720  1.00  0.00     0.134 A 
ATOM     67  F   UNL A   1      45.997  27.961  24.067  1.00  0.00    -0.206 F 
ATOM     68  C   UNL A   1      48.025  26.777  24.054  1.00  0.00     0.040 A 
ATOM     69  C   UNL A   1      48.781  25.670  26.056  1.00  0.00     0.040 A 
ATOM     70  F   UNL A   1      47.479  25.761  28.007  1.00  0.00    -0.206 F 
ATOM     71  C   UNL A   1      48.978  26.004  24.717  1.00  0.00     0.006 A 
ENDBRANCH  43  64
BRANCH  55  72
ATOM     72  C   UNL A   1      45.146  32.912  29.197  1.00  0.00     0.057 A 
ATOM     73  C   UNL A   1      45.952  33.107  30.326  1.00  0.00     0.134 A 
ATOM     74  C   UNL A   1      45.108  33.930  28.238  1.00  0.00     0.134 A 
ATOM     75  F   UNL A   1      46.018  32.172  31.285  1.00  0.00    -0.206 F 
ATOM     76  C   UNL A   1      46.679  34.284  30.504  1.00  0.00     0.040 A 
ATOM     77  C   UNL A   1      45.843  35.104  28.397  1.00  0.00     0.040 A 
ATOM     78  F   UNL A   1      44.357  33.797  27.135  1.00  0.00    -0.206 F 
ATOM     79  C   UNL A   1      46.628  35.287  29.535  1.00  0.00     0.006 A 
ENDBRANCH  55  72
ENDBRANCH  29  30
ENDBRANCH  22  24
ENDBRANCH  21  22
ENDBRANCH  20  21
ENDBRANCH  19  20
ENDBRANCH  18  19
ENDBRANCH   1  18
TORSDOF 18
ENDMDL
MODEL 2
REMARK VINA RESULT:     -10.1      2.850      6.828
REMARK SMILES CC[C@@H]1CCC[C@](CCCCCO)(C(=O)OCCOC(=O)c2ccc(-c3c4nc(c(-c5c(F)cccc5F)c5ccc([nH]5)c(-c5c(F)cccc5F)c5nc(c(-c6c(F)cccc6F)c6ccc3[nH]6)C=C5)C=C4)cc2)C1
REMARK SMILES IDX 14 1 15 2 7 3 3 4 4 5 76 6 5 7 6 8 2 9 1 10 8 11 9 12 10 13
REMARK SMILES IDX 11 14 12 15 13 16 16 18 17 19 18 20 19 21 20 22 21 23 22 24
REMARK SMILES IDX 23 25 75 26 24 27 74 28 25 29 26 30 27 31 68 32 28 33 73 34
REMARK SMILES IDX 67 35 69 36 29 37 72 38 66 39 65 40 30 42 56 43 39 44 55 45
REMARK SMILES IDX 40 46 43 47 54 48 70 49 41 50 42 51 53 53 71 54 44 55 31 56
REMARK SMILES IDX 32 57 37 58 33 59 34 60 36 61 38 62 35 63 57 64 58 65 63 66
REMARK SMILES IDX 59 67 60 68 62 69 64 70 61 71 45 72 46 73 51 74 47 75 48 76
REMARK SMILES IDX 50 77 52 78 49 79
REMARK H PARENT 13 17 69 41 43 52
REMARK Flexibility Score: inf
ROOT
ATOM      1  C   UNL A   1      31.939  28.619  26.497  1.00  0.00     0.312 C 
ATOM      2  O   UNL A   1      31.468  28.239  27.563  1.00  0.00    -0.252 OA
ENDROOT
BRANCH   1   3
ATOM      3  C   UNL A   1      31.537  28.025  25.129  1.00  0.00     0.068 C 
ATOM      4  C   UNL A   1      29.909  28.500  23.155  1.00  0.00    -0.010 C 
ATOM      5  C   UNL A   1      29.039  27.308  23.567  1.00  0.00     0.003 C 
ATOM      6  C   UNL A   1      30.646  29.069  24.386  1.00  0.00     0.022 C 
ATOM      7  C   UNL A   1      29.879  26.223  24.231  1.00  0.00     0.001 C 
ATOM      8  C   UNL A   1      30.652  26.773  25.429  1.00  0.00     0.019 C 
BRANCH   4   9
ATOM      9  C   UNL A   1      29.105  29.570  22.386  1.00  0.00     0.000 C 
ATOM     10  C   UNL A   1      27.727  29.906  22.936  1.00  0.00     0.004 C 
ENDBRANCH   4   9
BRANCH   3  11
ATOM     11  C   UNL A   1      32.757  27.619  24.231  1.00  0.00     0.019 C 
BRANCH  11  12
ATOM     12  C   UNL A   1      33.526  26.310  24.483  1.00  0.00     0.001 C 
BRANCH  12  13
ATOM     13  C   UNL A   1      33.787  25.405  23.279  1.00  0.00     0.002 C 
BRANCH  13  14
ATOM     14  C   UNL A   1      33.540  26.050  21.915  1.00  0.00     0.028 C 
BRANCH  14  15
ATOM     15  C   UNL A   1      32.364  25.470  21.137  1.00  0.00     0.156 C 
BRANCH  15  16
ATOM     16  O   UNL A   1      31.413  26.475  20.819  1.00  0.00    -0.396 OA
ATOM     17  H   UNL A   1      31.386  27.133  21.531  1.00  0.00     0.210 HD
ENDBRANCH  15  16
ENDBRANCH  14  15
ENDBRANCH  13  14
ENDBRANCH  12  13
ENDBRANCH  11  12
ENDBRANCH   3  11
ENDBRANCH   1   3
BRANCH   1  18
ATOM     18  O   UNL A   1      32.885  29.592  26.396  1.00  0.00    -0.462 OA
BRANCH  18  19
ATOM     19  C   UNL A   1      32.544  30.856  27.013  1.00  0.00     0.274 C 
BRANCH  19  20
ATOM     20  C   UNL A   1      33.768  31.491  27.657  1.00  0.00     0.275 C 
BRANCH  20  21
ATOM     21  O   UNL A   1      34.618  30.438  28.129  1.00  0.00    -0.458 OA
BRANCH  21  22
ATOM     22  C   UNL A   1      35.574  30.810  29.004  1.00  0.00     0.338 C 
ATOM     23  O   UNL A   1      35.493  31.664  29.876  1.00  0.00    -0.246 OA
BRANCH  22  24
ATOM     24  C   UNL A   1      36.767  29.971  28.810  1.00  0.00     0.060 A 
ATOM     25  C   UNL A   1      37.286  29.238  29.877  1.00  0.00     0.016 A 
ATOM     26  C   UNL A   1      37.463  30.037  27.605  1.00  0.00     0.016 A 
ATOM     27  C   UNL A   1      38.560  28.683  29.787  1.00  0.00     0.010 A 
ATOM     28  C   UNL A   1      38.696  29.390  27.484  1.00  0.00     0.010 A 
ATOM     29  C   UNL A   1      39.291  28.763  28.594  1.00  0.00    -0.014 A 
BRANCH  29  30
ATOM     30  C   UNL A   1      40.706  28.300  28.529  1.00  0.00     0.031 A 
ATOM     31  C   UNL A   1      41.820  29.262  28.864  1.00  0.00     0.074 A 
ATOM     32  C   UNL A   1      41.022  27.031  28.204  1.00  0.00     0.049 A 
ATOM     33  N   UNL A   1      43.102  29.168  28.613  1.00  0.00    -0.248 NA
ATOM     34  C   UNL A   1      41.435  30.508  29.548  1.00  0.00     0.031 C 
ATOM     35  C   UNL A   1      40.067  25.959  27.919  1.00  0.00     0.029 A 
ATOM     36  N   UNL A   1      42.247  26.425  28.073  1.00  0.00    -0.354 N 
ATOM     37  C   UNL A   1      43.654  30.380  29.010  1.00  0.00     0.074 A 
ATOM     38  C   UNL A   1      42.577  31.181  29.550  1.00  0.00     0.031 C 
ATOM     39  C   UNL A   1      40.739  24.817  27.707  1.00  0.00     0.029 A 
ATOM     40  C   UNL A   1      42.171  25.095  27.741  1.00  0.00     0.049 A 
ATOM     41  H   UNL A   1      43.099  26.900  28.206  1.00  0.00     0.167 HD
ATOM     42  C   UNL A   1      44.941  30.790  28.916  1.00  0.00     0.037 A 
ATOM     43  C   UNL A   1      43.140  24.207  27.450  1.00  0.00     0.037 A 
ATOM     44  C   UNL A   1      46.028  29.954  28.479  1.00  0.00     0.049 A 
ATOM     45  C   UNL A   1      44.569  24.662  27.409  1.00  0.00     0.074 A 
ATOM     46  C   UNL A   1      47.367  30.274  28.339  1.00  0.00     0.029 A 
ATOM     47  N   UNL A   1      45.902  28.611  28.157  1.00  0.00    -0.354 N 
ATOM     48  N   UNL A   1      45.063  25.853  27.644  1.00  0.00    -0.248 NA
ATOM     49  C   UNL A   1      45.572  23.657  27.030  1.00  0.00     0.031 C 
ATOM     50  C   UNL A   1      48.052  29.124  27.928  1.00  0.00     0.029 A 
ATOM     51  C   UNL A   1      47.141  28.084  27.836  1.00  0.00     0.049 A 
ATOM     52  H   UNL A   1      45.057  28.107  28.156  1.00  0.00     0.167 HD
ATOM     53  C   UNL A   1      46.429  25.746  27.425  1.00  0.00     0.074 A 
ATOM     54  C   UNL A   1      46.692  24.364  27.077  1.00  0.00     0.031 C 
ATOM     55  C   UNL A   1      47.380  26.709  27.489  1.00  0.00     0.037 A 
BRANCH  42  56
ATOM     56  C   UNL A   1      45.239  32.221  29.250  1.00  0.00     0.057 A 
ATOM     57  C   UNL A   1      45.089  33.256  28.321  1.00  0.00     0.134 A 
ATOM     58  C   UNL A   1      45.659  32.565  30.542  1.00  0.00     0.134 A 
ATOM     59  F   UNL A   1      44.708  32.990  27.062  1.00  0.00    -0.206 F 
ATOM     60  C   UNL A   1      45.361  34.584  28.661  1.00  0.00     0.040 A 
ATOM     61  C   UNL A   1      45.914  33.890  30.899  1.00  0.00     0.040 A 
ATOM     62  F   UNL A   1      45.821  31.620  31.481  1.00  0.00    -0.206 F 
ATOM     63  C   UNL A   1      45.769  34.904  29.954  1.00  0.00     0.006 A 
ENDBRANCH  42  56
BRANCH  43  64
ATOM     64  C   UNL A   1      42.780  22.805  27.130  1.00  0.00     0.057 A 
ATOM     65  C   UNL A   1      42.788  22.346  25.809  1.00  0.00     0.134 A 
ATOM     66  C   UNL A   1      42.440  21.889  28.132  1.00  0.00     0.134 A 
ATOM     67  F   UNL A   1      43.081  23.183  24.804  1.00  0.00    -0.206 F 
ATOM     68  C   UNL A   1      42.469  21.024  25.493  1.00  0.00     0.040 A 
ATOM     69  C   UNL A   1      42.142  20.559  27.835  1.00  0.00     0.040 A 
ATOM     70  F   UNL A   1      42.416  22.271  29.418  1.00  0.00    -0.206 F 
ATOM     71  C   UNL A   1      42.154  20.123  26.511  1.00  0.00     0.006 A 
ENDBRANCH  43  64
BRANCH  55  72
ATOM     72  C   UNL A   1      48.784  26.293  27.180  1.00  0.00     0.057 A 
ATOM     73  C   UNL A   1      49.313  26.419  25.890  1.00  0.00     0.134 A 
ATOM     74  C   UNL A   1      49.616  25.778  28.180  1.00  0.00     0.134 A 
ATOM     75  F   UNL A   1      48.559  26.894  24.888  1.00  0.00    -0.206 F 
ATOM     76  C   UNL A   1      50.620  26.025  25.601  1.00  0.00     0.040 A 
ATOM     77  C   UNL A   1      50.929  25.397  27.907  1.00  0.00     0.040 A 
ATOM     78  F   UNL A   1      49.164  25.639  29.436  1.00  0.00    -0.206 F 
ATOM     79  C   UNL A   1      51.434  25.515  26.612  1.00  0.00     0.006 A 
ENDBRANCH  55  72
ENDBRANCH  29  30
ENDBRANCH  22  24
ENDBRANCH  21  22
ENDBRANCH  20  21
ENDBRANCH  19  20
ENDBRANCH  18  19
ENDBRANCH   1  18
TORSDOF 18
ENDMDL
MODEL 3
REMARK VINA RESULT:     -10.0      3.660      8.677
REMARK SMILES CC[C@@H]1CCC[C@](CCCCCO)(C(=O)OCCOC(=O)c2ccc(-c3c4nc(c(-c5c(F)cccc5F)c5ccc([nH]5)c(-c5c(F)cccc5F)c5nc(c(-c6c(F)cccc6F)c6ccc3[nH]6)C=C5)C=C4)cc2)C1
REMARK SMILES IDX 14 1 15 2 7 3 3 4 4 5 76 6 5 7 6 8 2 9 1 10 8 11 9 12 10 13
REMARK SMILES IDX 11 14 12 15 13 16 16 18 17 19 18 20 19 21 20 22 21 23 22 24
REMARK SMILES IDX 23 25 75 26 24 27 74 28 25 29 26 30 27 31 68 32 28 33 73 34
REMARK SMILES IDX 67 35 69 36 29 37 72 38 66 39 65 40 30 42 56 43 39 44 55 45
REMARK SMILES IDX 40 46 43 47 54 48 70 49 41 50 42 51 53 53 71 54 44 55 31 56
REMARK SMILES IDX 32 57 37 58 33 59 34 60 36 61 38 62 35 63 57 64 58 65 63 66
REMARK SMILES IDX 59 67 60 68 62 69 64 70 61 71 45 72 46 73 51 74 47 75 48 76
REMARK SMILES IDX 50 77 52 78 49 79
REMARK H PARENT 13 17 69 41 43 52
REMARK Flexibility Score: inf
ROOT
ATOM      1  C   UNL A   1      32.270  26.108  25.824  1.00  0.00     0.312 C 
ATOM      2  O   UNL A   1      31.741  26.208  26.925  1.00  0.00    -0.252 OA
ENDROOT
BRANCH   1   3
ATOM      3  C   UNL A   1      32.819  24.780  25.260  1.00  0.00     0.068 C 
ATOM      4  C   UNL A   1      35.079  23.699  24.559  1.00  0.00    -0.010 C 
ATOM      5  C   UNL A   1      34.681  23.789  23.082  1.00  0.00     0.003 C 
ATOM      6  C   UNL A   1      34.375  24.808  25.367  1.00  0.00     0.022 C 
ATOM      7  C   UNL A   1      33.170  23.688  22.917  1.00  0.00     0.001 C 
ATOM      8  C   UNL A   1      32.447  24.753  23.743  1.00  0.00     0.019 C 
BRANCH   4   9
ATOM      9  C   UNL A   1      36.611  23.692  24.750  1.00  0.00     0.000 C 
ATOM     10  C   UNL A   1      37.189  22.520  25.529  1.00  0.00     0.004 C 
ENDBRANCH   4   9
BRANCH   3  11
ATOM     11  C   UNL A   1      32.251  23.505  25.976  1.00  0.00     0.019 C 
BRANCH  11  12
ATOM     12  C   UNL A   1      33.072  22.765  27.045  1.00  0.00     0.001 C 
BRANCH  12  13
ATOM     13  C   UNL A   1      33.309  21.269  26.840  1.00  0.00     0.002 C 
BRANCH  13  14
ATOM     14  C   UNL A   1      33.067  20.761  25.419  1.00  0.00     0.028 C 
BRANCH  14  15
ATOM     15  C   UNL A   1      33.216  19.254  25.244  1.00  0.00     0.156 C 
BRANCH  15  16
ATOM     16  O   UNL A   1      32.902  18.563  26.444  1.00  0.00    -0.396 OA
ATOM     17  H   UNL A   1      32.092  18.932  26.827  1.00  0.00     0.210 HD
ENDBRANCH  15  16
ENDBRANCH  14  15
ENDBRANCH  13  14
ENDBRANCH  12  13
ENDBRANCH  11  12
ENDBRANCH   3  11
ENDBRANCH   1   3
BRANCH   1  18
ATOM     18  O   UNL A   1      32.457  27.161  24.981  1.00  0.00    -0.462 OA
BRANCH  18  19
ATOM     19  C   UNL A   1      31.440  28.190  25.038  1.00  0.00     0.274 C 
BRANCH  19  20
ATOM     20  C   UNL A   1      32.069  29.561  25.237  1.00  0.00     0.275 C 
BRANCH  20  21
ATOM     21  O   UNL A   1      32.255  29.764  26.644  1.00  0.00    -0.458 OA
BRANCH  21  22
ATOM     22  C   UNL A   1      32.768  30.960  26.996  1.00  0.00     0.338 C 
ATOM     23  O   UNL A   1      32.188  32.035  27.042  1.00  0.00    -0.246 OA
BRANCH  22  24
ATOM     24  C   UNL A   1      34.173  30.787  27.402  1.00  0.00     0.060 A 
ATOM     25  C   UNL A   1      34.729  29.510  27.463  1.00  0.00     0.016 A 
ATOM     26  C   UNL A   1      34.890  31.885  27.873  1.00  0.00     0.016 A 
ATOM     27  C   UNL A   1      35.942  29.310  28.116  1.00  0.00     0.010 A 
ATOM     28  C   UNL A   1      36.155  31.692  28.435  1.00  0.00     0.010 A 
ATOM     29  C   UNL A   1      36.667  30.395  28.624  1.00  0.00    -0.014 A 
BRANCH  29  30
ATOM     30  C   UNL A   1      37.892  30.183  29.448  1.00  0.00     0.031 A 
ATOM     31  C   UNL A   1      39.045  29.393  28.878  1.00  0.00     0.074 A 
ATOM     32  C   UNL A   1      38.012  30.704  30.685  1.00  0.00     0.049 A 
ATOM     33  N   UNL A   1      40.069  28.857  29.492  1.00  0.00    -0.248 NA
ATOM     34  C   UNL A   1      39.027  29.151  27.425  1.00  0.00     0.031 C 
ATOM     35  C   UNL A   1      37.022  31.546  31.357  1.00  0.00     0.029 A 
ATOM     36  N   UNL A   1      39.036  30.607  31.595  1.00  0.00    -0.354 N 
ATOM     37  C   UNL A   1      40.753  28.132  28.525  1.00  0.00     0.074 A 
ATOM     38  C   UNL A   1      40.050  28.322  27.275  1.00  0.00     0.031 C 
ATOM     39  C   UNL A   1      37.512  31.938  32.544  1.00  0.00     0.029 A 
ATOM     40  C   UNL A   1      38.803  31.295  32.760  1.00  0.00     0.049 A 
ATOM     41  H   UNL A   1      39.859  30.094  31.426  1.00  0.00     0.167 HD
ATOM     42  C   UNL A   1      41.859  27.364  28.673  1.00  0.00     0.037 A 
ATOM     43  C   UNL A   1      39.524  31.365  33.895  1.00  0.00     0.037 A 
ATOM     44  C   UNL A   1      42.618  27.263  29.892  1.00  0.00     0.049 A 
ATOM     45  C   UNL A   1      40.781  30.555  34.022  1.00  0.00     0.074 A 
ATOM     46  C   UNL A   1      43.748  26.507  30.150  1.00  0.00     0.029 A 
ATOM     47  N   UNL A   1      42.345  27.983  31.045  1.00  0.00    -0.354 N 
ATOM     48  N   UNL A   1      41.338  29.755  33.148  1.00  0.00    -0.248 NA
ATOM     49  C   UNL A   1      41.490  30.634  35.307  1.00  0.00     0.031 C 
ATOM     50  C   UNL A   1      44.158  26.767  31.463  1.00  0.00     0.029 A 
ATOM     51  C   UNL A   1      43.296  27.702  32.012  1.00  0.00     0.049 A 
ATOM     52  H   UNL A   1      41.589  28.601  31.160  1.00  0.00     0.167 HD
ATOM     53  C   UNL A   1      42.453  29.221  33.779  1.00  0.00     0.074 A 
ATOM     54  C   UNL A   1      42.514  29.819  35.098  1.00  0.00     0.031 C 
ATOM     55  C   UNL A   1      43.336  28.304  33.317  1.00  0.00     0.037 A 
BRANCH  42  56
ATOM     56  C   UNL A   1      42.290  26.536  27.499  1.00  0.00     0.057 A 
ATOM     57  C   UNL A   1      41.830  25.232  27.291  1.00  0.00     0.134 A 
ATOM     58  C   UNL A   1      43.166  27.075  26.547  1.00  0.00     0.134 A 
ATOM     59  F   UNL A   1      41.005  24.653  28.176  1.00  0.00    -0.206 F 
ATOM     60  C   UNL A   1      42.237  24.485  26.182  1.00  0.00     0.040 A 
ATOM     61  C   UNL A   1      43.564  26.347  25.425  1.00  0.00     0.040 A 
ATOM     62  F   UNL A   1      43.643  28.321  26.687  1.00  0.00    -0.206 F 
ATOM     63  C   UNL A   1      43.101  25.045  25.243  1.00  0.00     0.006 A 
ENDBRANCH  42  56
BRANCH  43  64
ATOM     64  C   UNL A   1      39.044  32.204  35.019  1.00  0.00     0.057 A 
ATOM     65  C   UNL A   1      39.350  33.567  35.080  1.00  0.00     0.134 A 
ATOM     66  C   UNL A   1      38.256  31.670  36.046  1.00  0.00     0.134 A 
ATOM     67  F   UNL A   1      40.122  34.128  34.138  1.00  0.00    -0.206 F 
ATOM     68  C   UNL A   1      38.890  34.373  36.123  1.00  0.00     0.040 A 
ATOM     69  C   UNL A   1      37.769  32.468  37.082  1.00  0.00     0.040 A 
ATOM     70  F   UNL A   1      37.928  30.370  36.041  1.00  0.00    -0.206 F 
ATOM     71  C   UNL A   1      38.089  33.824  37.123  1.00  0.00     0.006 A 
ENDBRANCH  43  64
BRANCH  55  72
ATOM     72  C   UNL A   1      44.440  27.903  34.245  1.00  0.00     0.057 A 
ATOM     73  C   UNL A   1      44.313  26.795  35.092  1.00  0.00     0.134 A 
ATOM     74  C   UNL A   1      45.642  28.618  34.282  1.00  0.00     0.134 A 
ATOM     75  F   UNL A   1      43.179  26.079  35.110  1.00  0.00    -0.206 F 
ATOM     76  C   UNL A   1      45.339  26.424  35.961  1.00  0.00     0.040 A 
ATOM     77  C   UNL A   1      46.681  28.247  35.134  1.00  0.00     0.040 A 
ATOM     78  F   UNL A   1      45.823  29.686  33.490  1.00  0.00    -0.206 F 
ATOM     79  C   UNL A   1      46.530  27.150  35.982  1.00  0.00     0.006 A 
ENDBRANCH  55  72
ENDBRANCH  29  30
ENDBRANCH  22  24
ENDBRANCH  21  22
ENDBRANCH  20  21
ENDBRANCH  19  20
ENDBRANCH  18  19
ENDBRANCH   1  18
TORSDOF 18
ENDMDL
