MODEL 1
REMARK VINA RESULT:     -13.0      0.000      0.000
REMARK SMILES COc1cccc(C(=O)Nc2ccc(NC(=O)[C@@H]3[C@@H](C(=O)OCCOC(=O)c4ccc(-c5c6nc(c(-c7c(F)cccc7F)c7ccc([nH]7)c(-c7c(F)cccc7F)c7nc(c(-c8c(F)cccc8F)c8ccc5[nH]8)C=C7)C=C6)cc4)[C@@H]4C=C[C@H]3C4)cc2)c1
REMARK SMILES IDX 22 1 20 2 21 3 19 4 18 5 85 6 82 7 84 8 86 9 83 10 16 11
REMARK SMILES IDX 15 12 17 14 14 15 11 16 12 17 88 18 13 19 87 20 10 21 8 22
REMARK SMILES IDX 9 23 7 25 3 26 4 27 89 28 5 29 6 30 2 31 1 32 23 33 24 34
REMARK SMILES IDX 25 35 26 36 27 37 28 38 29 39 81 40 30 41 80 42 31 43 32 44
REMARK SMILES IDX 33 45 74 46 34 47 79 48 73 49 75 50 35 51 78 52 72 53 71 54
REMARK SMILES IDX 36 56 62 57 45 58 61 59 46 60 49 61 60 62 76 63 47 64 48 65
REMARK SMILES IDX 59 67 77 68 50 69 37 70 38 71 43 72 39 73 40 74 42 75 44 76
REMARK SMILES IDX 41 77 63 78 64 79 69 80 65 81 66 82 68 83 70 84 67 85 51 86
REMARK SMILES IDX 52 87 57 88 53 89 54 90 56 91 58 92 55 93
REMARK H PARENT 15 13 10 24 75 55 49 66
REMARK Flexibility Score: inf
ROOT
ATOM      1  O   UNL A   1      33.104  29.980  25.881  1.00  0.00    -0.462 OA
ENDROOT
BRANCH   1   2
ATOM      2  C   UNL A   1      32.727  28.683  26.051  1.00  0.00     0.310 C 
ATOM      3  O   UNL A   1      33.282  27.906  26.820  1.00  0.00    -0.252 OA
BRANCH   2   4
ATOM      4  C   UNL A   1      31.555  28.288  25.155  1.00  0.00     0.119 C 
ATOM      5  C   UNL A   1      31.525  26.769  24.828  1.00  0.00     0.100 C 
ATOM      6  C   UNL A   1      31.699  26.715  23.279  1.00  0.00     0.025 C 
ATOM      7  C   UNL A   1      31.831  28.910  23.743  1.00  0.00     0.027 C 
ATOM      8  C   UNL A   1      30.604  27.415  22.522  1.00  0.00    -0.027 C 
ATOM      9  C   UNL A   1      32.728  27.842  23.086  1.00  0.00     0.017 C 
ATOM     10  C   UNL A   1      30.650  28.719  22.836  1.00  0.00    -0.027 C 
BRANCH   5  11
ATOM     11  C   UNL A   1      30.561  25.834  25.581  1.00  0.00     0.228 C 
ATOM     12  N   UNL A   1      30.943  24.951  26.544  1.00  0.00    -0.326 N 
ATOM     13  H   UNL A   1      30.328  24.871  27.309  1.00  0.00     0.169 HD
ATOM     14  O   UNL A   1      29.344  25.981  25.406  1.00  0.00    -0.274 OA
BRANCH  12  15
ATOM     15  C   UNL A   1      32.076  24.144  26.606  1.00  0.00     0.041 A 
ATOM     16  C   UNL A   1      34.274  22.428  26.515  1.00  0.00     0.041 A 
ATOM     17  C   UNL A   1      33.131  22.077  27.228  1.00  0.00     0.028 A 
ATOM     18  C   UNL A   1      34.327  23.657  25.859  1.00  0.00     0.028 A 
ATOM     19  C   UNL A   1      32.059  22.956  27.325  1.00  0.00     0.028 A 
ATOM     20  C   UNL A   1      33.239  24.537  25.939  1.00  0.00     0.028 A 
BRANCH  16  21
ATOM     21  N   UNL A   1      35.312  21.505  26.370  1.00  0.00    -0.322 N 
ATOM     22  C   UNL A   1      35.561  20.667  25.299  1.00  0.00     0.255 C 
ATOM     23  O   UNL A   1      36.710  20.341  25.011  1.00  0.00    -0.269 OA
ATOM     24  H   UNL A   1      35.944  21.444  27.123  1.00  0.00     0.170 HD
BRANCH  22  25
ATOM     25  C   UNL A   1      34.414  19.879  24.755  1.00  0.00     0.043 A 
ATOM     26  C   UNL A   1      33.391  17.820  23.975  1.00  0.00     0.119 A 
ATOM     27  C   UNL A   1      32.422  18.563  23.306  1.00  0.00     0.046 A 
ATOM     28  C   UNL A   1      34.337  18.483  24.753  1.00  0.00     0.060 A 
ATOM     29  C   UNL A   1      32.420  19.957  23.387  1.00  0.00     0.005 A 
ATOM     30  C   UNL A   1      33.422  20.614  24.097  1.00  0.00     0.014 A 
BRANCH  26  31
ATOM     31  O   UNL A   1      33.334  16.463  23.808  1.00  0.00    -0.497 OA
ATOM     32  C   UNL A   1      33.117  15.696  24.993  1.00  0.00     0.278 C 
ENDBRANCH  26  31
ENDBRANCH  22  25
ENDBRANCH  16  21
ENDBRANCH  12  15
ENDBRANCH   5  11
ENDBRANCH   2   4
ENDBRANCH   1   2
BRANCH   1  33
ATOM     33  C   UNL A   1      32.569  30.899  26.865  1.00  0.00     0.274 C 
BRANCH  33  34
ATOM     34  C   UNL A   1      33.672  31.583  27.678  1.00  0.00     0.275 C 
BRANCH  34  35
ATOM     35  O   UNL A   1      34.543  30.593  28.241  1.00  0.00    -0.458 OA
BRANCH  35  36
ATOM     36  C   UNL A   1      35.476  31.043  29.115  1.00  0.00     0.338 C 
ATOM     37  O   UNL A   1      35.317  31.914  29.961  1.00  0.00    -0.246 OA
BRANCH  36  38
ATOM     38  C   UNL A   1      36.733  30.266  28.952  1.00  0.00     0.060 A 
ATOM     39  C   UNL A   1      37.334  29.674  30.060  1.00  0.00     0.016 A 
ATOM     40  C   UNL A   1      37.388  30.199  27.724  1.00  0.00     0.016 A 
ATOM     41  C   UNL A   1      38.621  29.144  29.989  1.00  0.00     0.010 A 
ATOM     42  C   UNL A   1      38.633  29.555  27.626  1.00  0.00     0.010 A 
ATOM     43  C   UNL A   1      39.291  29.059  28.769  1.00  0.00    -0.014 A 
BRANCH  43  44
ATOM     44  C   UNL A   1      40.693  28.544  28.702  1.00  0.00     0.031 A 
ATOM     45  C   UNL A   1      41.836  29.473  29.024  1.00  0.00     0.074 A 
ATOM     46  C   UNL A   1      40.981  27.258  28.410  1.00  0.00     0.049 A 
ATOM     47  N   UNL A   1      43.112  29.346  28.761  1.00  0.00    -0.248 NA
ATOM     48  C   UNL A   1      41.489  30.717  29.729  1.00  0.00     0.031 C 
ATOM     49  C   UNL A   1      40.008  26.186  28.193  1.00  0.00     0.029 A 
ATOM     50  N   UNL A   1      42.196  26.630  28.255  1.00  0.00    -0.354 N 
ATOM     51  C   UNL A   1      43.703  30.530  29.183  1.00  0.00     0.074 A 
ATOM     52  C   UNL A   1      42.651  31.353  29.741  1.00  0.00     0.031 C 
ATOM     53  C   UNL A   1      40.660  25.033  27.979  1.00  0.00     0.029 A 
ATOM     54  C   UNL A   1      42.092  25.300  27.923  1.00  0.00     0.049 A 
ATOM     55  H   UNL A   1      43.058  27.090  28.371  1.00  0.00     0.167 HD
ATOM     56  C   UNL A   1      45.002  30.905  29.099  1.00  0.00     0.037 A 
ATOM     57  C   UNL A   1      43.031  24.408  27.551  1.00  0.00     0.037 A 
ATOM     58  C   UNL A   1      46.062  30.058  28.618  1.00  0.00     0.049 A 
ATOM     59  C   UNL A   1      44.459  24.854  27.401  1.00  0.00     0.074 A 
ATOM     60  C   UNL A   1      47.406  30.351  28.475  1.00  0.00     0.029 A 
ATOM     61  N   UNL A   1      45.898  28.738  28.227  1.00  0.00    -0.354 N 
ATOM     62  N   UNL A   1      44.992  26.022  27.662  1.00  0.00    -0.248 NA
ATOM     63  C   UNL A   1      45.408  23.867  26.863  1.00  0.00     0.031 C 
ATOM     64  C   UNL A   1      48.053  29.214  27.976  1.00  0.00     0.029 A 
ATOM     65  C   UNL A   1      47.115  28.204  27.842  1.00  0.00     0.049 A 
ATOM     66  H   UNL A   1      45.042  28.252  28.226  1.00  0.00     0.167 HD
ATOM     67  C   UNL A   1      46.335  25.910  27.327  1.00  0.00     0.074 A 
ATOM     68  C   UNL A   1      46.541  24.554  26.863  1.00  0.00     0.031 C 
ATOM     69  C   UNL A   1      47.308  26.851  27.388  1.00  0.00     0.037 A 
BRANCH  56  70
ATOM     70  C   UNL A   1      45.334  32.316  29.479  1.00  0.00     0.057 A 
ATOM     71  C   UNL A   1      45.744  32.671  30.769  1.00  0.00     0.134 A 
ATOM     72  C   UNL A   1      45.238  33.339  28.525  1.00  0.00     0.134 A 
ATOM     73  F   UNL A   1      45.835  31.742  31.733  1.00  0.00    -0.206 F 
ATOM     74  C   UNL A   1      46.022  33.998  31.104  1.00  0.00     0.040 A 
ATOM     75  C   UNL A   1      45.536  34.664  28.841  1.00  0.00     0.040 A 
ATOM     76  F   UNL A   1      44.853  33.064  27.269  1.00  0.00    -0.206 F 
ATOM     77  C   UNL A   1      45.922  34.997  30.138  1.00  0.00     0.006 A 
ENDBRANCH  56  70
BRANCH  57  78
ATOM     78  C   UNL A   1      42.643  23.013  27.215  1.00  0.00     0.057 A 
ATOM     79  C   UNL A   1      42.413  22.066  28.219  1.00  0.00     0.134 A 
ATOM     80  C   UNL A   1      42.505  22.591  25.887  1.00  0.00     0.134 A 
ATOM     81  F   UNL A   1      42.562  22.401  29.510  1.00  0.00    -0.206 F 
ATOM     82  C   UNL A   1      42.062  20.749  27.915  1.00  0.00     0.040 A 
ATOM     83  C   UNL A   1      42.128  21.285  25.569  1.00  0.00     0.040 A 
ATOM     84  F   UNL A   1      42.719  23.448  24.878  1.00  0.00    -0.206 F 
ATOM     85  C   UNL A   1      41.909  20.359  26.586  1.00  0.00     0.006 A 
ENDBRANCH  57  78
BRANCH  69  86
ATOM     86  C   UNL A   1      48.688  26.439  26.973  1.00  0.00     0.057 A 
ATOM     87  C   UNL A   1      49.537  25.736  27.836  1.00  0.00     0.134 A 
ATOM     88  C   UNL A   1      49.158  26.717  25.683  1.00  0.00     0.134 A 
ATOM     89  F   UNL A   1      49.150  25.453  29.090  1.00  0.00    -0.206 F 
ATOM     90  C   UNL A   1      50.813  25.338  27.437  1.00  0.00     0.040 A 
ATOM     91  C   UNL A   1      50.424  26.306  25.266  1.00  0.00     0.040 A 
ATOM     92  F   UNL A   1      48.390  27.382  24.807  1.00  0.00    -0.206 F 
ATOM     93  C   UNL A   1      51.258  25.617  26.145  1.00  0.00     0.006 A 
ENDBRANCH  69  86
ENDBRANCH  43  44
ENDBRANCH  36  38
ENDBRANCH  35  36
ENDBRANCH  34  35
ENDBRANCH  33  34
ENDBRANCH   1  33
TORSDOF 16
ENDMDL
MODEL 2
REMARK VINA RESULT:     -12.8      1.381      2.351
REMARK SMILES COc1cccc(C(=O)Nc2ccc(NC(=O)[C@@H]3[C@@H](C(=O)OCCOC(=O)c4ccc(-c5c6nc(c(-c7c(F)cccc7F)c7ccc([nH]7)c(-c7c(F)cccc7F)c7nc(c(-c8c(F)cccc8F)c8ccc5[nH]8)C=C7)C=C6)cc4)[C@@H]4C=C[C@H]3C4)cc2)c1
REMARK SMILES IDX 22 1 20 2 21 3 19 4 18 5 85 6 82 7 84 8 86 9 83 10 16 11
REMARK SMILES IDX 15 12 17 14 14 15 11 16 12 17 88 18 13 19 87 20 10 21 8 22
REMARK SMILES IDX 9 23 7 25 3 26 4 27 89 28 5 29 6 30 2 31 1 32 23 33 24 34
REMARK SMILES IDX 25 35 26 36 27 37 28 38 29 39 81 40 30 41 80 42 31 43 32 44
REMARK SMILES IDX 33 45 74 46 34 47 79 48 73 49 75 50 35 51 78 52 72 53 71 54
REMARK SMILES IDX 36 56 62 57 45 58 61 59 46 60 49 61 60 62 76 63 47 64 48 65
REMARK SMILES IDX 59 67 77 68 50 69 37 70 38 71 43 72 39 73 40 74 42 75 44 76
REMARK SMILES IDX 41 77 63 78 64 79 69 80 65 81 66 82 68 83 70 84 67 85 51 86
REMARK SMILES IDX 52 87 57 88 53 89 54 90 56 91 58 92 55 93
REMARK H PARENT 15 13 10 24 75 55 49 66
REMARK Flexibility Score: inf
ROOT
ATOM      1  O   UNL A   1      31.963  30.190  25.113  1.00  0.00    -0.462 OA
ENDROOT
BRANCH   1   2
ATOM      2  C   UNL A   1      31.375  29.317  24.250  1.00  0.00     0.310 C 
ATOM      3  O   UNL A   1      31.995  28.512  23.563  1.00  0.00    -0.252 OA
BRANCH   2   4
ATOM      4  C   UNL A   1      29.856  29.470  24.202  1.00  0.00     0.119 C 
ATOM      5  C   UNL A   1      29.170  28.430  23.274  1.00  0.00     0.100 C 
ATOM      6  C   UNL A   1      28.498  29.301  22.167  1.00  0.00     0.025 C 
ATOM      7  C   UNL A   1      29.556  30.812  23.450  1.00  0.00     0.027 C 
ATOM      8  C   UNL A   1      27.469  30.262  22.695  1.00  0.00    -0.027 C 
ATOM      9  C   UNL A   1      29.585  30.372  21.973  1.00  0.00     0.017 C 
ATOM     10  C   UNL A   1      28.091  31.136  23.502  1.00  0.00    -0.027 C 
BRANCH   5  11
ATOM     11  C   UNL A   1      28.483  27.190  23.875  1.00  0.00     0.228 C 
ATOM     12  N   UNL A   1      29.124  26.235  24.604  1.00  0.00    -0.326 N 
ATOM     13  H   UNL A   1      28.619  25.886  25.374  1.00  0.00     0.169 HD
ATOM     14  O   UNL A   1      27.249  27.113  23.813  1.00  0.00    -0.274 OA
BRANCH  12  15
ATOM     15  C   UNL A   1      30.389  25.683  24.423  1.00  0.00     0.041 A 
ATOM     16  C   UNL A   1      33.000  24.802  23.989  1.00  0.00     0.041 A 
ATOM     17  C   UNL A   1      32.033  24.665  22.997  1.00  0.00     0.028 A 
ATOM     18  C   UNL A   1      32.655  25.366  25.216  1.00  0.00     0.028 A 
ATOM     19  C   UNL A   1      30.718  25.047  23.234  1.00  0.00     0.028 A 
ATOM     20  C   UNL A   1      31.334  25.770  25.450  1.00  0.00     0.028 A 
BRANCH  16  21
ATOM     21  N   UNL A   1      34.330  24.477  23.711  1.00  0.00    -0.322 N 
ATOM     22  C   UNL A   1      34.873  23.223  23.503  1.00  0.00     0.255 C 
ATOM     23  O   UNL A   1      35.833  23.070  22.753  1.00  0.00    -0.269 OA
ATOM     24  H   UNL A   1      34.957  25.234  23.657  1.00  0.00     0.170 HD
BRANCH  22  25
ATOM     25  C   UNL A   1      34.524  22.146  24.480  1.00  0.00     0.043 A 
ATOM     26  C   UNL A   1      33.136  20.318  25.266  1.00  0.00     0.119 A 
ATOM     27  C   UNL A   1      33.652  20.487  26.549  1.00  0.00     0.046 A 
ATOM     28  C   UNL A   1      33.630  21.102  24.228  1.00  0.00     0.060 A 
ATOM     29  C   UNL A   1      34.628  21.454  26.796  1.00  0.00     0.005 A 
ATOM     30  C   UNL A   1      35.053  22.292  25.766  1.00  0.00     0.014 A 
BRANCH  26  31
ATOM     31  O   UNL A   1      32.158  19.370  25.129  1.00  0.00    -0.497 OA
ATOM     32  C   UNL A   1      32.610  18.028  24.945  1.00  0.00     0.278 C 
ENDBRANCH  26  31
ENDBRANCH  22  25
ENDBRANCH  16  21
ENDBRANCH  12  15
ENDBRANCH   5  11
ENDBRANCH   2   4
ENDBRANCH   1   2
BRANCH   1  33
ATOM     33  C   UNL A   1      32.884  29.583  26.052  1.00  0.00     0.274 C 
BRANCH  33  34
ATOM     34  C   UNL A   1      33.416  30.591  27.075  1.00  0.00     0.275 C 
BRANCH  34  35
ATOM     35  O   UNL A   1      34.264  29.922  28.018  1.00  0.00    -0.458 OA
BRANCH  35  36
ATOM     36  C   UNL A   1      35.275  30.656  28.542  1.00  0.00     0.338 C 
ATOM     37  O   UNL A   1      35.172  31.745  29.092  1.00  0.00    -0.246 OA
BRANCH  36  38
ATOM     38  C   UNL A   1      36.555  29.909  28.418  1.00  0.00     0.060 A 
ATOM     39  C   UNL A   1      37.075  29.233  29.518  1.00  0.00     0.016 A 
ATOM     40  C   UNL A   1      37.307  29.953  27.245  1.00  0.00     0.016 A 
ATOM     41  C   UNL A   1      38.372  28.724  29.508  1.00  0.00     0.010 A 
ATOM     42  C   UNL A   1      38.567  29.334  27.197  1.00  0.00     0.010 A 
ATOM     43  C   UNL A   1      39.140  28.749  28.344  1.00  0.00    -0.014 A 
BRANCH  43  44
ATOM     44  C   UNL A   1      40.552  28.257  28.348  1.00  0.00     0.031 A 
ATOM     45  C   UNL A   1      41.663  29.209  28.711  1.00  0.00     0.074 A 
ATOM     46  C   UNL A   1      40.873  26.972  28.087  1.00  0.00     0.049 A 
ATOM     47  N   UNL A   1      42.952  29.099  28.509  1.00  0.00    -0.248 NA
ATOM     48  C   UNL A   1      41.264  30.456  29.382  1.00  0.00     0.031 C 
ATOM     49  C   UNL A   1      39.929  25.882  27.840  1.00  0.00     0.029 A 
ATOM     50  N   UNL A   1      42.104  26.363  27.997  1.00  0.00    -0.354 N 
ATOM     51  C   UNL A   1      43.504  30.298  28.943  1.00  0.00     0.074 A 
ATOM     52  C   UNL A   1      42.415  31.110  29.440  1.00  0.00     0.031 C 
ATOM     53  C   UNL A   1      40.608  24.737  27.671  1.00  0.00     0.029 A 
ATOM     54  C   UNL A   1      42.037  25.027  27.678  1.00  0.00     0.049 A 
ATOM     55  H   UNL A   1      42.952  26.838  28.147  1.00  0.00     0.167 HD
ATOM     56  C   UNL A   1      44.799  30.693  28.913  1.00  0.00     0.037 A 
ATOM     57  C   UNL A   1      43.007  24.145  27.362  1.00  0.00     0.037 A 
ATOM     58  C   UNL A   1      45.894  29.858  28.493  1.00  0.00     0.049 A 
ATOM     59  C   UNL A   1      44.432  24.613  27.272  1.00  0.00     0.074 A 
ATOM     60  C   UNL A   1      47.239  30.172  28.409  1.00  0.00     0.029 A 
ATOM     61  N   UNL A   1      45.769  28.531  28.113  1.00  0.00    -0.354 N 
ATOM     62  N   UNL A   1      44.934  25.794  27.543  1.00  0.00    -0.248 NA
ATOM     63  C   UNL A   1      45.421  23.636  26.792  1.00  0.00     0.031 C 
ATOM     64  C   UNL A   1      47.926  29.039  27.956  1.00  0.00     0.029 A 
ATOM     65  C   UNL A   1      47.011  28.012  27.791  1.00  0.00     0.049 A 
ATOM     66  H   UNL A   1      44.922  28.031  28.079  1.00  0.00     0.167 HD
ATOM     67  C   UNL A   1      46.293  25.700  27.271  1.00  0.00     0.074 A 
ATOM     68  C   UNL A   1      46.542  24.341  26.835  1.00  0.00     0.031 C 
ATOM     69  C   UNL A   1      47.247  26.657  27.365  1.00  0.00     0.037 A 
BRANCH  56  70
ATOM     70  C   UNL A   1      45.090  32.114  29.290  1.00  0.00     0.057 A 
ATOM     71  C   UNL A   1      45.521  32.480  30.570  1.00  0.00     0.134 A 
ATOM     72  C   UNL A   1      44.935  33.135  28.342  1.00  0.00     0.134 A 
ATOM     73  F   UNL A   1      45.670  31.553  31.528  1.00  0.00    -0.206 F 
ATOM     74  C   UNL A   1      45.760  33.816  30.903  1.00  0.00     0.040 A 
ATOM     75  C   UNL A   1      45.193  34.470  28.655  1.00  0.00     0.040 A 
ATOM     76  F   UNL A   1      44.528  32.850  27.095  1.00  0.00    -0.206 F 
ATOM     77  C   UNL A   1      45.600  34.813  29.943  1.00  0.00     0.006 A 
ENDBRANCH  56  70
BRANCH  57  78
ATOM     78  C   UNL A   1      42.657  22.741  27.027  1.00  0.00     0.057 A 
ATOM     79  C   UNL A   1      42.682  22.285  25.704  1.00  0.00     0.134 A 
ATOM     80  C   UNL A   1      42.278  21.825  28.016  1.00  0.00     0.134 A 
ATOM     81  F   UNL A   1      43.003  23.124  24.708  1.00  0.00    -0.206 F 
ATOM     82  C   UNL A   1      42.341  20.972  25.377  1.00  0.00     0.040 A 
ATOM     83  C   UNL A   1      41.962  20.501  27.707  1.00  0.00     0.040 A 
ATOM     84  F   UNL A   1      42.227  22.200  29.303  1.00  0.00    -0.206 F 
ATOM     85  C   UNL A   1      41.988  20.073  26.382  1.00  0.00     0.006 A 
ENDBRANCH  57  78
BRANCH  69  86
ATOM     86  C   UNL A   1      48.651  26.263  27.020  1.00  0.00     0.057 A 
ATOM     87  C   UNL A   1      49.155  26.397  25.720  1.00  0.00     0.134 A 
ATOM     88  C   UNL A   1      49.518  25.776  28.006  1.00  0.00     0.134 A 
ATOM     89  F   UNL A   1      48.369  26.844  24.729  1.00  0.00    -0.206 F 
ATOM     90  C   UNL A   1      50.469  26.046  25.410  1.00  0.00     0.040 A 
ATOM     91  C   UNL A   1      50.840  25.440  27.711  1.00  0.00     0.040 A 
ATOM     92  F   UNL A   1      49.097  25.629  29.271  1.00  0.00    -0.206 F 
ATOM     93  C   UNL A   1      51.318  25.572  26.409  1.00  0.00     0.006 A 
ENDBRANCH  69  86
ENDBRANCH  43  44
ENDBRANCH  36  38
ENDBRANCH  35  36
ENDBRANCH  34  35
ENDBRANCH  33  34
ENDBRANCH   1  33
TORSDOF 16
ENDMDL
MODEL 3
REMARK VINA RESULT:     -12.8      1.532      2.871
REMARK SMILES COc1cccc(C(=O)Nc2ccc(NC(=O)[C@@H]3[C@@H](C(=O)OCCOC(=O)c4ccc(-c5c6nc(c(-c7c(F)cccc7F)c7ccc([nH]7)c(-c7c(F)cccc7F)c7nc(c(-c8c(F)cccc8F)c8ccc5[nH]8)C=C7)C=C6)cc4)[C@@H]4C=C[C@H]3C4)cc2)c1
REMARK SMILES IDX 22 1 20 2 21 3 19 4 18 5 85 6 82 7 84 8 86 9 83 10 16 11
REMARK SMILES IDX 15 12 17 14 14 15 11 16 12 17 88 18 13 19 87 20 10 21 8 22
REMARK SMILES IDX 9 23 7 25 3 26 4 27 89 28 5 29 6 30 2 31 1 32 23 33 24 34
REMARK SMILES IDX 25 35 26 36 27 37 28 38 29 39 81 40 30 41 80 42 31 43 32 44
REMARK SMILES IDX 33 45 74 46 34 47 79 48 73 49 75 50 35 51 78 52 72 53 71 54
REMARK SMILES IDX 36 56 62 57 45 58 61 59 46 60 49 61 60 62 76 63 47 64 48 65
REMARK SMILES IDX 59 67 77 68 50 69 37 70 38 71 43 72 39 73 40 74 42 75 44 76
REMARK SMILES IDX 41 77 63 78 64 79 69 80 65 81 66 82 68 83 70 84 67 85 51 86
REMARK SMILES IDX 52 87 57 88 53 89 54 90 56 91 58 92 55 93
REMARK H PARENT 15 13 10 24 75 55 49 66
REMARK Flexibility Score: inf
ROOT
ATOM      1  O   UNL A   1      32.534  30.662  27.163  1.00  0.00    -0.462 OA
ENDROOT
BRANCH   1   2
ATOM      2  C   UNL A   1      32.014  30.274  25.966  1.00  0.00     0.310 C 
ATOM      3  O   UNL A   1      31.057  30.820  25.427  1.00  0.00    -0.252 OA
BRANCH   2   4
ATOM      4  C   UNL A   1      32.731  29.060  25.378  1.00  0.00     0.119 C 
ATOM      5  C   UNL A   1      31.784  28.123  24.578  1.00  0.00     0.100 C 
ATOM      6  C   UNL A   1      31.834  26.777  25.367  1.00  0.00     0.025 C 
ATOM      7  C   UNL A   1      33.139  28.144  26.583  1.00  0.00     0.027 C 
ATOM      8  C   UNL A   1      33.207  26.167  25.436  1.00  0.00    -0.027 C 
ATOM      9  C   UNL A   1      31.861  27.313  26.808  1.00  0.00     0.017 C 
ATOM     10  C   UNL A   1      34.001  27.006  26.120  1.00  0.00    -0.027 C 
BRANCH   5  11
ATOM     11  C   UNL A   1      31.762  28.175  23.040  1.00  0.00     0.228 C 
ATOM     12  N   UNL A   1      31.299  27.173  22.244  1.00  0.00    -0.326 N 
ATOM     13  H   UNL A   1      30.790  27.466  21.453  1.00  0.00     0.169 HD
ATOM     14  O   UNL A   1      32.056  29.242  22.484  1.00  0.00    -0.274 OA
BRANCH  12  15
ATOM     15  C   UNL A   1      31.437  25.794  22.385  1.00  0.00     0.041 A 
ATOM     16  C   UNL A   1      31.813  23.077  22.890  1.00  0.00     0.041 A 
ATOM     17  C   UNL A   1      32.755  23.799  22.161  1.00  0.00     0.028 A 
ATOM     18  C   UNL A   1      30.663  23.714  23.353  1.00  0.00     0.028 A 
ATOM     19  C   UNL A   1      32.539  25.137  21.857  1.00  0.00     0.028 A 
ATOM     20  C   UNL A   1      30.453  25.069  23.064  1.00  0.00     0.028 A 
BRANCH  16  21
ATOM     21  N   UNL A   1      32.078  21.753  23.247  1.00  0.00    -0.322 N 
ATOM     22  C   UNL A   1      32.560  21.277  24.452  1.00  0.00     0.255 C 
ATOM     23  O   UNL A   1      32.240  20.163  24.860  1.00  0.00    -0.269 OA
ATOM     24  H   UNL A   1      31.901  21.076  22.554  1.00  0.00     0.170 HD
BRANCH  22  25
ATOM     25  C   UNL A   1      33.748  21.964  25.044  1.00  0.00     0.043 A 
ATOM     26  C   UNL A   1      36.132  22.380  25.217  1.00  0.00     0.119 A 
ATOM     27  C   UNL A   1      35.942  22.906  26.492  1.00  0.00     0.046 A 
ATOM     28  C   UNL A   1      35.024  21.979  24.475  1.00  0.00     0.060 A 
ATOM     29  C   UNL A   1      34.658  23.000  27.032  1.00  0.00     0.005 A 
ATOM     30  C   UNL A   1      33.564  22.516  26.316  1.00  0.00     0.014 A 
BRANCH  26  31
ATOM     31  O   UNL A   1      37.429  22.295  24.786  1.00  0.00    -0.497 OA
ATOM     32  C   UNL A   1      38.351  21.691  25.694  1.00  0.00     0.278 C 
ENDBRANCH  26  31
ENDBRANCH  22  25
ENDBRANCH  16  21
ENDBRANCH  12  15
ENDBRANCH   5  11
ENDBRANCH   2   4
ENDBRANCH   1   2
BRANCH   1  33
ATOM     33  C   UNL A   1      32.804  32.081  27.272  1.00  0.00     0.274 C 
BRANCH  33  34
ATOM     34  C   UNL A   1      34.113  32.365  28.015  1.00  0.00     0.275 C 
BRANCH  34  35
ATOM     35  O   UNL A   1      34.753  31.128  28.358  1.00  0.00    -0.458 OA
BRANCH  35  36
ATOM     36  C   UNL A   1      35.500  31.133  29.489  1.00  0.00     0.338 C 
ATOM     37  O   UNL A   1      35.189  31.637  30.561  1.00  0.00    -0.246 OA
BRANCH  36  38
ATOM     38  C   UNL A   1      36.751  30.362  29.268  1.00  0.00     0.060 A 
ATOM     39  C   UNL A   1      37.408  29.777  30.347  1.00  0.00     0.016 A 
ATOM     40  C   UNL A   1      37.346  30.295  28.009  1.00  0.00     0.016 A 
ATOM     41  C   UNL A   1      38.693  29.253  30.215  1.00  0.00     0.010 A 
ATOM     42  C   UNL A   1      38.589  29.657  27.854  1.00  0.00     0.010 A 
ATOM     43  C   UNL A   1      39.304  29.167  28.965  1.00  0.00    -0.014 A 
BRANCH  43  44
ATOM     44  C   UNL A   1      40.704  28.660  28.831  1.00  0.00     0.031 A 
ATOM     45  C   UNL A   1      41.856  29.593  29.102  1.00  0.00     0.074 A 
ATOM     46  C   UNL A   1      40.984  27.375  28.524  1.00  0.00     0.049 A 
ATOM     47  N   UNL A   1      43.119  29.473  28.780  1.00  0.00    -0.248 NA
ATOM     48  C   UNL A   1      41.536  30.834  29.825  1.00  0.00     0.031 C 
ATOM     49  C   UNL A   1      40.007  26.299  28.350  1.00  0.00     0.029 A 
ATOM     50  N   UNL A   1      42.193  26.753  28.311  1.00  0.00    -0.354 N 
ATOM     51  C   UNL A   1      43.724  30.658  29.177  1.00  0.00     0.074 A 
ATOM     52  C   UNL A   1      42.695  31.475  29.785  1.00  0.00     0.031 C 
ATOM     53  C   UNL A   1      40.653  25.149  28.103  1.00  0.00     0.029 A 
ATOM     54  C   UNL A   1      42.080  25.423  27.981  1.00  0.00     0.049 A 
ATOM     55  H   UNL A   1      43.058  27.217  28.388  1.00  0.00     0.167 HD
ATOM     56  C   UNL A   1      45.015  31.039  29.032  1.00  0.00     0.037 A 
ATOM     57  C   UNL A   1      43.005  24.536  27.563  1.00  0.00     0.037 A 
ATOM     58  C   UNL A   1      46.056  30.199  28.501  1.00  0.00     0.049 A 
ATOM     59  C   UNL A   1      44.422  24.989  27.348  1.00  0.00     0.074 A 
ATOM     60  C   UNL A   1      47.391  30.498  28.297  1.00  0.00     0.029 A 
ATOM     61  N   UNL A   1      45.880  28.878  28.116  1.00  0.00    -0.354 N 
ATOM     62  N   UNL A   1      44.961  26.160  27.587  1.00  0.00    -0.248 NA
ATOM     63  C   UNL A   1      45.349  24.008  26.765  1.00  0.00     0.031 C 
ATOM     64  C   UNL A   1      48.019  29.365  27.766  1.00  0.00     0.029 A 
ATOM     65  C   UNL A   1      47.080  28.351  27.672  1.00  0.00     0.049 A 
ATOM     66  H   UNL A   1      45.027  28.389  28.153  1.00  0.00     0.167 HD
ATOM     67  C   UNL A   1      46.288  26.054  27.189  1.00  0.00     0.074 A 
ATOM     68  C   UNL A   1      46.478  24.700  26.713  1.00  0.00     0.031 C 
ATOM     69  C   UNL A   1      47.259  27.000  27.207  1.00  0.00     0.037 A 
BRANCH  56  70
ATOM     70  C   UNL A   1      45.358  32.451  29.400  1.00  0.00     0.057 A 
ATOM     71  C   UNL A   1      45.215  33.518  28.506  1.00  0.00     0.134 A 
ATOM     72  C   UNL A   1      45.842  32.742  30.683  1.00  0.00     0.134 A 
ATOM     73  F   UNL A   1      44.777  33.303  27.256  1.00  0.00    -0.206 F 
ATOM     74  C   UNL A   1      45.568  34.820  28.866  1.00  0.00     0.040 A 
ATOM     75  C   UNL A   1      46.174  34.043  31.062  1.00  0.00     0.040 A 
ATOM     76  F   UNL A   1      46.000  31.764  31.589  1.00  0.00    -0.206 F 
ATOM     77  C   UNL A   1      46.044  35.085  30.148  1.00  0.00     0.006 A 
ENDBRANCH  56  70
BRANCH  57  78
ATOM     78  C   UNL A   1      42.608  23.140  27.243  1.00  0.00     0.057 A 
ATOM     79  C   UNL A   1      42.443  22.722  25.918  1.00  0.00     0.134 A 
ATOM     80  C   UNL A   1      42.373  22.196  28.251  1.00  0.00     0.134 A 
ATOM     81  F   UNL A   1      42.620  23.589  24.910  1.00  0.00    -0.206 F 
ATOM     82  C   UNL A   1      42.056  21.417  25.607  1.00  0.00     0.040 A 
ATOM     83  C   UNL A   1      42.013  20.881  27.954  1.00  0.00     0.040 A 
ATOM     84  F   UNL A   1      42.507  22.536  29.541  1.00  0.00    -0.206 F 
ATOM     85  C   UNL A   1      41.849  20.490  26.627  1.00  0.00     0.006 A 
ENDBRANCH  57  78
BRANCH  69  86
ATOM     86  C   UNL A   1      48.619  26.595  26.727  1.00  0.00     0.057 A 
ATOM     87  C   UNL A   1      49.532  25.945  27.567  1.00  0.00     0.134 A 
ATOM     88  C   UNL A   1      49.007  26.826  25.401  1.00  0.00     0.134 A 
ATOM     89  F   UNL A   1      49.225  25.708  28.852  1.00  0.00    -0.206 F 
ATOM     90  C   UNL A   1      50.790  25.552  27.108  1.00  0.00     0.040 A 
ATOM     91  C   UNL A   1      50.254  26.420  24.926  1.00  0.00     0.040 A 
ATOM     92  F   UNL A   1      48.175  27.439  24.546  1.00  0.00    -0.206 F 
ATOM     93  C   UNL A   1      51.151  25.784  25.782  1.00  0.00     0.006 A 
ENDBRANCH  69  86
ENDBRANCH  43  44
ENDBRANCH  36  38
ENDBRANCH  35  36
ENDBRANCH  34  35
ENDBRANCH  33  34
ENDBRANCH   1  33
TORSDOF 16
ENDMDL
