MODEL 1
REMARK VINA RESULT:     -12.3      0.000      0.000
REMARK SMILES Nc1c(C(=O)OCC2c3ccccc3-c3ccccc32)ccc(F)c1C(=O)OCCOC(=O)c1ccc(-c2c3nc(c(-c4c(F)cccc4F)c4ccc([nH]4)c(-c4c(F)cccc4F)c4nc(c(-c5c(F)cccc5F)c5ccc2[nH]5)C=C4)C=C3)cc1
REMARK SMILES IDX 29 1 28 2 26 3 27 4 25 5 2 6 3 7 21 8 23 9 22 10 24 11 1 12
REMARK SMILES IDX 4 15 5 16 6 17 7 18 8 19 9 20 20 21 10 22 14 23 15 24 19 25
REMARK SMILES IDX 11 26 13 27 16 28 18 29 12 30 17 31 30 32 31 33 32 34 33 35
REMARK SMILES IDX 34 36 35 37 87 38 36 39 86 40 37 41 38 42 39 43 80 44 40 45
REMARK SMILES IDX 85 46 79 47 81 48 41 49 84 50 78 51 77 52 42 54 68 55 51 56
REMARK SMILES IDX 67 57 52 58 55 59 66 60 82 61 53 62 54 63 65 65 83 66 56 67
REMARK SMILES IDX 43 68 44 69 49 70 45 71 46 72 48 73 50 74 47 75 69 76 70 77
REMARK SMILES IDX 75 78 71 79 72 80 74 81 76 82 73 83 57 84 58 85 63 86 59 87
REMARK SMILES IDX 60 88 62 89 64 90 61 91
REMARK H PARENT 1 13 1 14 81 53 55 64
REMARK Flexibility Score: inf
ROOT
ATOM      1  C   UNL A   1      34.862  20.444  25.231  1.00  0.00     0.275 C 
ENDROOT
BRANCH   1   2
ATOM      2  O   UNL A   1      33.951  21.557  25.323  1.00  0.00    -0.458 OA
BRANCH   2   3
ATOM      3  C   UNL A   1      33.680  22.049  26.562  1.00  0.00     0.343 C 
ATOM      4  O   UNL A   1      33.938  21.502  27.620  1.00  0.00    -0.246 OA
BRANCH   3   5
ATOM      5  C   UNL A   1      33.099  23.410  26.442  1.00  0.00     0.119 A 
ATOM      6  C   UNL A   1      33.832  24.497  25.916  1.00  0.00     0.064 A 
ATOM      7  C   UNL A   1      33.176  25.750  25.841  1.00  0.00     0.084 A 
ATOM      8  C   UNL A   1      31.878  25.928  26.351  1.00  0.00     0.021 A 
ATOM      9  C   UNL A   1      31.770  23.590  26.850  1.00  0.00     0.139 A 
ATOM     10  C   UNL A   1      31.170  24.843  26.845  1.00  0.00     0.041 A 
ATOM     11  F   UNL A   1      31.019  22.559  27.261  1.00  0.00    -0.206 F 
BRANCH   6  12
ATOM     12  N   UNL A   1      35.103  24.307  25.367  1.00  0.00    -0.397 N 
ATOM     13  H   UNL A   1      35.741  25.057  25.330  1.00  0.00     0.156 HD
ATOM     14  H   UNL A   1      35.362  23.424  25.018  1.00  0.00     0.156 HD
ENDBRANCH   6  12
BRANCH   7  15
ATOM     15  C   UNL A   1      33.762  26.934  25.169  1.00  0.00     0.340 C 
ATOM     16  O   UNL A   1      33.831  28.037  25.685  1.00  0.00    -0.246 OA
BRANCH  15  17
ATOM     17  O   UNL A   1      34.026  26.618  23.874  1.00  0.00    -0.461 OA
BRANCH  17  18
ATOM     18  C   UNL A   1      33.455  27.491  22.893  1.00  0.00     0.246 C 
BRANCH  18  19
ATOM     19  C   UNL A   1      32.398  26.763  22.040  1.00  0.00     0.088 C 
ATOM     20  C   UNL A   1      32.294  25.266  22.317  1.00  0.00    -0.029 A 
ATOM     21  C   UNL A   1      31.018  27.244  22.472  1.00  0.00    -0.029 A 
ATOM     22  C   UNL A   1      33.179  24.257  21.961  1.00  0.00     0.005 A 
ATOM     23  C   UNL A   1      31.096  24.977  23.002  1.00  0.00    -0.014 A 
ATOM     24  C   UNL A   1      30.309  26.189  23.091  1.00  0.00    -0.014 A 
ATOM     25  C   UNL A   1      30.487  28.520  22.377  1.00  0.00     0.005 A 
ATOM     26  C   UNL A   1      32.904  22.956  22.382  1.00  0.00     0.000 A 
ATOM     27  C   UNL A   1      30.827  23.686  23.426  1.00  0.00     0.009 A 
ATOM     28  C   UNL A   1      29.057  26.414  23.632  1.00  0.00     0.009 A 
ATOM     29  C   UNL A   1      29.225  28.744  22.924  1.00  0.00     0.000 A 
ATOM     30  C   UNL A   1      31.747  22.676  23.126  1.00  0.00     0.001 A 
ATOM     31  C   UNL A   1      28.518  27.703  23.550  1.00  0.00     0.001 A 
ENDBRANCH  18  19
ENDBRANCH  17  18
ENDBRANCH  15  17
ENDBRANCH   7  15
ENDBRANCH   3   5
ENDBRANCH   2   3
ENDBRANCH   1   2
BRANCH   1  32
ATOM     32  C   UNL A   1      36.203  20.915  24.673  1.00  0.00     0.275 C 
BRANCH  32  33
ATOM     33  O   UNL A   1      36.916  21.648  25.687  1.00  0.00    -0.458 OA
BRANCH  33  34
ATOM     34  C   UNL A   1      38.229  21.350  25.802  1.00  0.00     0.338 C 
ATOM     35  O   UNL A   1      38.819  20.374  25.372  1.00  0.00    -0.246 OA
BRANCH  34  36
ATOM     36  C   UNL A   1      38.919  22.478  26.439  1.00  0.00     0.060 A 
ATOM     37  C   UNL A   1      38.474  23.758  26.131  1.00  0.00     0.016 A 
ATOM     38  C   UNL A   1      40.067  22.300  27.204  1.00  0.00     0.016 A 
ATOM     39  C   UNL A   1      39.219  24.873  26.499  1.00  0.00     0.010 A 
ATOM     40  C   UNL A   1      40.763  23.428  27.661  1.00  0.00     0.010 A 
ATOM     41  C   UNL A   1      40.370  24.728  27.283  1.00  0.00    -0.014 A 
BRANCH  41  42
ATOM     42  C   UNL A   1      41.181  25.923  27.659  1.00  0.00     0.031 A 
ATOM     43  C   UNL A   1      40.577  27.005  28.516  1.00  0.00     0.074 A 
ATOM     44  C   UNL A   1      42.464  26.038  27.261  1.00  0.00     0.049 A 
ATOM     45  N   UNL A   1      41.038  28.200  28.792  1.00  0.00    -0.248 NA
ATOM     46  C   UNL A   1      39.277  26.709  29.138  1.00  0.00     0.031 C 
ATOM     47  C   UNL A   1      43.207  25.047  26.479  1.00  0.00     0.029 A 
ATOM     48  N   UNL A   1      43.379  27.044  27.466  1.00  0.00    -0.354 N 
ATOM     49  C   UNL A   1      40.061  28.816  29.566  1.00  0.00     0.074 A 
ATOM     50  C   UNL A   1      38.980  27.864  29.714  1.00  0.00     0.031 C 
ATOM     51  C   UNL A   1      44.465  25.476  26.302  1.00  0.00     0.029 A 
ATOM     52  C   UNL A   1      44.596  26.812  26.870  1.00  0.00     0.049 A 
ATOM     53  H   UNL A   1      43.181  27.853  27.991  1.00  0.00     0.167 HD
ATOM     54  C   UNL A   1      40.066  30.059  30.103  1.00  0.00     0.037 A 
ATOM     55  C   UNL A   1      45.680  27.601  26.745  1.00  0.00     0.037 A 
ATOM     56  C   UNL A   1      41.168  30.981  30.005  1.00  0.00     0.049 A 
ATOM     57  C   UNL A   1      45.647  28.991  27.314  1.00  0.00     0.074 A 
ATOM     58  C   UNL A   1      41.269  32.263  30.520  1.00  0.00     0.029 A 
ATOM     59  N   UNL A   1      42.368  30.714  29.366  1.00  0.00    -0.354 N 
ATOM     60  N   UNL A   1      44.690  29.587  27.983  1.00  0.00    -0.248 NA
ATOM     61  C   UNL A   1      46.836  29.826  27.093  1.00  0.00     0.031 C 
ATOM     62  C   UNL A   1      42.518  32.783  30.164  1.00  0.00     0.029 A 
ATOM     63  C   UNL A   1      43.212  31.808  29.465  1.00  0.00     0.049 A 
ATOM     64  H   UNL A   1      42.589  29.870  28.908  1.00  0.00     0.167 HD
ATOM     65  C   UNL A   1      45.166  30.859  28.273  1.00  0.00     0.074 A 
ATOM     66  C   UNL A   1      46.505  30.940  27.729  1.00  0.00     0.031 C 
ATOM     67  C   UNL A   1      44.545  31.872  28.925  1.00  0.00     0.037 A 
BRANCH  54  68
ATOM     68  C   UNL A   1      38.829  30.515  30.823  1.00  0.00     0.057 A 
ATOM     69  C   UNL A   1      37.780  31.172  30.167  1.00  0.00     0.134 A 
ATOM     70  C   UNL A   1      38.668  30.248  32.189  1.00  0.00     0.134 A 
ATOM     71  F   UNL A   1      37.876  31.470  28.863  1.00  0.00    -0.206 F 
ATOM     72  C   UNL A   1      36.625  31.562  30.847  1.00  0.00     0.040 A 
ATOM     73  C   UNL A   1      37.506  30.609  32.874  1.00  0.00     0.040 A 
ATOM     74  F   UNL A   1      39.630  29.615  32.877  1.00  0.00    -0.206 F 
ATOM     75  C   UNL A   1      36.482  31.274  32.203  1.00  0.00     0.006 A 
ENDBRANCH  54  68
BRANCH  55  76
ATOM     76  C   UNL A   1      46.871  27.117  25.999  1.00  0.00     0.057 A 
ATOM     77  C   UNL A   1      47.914  26.449  26.647  1.00  0.00     0.134 A 
ATOM     78  C   UNL A   1      46.997  27.322  24.618  1.00  0.00     0.134 A 
ATOM     79  F   UNL A   1      47.866  26.246  27.972  1.00  0.00    -0.206 F 
ATOM     80  C   UNL A   1      49.046  26.014  25.955  1.00  0.00     0.040 A 
ATOM     81  C   UNL A   1      48.107  26.865  23.908  1.00  0.00     0.040 A 
ATOM     82  F   UNL A   1      46.034  27.958  23.935  1.00  0.00    -0.206 F 
ATOM     83  C   UNL A   1      49.140  26.214  24.579  1.00  0.00     0.006 A 
ENDBRANCH  55  76
BRANCH  67  84
ATOM     84  C   UNL A   1      45.324  33.139  29.118  1.00  0.00     0.057 A 
ATOM     85  C   UNL A   1      45.255  34.195  28.200  1.00  0.00     0.134 A 
ATOM     86  C   UNL A   1      46.132  33.313  30.248  1.00  0.00     0.134 A 
ATOM     87  F   UNL A   1      44.510  34.083  27.090  1.00  0.00    -0.206 F 
ATOM     88  C   UNL A   1      45.982  35.371  28.389  1.00  0.00     0.040 A 
ATOM     89  C   UNL A   1      46.844  34.494  30.459  1.00  0.00     0.040 A 
ATOM     90  F   UNL A   1      46.236  32.342  31.168  1.00  0.00    -0.206 F 
ATOM     91  C   UNL A   1      46.775  35.524  29.524  1.00  0.00     0.006 A 
ENDBRANCH  67  84
ENDBRANCH  41  42
ENDBRANCH  34  36
ENDBRANCH  33  34
ENDBRANCH  32  33
ENDBRANCH   1  32
TORSDOF 16
ENDMDL
MODEL 2
REMARK VINA RESULT:     -12.2      1.316      2.269
REMARK SMILES Nc1c(C(=O)OCC2c3ccccc3-c3ccccc32)ccc(F)c1C(=O)OCCOC(=O)c1ccc(-c2c3nc(c(-c4c(F)cccc4F)c4ccc([nH]4)c(-c4c(F)cccc4F)c4nc(c(-c5c(F)cccc5F)c5ccc2[nH]5)C=C4)C=C3)cc1
REMARK SMILES IDX 29 1 28 2 26 3 27 4 25 5 2 6 3 7 21 8 23 9 22 10 24 11 1 12
REMARK SMILES IDX 4 15 5 16 6 17 7 18 8 19 9 20 20 21 10 22 14 23 15 24 19 25
REMARK SMILES IDX 11 26 13 27 16 28 18 29 12 30 17 31 30 32 31 33 32 34 33 35
REMARK SMILES IDX 34 36 35 37 87 38 36 39 86 40 37 41 38 42 39 43 80 44 40 45
REMARK SMILES IDX 85 46 79 47 81 48 41 49 84 50 78 51 77 52 42 54 68 55 51 56
REMARK SMILES IDX 67 57 52 58 55 59 66 60 82 61 53 62 54 63 65 65 83 66 56 67
REMARK SMILES IDX 43 68 44 69 49 70 45 71 46 72 48 73 50 74 47 75 69 76 70 77
REMARK SMILES IDX 75 78 71 79 72 80 74 81 76 82 73 83 57 84 58 85 63 86 59 87
REMARK SMILES IDX 60 88 62 89 64 90 61 91
REMARK H PARENT 1 13 1 14 81 53 55 64
REMARK Flexibility Score: inf
ROOT
ATOM      1  C   UNL A   1      35.614  19.925  24.996  1.00  0.00     0.275 C 
ENDROOT
BRANCH   1   2
ATOM      2  O   UNL A   1      34.487  20.819  25.092  1.00  0.00    -0.458 OA
BRANCH   2   3
ATOM      3  C   UNL A   1      33.318  20.426  24.517  1.00  0.00     0.343 C 
ATOM      4  O   UNL A   1      33.021  19.283  24.213  1.00  0.00    -0.246 OA
BRANCH   3   5
ATOM      5  C   UNL A   1      32.405  21.590  24.398  1.00  0.00     0.119 A 
ATOM      6  C   UNL A   1      31.876  22.251  25.529  1.00  0.00     0.064 A 
ATOM      7  C   UNL A   1      31.020  23.354  25.297  1.00  0.00     0.084 A 
ATOM      8  C   UNL A   1      30.639  23.725  23.995  1.00  0.00     0.021 A 
ATOM      9  C   UNL A   1      32.091  22.042  23.108  1.00  0.00     0.139 A 
ATOM     10  C   UNL A   1      31.186  23.075  22.899  1.00  0.00     0.041 A 
ATOM     11  F   UNL A   1      32.653  21.498  22.020  1.00  0.00    -0.206 F 
BRANCH   6  12
ATOM     12  N   UNL A   1      32.292  21.911  26.819  1.00  0.00    -0.397 N 
ATOM     13  H   UNL A   1      32.933  22.485  27.297  1.00  0.00     0.156 HD
ATOM     14  H   UNL A   1      31.945  21.097  27.250  1.00  0.00     0.156 HD
ENDBRANCH   6  12
BRANCH   7  15
ATOM     15  C   UNL A   1      30.522  24.238  26.379  1.00  0.00     0.340 C 
ATOM     16  O   UNL A   1      29.860  23.840  27.323  1.00  0.00    -0.246 OA
BRANCH  15  17
ATOM     17  O   UNL A   1      30.776  25.529  26.044  1.00  0.00    -0.461 OA
BRANCH  17  18
ATOM     18  C   UNL A   1      31.718  26.213  26.878  1.00  0.00     0.246 C 
BRANCH  18  19
ATOM     19  C   UNL A   1      32.844  26.856  26.044  1.00  0.00     0.088 C 
ATOM     20  C   UNL A   1      33.696  25.855  25.268  1.00  0.00    -0.029 A 
ATOM     21  C   UNL A   1      32.208  27.650  24.910  1.00  0.00    -0.029 A 
ATOM     22  C   UNL A   1      34.651  24.972  25.755  1.00  0.00     0.005 A 
ATOM     23  C   UNL A   1      33.418  25.942  23.889  1.00  0.00    -0.014 A 
ATOM     24  C   UNL A   1      32.510  27.048  23.668  1.00  0.00    -0.014 A 
ATOM     25  C   UNL A   1      31.385  28.762  25.000  1.00  0.00     0.005 A 
ATOM     26  C   UNL A   1      35.264  24.099  24.856  1.00  0.00     0.000 A 
ATOM     27  C   UNL A   1      34.022  25.070  22.998  1.00  0.00     0.009 A 
ATOM     28  C   UNL A   1      31.975  27.556  22.498  1.00  0.00     0.009 A 
ATOM     29  C   UNL A   1      30.846  29.271  23.819  1.00  0.00     0.000 A 
ATOM     30  C   UNL A   1      34.937  24.134  23.491  1.00  0.00     0.001 A 
ATOM     31  C   UNL A   1      31.134  28.672  22.581  1.00  0.00     0.001 A 
ENDBRANCH  18  19
ENDBRANCH  17  18
ENDBRANCH  15  17
ENDBRANCH   7  15
ENDBRANCH   3   5
ENDBRANCH   2   3
ENDBRANCH   1   2
BRANCH   1  32
ATOM     32  C   UNL A   1      36.860  20.702  24.578  1.00  0.00     0.275 C 
BRANCH  32  33
ATOM     33  O   UNL A   1      37.411  21.379  25.722  1.00  0.00    -0.458 OA
BRANCH  33  34
ATOM     34  C   UNL A   1      38.712  21.115  25.980  1.00  0.00     0.338 C 
ATOM     35  O   UNL A   1      39.351  20.122  25.683  1.00  0.00    -0.246 OA
BRANCH  34  36
ATOM     36  C   UNL A   1      39.325  22.301  26.590  1.00  0.00     0.060 A 
ATOM     37  C   UNL A   1      38.852  23.546  26.190  1.00  0.00     0.016 A 
ATOM     38  C   UNL A   1      40.436  22.208  27.422  1.00  0.00     0.016 A 
ATOM     39  C   UNL A   1      39.536  24.706  26.535  1.00  0.00     0.010 A 
ATOM     40  C   UNL A   1      41.067  23.384  27.852  1.00  0.00     0.010 A 
ATOM     41  C   UNL A   1      40.649  24.646  27.384  1.00  0.00    -0.014 A 
BRANCH  41  42
ATOM     42  C   UNL A   1      41.395  25.890  27.735  1.00  0.00     0.031 A 
ATOM     43  C   UNL A   1      40.740  26.949  28.584  1.00  0.00     0.074 A 
ATOM     44  C   UNL A   1      42.666  26.070  27.323  1.00  0.00     0.049 A 
ATOM     45  N   UNL A   1      41.136  28.171  28.839  1.00  0.00    -0.248 NA
ATOM     46  C   UNL A   1      39.463  26.590  29.223  1.00  0.00     0.031 C 
ATOM     47  C   UNL A   1      43.455  25.111  26.548  1.00  0.00     0.029 A 
ATOM     48  N   UNL A   1      43.525  27.129  27.506  1.00  0.00    -0.354 N 
ATOM     49  C   UNL A   1      40.133  28.743  29.614  1.00  0.00     0.074 A 
ATOM     50  C   UNL A   1      39.108  27.735  29.786  1.00  0.00     0.031 C 
ATOM     51  C   UNL A   1      44.686  25.607  26.353  1.00  0.00     0.029 A 
ATOM     52  C   UNL A   1      44.748  26.955  26.901  1.00  0.00     0.049 A 
ATOM     53  H   UNL A   1      43.287  27.933  28.022  1.00  0.00     0.167 HD
ATOM     54  C   UNL A   1      40.073  29.992  30.133  1.00  0.00     0.037 A 
ATOM     55  C   UNL A   1      45.785  27.802  26.755  1.00  0.00     0.037 A 
ATOM     56  C   UNL A   1      41.121  30.972  30.012  1.00  0.00     0.049 A 
ATOM     57  C   UNL A   1      45.680  29.196  27.305  1.00  0.00     0.074 A 
ATOM     58  C   UNL A   1      41.156  32.264  30.509  1.00  0.00     0.029 A 
ATOM     59  N   UNL A   1      42.329  30.763  29.365  1.00  0.00    -0.354 N 
ATOM     60  N   UNL A   1      44.697  29.748  27.975  1.00  0.00    -0.248 NA
ATOM     61  C   UNL A   1      46.819  30.092  27.061  1.00  0.00     0.031 C 
ATOM     62  C   UNL A   1      42.370  32.848  30.133  1.00  0.00     0.029 A 
ATOM     63  C   UNL A   1      43.111  31.903  29.441  1.00  0.00     0.049 A 
ATOM     64  H   UNL A   1      42.592  29.926  28.917  1.00  0.00     0.167 HD
ATOM     65  C   UNL A   1      45.104  31.047  28.243  1.00  0.00     0.074 A 
ATOM     66  C   UNL A   1      46.432  31.195  27.685  1.00  0.00     0.031 C 
ATOM     67  C   UNL A   1      44.434  32.034  28.887  1.00  0.00     0.037 A 
BRANCH  54  68
ATOM     68  C   UNL A   1      38.819  30.388  30.859  1.00  0.00     0.057 A 
ATOM     69  C   UNL A   1      37.739  30.997  30.209  1.00  0.00     0.134 A 
ATOM     70  C   UNL A   1      38.676  30.111  32.225  1.00  0.00     0.134 A 
ATOM     71  F   UNL A   1      37.815  31.302  28.905  1.00  0.00    -0.206 F 
ATOM     72  C   UNL A   1      36.570  31.332  30.895  1.00  0.00     0.040 A 
ATOM     73  C   UNL A   1      37.502  30.417  32.916  1.00  0.00     0.040 A 
ATOM     74  F   UNL A   1      39.670  29.522  32.909  1.00  0.00    -0.206 F 
ATOM     75  C   UNL A   1      36.446  31.035  32.250  1.00  0.00     0.006 A 
ENDBRANCH  54  68
BRANCH  55  76
ATOM     76  C   UNL A   1      46.995  27.375  26.003  1.00  0.00     0.057 A 
ATOM     77  C   UNL A   1      48.104  26.831  26.658  1.00  0.00     0.134 A 
ATOM     78  C   UNL A   1      47.071  27.511  24.610  1.00  0.00     0.134 A 
ATOM     79  F   UNL A   1      48.103  26.700  27.993  1.00  0.00    -0.206 F 
ATOM     80  C   UNL A   1      49.251  26.450  25.960  1.00  0.00     0.040 A 
ATOM     81  C   UNL A   1      48.199  27.104  23.896  1.00  0.00     0.040 A 
ATOM     82  F   UNL A   1      46.043  28.026  23.921  1.00  0.00    -0.206 F 
ATOM     83  C   UNL A   1      49.297  26.579  24.573  1.00  0.00     0.006 A 
ENDBRANCH  55  76
BRANCH  67  84
ATOM     84  C   UNL A   1      45.143  33.345  29.055  1.00  0.00     0.057 A 
ATOM     85  C   UNL A   1      45.981  33.596  30.149  1.00  0.00     0.134 A 
ATOM     86  C   UNL A   1      45.006  34.356  28.097  1.00  0.00     0.134 A 
ATOM     87  F   UNL A   1      46.142  32.672  31.108  1.00  0.00    -0.206 F 
ATOM     88  C   UNL A   1      46.639  34.819  30.295  1.00  0.00     0.040 A 
ATOM     89  C   UNL A   1      45.678  35.573  28.220  1.00  0.00     0.040 A 
ATOM     90  F   UNL A   1      44.223  34.176  27.022  1.00  0.00    -0.206 F 
ATOM     91  C   UNL A   1      46.491  35.808  29.326  1.00  0.00     0.006 A 
ENDBRANCH  67  84
ENDBRANCH  41  42
ENDBRANCH  34  36
ENDBRANCH  33  34
ENDBRANCH  32  33
ENDBRANCH   1  32
TORSDOF 16
ENDMDL
MODEL 3
REMARK VINA RESULT:     -11.9      3.652      8.574
REMARK SMILES Nc1c(C(=O)OCC2c3ccccc3-c3ccccc32)ccc(F)c1C(=O)OCCOC(=O)c1ccc(-c2c3nc(c(-c4c(F)cccc4F)c4ccc([nH]4)c(-c4c(F)cccc4F)c4nc(c(-c5c(F)cccc5F)c5ccc2[nH]5)C=C4)C=C3)cc1
REMARK SMILES IDX 29 1 28 2 26 3 27 4 25 5 2 6 3 7 21 8 23 9 22 10 24 11 1 12
REMARK SMILES IDX 4 15 5 16 6 17 7 18 8 19 9 20 20 21 10 22 14 23 15 24 19 25
REMARK SMILES IDX 11 26 13 27 16 28 18 29 12 30 17 31 30 32 31 33 32 34 33 35
REMARK SMILES IDX 34 36 35 37 87 38 36 39 86 40 37 41 38 42 39 43 80 44 40 45
REMARK SMILES IDX 85 46 79 47 81 48 41 49 84 50 78 51 77 52 42 54 68 55 51 56
REMARK SMILES IDX 67 57 52 58 55 59 66 60 82 61 53 62 54 63 65 65 83 66 56 67
REMARK SMILES IDX 43 68 44 69 49 70 45 71 46 72 48 73 50 74 47 75 69 76 70 77
REMARK SMILES IDX 75 78 71 79 72 80 74 81 76 82 73 83 57 84 58 85 63 86 59 87
REMARK SMILES IDX 60 88 62 89 64 90 61 91
REMARK H PARENT 1 13 1 14 81 53 55 64
REMARK Flexibility Score: inf
ROOT
ATOM      1  C   UNL A   1      32.750  29.169  24.596  1.00  0.00     0.275 C 
ENDROOT
BRANCH   1   2
ATOM      2  O   UNL A   1      32.489  29.237  23.180  1.00  0.00    -0.458 OA
BRANCH   2   3
ATOM      3  C   UNL A   1      31.284  28.789  22.737  1.00  0.00     0.343 C 
ATOM      4  O   UNL A   1      30.379  29.482  22.305  1.00  0.00    -0.246 OA
BRANCH   3   5
ATOM      5  C   UNL A   1      31.261  27.305  22.770  1.00  0.00     0.119 A 
ATOM      6  C   UNL A   1      32.203  26.521  22.067  1.00  0.00     0.064 A 
ATOM      7  C   UNL A   1      32.091  25.114  22.174  1.00  0.00     0.084 A 
ATOM      8  C   UNL A   1      31.032  24.516  22.880  1.00  0.00     0.021 A 
ATOM      9  C   UNL A   1      30.274  26.685  23.551  1.00  0.00     0.139 A 
ATOM     10  C   UNL A   1      30.130  25.303  23.579  1.00  0.00     0.041 A 
ATOM     11  F   UNL A   1      29.429  27.399  24.306  1.00  0.00    -0.206 F 
BRANCH   6  12
ATOM     12  N   UNL A   1      33.281  27.117  21.405  1.00  0.00    -0.397 N 
ATOM     13  H   UNL A   1      33.815  27.809  21.858  1.00  0.00     0.156 HD
ATOM     14  H   UNL A   1      33.505  26.846  20.486  1.00  0.00     0.156 HD
ENDBRANCH   6  12
BRANCH   7  15
ATOM     15  C   UNL A   1      33.099  24.175  21.626  1.00  0.00     0.340 C 
ATOM     16  O   UNL A   1      33.278  24.001  20.432  1.00  0.00    -0.246 OA
BRANCH  15  17
ATOM     17  O   UNL A   1      33.628  23.453  22.647  1.00  0.00    -0.461 OA
BRANCH  17  18
ATOM     18  C   UNL A   1      34.794  24.011  23.263  1.00  0.00     0.246 C 
BRANCH  18  19
ATOM     19  C   UNL A   1      34.798  23.764  24.784  1.00  0.00     0.088 C 
ATOM     20  C   UNL A   1      33.690  24.494  25.539  1.00  0.00    -0.029 A 
ATOM     21  C   UNL A   1      34.424  22.309  25.036  1.00  0.00    -0.029 A 
ATOM     22  C   UNL A   1      33.587  25.849  25.826  1.00  0.00     0.005 A 
ATOM     23  C   UNL A   1      32.714  23.578  25.980  1.00  0.00    -0.014 A 
ATOM     24  C   UNL A   1      33.167  22.236  25.678  1.00  0.00    -0.014 A 
ATOM     25  C   UNL A   1      35.117  21.169  24.661  1.00  0.00     0.005 A 
ATOM     26  C   UNL A   1      32.440  26.301  26.480  1.00  0.00     0.000 A 
ATOM     27  C   UNL A   1      31.572  24.028  26.624  1.00  0.00     0.009 A 
ATOM     28  C   UNL A   1      32.588  21.008  25.940  1.00  0.00     0.009 A 
ATOM     29  C   UNL A   1      34.530  19.933  24.925  1.00  0.00     0.000 A 
ATOM     30  C   UNL A   1      31.432  25.400  26.858  1.00  0.00     0.001 A 
ATOM     31  C   UNL A   1      33.276  19.852  25.554  1.00  0.00     0.001 A 
ENDBRANCH  18  19
ENDBRANCH  17  18
ENDBRANCH  15  17
ENDBRANCH   7  15
ENDBRANCH   3   5
ENDBRANCH   2   3
ENDBRANCH   1   2
BRANCH   1  32
ATOM     32  C   UNL A   1      31.775  30.072  25.347  1.00  0.00     0.275 C 
BRANCH  32  33
ATOM     33  O   UNL A   1      32.184  30.184  26.723  1.00  0.00    -0.458 OA
BRANCH  33  34
ATOM     34  C   UNL A   1      32.704  31.380  27.077  1.00  0.00     0.338 C 
ATOM     35  O   UNL A   1      32.153  32.467  27.087  1.00  0.00    -0.246 OA
BRANCH  34  36
ATOM     36  C   UNL A   1      34.061  31.173  27.599  1.00  0.00     0.060 A 
ATOM     37  C   UNL A   1      34.471  29.863  27.816  1.00  0.00     0.016 A 
ATOM     38  C   UNL A   1      34.862  32.236  28.005  1.00  0.00     0.016 A 
ATOM     39  C   UNL A   1      35.636  29.597  28.526  1.00  0.00     0.010 A 
ATOM     40  C   UNL A   1      36.085  31.966  28.633  1.00  0.00     0.010 A 
ATOM     41  C   UNL A   1      36.471  30.644  28.936  1.00  0.00    -0.014 A 
BRANCH  41  42
ATOM     42  C   UNL A   1      37.710  30.358  29.717  1.00  0.00     0.031 A 
ATOM     43  C   UNL A   1      38.817  29.539  29.103  1.00  0.00     0.074 A 
ATOM     44  C   UNL A   1      37.867  30.846  30.964  1.00  0.00     0.049 A 
ATOM     45  N   UNL A   1      39.877  29.019  29.670  1.00  0.00    -0.248 NA
ATOM     46  C   UNL A   1      38.713  29.259  27.662  1.00  0.00     0.031 C 
ATOM     47  C   UNL A   1      36.913  31.703  31.670  1.00  0.00     0.029 A 
ATOM     48  N   UNL A   1      38.897  30.694  31.863  1.00  0.00    -0.354 N 
ATOM     49  C   UNL A   1      40.530  28.304  28.673  1.00  0.00     0.074 A 
ATOM     50  C   UNL A   1      39.746  28.453  27.465  1.00  0.00     0.031 C 
ATOM     51  C   UNL A   1      37.414  32.028  32.871  1.00  0.00     0.029 A 
ATOM     52  C   UNL A   1      38.677  31.328  33.063  1.00  0.00     0.049 A 
ATOM     53  H   UNL A   1      39.713  30.181  31.665  1.00  0.00     0.167 HD
ATOM     54  C   UNL A   1      41.677  27.589  28.758  1.00  0.00     0.037 A 
ATOM     55  C   UNL A   1      39.382  31.308  34.211  1.00  0.00     0.037 A 
ATOM     56  C   UNL A   1      42.487  27.491  29.944  1.00  0.00     0.049 A 
ATOM     57  C   UNL A   1      40.630  30.476  34.293  1.00  0.00     0.074 A 
ATOM     58  C   UNL A   1      43.670  26.795  30.127  1.00  0.00     0.029 A 
ATOM     59  N   UNL A   1      42.210  28.125  31.145  1.00  0.00    -0.354 N 
ATOM     60  N   UNL A   1      41.199  29.747  33.364  1.00  0.00    -0.248 NA
ATOM     61  C   UNL A   1      41.323  30.445  35.589  1.00  0.00     0.031 C 
ATOM     62  C   UNL A   1      44.091  26.980  31.448  1.00  0.00     0.029 A 
ATOM     63  C   UNL A   1      43.193  27.829  32.075  1.00  0.00     0.049 A 
ATOM     64  H   UNL A   1      41.430  28.702  31.313  1.00  0.00     0.167 HD
ATOM     65  C   UNL A   1      42.321  29.184  33.957  1.00  0.00     0.074 A 
ATOM     66  C   UNL A   1      42.365  29.674  35.319  1.00  0.00     0.031 C 
ATOM     67  C   UNL A   1      43.229  28.330  33.425  1.00  0.00     0.037 A 
BRANCH  54  68
ATOM     68  C   UNL A   1      42.117  26.826  27.541  1.00  0.00     0.057 A 
ATOM     69  C   UNL A   1      42.912  27.402  26.543  1.00  0.00     0.134 A 
ATOM     70  C   UNL A   1      41.774  25.475  27.391  1.00  0.00     0.134 A 
ATOM     71  F   UNL A   1      43.265  28.694  26.618  1.00  0.00    -0.206 F 
ATOM     72  C   UNL A   1      43.335  26.668  25.432  1.00  0.00     0.040 A 
ATOM     73  C   UNL A   1      42.212  24.724  26.299  1.00  0.00     0.040 A 
ATOM     74  F   UNL A   1      41.019  24.858  28.314  1.00  0.00    -0.206 F 
ATOM     75  C   UNL A   1      42.992  25.323  25.313  1.00  0.00     0.006 A 
ENDBRANCH  54  68
BRANCH  55  76
ATOM     76  C   UNL A   1      38.892  32.056  35.398  1.00  0.00     0.057 A 
ATOM     77  C   UNL A   1      39.156  33.420  35.558  1.00  0.00     0.134 A 
ATOM     78  C   UNL A   1      38.157  31.419  36.408  1.00  0.00     0.134 A 
ATOM     79  F   UNL A   1      39.877  34.081  34.641  1.00  0.00    -0.206 F 
ATOM     80  C   UNL A   1      38.718  34.123  36.683  1.00  0.00     0.040 A 
ATOM     81  C   UNL A   1      37.687  32.116  37.521  1.00  0.00     0.040 A 
ATOM     82  F   UNL A   1      37.872  30.112  36.317  1.00  0.00    -0.206 F 
ATOM     83  C   UNL A   1      37.974  33.471  37.664  1.00  0.00     0.006 A 
ENDBRANCH  55  76
BRANCH  67  84
ATOM     84  C   UNL A   1      44.366  27.905  34.306  1.00  0.00     0.057 A 
ATOM     85  C   UNL A   1      45.531  28.671  34.428  1.00  0.00     0.134 A 
ATOM     86  C   UNL A   1      44.281  26.728  35.059  1.00  0.00     0.134 A 
ATOM     87  F   UNL A   1      45.679  29.802  33.722  1.00  0.00    -0.206 F 
ATOM     88  C   UNL A   1      46.583  28.269  35.253  1.00  0.00     0.040 A 
ATOM     89  C   UNL A   1      45.315  26.328  35.905  1.00  0.00     0.040 A 
ATOM     90  F   UNL A   1      43.188  25.952  34.992  1.00  0.00    -0.206 F 
ATOM     91  C   UNL A   1      46.473  27.096  35.998  1.00  0.00     0.006 A 
ENDBRANCH  67  84
ENDBRANCH  41  42
ENDBRANCH  34  36
ENDBRANCH  33  34
ENDBRANCH  32  33
ENDBRANCH   1  32
TORSDOF 16
ENDMDL
