MODEL 1
REMARK VINA RESULT:     -10.9      0.000      0.000
REMARK SMILES O=C(OCCOC(=O)c1c(F)cccc1N[C@H]1CCCc2ccccc21)c1ccc(-c2c3nc(c(-c4c(F)cccc4F)c4ccc([nH]4)c(-c4c(F)cccc4F)c4nc(c(-c5c(F)cccc5F)c5ccc2[nH]5)C=C4)C=C3)cc1
REMARK SMILES IDX 4 1 3 2 2 3 1 4 27 5 28 6 80 7 29 8 79 9 30 10 31 11 32 12
REMARK SMILES IDX 73 13 33 14 78 15 72 16 74 17 34 18 77 19 71 20 70 21 35 23
REMARK SMILES IDX 61 24 44 25 60 26 45 27 48 28 59 29 75 30 46 31 47 32 58 34
REMARK SMILES IDX 76 35 49 36 36 37 37 38 42 39 38 40 39 41 41 42 43 43 40 44
REMARK SMILES IDX 62 45 63 46 68 47 64 48 65 49 67 50 69 51 66 52 50 53 51 54
REMARK SMILES IDX 56 55 52 56 53 57 55 58 57 59 54 60 5 61 6 62 7 63 8 64 9 65
REMARK SMILES IDX 10 66 15 67 11 68 12 69 14 70 13 71 16 72 17 74 18 75 26 76
REMARK SMILES IDX 19 77 21 78 25 79 20 80 22 81 24 82 23 83
REMARK H PARENT 74 22 48 33 16 73
REMARK Flexibility Score: inf
ROOT
ATOM      1  C   UNL A   1      33.144  32.524  27.931  1.00  0.00     0.275 C 
ENDROOT
BRANCH   1   2
ATOM      2  O   UNL A   1      34.441  31.987  27.617  1.00  0.00    -0.458 OA
BRANCH   2   3
ATOM      3  C   UNL A   1      34.567  30.652  27.633  1.00  0.00     0.338 C 
ATOM      4  O   UNL A   1      33.658  29.881  27.360  1.00  0.00    -0.246 OA
BRANCH   3   5
ATOM      5  C   UNL A   1      35.913  30.249  28.118  1.00  0.00     0.060 A 
ATOM      6  C   UNL A   1      36.065  29.619  29.359  1.00  0.00     0.016 A 
ATOM      7  C   UNL A   1      37.002  30.325  27.251  1.00  0.00     0.016 A 
ATOM      8  C   UNL A   1      37.270  29.025  29.703  1.00  0.00     0.010 A 
ATOM      9  C   UNL A   1      38.198  29.702  27.570  1.00  0.00     0.010 A 
ATOM     10  C   UNL A   1      38.334  29.060  28.806  1.00  0.00    -0.014 A 
BRANCH  10  11
ATOM     11  C   UNL A   1      39.663  28.605  29.232  1.00  0.00     0.031 A 
ATOM     12  C   UNL A   1      40.417  29.498  30.163  1.00  0.00     0.074 A 
ATOM     13  C   UNL A   1      40.155  27.430  28.808  1.00  0.00     0.049 A 
ATOM     14  N   UNL A   1      41.602  29.338  30.679  1.00  0.00    -0.248 NA
ATOM     15  C   UNL A   1      39.740  30.744  30.572  1.00  0.00     0.031 C 
ATOM     16  C   UNL A   1      39.453  26.479  27.948  1.00  0.00     0.029 A 
ATOM     17  N   UNL A   1      41.370  26.843  29.031  1.00  0.00    -0.354 N 
ATOM     18  C   UNL A   1      41.791  30.440  31.499  1.00  0.00     0.074 A 
ATOM     19  C   UNL A   1      40.660  31.316  31.328  1.00  0.00     0.031 C 
ATOM     20  C   UNL A   1      40.273  25.454  27.663  1.00  0.00     0.029 A 
ATOM     21  C   UNL A   1      41.547  25.672  28.337  1.00  0.00     0.049 A 
ATOM     22  H   UNL A   1      42.051  27.224  29.631  1.00  0.00     0.167 HD
ATOM     23  C   UNL A   1      42.798  30.661  32.370  1.00  0.00     0.037 A 
ATOM     24  C   UNL A   1      42.626  24.871  28.267  1.00  0.00     0.037 A 
ATOM     25  C   UNL A   1      43.906  29.765  32.518  1.00  0.00     0.049 A 
ATOM     26  C   UNL A   1      43.800  25.195  29.147  1.00  0.00     0.074 A 
ATOM     27  C   UNL A   1      44.986  29.862  33.371  1.00  0.00     0.029 A 
ATOM     28  N   UNL A   1      44.072  28.601  31.777  1.00  0.00    -0.354 N 
ATOM     29  N   UNL A   1      43.954  26.210  29.964  1.00  0.00    -0.248 NA
ATOM     30  C   UNL A   1      44.925  24.253  29.137  1.00  0.00     0.031 C 
ATOM     31  C   UNL A   1      45.833  28.782  33.110  1.00  0.00     0.029 A 
ATOM     32  C   UNL A   1      45.253  27.981  32.134  1.00  0.00     0.049 A 
ATOM     33  H   UNL A   1      43.441  28.268  31.099  1.00  0.00     0.167 HD
ATOM     34  C   UNL A   1      45.163  26.003  30.611  1.00  0.00     0.074 A 
ATOM     35  C   UNL A   1      45.714  24.774  30.070  1.00  0.00     0.031 C 
ATOM     36  C   UNL A   1      45.753  26.746  31.580  1.00  0.00     0.037 A 
BRANCH  23  37
ATOM     37  C   UNL A   1      42.713  31.903  33.201  1.00  0.00     0.057 A 
ATOM     38  C   UNL A   1      43.244  33.111  32.739  1.00  0.00     0.134 A 
ATOM     39  C   UNL A   1      42.062  31.914  34.444  1.00  0.00     0.134 A 
ATOM     40  F   UNL A   1      43.870  33.173  31.555  1.00  0.00    -0.206 F 
ATOM     41  C   UNL A   1      43.127  34.287  33.481  1.00  0.00     0.040 A 
ATOM     42  C   UNL A   1      41.912  33.090  35.180  1.00  0.00     0.040 A 
ATOM     43  F   UNL A   1      41.502  30.794  34.929  1.00  0.00    -0.206 F 
ATOM     44  C   UNL A   1      42.450  34.281  34.699  1.00  0.00     0.006 A 
ENDBRANCH  23  37
BRANCH  24  45
ATOM     45  C   UNL A   1      42.597  23.680  27.383  1.00  0.00     0.057 A 
ATOM     46  C   UNL A   1      42.184  22.430  27.865  1.00  0.00     0.134 A 
ATOM     47  C   UNL A   1      43.045  23.743  26.061  1.00  0.00     0.134 A 
ATOM     48  F   UNL A   1      41.758  22.300  29.131  1.00  0.00    -0.206 F 
ATOM     49  C   UNL A   1      42.227  21.285  27.066  1.00  0.00     0.040 A 
ATOM     50  C   UNL A   1      43.081  22.609  25.245  1.00  0.00     0.040 A 
ATOM     51  F   UNL A   1      43.451  24.910  25.541  1.00  0.00    -0.206 F 
ATOM     52  C   UNL A   1      42.677  21.374  25.750  1.00  0.00     0.006 A 
ENDBRANCH  24  45
BRANCH  36  53
ATOM     53  C   UNL A   1      47.037  26.238  32.158  1.00  0.00     0.057 A 
ATOM     54  C   UNL A   1      48.250  26.492  31.502  1.00  0.00     0.134 A 
ATOM     55  C   UNL A   1      47.058  25.384  33.264  1.00  0.00     0.134 A 
ATOM     56  F   UNL A   1      48.289  27.292  30.426  1.00  0.00    -0.206 F 
ATOM     57  C   UNL A   1      49.436  25.883  31.908  1.00  0.00     0.040 A 
ATOM     58  C   UNL A   1      48.243  24.790  33.695  1.00  0.00     0.040 A 
ATOM     59  F   UNL A   1      45.928  25.111  33.934  1.00  0.00    -0.206 F 
ATOM     60  C   UNL A   1      49.433  25.025  33.006  1.00  0.00     0.006 A 
ENDBRANCH  36  53
ENDBRANCH  10  11
ENDBRANCH   3   5
ENDBRANCH   2   3
ENDBRANCH   1   2
BRANCH   1  61
ATOM     61  C   UNL A   1      32.902  34.051  27.989  1.00  0.00     0.275 C 
BRANCH  61  62
ATOM     62  O   UNL A   1      32.678  34.594  29.306  1.00  0.00    -0.458 OA
BRANCH  62  63
ATOM     63  C   UNL A   1      33.407  35.709  29.616  1.00  0.00     0.343 C 
ATOM     64  O   UNL A   1      33.725  36.603  28.850  1.00  0.00    -0.246 OA
BRANCH  63  65
ATOM     65  C   UNL A   1      33.763  35.718  31.049  1.00  0.00     0.118 A 
ATOM     66  C   UNL A   1      33.456  36.891  31.749  1.00  0.00     0.139 A 
ATOM     67  C   UNL A   1      34.342  34.601  31.709  1.00  0.00     0.052 A 
ATOM     68  F   UNL A   1      32.902  37.942  31.124  1.00  0.00    -0.206 F 
ATOM     69  C   UNL A   1      33.716  37.003  33.109  1.00  0.00     0.040 A 
ATOM     70  C   UNL A   1      34.636  34.774  33.075  1.00  0.00     0.027 A 
ATOM     71  C   UNL A   1      34.329  35.950  33.771  1.00  0.00     0.005 A 
BRANCH  67  72
ATOM     72  N   UNL A   1      34.649  33.415  31.050  1.00  0.00    -0.377 N 
ATOM     73  H   UNL A   1      33.886  32.822  30.862  1.00  0.00     0.161 HD
BRANCH  72  74
ATOM     74  C   UNL A   1      35.965  32.924  30.594  1.00  0.00     0.110 C 
ATOM     75  C   UNL A   1      36.517  33.840  29.479  1.00  0.00     0.030 C 
ATOM     76  C   UNL A   1      36.906  32.814  31.801  1.00  0.00    -0.023 A 
ATOM     77  C   UNL A   1      38.036  33.933  29.482  1.00  0.00     0.007 C 
ATOM     78  C   UNL A   1      38.033  33.642  31.947  1.00  0.00    -0.043 A 
ATOM     79  C   UNL A   1      36.660  31.876  32.817  1.00  0.00     0.006 A 
ATOM     80  C   UNL A   1      38.498  34.512  30.812  1.00  0.00     0.036 C 
ATOM     81  C   UNL A   1      38.748  33.654  33.156  1.00  0.00     0.004 A 
ATOM     82  C   UNL A   1      37.386  31.874  34.009  1.00  0.00     0.000 A 
ATOM     83  C   UNL A   1      38.409  32.790  34.193  1.00  0.00     0.000 A 
ENDBRANCH  72  74
ENDBRANCH  67  72
ENDBRANCH  63  65
ENDBRANCH  62  63
ENDBRANCH  61  62
ENDBRANCH   1  61
TORSDOF 13
ENDMDL
MODEL 2
REMARK VINA RESULT:     -10.8      3.963     11.764
REMARK SMILES O=C(OCCOC(=O)c1c(F)cccc1N[C@H]1CCCc2ccccc21)c1ccc(-c2c3nc(c(-c4c(F)cccc4F)c4ccc([nH]4)c(-c4c(F)cccc4F)c4nc(c(-c5c(F)cccc5F)c5ccc2[nH]5)C=C4)C=C3)cc1
REMARK SMILES IDX 4 1 3 2 2 3 1 4 27 5 28 6 80 7 29 8 79 9 30 10 31 11 32 12
REMARK SMILES IDX 73 13 33 14 78 15 72 16 74 17 34 18 77 19 71 20 70 21 35 23
REMARK SMILES IDX 61 24 44 25 60 26 45 27 48 28 59 29 75 30 46 31 47 32 58 34
REMARK SMILES IDX 76 35 49 36 36 37 37 38 42 39 38 40 39 41 41 42 43 43 40 44
REMARK SMILES IDX 62 45 63 46 68 47 64 48 65 49 67 50 69 51 66 52 50 53 51 54
REMARK SMILES IDX 56 55 52 56 53 57 55 58 57 59 54 60 5 61 6 62 7 63 8 64 9 65
REMARK SMILES IDX 10 66 15 67 11 68 12 69 14 70 13 71 16 72 17 74 18 75 26 76
REMARK SMILES IDX 19 77 21 78 25 79 20 80 22 81 24 82 23 83
REMARK H PARENT 74 22 48 33 16 73
REMARK Flexibility Score: inf
ROOT
ATOM      1  C   UNL A   1      39.703  20.693  25.813  1.00  0.00     0.275 C 
ENDROOT
BRANCH   1   2
ATOM      2  O   UNL A   1      39.672  21.804  26.727  1.00  0.00    -0.458 OA
BRANCH   2   3
ATOM      3  C   UNL A   1      38.874  22.833  26.407  1.00  0.00     0.338 C 
ATOM      4  O   UNL A   1      37.878  22.729  25.707  1.00  0.00    -0.246 OA
BRANCH   3   5
ATOM      5  C   UNL A   1      39.421  24.113  26.930  1.00  0.00     0.060 A 
ATOM      6  C   UNL A   1      40.037  25.031  26.070  1.00  0.00     0.016 A 
ATOM      7  C   UNL A   1      39.146  24.486  28.245  1.00  0.00     0.016 A 
ATOM      8  C   UNL A   1      40.322  26.317  26.501  1.00  0.00     0.010 A 
ATOM      9  C   UNL A   1      39.393  25.781  28.673  1.00  0.00     0.010 A 
ATOM     10  C   UNL A   1      39.994  26.695  27.801  1.00  0.00    -0.014 A 
BRANCH  10  11
ATOM     11  C   UNL A   1      40.460  27.984  28.325  1.00  0.00     0.031 A 
ATOM     12  C   UNL A   1      41.937  28.166  28.455  1.00  0.00     0.074 A 
ATOM     13  C   UNL A   1      39.586  28.949  28.653  1.00  0.00     0.049 A 
ATOM     14  N   UNL A   1      42.605  29.195  28.894  1.00  0.00    -0.248 NA
ATOM     15  C   UNL A   1      42.780  27.034  28.025  1.00  0.00     0.031 C 
ATOM     16  C   UNL A   1      38.135  28.863  28.499  1.00  0.00     0.029 A 
ATOM     17  N   UNL A   1      39.790  30.184  29.202  1.00  0.00    -0.354 N 
ATOM     18  C   UNL A   1      43.939  28.845  28.756  1.00  0.00     0.074 A 
ATOM     19  C   UNL A   1      43.992  27.478  28.305  1.00  0.00     0.031 C 
ATOM     20  C   UNL A   1      37.572  29.976  29.000  1.00  0.00     0.029 A 
ATOM     21  C   UNL A   1      38.628  30.853  29.492  1.00  0.00     0.049 A 
ATOM     22  H   UNL A   1      40.685  30.558  29.371  1.00  0.00     0.167 HD
ATOM     23  C   UNL A   1      45.023  29.631  28.932  1.00  0.00     0.037 A 
ATOM     24  C   UNL A   1      38.450  32.046  30.087  1.00  0.00     0.037 A 
ATOM     25  C   UNL A   1      44.933  30.989  29.376  1.00  0.00     0.049 A 
ATOM     26  C   UNL A   1      39.671  32.865  30.399  1.00  0.00     0.074 A 
ATOM     27  C   UNL A   1      45.950  31.898  29.582  1.00  0.00     0.029 A 
ATOM     28  N   UNL A   1      43.741  31.628  29.693  1.00  0.00    -0.354 N 
ATOM     29  N   UNL A   1      40.933  32.554  30.217  1.00  0.00    -0.248 NA
ATOM     30  C   UNL A   1      39.455  34.207  30.950  1.00  0.00     0.031 C 
ATOM     31  C   UNL A   1      45.376  33.075  30.073  1.00  0.00     0.029 A 
ATOM     32  C   UNL A   1      43.996  32.917  30.118  1.00  0.00     0.049 A 
ATOM     33  H   UNL A   1      42.846  31.224  29.622  1.00  0.00     0.167 HD
ATOM     34  C   UNL A   1      41.661  33.678  30.573  1.00  0.00     0.074 A 
ATOM     35  C   UNL A   1      40.698  34.673  31.007  1.00  0.00     0.031 C 
ATOM     36  C   UNL A   1      43.001  33.880  30.524  1.00  0.00     0.037 A 
BRANCH  23  37
ATOM     37  C   UNL A   1      46.356  29.019  28.631  1.00  0.00     0.057 A 
ATOM     38  C   UNL A   1      46.927  29.136  27.360  1.00  0.00     0.134 A 
ATOM     39  C   UNL A   1      47.098  28.351  29.617  1.00  0.00     0.134 A 
ATOM     40  F   UNL A   1      46.276  29.772  26.376  1.00  0.00    -0.206 F 
ATOM     41  C   UNL A   1      48.192  28.614  27.081  1.00  0.00     0.040 A 
ATOM     42  C   UNL A   1      48.376  27.852  29.358  1.00  0.00     0.040 A 
ATOM     43  F   UNL A   1      46.621  28.232  30.866  1.00  0.00    -0.206 F 
ATOM     44  C   UNL A   1      48.923  27.981  28.083  1.00  0.00     0.006 A 
ENDBRANCH  23  37
BRANCH  24  45
ATOM     45  C   UNL A   1      37.074  32.532  30.356  1.00  0.00     0.057 A 
ATOM     46  C   UNL A   1      36.373  33.284  29.404  1.00  0.00     0.134 A 
ATOM     47  C   UNL A   1      36.455  32.321  31.591  1.00  0.00     0.134 A 
ATOM     48  F   UNL A   1      36.919  33.538  28.205  1.00  0.00    -0.206 F 
ATOM     49  C   UNL A   1      35.109  33.815  29.675  1.00  0.00     0.040 A 
ATOM     50  C   UNL A   1      35.186  32.833  31.871  1.00  0.00     0.040 A 
ATOM     51  F   UNL A   1      37.074  31.607  32.542  1.00  0.00    -0.206 F 
ATOM     52  C   UNL A   1      34.512  33.589  30.913  1.00  0.00     0.006 A 
ENDBRANCH  24  45
BRANCH  36  53
ATOM     53  C   UNL A   1      43.513  35.235  30.903  1.00  0.00     0.057 A 
ATOM     54  C   UNL A   1      43.748  35.544  32.250  1.00  0.00     0.134 A 
ATOM     55  C   UNL A   1      43.628  36.264  29.965  1.00  0.00     0.134 A 
ATOM     56  F   UNL A   1      43.638  34.599  33.196  1.00  0.00    -0.206 F 
ATOM     57  C   UNL A   1      44.046  36.844  32.655  1.00  0.00     0.040 A 
ATOM     58  C   UNL A   1      43.951  37.563  30.355  1.00  0.00     0.040 A 
ATOM     59  F   UNL A   1      43.421  36.024  28.662  1.00  0.00    -0.206 F 
ATOM     60  C   UNL A   1      44.144  37.859  31.705  1.00  0.00     0.006 A 
ENDBRANCH  36  53
ENDBRANCH  10  11
ENDBRANCH   3   5
ENDBRANCH   2   3
ENDBRANCH   1   2
BRANCH   1  61
ATOM     61  C   UNL A   1      40.581  19.450  26.093  1.00  0.00     0.275 C 
BRANCH  61  62
ATOM     62  O   UNL A   1      41.835  19.407  25.383  1.00  0.00    -0.458 OA
BRANCH  62  63
ATOM     63  C   UNL A   1      42.940  19.162  26.153  1.00  0.00     0.343 C 
ATOM     64  O   UNL A   1      42.979  18.496  27.173  1.00  0.00    -0.246 OA
BRANCH  63  65
ATOM     65  C   UNL A   1      44.134  19.806  25.571  1.00  0.00     0.118 A 
ATOM     66  C   UNL A   1      45.234  18.970  25.347  1.00  0.00     0.139 A 
ATOM     67  C   UNL A   1      44.174  21.181  25.212  1.00  0.00     0.052 A 
ATOM     68  F   UNL A   1      45.191  17.671  25.680  1.00  0.00    -0.206 F 
ATOM     69  C   UNL A   1      46.402  19.460  24.775  1.00  0.00     0.040 A 
ATOM     70  C   UNL A   1      45.392  21.647  24.683  1.00  0.00     0.027 A 
ATOM     71  C   UNL A   1      46.490  20.807  24.462  1.00  0.00     0.005 A 
BRANCH  67  72
ATOM     72  N   UNL A   1      43.097  22.040  25.408  1.00  0.00    -0.377 N 
ATOM     73  H   UNL A   1      42.359  21.952  24.761  1.00  0.00     0.161 HD
BRANCH  72  74
ATOM     74  C   UNL A   1      42.910  23.065  26.454  1.00  0.00     0.110 C 
ATOM     75  C   UNL A   1      42.701  22.391  27.828  1.00  0.00     0.030 C 
ATOM     76  C   UNL A   1      44.105  24.028  26.433  1.00  0.00    -0.023 A 
ATOM     77  C   UNL A   1      43.247  23.215  28.985  1.00  0.00     0.007 C 
ATOM     78  C   UNL A   1      45.025  24.098  27.494  1.00  0.00    -0.043 A 
ATOM     79  C   UNL A   1      44.325  24.872  25.333  1.00  0.00     0.006 A 
ATOM     80  C   UNL A   1      44.747  23.403  28.798  1.00  0.00     0.036 C 
ATOM     81  C   UNL A   1      46.212  24.836  27.351  1.00  0.00     0.004 A 
ATOM     82  C   UNL A   1      45.495  25.622  25.201  1.00  0.00     0.000 A 
ATOM     83  C   UNL A   1      46.457  25.575  26.197  1.00  0.00     0.000 A 
ENDBRANCH  72  74
ENDBRANCH  67  72
ENDBRANCH  63  65
ENDBRANCH  62  63
ENDBRANCH  61  62
ENDBRANCH   1  61
TORSDOF 13
ENDMDL
MODEL 3
REMARK VINA RESULT:     -10.6      0.801      6.184
REMARK SMILES O=C(OCCOC(=O)c1c(F)cccc1N[C@H]1CCCc2ccccc21)c1ccc(-c2c3nc(c(-c4c(F)cccc4F)c4ccc([nH]4)c(-c4c(F)cccc4F)c4nc(c(-c5c(F)cccc5F)c5ccc2[nH]5)C=C4)C=C3)cc1
REMARK SMILES IDX 4 1 3 2 2 3 1 4 27 5 28 6 80 7 29 8 79 9 30 10 31 11 32 12
REMARK SMILES IDX 73 13 33 14 78 15 72 16 74 17 34 18 77 19 71 20 70 21 35 23
REMARK SMILES IDX 61 24 44 25 60 26 45 27 48 28 59 29 75 30 46 31 47 32 58 34
REMARK SMILES IDX 76 35 49 36 36 37 37 38 42 39 38 40 39 41 41 42 43 43 40 44
REMARK SMILES IDX 62 45 63 46 68 47 64 48 65 49 67 50 69 51 66 52 50 53 51 54
REMARK SMILES IDX 56 55 52 56 53 57 55 58 57 59 54 60 5 61 6 62 7 63 8 64 9 65
REMARK SMILES IDX 10 66 15 67 11 68 12 69 14 70 13 71 16 72 17 74 18 75 26 76
REMARK SMILES IDX 19 77 21 78 25 79 20 80 22 81 24 82 23 83
REMARK H PARENT 74 22 48 33 16 73
REMARK Flexibility Score: inf
ROOT
ATOM      1  C   UNL A   1      33.312  32.291  28.020  1.00  0.00     0.275 C 
ENDROOT
BRANCH   1   2
ATOM      2  O   UNL A   1      34.409  31.757  27.256  1.00  0.00    -0.458 OA
BRANCH   2   3
ATOM      3  C   UNL A   1      34.618  30.435  27.334  1.00  0.00     0.338 C 
ATOM      4  O   UNL A   1      33.809  29.596  26.964  1.00  0.00    -0.246 OA
BRANCH   3   5
ATOM      5  C   UNL A   1      35.905  30.139  28.015  1.00  0.00     0.060 A 
ATOM      6  C   UNL A   1      35.922  29.578  29.299  1.00  0.00     0.016 A 
ATOM      7  C   UNL A   1      37.096  30.239  27.297  1.00  0.00     0.016 A 
ATOM      8  C   UNL A   1      37.099  29.075  29.831  1.00  0.00     0.010 A 
ATOM      9  C   UNL A   1      38.270  29.706  27.807  1.00  0.00     0.010 A 
ATOM     10  C   UNL A   1      38.272  29.133  29.083  1.00  0.00    -0.014 A 
BRANCH  10  11
ATOM     11  C   UNL A   1      39.552  28.780  29.706  1.00  0.00     0.031 A 
ATOM     12  C   UNL A   1      40.280  27.605  29.138  1.00  0.00     0.074 A 
ATOM     13  C   UNL A   1      40.040  29.501  30.729  1.00  0.00     0.049 A 
ATOM     14  N   UNL A   1      41.415  27.083  29.506  1.00  0.00    -0.248 NA
ATOM     15  C   UNL A   1      39.641  26.927  27.994  1.00  0.00     0.031 C 
ATOM     16  C   UNL A   1      39.416  30.694  31.297  1.00  0.00     0.029 A 
ATOM     17  N   UNL A   1      41.167  29.323  31.483  1.00  0.00    -0.354 N 
ATOM     18  C   UNL A   1      41.640  26.044  28.615  1.00  0.00     0.074 A 
ATOM     19  C   UNL A   1      40.481  25.933  27.766  1.00  0.00     0.031 C 
ATOM     20  C   UNL A   1      40.135  31.108  32.353  1.00  0.00     0.029 A 
ATOM     21  C   UNL A   1      41.278  30.217  32.519  1.00  0.00     0.049 A 
ATOM     22  H   UNL A   1      41.834  28.622  31.301  1.00  0.00     0.167 HD
ATOM     23  C   UNL A   1      42.754  25.294  28.482  1.00  0.00     0.037 A 
ATOM     24  C   UNL A   1      42.209  30.298  33.486  1.00  0.00     0.037 A 
ATOM     25  C   UNL A   1      43.891  25.435  29.342  1.00  0.00     0.049 A 
ATOM     26  C   UNL A   1      43.388  29.370  33.406  1.00  0.00     0.074 A 
ATOM     27  C   UNL A   1      45.087  24.749  29.309  1.00  0.00     0.029 A 
ATOM     28  N   UNL A   1      43.960  26.330  30.403  1.00  0.00    -0.354 N 
ATOM     29  N   UNL A   1      43.626  28.424  32.529  1.00  0.00    -0.248 NA
ATOM     30  C   UNL A   1      44.446  29.543  34.407  1.00  0.00     0.031 C 
ATOM     31  C   UNL A   1      45.863  25.193  30.384  1.00  0.00     0.029 A 
ATOM     32  C   UNL A   1      45.172  26.197  31.052  1.00  0.00     0.049 A 
ATOM     33  H   UNL A   1      43.251  26.965  30.654  1.00  0.00     0.167 HD
ATOM     34  C   UNL A   1      44.884  27.925  32.832  1.00  0.00     0.074 A 
ATOM     35  C   UNL A   1      45.349  28.661  33.994  1.00  0.00     0.031 C 
ATOM     36  C   UNL A   1      45.600  26.965  32.196  1.00  0.00     0.037 A 
BRANCH  23  37
ATOM     37  C   UNL A   1      42.763  24.288  27.374  1.00  0.00     0.057 A 
ATOM     38  C   UNL A   1      43.248  24.624  26.106  1.00  0.00     0.134 A 
ATOM     39  C   UNL A   1      42.333  22.967  27.575  1.00  0.00     0.134 A 
ATOM     40  F   UNL A   1      43.684  25.866  25.850  1.00  0.00    -0.206 F 
ATOM     41  C   UNL A   1      43.309  23.682  25.078  1.00  0.00     0.040 A 
ATOM     42  C   UNL A   1      42.418  22.009  26.563  1.00  0.00     0.040 A 
ATOM     43  F   UNL A   1      41.887  22.572  28.777  1.00  0.00    -0.206 F 
ATOM     44  C   UNL A   1      42.904  22.369  25.308  1.00  0.00     0.006 A 
ENDBRANCH  23  37
BRANCH  24  45
ATOM     45  C   UNL A   1      42.073  31.325  34.548  1.00  0.00     0.057 A 
ATOM     46  C   UNL A   1      41.305  31.084  35.695  1.00  0.00     0.134 A 
ATOM     47  C   UNL A   1      42.646  32.593  34.414  1.00  0.00     0.134 A 
ATOM     48  F   UNL A   1      40.713  29.893  35.876  1.00  0.00    -0.206 F 
ATOM     49  C   UNL A   1      41.104  32.070  36.664  1.00  0.00     0.040 A 
ATOM     50  C   UNL A   1      42.466  33.584  35.382  1.00  0.00     0.040 A 
ATOM     51  F   UNL A   1      43.395  32.884  33.340  1.00  0.00    -0.206 F 
ATOM     52  C   UNL A   1      41.687  33.325  36.508  1.00  0.00     0.006 A 
ENDBRANCH  24  45
BRANCH  36  53
ATOM     53  C   UNL A   1      46.979  26.678  32.703  1.00  0.00     0.057 A 
ATOM     54  C   UNL A   1      48.076  27.375  32.179  1.00  0.00     0.134 A 
ATOM     55  C   UNL A   1      47.232  25.625  33.586  1.00  0.00     0.134 A 
ATOM     56  F   UNL A   1      47.895  28.386  31.316  1.00  0.00    -0.206 F 
ATOM     57  C   UNL A   1      49.385  27.008  32.491  1.00  0.00     0.040 A 
ATOM     58  C   UNL A   1      48.536  25.266  33.926  1.00  0.00     0.040 A 
ATOM     59  F   UNL A   1      46.219  24.929  34.123  1.00  0.00    -0.206 F 
ATOM     60  C   UNL A   1      49.616  25.947  33.364  1.00  0.00     0.006 A 
ENDBRANCH  36  53
ENDBRANCH  10  11
ENDBRANCH   3   5
ENDBRANCH   2   3
ENDBRANCH   1   2
BRANCH   1  61
ATOM     61  C   UNL A   1      32.844  33.754  27.835  1.00  0.00     0.275 C 
BRANCH  61  62
ATOM     62  O   UNL A   1      32.648  34.500  29.053  1.00  0.00    -0.458 OA
BRANCH  62  63
ATOM     63  C   UNL A   1      33.513  35.541  29.253  1.00  0.00     0.343 C 
ATOM     64  O   UNL A   1      34.043  36.219  28.390  1.00  0.00    -0.246 OA
BRANCH  63  65
ATOM     65  C   UNL A   1      33.725  35.773  30.696  1.00  0.00     0.118 A 
ATOM     66  C   UNL A   1      33.389  37.047  31.168  1.00  0.00     0.139 A 
ATOM     67  C   UNL A   1      34.200  34.766  31.579  1.00  0.00     0.052 A 
ATOM     68  F   UNL A   1      32.935  37.993  30.332  1.00  0.00    -0.206 F 
ATOM     69  C   UNL A   1      33.518  37.370  32.513  1.00  0.00     0.040 A 
ATOM     70  C   UNL A   1      34.363  35.150  32.924  1.00  0.00     0.027 A 
ATOM     71  C   UNL A   1      34.027  36.426  33.391  1.00  0.00     0.005 A 
BRANCH  67  72
ATOM     72  N   UNL A   1      34.532  33.485  31.150  1.00  0.00    -0.377 N 
ATOM     73  H   UNL A   1      33.776  32.863  31.038  1.00  0.00     0.161 HD
BRANCH  72  74
ATOM     74  C   UNL A   1      35.864  32.930  30.837  1.00  0.00     0.110 C 
ATOM     75  C   UNL A   1      36.426  33.585  29.556  1.00  0.00     0.030 C 
ATOM     76  C   UNL A   1      36.781  33.110  32.055  1.00  0.00    -0.023 A 
ATOM     77  C   UNL A   1      37.942  33.705  29.564  1.00  0.00     0.007 C 
ATOM     78  C   UNL A   1      37.892  33.971  32.031  1.00  0.00    -0.043 A 
ATOM     79  C   UNL A   1      36.528  32.418  33.250  1.00  0.00     0.006 A 
ATOM     80  C   UNL A   1      38.368  34.575  30.739  1.00  0.00     0.036 C 
ATOM     81  C   UNL A   1      38.582  34.267  33.219  1.00  0.00     0.004 A 
ATOM     82  C   UNL A   1      37.228  32.696  34.425  1.00  0.00     0.000 A 
ATOM     83  C   UNL A   1      38.234  33.649  34.418  1.00  0.00     0.000 A 
ENDBRANCH  72  74
ENDBRANCH  67  72
ENDBRANCH  63  65
ENDBRANCH  62  63
ENDBRANCH  61  62
ENDBRANCH   1  61
TORSDOF 13
ENDMDL
