MODEL 1
REMARK VINA RESULT:     -11.1      0.000      0.000
REMARK SMILES O=C(OCCOC(=O)[C@@H]1CC[C@@]2(CCN(C(=O)OCc3ccccc3)C2)C1)c1ccc(-c2c3nc(c(-c4c(F)cccc4F)c4ccc([nH]4)c(-c4c(F)cccc4F)c4nc(c(-c5c(F)cccc5F)c5ccc2[nH]5)C=C4)C=C3)cc1
REMARK SMILES IDX 5 1 4 2 3 3 2 4 1 5 28 6 29 7 81 8 30 9 80 10 31 11 32 12
REMARK SMILES IDX 33 13 74 14 34 15 79 16 73 17 75 18 35 19 78 20 72 21 71 22
REMARK SMILES IDX 36 24 62 25 45 26 61 27 46 28 49 29 60 30 76 31 47 32 48 33
REMARK SMILES IDX 59 35 77 36 50 37 37 38 38 39 43 40 39 41 40 42 42 43 44 44
REMARK SMILES IDX 41 45 63 46 64 47 69 48 65 49 66 50 68 51 70 52 67 53 51 54
REMARK SMILES IDX 52 55 57 56 53 57 54 58 56 59 58 60 55 61 6 62 7 63 8 64
REMARK SMILES IDX 9 65 10 66 27 67 11 68 12 69 13 70 26 71 14 72 15 73 16 74
REMARK SMILES IDX 17 75 18 76 19 77 20 78 21 79 25 80 22 81 24 82 23 83
REMARK H PARENT 75 23 49 34
REMARK Flexibility Score: inf
ROOT
ATOM      1  C   UNL A   1      36.521  21.892  25.512  1.00  0.00     0.274 C 
ENDROOT
BRANCH   1   2
ATOM      2  C   UNL A   1      36.582  23.353  25.957  1.00  0.00     0.275 C 
BRANCH   2   3
ATOM      3  O   UNL A   1      37.896  23.931  25.737  1.00  0.00    -0.458 OA
BRANCH   3   4
ATOM      4  C   UNL A   1      39.046  24.089  26.430  1.00  0.00     0.338 C 
ATOM      5  O   UNL A   1      39.906  23.219  26.274  1.00  0.00    -0.246 OA
BRANCH   4   6
ATOM      6  C   UNL A   1      39.387  25.168  27.432  1.00  0.00     0.060 A 
ATOM      7  C   UNL A   1      40.172  26.292  27.217  1.00  0.00     0.016 A 
ATOM      8  C   UNL A   1      38.830  25.039  28.733  1.00  0.00     0.016 A 
ATOM      9  C   UNL A   1      40.314  27.273  28.233  1.00  0.00     0.010 A 
ATOM     10  C   UNL A   1      38.960  26.027  29.744  1.00  0.00     0.010 A 
ATOM     11  C   UNL A   1      39.669  27.197  29.497  1.00  0.00    -0.014 A 
BRANCH  11  12
ATOM     12  C   UNL A   1      39.825  28.354  30.477  1.00  0.00     0.031 A 
ATOM     13  C   UNL A   1      38.741  29.382  30.505  1.00  0.00     0.074 A 
ATOM     14  C   UNL A   1      40.788  28.464  31.432  1.00  0.00     0.049 A 
ATOM     15  N   UNL A   1      38.552  30.348  31.364  1.00  0.00    -0.248 NA
ATOM     16  C   UNL A   1      37.789  29.360  29.386  1.00  0.00     0.031 C 
ATOM     17  C   UNL A   1      42.011  27.689  31.485  1.00  0.00     0.029 A 
ATOM     18  N   UNL A   1      40.838  29.167  32.631  1.00  0.00    -0.354 N 
ATOM     19  C   UNL A   1      37.530  31.111  30.833  1.00  0.00     0.074 A 
ATOM     20  C   UNL A   1      37.054  30.427  29.649  1.00  0.00     0.031 C 
ATOM     21  C   UNL A   1      42.517  27.708  32.731  1.00  0.00     0.029 A 
ATOM     22  C   UNL A   1      41.795  28.691  33.526  1.00  0.00     0.049 A 
ATOM     23  H   UNL A   1      40.251  29.933  32.829  1.00  0.00     0.167 HD
ATOM     24  C   UNL A   1      37.115  32.334  31.230  1.00  0.00     0.037 A 
ATOM     25  C   UNL A   1      42.092  29.027  34.809  1.00  0.00     0.037 A 
ATOM     26  C   UNL A   1      37.643  33.052  32.357  1.00  0.00     0.049 A 
ATOM     27  C   UNL A   1      41.502  30.323  35.311  1.00  0.00     0.074 A 
ATOM     28  C   UNL A   1      37.326  34.331  32.778  1.00  0.00     0.029 A 
ATOM     29  N   UNL A   1      38.611  32.573  33.225  1.00  0.00    -0.354 N 
ATOM     30  N   UNL A   1      40.559  31.056  34.774  1.00  0.00    -0.248 NA
ATOM     31  C   UNL A   1      42.113  30.919  36.513  1.00  0.00     0.031 C 
ATOM     32  C   UNL A   1      38.137  34.645  33.872  1.00  0.00     0.029 A 
ATOM     33  C   UNL A   1      38.911  33.538  34.173  1.00  0.00     0.049 A 
ATOM     34  H   UNL A   1      39.023  31.680  33.176  1.00  0.00     0.167 HD
ATOM     35  C   UNL A   1      40.533  32.232  35.509  1.00  0.00     0.074 A 
ATOM     36  C   UNL A   1      41.466  32.072  36.604  1.00  0.00     0.031 C 
ATOM     37  C   UNL A   1      39.852  33.372  35.250  1.00  0.00     0.037 A 
BRANCH  24  38
ATOM     38  C   UNL A   1      36.162  33.026  30.313  1.00  0.00     0.057 A 
ATOM     39  C   UNL A   1      36.581  33.692  29.157  1.00  0.00     0.134 A 
ATOM     40  C   UNL A   1      34.800  33.065  30.636  1.00  0.00     0.134 A 
ATOM     41  F   UNL A   1      37.882  33.734  28.830  1.00  0.00    -0.206 F 
ATOM     42  C   UNL A   1      35.674  34.388  28.359  1.00  0.00     0.040 A 
ATOM     43  C   UNL A   1      33.881  33.733  29.832  1.00  0.00     0.040 A 
ATOM     44  F   UNL A   1      34.347  32.468  31.750  1.00  0.00    -0.206 F 
ATOM     45  C   UNL A   1      34.319  34.402  28.691  1.00  0.00     0.006 A 
ENDBRANCH  24  38
BRANCH  25  46
ATOM     46  C   UNL A   1      43.085  28.296  35.680  1.00  0.00     0.057 A 
ATOM     47  C   UNL A   1      44.473  28.476  35.515  1.00  0.00     0.134 A 
ATOM     48  C   UNL A   1      42.709  27.321  36.614  1.00  0.00     0.134 A 
ATOM     49  F   UNL A   1      44.939  29.330  34.590  1.00  0.00    -0.206 F 
ATOM     50  C   UNL A   1      45.422  27.729  36.231  1.00  0.00     0.040 A 
ATOM     51  C   UNL A   1      43.643  26.614  37.382  1.00  0.00     0.040 A 
ATOM     52  F   UNL A   1      41.418  27.002  36.783  1.00  0.00    -0.206 F 
ATOM     53  C   UNL A   1      45.006  26.807  37.185  1.00  0.00     0.006 A 
ENDBRANCH  25  46
BRANCH  37  54
ATOM     54  C   UNL A   1      40.112  34.541  36.150  1.00  0.00     0.057 A 
ATOM     55  C   UNL A   1      39.308  34.797  37.270  1.00  0.00     0.134 A 
ATOM     56  C   UNL A   1      41.196  35.393  35.921  1.00  0.00     0.134 A 
ATOM     57  F   UNL A   1      38.244  34.024  37.537  1.00  0.00    -0.206 F 
ATOM     58  C   UNL A   1      39.566  35.873  38.120  1.00  0.00     0.040 A 
ATOM     59  C   UNL A   1      41.479  36.456  36.777  1.00  0.00     0.040 A 
ATOM     60  F   UNL A   1      42.006  35.196  34.869  1.00  0.00    -0.206 F 
ATOM     61  C   UNL A   1      40.659  36.702  37.878  1.00  0.00     0.006 A 
ENDBRANCH  37  54
ENDBRANCH  11  12
ENDBRANCH   4   6
ENDBRANCH   3   4
ENDBRANCH   2   3
ENDBRANCH   1   2
BRANCH   1  62
ATOM     62  O   UNL A   1      35.522  21.776  24.510  1.00  0.00    -0.462 OA
BRANCH  62  63
ATOM     63  C   UNL A   1      34.203  21.801  24.877  1.00  0.00     0.309 C 
ATOM     64  O   UNL A   1      33.688  21.253  25.826  1.00  0.00    -0.252 OA
BRANCH  63  65
ATOM     65  C   UNL A   1      33.590  22.785  23.935  1.00  0.00     0.100 C 
ATOM     66  C   UNL A   1      34.309  23.459  22.799  1.00  0.00     0.016 C 
ATOM     67  C   UNL A   1      33.026  23.978  24.682  1.00  0.00     0.024 C 
ATOM     68  C   UNL A   1      33.183  24.404  22.341  1.00  0.00     0.010 C 
ATOM     69  C   UNL A   1      32.293  24.732  23.571  1.00  0.00    -0.009 C 
ATOM     70  C   UNL A   1      30.834  24.190  23.445  1.00  0.00     0.030 C 
ATOM     71  C   UNL A   1      32.050  26.199  23.951  1.00  0.00     0.130 C 
ATOM     72  C   UNL A   1      29.903  25.312  23.870  1.00  0.00     0.124 C 
ATOM     73  N   UNL A   1      30.781  26.119  24.668  1.00  0.00    -0.308 N 
BRANCH  73  74
ATOM     74  C   UNL A   1      30.810  25.756  26.007  1.00  0.00     0.410 C 
ATOM     75  O   UNL A   1      30.058  24.902  26.467  1.00  0.00    -0.224 OA
BRANCH  74  76
ATOM     76  O   UNL A   1      31.765  26.411  26.708  1.00  0.00    -0.445 OA
BRANCH  76  77
ATOM     77  C   UNL A   1      31.349  27.701  27.195  1.00  0.00     0.270 C 
BRANCH  77  78
ATOM     78  C   UNL A   1      32.398  28.795  27.103  1.00  0.00    -0.011 A 
ATOM     79  C   UNL A   1      33.759  28.454  27.110  1.00  0.00     0.007 A 
ATOM     80  C   UNL A   1      32.037  30.152  27.132  1.00  0.00     0.007 A 
ATOM     81  C   UNL A   1      34.738  29.446  27.182  1.00  0.00     0.000 A 
ATOM     82  C   UNL A   1      33.018  31.140  27.221  1.00  0.00     0.000 A 
ATOM     83  C   UNL A   1      34.366  30.788  27.247  1.00  0.00     0.000 A 
ENDBRANCH  77  78
ENDBRANCH  76  77
ENDBRANCH  74  76
ENDBRANCH  73  74
ENDBRANCH  63  65
ENDBRANCH  62  63
ENDBRANCH   1  62
TORSDOF 15
ENDMDL
MODEL 2
REMARK VINA RESULT:     -11.1      5.507     10.003
REMARK SMILES O=C(OCCOC(=O)[C@@H]1CC[C@@]2(CCN(C(=O)OCc3ccccc3)C2)C1)c1ccc(-c2c3nc(c(-c4c(F)cccc4F)c4ccc([nH]4)c(-c4c(F)cccc4F)c4nc(c(-c5c(F)cccc5F)c5ccc2[nH]5)C=C4)C=C3)cc1
REMARK SMILES IDX 5 1 4 2 3 3 2 4 1 5 28 6 29 7 81 8 30 9 80 10 31 11 32 12
REMARK SMILES IDX 33 13 74 14 34 15 79 16 73 17 75 18 35 19 78 20 72 21 71 22
REMARK SMILES IDX 36 24 62 25 45 26 61 27 46 28 49 29 60 30 76 31 47 32 48 33
REMARK SMILES IDX 59 35 77 36 50 37 37 38 38 39 43 40 39 41 40 42 42 43 44 44
REMARK SMILES IDX 41 45 63 46 64 47 69 48 65 49 66 50 68 51 70 52 67 53 51 54
REMARK SMILES IDX 52 55 57 56 53 57 54 58 56 59 58 60 55 61 6 62 7 63 8 64
REMARK SMILES IDX 9 65 10 66 27 67 11 68 12 69 13 70 26 71 14 72 15 73 16 74
REMARK SMILES IDX 17 75 18 76 19 77 20 78 21 79 25 80 22 81 24 82 23 83
REMARK H PARENT 75 23 49 34
REMARK Flexibility Score: inf
ROOT
ATOM      1  C   UNL A   1      33.952  29.343  25.843  1.00  0.00     0.274 C 
ENDROOT
BRANCH   1   2
ATOM      2  C   UNL A   1      33.551  30.345  26.926  1.00  0.00     0.275 C 
BRANCH   2   3
ATOM      3  O   UNL A   1      34.282  30.128  28.161  1.00  0.00    -0.458 OA
BRANCH   3   4
ATOM      4  C   UNL A   1      35.445  30.534  28.717  1.00  0.00     0.338 C 
ATOM      5  O   UNL A   1      35.390  31.536  29.435  1.00  0.00    -0.246 OA
BRANCH   4   6
ATOM      6  C   UNL A   1      36.825  29.953  28.515  1.00  0.00     0.060 A 
ATOM      7  C   UNL A   1      37.545  29.897  27.329  1.00  0.00     0.016 A 
ATOM      8  C   UNL A   1      37.476  29.422  29.661  1.00  0.00     0.016 A 
ATOM      9  C   UNL A   1      38.879  29.412  27.322  1.00  0.00     0.010 A 
ATOM     10  C   UNL A   1      38.815  28.950  29.656  1.00  0.00     0.010 A 
ATOM     11  C   UNL A   1      39.567  28.982  28.487  1.00  0.00    -0.014 A 
BRANCH  11  12
ATOM     12  C   UNL A   1      41.028  28.565  28.371  1.00  0.00     0.031 A 
ATOM     13  C   UNL A   1      41.314  27.204  27.823  1.00  0.00     0.074 A 
ATOM     14  C   UNL A   1      42.105  29.369  28.584  1.00  0.00     0.049 A 
ATOM     15  N   UNL A   1      42.459  26.693  27.459  1.00  0.00    -0.248 NA
ATOM     16  C   UNL A   1      40.174  26.280  27.740  1.00  0.00     0.031 C 
ATOM     17  C   UNL A   1      42.077  30.649  29.263  1.00  0.00     0.029 A 
ATOM     18  N   UNL A   1      43.418  29.311  28.129  1.00  0.00    -0.354 N 
ATOM     19  C   UNL A   1      42.198  25.360  27.207  1.00  0.00     0.074 A 
ATOM     20  C   UNL A   1      40.768  25.171  27.333  1.00  0.00     0.031 C 
ATOM     21  C   UNL A   1      43.162  31.372  28.932  1.00  0.00     0.029 A 
ATOM     22  C   UNL A   1      44.096  30.527  28.203  1.00  0.00     0.049 A 
ATOM     23  H   UNL A   1      43.832  28.486  27.787  1.00  0.00     0.167 HD
ATOM     24  C   UNL A   1      43.088  24.362  27.011  1.00  0.00     0.037 A 
ATOM     25  C   UNL A   1      45.331  30.911  27.783  1.00  0.00     0.037 A 
ATOM     26  C   UNL A   1      44.513  24.533  26.968  1.00  0.00     0.049 A 
ATOM     27  C   UNL A   1      46.284  29.800  27.414  1.00  0.00     0.074 A 
ATOM     28  C   UNL A   1      45.487  23.557  26.849  1.00  0.00     0.029 A 
ATOM     29  N   UNL A   1      45.174  25.748  27.065  1.00  0.00    -0.354 N 
ATOM     30  N   UNL A   1      46.026  28.531  27.217  1.00  0.00    -0.248 NA
ATOM     31  C   UNL A   1      47.718  30.135  27.355  1.00  0.00     0.031 C 
ATOM     32  C   UNL A   1      46.737  24.176  26.924  1.00  0.00     0.029 A 
ATOM     33  C   UNL A   1      46.544  25.543  27.022  1.00  0.00     0.049 A 
ATOM     34  H   UNL A   1      44.736  26.625  27.151  1.00  0.00     0.167 HD
ATOM     35  C   UNL A   1      47.261  27.909  27.110  1.00  0.00     0.074 A 
ATOM     36  C   UNL A   1      48.267  28.948  27.140  1.00  0.00     0.031 C 
ATOM     37  C   UNL A   1      47.536  26.585  27.068  1.00  0.00     0.037 A 
BRANCH  24  38
ATOM     38  C   UNL A   1      42.525  22.979  27.015  1.00  0.00     0.057 A 
ATOM     39  C   UNL A   1      42.336  22.241  25.843  1.00  0.00     0.134 A 
ATOM     40  C   UNL A   1      42.115  22.406  28.226  1.00  0.00     0.134 A 
ATOM     41  F   UNL A   1      42.659  22.764  24.651  1.00  0.00    -0.206 F 
ATOM     42  C   UNL A   1      41.744  20.979  25.875  1.00  0.00     0.040 A 
ATOM     43  C   UNL A   1      41.548  21.136  28.274  1.00  0.00     0.040 A 
ATOM     44  F   UNL A   1      42.245  23.082  29.378  1.00  0.00    -0.206 F 
ATOM     45  C   UNL A   1      41.357  20.420  27.094  1.00  0.00     0.006 A 
ENDBRANCH  24  38
BRANCH  25  46
ATOM     46  C   UNL A   1      45.850  32.328  27.825  1.00  0.00     0.057 A 
ATOM     47  C   UNL A   1      46.443  32.854  28.991  1.00  0.00     0.134 A 
ATOM     48  C   UNL A   1      45.677  33.236  26.772  1.00  0.00     0.134 A 
ATOM     49  F   UNL A   1      46.583  32.088  30.083  1.00  0.00    -0.206 F 
ATOM     50  C   UNL A   1      46.833  34.198  29.098  1.00  0.00     0.040 A 
ATOM     51  C   UNL A   1      46.120  34.563  26.842  1.00  0.00     0.040 A 
ATOM     52  F   UNL A   1      45.039  32.867  25.652  1.00  0.00    -0.206 F 
ATOM     53  C   UNL A   1      46.690  35.054  28.012  1.00  0.00     0.006 A 
ENDBRANCH  25  46
BRANCH  37  54
ATOM     54  C   UNL A   1      48.980  26.188  27.080  1.00  0.00     0.057 A 
ATOM     55  C   UNL A   1      49.716  26.059  25.893  1.00  0.00     0.134 A 
ATOM     56  C   UNL A   1      49.652  25.972  28.287  1.00  0.00     0.134 A 
ATOM     57  F   UNL A   1      49.125  26.239  24.702  1.00  0.00    -0.206 F 
ATOM     58  C   UNL A   1      51.067  25.711  25.909  1.00  0.00     0.040 A 
ATOM     59  C   UNL A   1      51.008  25.649  28.317  1.00  0.00     0.040 A 
ATOM     60  F   UNL A   1      49.005  26.087  29.456  1.00  0.00    -0.206 F 
ATOM     61  C   UNL A   1      51.718  25.512  27.124  1.00  0.00     0.006 A 
ENDBRANCH  37  54
ENDBRANCH  11  12
ENDBRANCH   4   6
ENDBRANCH   3   4
ENDBRANCH   2   3
ENDBRANCH   1   2
BRANCH   1  62
ATOM     62  O   UNL A   1      33.061  29.495  24.748  1.00  0.00    -0.462 OA
BRANCH  62  63
ATOM     63  C   UNL A   1      33.228  28.710  23.638  1.00  0.00     0.309 C 
ATOM     64  O   UNL A   1      34.197  28.646  22.915  1.00  0.00    -0.252 OA
BRANCH  63  65
ATOM     65  C   UNL A   1      32.011  27.844  23.628  1.00  0.00     0.100 C 
ATOM     66  C   UNL A   1      30.624  28.297  23.994  1.00  0.00     0.016 C 
ATOM     67  C   UNL A   1      32.185  26.646  24.541  1.00  0.00     0.024 C 
ATOM     68  C   UNL A   1      29.905  26.938  23.903  1.00  0.00     0.010 C 
ATOM     69  C   UNL A   1      30.936  25.822  24.225  1.00  0.00    -0.009 C 
ATOM     70  C   UNL A   1      31.225  24.875  23.018  1.00  0.00     0.030 C 
ATOM     71  C   UNL A   1      30.627  24.816  25.344  1.00  0.00     0.130 C 
ATOM     72  C   UNL A   1      31.185  23.452  23.546  1.00  0.00     0.124 C 
ATOM     73  N   UNL A   1      31.430  23.664  24.945  1.00  0.00    -0.308 N 
BRANCH  73  74
ATOM     74  C   UNL A   1      32.776  23.658  25.282  1.00  0.00     0.410 C 
ATOM     75  O   UNL A   1      33.178  24.065  26.368  1.00  0.00    -0.224 OA
BRANCH  74  76
ATOM     76  O   UNL A   1      33.558  23.129  24.311  1.00  0.00    -0.445 OA
BRANCH  76  77
ATOM     77  C   UNL A   1      34.746  23.895  24.037  1.00  0.00     0.270 C 
BRANCH  77  78
ATOM     78  C   UNL A   1      36.039  23.283  24.545  1.00  0.00    -0.011 A 
ATOM     79  C   UNL A   1      36.411  21.996  24.126  1.00  0.00     0.007 A 
ATOM     80  C   UNL A   1      36.814  23.930  25.521  1.00  0.00     0.007 A 
ATOM     81  C   UNL A   1      37.511  21.356  24.697  1.00  0.00     0.000 A 
ATOM     82  C   UNL A   1      37.904  23.280  26.102  1.00  0.00     0.000 A 
ATOM     83  C   UNL A   1      38.250  21.993  25.691  1.00  0.00     0.000 A 
ENDBRANCH  77  78
ENDBRANCH  76  77
ENDBRANCH  74  76
ENDBRANCH  73  74
ENDBRANCH  63  65
ENDBRANCH  62  63
ENDBRANCH   1  62
TORSDOF 15
ENDMDL
MODEL 3
REMARK VINA RESULT:     -10.9      4.391      7.692
REMARK SMILES O=C(OCCOC(=O)[C@@H]1CC[C@@]2(CCN(C(=O)OCc3ccccc3)C2)C1)c1ccc(-c2c3nc(c(-c4c(F)cccc4F)c4ccc([nH]4)c(-c4c(F)cccc4F)c4nc(c(-c5c(F)cccc5F)c5ccc2[nH]5)C=C4)C=C3)cc1
REMARK SMILES IDX 5 1 4 2 3 3 2 4 1 5 28 6 29 7 81 8 30 9 80 10 31 11 32 12
REMARK SMILES IDX 33 13 74 14 34 15 79 16 73 17 75 18 35 19 78 20 72 21 71 22
REMARK SMILES IDX 36 24 62 25 45 26 61 27 46 28 49 29 60 30 76 31 47 32 48 33
REMARK SMILES IDX 59 35 77 36 50 37 37 38 38 39 43 40 39 41 40 42 42 43 44 44
REMARK SMILES IDX 41 45 63 46 64 47 69 48 65 49 66 50 68 51 70 52 67 53 51 54
REMARK SMILES IDX 52 55 57 56 53 57 54 58 56 59 58 60 55 61 6 62 7 63 8 64
REMARK SMILES IDX 9 65 10 66 27 67 11 68 12 69 13 70 26 71 14 72 15 73 16 74
REMARK SMILES IDX 17 75 18 76 19 77 20 78 21 79 25 80 22 81 24 82 23 83
REMARK H PARENT 75 23 49 34
REMARK Flexibility Score: inf
ROOT
ATOM      1  C   UNL A   1      34.260  21.300  24.267  1.00  0.00     0.274 C 
ENDROOT
BRANCH   1   2
ATOM      2  C   UNL A   1      35.306  21.099  25.364  1.00  0.00     0.275 C 
BRANCH   2   3
ATOM      3  O   UNL A   1      36.653  21.049  24.824  1.00  0.00    -0.458 OA
BRANCH   3   4
ATOM      4  C   UNL A   1      37.919  21.058  25.298  1.00  0.00     0.338 C 
ATOM      5  O   UNL A   1      38.567  20.018  25.154  1.00  0.00    -0.246 OA
BRANCH   4   6
ATOM      6  C   UNL A   1      38.623  22.166  26.047  1.00  0.00     0.060 A 
ATOM      7  C   UNL A   1      39.787  22.062  26.797  1.00  0.00     0.016 A 
ATOM      8  C   UNL A   1      38.051  23.464  25.966  1.00  0.00     0.016 A 
ATOM      9  C   UNL A   1      40.384  23.220  27.358  1.00  0.00     0.010 A 
ATOM     10  C   UNL A   1      38.656  24.625  26.515  1.00  0.00     0.010 A 
ATOM     11  C   UNL A   1      39.871  24.534  27.185  1.00  0.00    -0.014 A 
BRANCH  11  12
ATOM     12  C   UNL A   1      40.648  25.712  27.760  1.00  0.00     0.031 A 
ATOM     13  C   UNL A   1      41.968  26.037  27.139  1.00  0.00     0.074 A 
ATOM     14  C   UNL A   1      40.187  26.589  28.694  1.00  0.00     0.049 A 
ATOM     15  N   UNL A   1      42.723  27.086  27.323  1.00  0.00    -0.248 NA
ATOM     16  C   UNL A   1      42.539  25.016  26.249  1.00  0.00     0.031 C 
ATOM     17  C   UNL A   1      39.029  26.385  29.539  1.00  0.00     0.029 A 
ATOM     18  N   UNL A   1      40.544  27.898  29.001  1.00  0.00    -0.354 N 
ATOM     19  C   UNL A   1      43.902  26.805  26.660  1.00  0.00     0.074 A 
ATOM     20  C   UNL A   1      43.715  25.549  25.964  1.00  0.00     0.031 C 
ATOM     21  C   UNL A   1      38.590  27.564  30.014  1.00  0.00     0.029 A 
ATOM     22  C   UNL A   1      39.569  28.598  29.710  1.00  0.00     0.049 A 
ATOM     23  H   UNL A   1      41.408  28.295  28.742  1.00  0.00     0.167 HD
ATOM     24  C   UNL A   1      45.073  27.474  26.731  1.00  0.00     0.037 A 
ATOM     25  C   UNL A   1      39.484  29.894  30.110  1.00  0.00     0.037 A 
ATOM     26  C   UNL A   1      45.286  28.677  27.487  1.00  0.00     0.049 A 
ATOM     27  C   UNL A   1      40.763  30.695  30.046  1.00  0.00     0.074 A 
ATOM     28  C   UNL A   1      46.466  29.373  27.670  1.00  0.00     0.029 A 
ATOM     29  N   UNL A   1      44.309  29.349  28.205  1.00  0.00    -0.354 N 
ATOM     30  N   UNL A   1      41.887  30.396  29.445  1.00  0.00    -0.248 NA
ATOM     31  C   UNL A   1      40.818  31.940  30.833  1.00  0.00     0.031 C 
ATOM     32  C   UNL A   1      46.216  30.439  28.538  1.00  0.00     0.029 A 
ATOM     33  C   UNL A   1      44.866  30.446  28.843  1.00  0.00     0.049 A 
ATOM     34  H   UNL A   1      43.361  29.087  28.255  1.00  0.00     0.167 HD
ATOM     35  C   UNL A   1      42.801  31.354  29.859  1.00  0.00     0.074 A 
ATOM     36  C   UNL A   1      42.077  32.315  30.663  1.00  0.00     0.031 C 
ATOM     37  C   UNL A   1      44.138  31.387  29.653  1.00  0.00     0.037 A 
BRANCH  24  38
ATOM     38  C   UNL A   1      46.248  26.796  26.106  1.00  0.00     0.057 A 
ATOM     39  C   UNL A   1      47.019  25.849  26.787  1.00  0.00     0.134 A 
ATOM     40  C   UNL A   1      46.638  27.151  24.809  1.00  0.00     0.134 A 
ATOM     41  F   UNL A   1      46.723  25.514  28.052  1.00  0.00    -0.206 F 
ATOM     42  C   UNL A   1      48.150  25.285  26.200  1.00  0.00     0.040 A 
ATOM     43  C   UNL A   1      47.750  26.574  24.201  1.00  0.00     0.040 A 
ATOM     44  F   UNL A   1      45.952  28.076  24.120  1.00  0.00    -0.206 F 
ATOM     45  C   UNL A   1      48.513  25.641  24.900  1.00  0.00     0.006 A 
ENDBRANCH  24  38
BRANCH  25  46
ATOM     46  C   UNL A   1      38.270  30.516  30.757  1.00  0.00     0.057 A 
ATOM     47  C   UNL A   1      37.383  31.326  30.019  1.00  0.00     0.134 A 
ATOM     48  C   UNL A   1      38.009  30.429  32.131  1.00  0.00     0.134 A 
ATOM     49  F   UNL A   1      37.590  31.537  28.710  1.00  0.00    -0.206 F 
ATOM     50  C   UNL A   1      36.311  32.007  30.615  1.00  0.00     0.040 A 
ATOM     51  C   UNL A   1      36.905  31.052  32.728  1.00  0.00     0.040 A 
ATOM     52  F   UNL A   1      38.842  29.763  32.942  1.00  0.00    -0.206 F 
ATOM     53  C   UNL A   1      36.057  31.854  31.973  1.00  0.00     0.006 A 
ENDBRANCH  25  46
BRANCH  37  54
ATOM     54  C   UNL A   1      44.904  32.482  30.329  1.00  0.00     0.057 A 
ATOM     55  C   UNL A   1      45.477  32.303  31.596  1.00  0.00     0.134 A 
ATOM     56  C   UNL A   1      45.106  33.711  29.693  1.00  0.00     0.134 A 
ATOM     57  F   UNL A   1      45.308  31.152  32.265  1.00  0.00    -0.206 F 
ATOM     58  C   UNL A   1      46.210  33.317  32.213  1.00  0.00     0.040 A 
ATOM     59  C   UNL A   1      45.858  34.723  30.288  1.00  0.00     0.040 A 
ATOM     60  F   UNL A   1      44.589  33.941  28.477  1.00  0.00    -0.206 F 
ATOM     61  C   UNL A   1      46.409  34.529  31.555  1.00  0.00     0.006 A 
ENDBRANCH  37  54
ENDBRANCH  11  12
ENDBRANCH   4   6
ENDBRANCH   3   4
ENDBRANCH   2   3
ENDBRANCH   1   2
BRANCH   1  62
ATOM     62  O   UNL A   1      33.708  22.599  24.416  1.00  0.00    -0.462 OA
BRANCH  62  63
ATOM     63  C   UNL A   1      33.947  23.541  23.451  1.00  0.00     0.309 C 
ATOM     64  O   UNL A   1      33.982  23.380  22.251  1.00  0.00    -0.252 OA
BRANCH  63  65
ATOM     65  C   UNL A   1      33.990  24.826  24.211  1.00  0.00     0.100 C 
ATOM     66  C   UNL A   1      34.612  25.008  25.568  1.00  0.00     0.016 C 
ATOM     67  C   UNL A   1      32.594  25.368  24.446  1.00  0.00     0.024 C 
ATOM     68  C   UNL A   1      34.206  26.473  25.814  1.00  0.00     0.010 C 
ATOM     69  C   UNL A   1      32.885  26.746  25.044  1.00  0.00    -0.009 C 
ATOM     70  C   UNL A   1      33.038  27.793  23.896  1.00  0.00     0.030 C 
ATOM     71  C   UNL A   1      31.671  27.296  25.809  1.00  0.00     0.130 C 
ATOM     72  C   UNL A   1      31.870  28.757  24.011  1.00  0.00     0.124 C 
ATOM     73  N   UNL A   1      30.925  27.966  24.748  1.00  0.00    -0.308 N 
BRANCH  73  74
ATOM     74  C   UNL A   1      30.096  27.196  23.946  1.00  0.00     0.410 C 
ATOM     75  O   UNL A   1      29.682  26.097  24.301  1.00  0.00    -0.224 OA
BRANCH  74  76
ATOM     76  O   UNL A   1      29.782  27.806  22.778  1.00  0.00    -0.445 OA
BRANCH  76  77
ATOM     77  C   UNL A   1      28.509  28.479  22.795  1.00  0.00     0.270 C 
BRANCH  77  78
ATOM     78  C   UNL A   1      28.560  29.965  22.489  1.00  0.00    -0.011 A 
ATOM     79  C   UNL A   1      28.837  30.877  23.520  1.00  0.00     0.007 A 
ATOM     80  C   UNL A   1      28.217  30.457  21.220  1.00  0.00     0.007 A 
ATOM     81  C   UNL A   1      28.737  32.251  23.295  1.00  0.00     0.000 A 
ATOM     82  C   UNL A   1      28.102  31.831  21.004  1.00  0.00     0.000 A 
ATOM     83  C   UNL A   1      28.360  32.726  22.041  1.00  0.00     0.000 A 
ENDBRANCH  77  78
ENDBRANCH  76  77
ENDBRANCH  74  76
ENDBRANCH  73  74
ENDBRANCH  63  65
ENDBRANCH  62  63
ENDBRANCH   1  62
TORSDOF 15
ENDMDL
