MODEL 1
REMARK VINA RESULT:     -12.9      0.000      0.000
REMARK SMILES CS(=O)(=O)c1ccc(/C=C(/C(=O)OCCOC(=O)c2ccc(-c3c4nc(c(-c5c(F)cccc5F)c5ccc([nH]5)c(-c5c(F)cccc5F)c5nc(c(-c6c(F)cccc6F)c6ccc3[nH]6)C=C5)C=C4)cc2)c2ccc(-c3ccc(S(C)(=O)=O)cc3)cc2)cc1
REMARK SMILES IDX 14 1 13 2 11 3 12 4 10 5 9 6 8 7 5 8 6 9 90 10 7 11 89 12
REMARK SMILES IDX 2 13 1 14 3 15 4 16 73 17 74 18 88 19 75 20 87 21 76 22
REMARK SMILES IDX 77 23 78 24 86 25 79 26 85 27 80 28 81 29 82 30 83 31 84 32
REMARK SMILES IDX 15 33 16 34 17 35 18 36 19 37 20 38 72 39 21 40 71 41 22 42
REMARK SMILES IDX 23 43 24 44 65 45 25 46 70 47 64 48 66 49 26 50 69 51 63 52
REMARK SMILES IDX 62 53 27 55 53 56 36 57 52 58 37 59 40 60 51 61 67 62 38 63
REMARK SMILES IDX 39 64 50 66 68 67 41 68 28 69 29 70 34 71 30 72 31 73 33 74
REMARK SMILES IDX 35 75 32 76 54 77 55 78 60 79 56 80 57 81 59 82 61 83 58 84
REMARK SMILES IDX 42 85 43 86 48 87 44 88 45 89 47 90 49 91 46 92
REMARK H PARENT 66 54 40 65
REMARK Flexibility Score: inf
ROOT
ATOM      1  C   UNL A   1      32.771  28.445  24.576  1.00  0.00     0.275 C 
ENDROOT
BRANCH   1   2
ATOM      2  O   UNL A   1      32.497  27.036  24.731  1.00  0.00    -0.458 OA
BRANCH   2   3
ATOM      3  C   UNL A   1      32.798  26.265  23.655  1.00  0.00     0.338 C 
ATOM      4  O   UNL A   1      32.972  26.670  22.514  1.00  0.00    -0.246 OA
BRANCH   3   5
ATOM      5  C   UNL A   1      32.960  24.827  24.028  1.00  0.00     0.067 C 
ATOM      6  C   UNL A   1      31.934  23.975  23.805  1.00  0.00     0.024 C 
BRANCH   6   7
ATOM      7  C   UNL A   1      31.967  22.495  23.855  1.00  0.00    -0.025 A 
ATOM      8  C   UNL A   1      32.332  19.709  23.811  1.00  0.00     0.067 A 
ATOM      9  C   UNL A   1      32.187  20.367  25.029  1.00  0.00     0.021 A 
ATOM     10  C   UNL A   1      32.207  20.410  22.612  1.00  0.00     0.021 A 
ATOM     11  C   UNL A   1      31.978  21.746  25.041  1.00  0.00     0.009 A 
ATOM     12  C   UNL A   1      32.026  21.798  22.639  1.00  0.00     0.009 A 
BRANCH   8  13
ATOM     13  S   UNL A   1      32.703  17.973  23.797  1.00  0.00     0.175 S 
ATOM     14  C   UNL A   1      34.408  17.881  24.286  1.00  0.00     0.163 C 
ATOM     15  O   UNL A   1      32.624  17.521  22.424  1.00  0.00    -0.224 OA
ATOM     16  O   UNL A   1      31.892  17.364  24.836  1.00  0.00    -0.224 OA
ENDBRANCH   8  13
ENDBRANCH   6   7
BRANCH   5  17
ATOM     17  C   UNL A   1      34.292  24.386  24.476  1.00  0.00    -0.011 A 
ATOM     18  C   UNL A   1      34.615  24.440  25.835  1.00  0.00     0.009 A 
ATOM     19  C   UNL A   1      35.225  23.863  23.579  1.00  0.00     0.009 A 
ATOM     20  C   UNL A   1      35.845  23.954  26.294  1.00  0.00     0.009 A 
ATOM     21  C   UNL A   1      36.456  23.384  24.044  1.00  0.00     0.009 A 
ATOM     22  C   UNL A   1      36.798  23.419  25.410  1.00  0.00    -0.018 A 
BRANCH  22  23
ATOM     23  C   UNL A   1      38.105  22.913  25.897  1.00  0.00    -0.018 A 
ATOM     24  C   UNL A   1      38.525  21.594  25.633  1.00  0.00     0.010 A 
ATOM     25  C   UNL A   1      38.989  23.737  26.623  1.00  0.00     0.010 A 
ATOM     26  C   UNL A   1      39.775  21.126  26.047  1.00  0.00     0.021 A 
ATOM     27  C   UNL A   1      40.246  23.283  27.033  1.00  0.00     0.021 A 
ATOM     28  C   UNL A   1      40.633  21.980  26.736  1.00  0.00     0.067 A 
BRANCH  28  29
ATOM     29  S   UNL A   1      42.255  21.406  27.178  1.00  0.00     0.175 S 
ATOM     30  C   UNL A   1      42.019  19.684  27.502  1.00  0.00     0.163 C 
ATOM     31  O   UNL A   1      43.085  21.546  25.996  1.00  0.00    -0.224 OA
ATOM     32  O   UNL A   1      42.628  22.054  28.422  1.00  0.00    -0.224 OA
ENDBRANCH  28  29
ENDBRANCH  22  23
ENDBRANCH   5  17
ENDBRANCH   3   5
ENDBRANCH   2   3
ENDBRANCH   1   2
BRANCH   1  33
ATOM     33  C   UNL A   1      31.771  29.279  25.376  1.00  0.00     0.275 C 
BRANCH  33  34
ATOM     34  O   UNL A   1      32.262  29.478  26.714  1.00  0.00    -0.458 OA
BRANCH  34  35
ATOM     35  C   UNL A   1      32.778  30.698  26.983  1.00  0.00     0.338 C 
ATOM     36  O   UNL A   1      32.191  31.772  26.951  1.00  0.00    -0.246 OA
BRANCH  35  37
ATOM     37  C   UNL A   1      34.196  30.590  27.375  1.00  0.00     0.060 A 
ATOM     38  C   UNL A   1      34.771  29.343  27.590  1.00  0.00     0.016 A 
ATOM     39  C   UNL A   1      34.913  31.744  27.698  1.00  0.00     0.016 A 
ATOM     40  C   UNL A   1      35.990  29.251  28.265  1.00  0.00     0.010 A 
ATOM     41  C   UNL A   1      36.189  31.641  28.270  1.00  0.00     0.010 A 
ATOM     42  C   UNL A   1      36.722  30.391  28.631  1.00  0.00    -0.014 A 
BRANCH  42  43
ATOM     43  C   UNL A   1      37.982  30.282  29.441  1.00  0.00     0.031 A 
ATOM     44  C   UNL A   1      39.224  29.634  28.862  1.00  0.00     0.074 A 
ATOM     45  C   UNL A   1      38.064  30.782  30.693  1.00  0.00     0.049 A 
ATOM     46  N   UNL A   1      40.312  29.226  29.472  1.00  0.00    -0.248 NA
ATOM     47  C   UNL A   1      39.237  29.396  27.410  1.00  0.00     0.031 C 
ATOM     48  C   UNL A   1      37.000  31.495  31.400  1.00  0.00     0.029 A 
ATOM     49  N   UNL A   1      39.105  30.775  31.593  1.00  0.00    -0.354 N 
ATOM     50  C   UNL A   1      41.084  28.596  28.501  1.00  0.00     0.074 A 
ATOM     51  C   UNL A   1      40.355  28.700  27.256  1.00  0.00     0.031 C 
ATOM     52  C   UNL A   1      37.462  31.924  32.581  1.00  0.00     0.029 A 
ATOM     53  C   UNL A   1      38.810  31.403  32.779  1.00  0.00     0.049 A 
ATOM     54  H   UNL A   1      39.978  30.360  31.406  1.00  0.00     0.167 HD
ATOM     55  C   UNL A   1      42.285  27.982  28.637  1.00  0.00     0.037 A 
ATOM     56  C   UNL A   1      39.502  31.503  33.929  1.00  0.00     0.037 A 
ATOM     57  C   UNL A   1      43.065  27.967  29.849  1.00  0.00     0.049 A 
ATOM     58  C   UNL A   1      40.821  30.807  34.070  1.00  0.00     0.074 A 
ATOM     59  C   UNL A   1      44.338  27.457  30.044  1.00  0.00     0.029 A 
ATOM     60  N   UNL A   1      42.655  28.491  31.063  1.00  0.00    -0.354 N 
ATOM     61  N   UNL A   1      41.460  30.071  33.194  1.00  0.00    -0.248 NA
ATOM     62  C   UNL A   1      41.497  30.923  35.369  1.00  0.00     0.031 C 
ATOM     63  C   UNL A   1      44.700  27.677  31.377  1.00  0.00     0.029 A 
ATOM     64  C   UNL A   1      43.671  28.364  31.997  1.00  0.00     0.049 A 
ATOM     65  H   UNL A   1      41.774  28.895  31.236  1.00  0.00     0.167 HD
ATOM     66  C   UNL A   1      42.616  29.644  33.833  1.00  0.00     0.074 A 
ATOM     67  C   UNL A   1      42.593  30.206  35.167  1.00  0.00     0.031 C 
ATOM     68  C   UNL A   1      43.617  28.874  33.343  1.00  0.00     0.037 A 
BRANCH  55  69
ATOM     69  C   UNL A   1      42.842  27.252  27.447  1.00  0.00     0.057 A 
ATOM     70  C   UNL A   1      43.498  27.911  26.400  1.00  0.00     0.134 A 
ATOM     71  C   UNL A   1      42.781  25.853  27.391  1.00  0.00     0.134 A 
ATOM     72  F   UNL A   1      43.586  29.250  26.391  1.00  0.00    -0.206 F 
ATOM     73  C   UNL A   1      44.054  27.205  25.330  1.00  0.00     0.040 A 
ATOM     74  C   UNL A   1      43.355  25.135  26.340  1.00  0.00     0.040 A 
ATOM     75  F   UNL A   1      42.178  25.159  28.370  1.00  0.00    -0.206 F 
ATOM     76  C   UNL A   1      43.990  25.813  25.304  1.00  0.00     0.006 A 
ENDBRANCH  55  69
BRANCH  56  77
ATOM     77  C   UNL A   1      38.917  32.253  35.068  1.00  0.00     0.057 A 
ATOM     78  C   UNL A   1      38.250  31.588  36.102  1.00  0.00     0.134 A 
ATOM     79  C   UNL A   1      39.040  33.645  35.165  1.00  0.00     0.134 A 
ATOM     80  F   UNL A   1      38.088  30.259  36.053  1.00  0.00    -0.206 F 
ATOM     81  C   UNL A   1      37.724  32.280  37.193  1.00  0.00     0.040 A 
ATOM     82  C   UNL A   1      38.547  34.346  36.264  1.00  0.00     0.040 A 
ATOM     83  F   UNL A   1      39.676  34.335  34.207  1.00  0.00    -0.206 F 
ATOM     84  C   UNL A   1      37.882  33.663  37.281  1.00  0.00     0.006 A 
ENDBRANCH  56  77
BRANCH  68  85
ATOM     85  C   UNL A   1      44.779  28.616  34.252  1.00  0.00     0.057 A 
ATOM     86  C   UNL A   1      44.831  27.486  35.077  1.00  0.00     0.134 A 
ATOM     87  C   UNL A   1      45.859  29.507  34.299  1.00  0.00     0.134 A 
ATOM     88  F   UNL A   1      43.818  26.606  35.089  1.00  0.00    -0.206 F 
ATOM     89  C   UNL A   1      45.911  27.261  35.932  1.00  0.00     0.040 A 
ATOM     90  C   UNL A   1      46.952  29.282  35.135  1.00  0.00     0.040 A 
ATOM     91  F   UNL A   1      45.867  30.605  33.528  1.00  0.00    -0.206 F 
ATOM     92  C   UNL A   1      46.978  28.159  35.960  1.00  0.00     0.006 A 
ENDBRANCH  68  85
ENDBRANCH  42  43
ENDBRANCH  35  37
ENDBRANCH  34  35
ENDBRANCH  33  34
ENDBRANCH   1  33
TORSDOF 16
ENDMDL
MODEL 2
REMARK VINA RESULT:     -12.5      0.822      5.973
REMARK SMILES CS(=O)(=O)c1ccc(/C=C(/C(=O)OCCOC(=O)c2ccc(-c3c4nc(c(-c5c(F)cccc5F)c5ccc([nH]5)c(-c5c(F)cccc5F)c5nc(c(-c6c(F)cccc6F)c6ccc3[nH]6)C=C5)C=C4)cc2)c2ccc(-c3ccc(S(C)(=O)=O)cc3)cc2)cc1
REMARK SMILES IDX 14 1 13 2 11 3 12 4 10 5 9 6 8 7 5 8 6 9 90 10 7 11 89 12
REMARK SMILES IDX 2 13 1 14 3 15 4 16 73 17 74 18 88 19 75 20 87 21 76 22
REMARK SMILES IDX 77 23 78 24 86 25 79 26 85 27 80 28 81 29 82 30 83 31 84 32
REMARK SMILES IDX 15 33 16 34 17 35 18 36 19 37 20 38 72 39 21 40 71 41 22 42
REMARK SMILES IDX 23 43 24 44 65 45 25 46 70 47 64 48 66 49 26 50 69 51 63 52
REMARK SMILES IDX 62 53 27 55 53 56 36 57 52 58 37 59 40 60 51 61 67 62 38 63
REMARK SMILES IDX 39 64 50 66 68 67 41 68 28 69 29 70 34 71 30 72 31 73 33 74
REMARK SMILES IDX 35 75 32 76 54 77 55 78 60 79 56 80 57 81 59 82 61 83 58 84
REMARK SMILES IDX 42 85 43 86 48 87 44 88 45 89 47 90 49 91 46 92
REMARK H PARENT 66 54 40 65
REMARK Flexibility Score: inf
ROOT
ATOM      1  C   UNL A   1      32.532  28.114  23.389  1.00  0.00     0.275 C 
ENDROOT
BRANCH   1   2
ATOM      2  O   UNL A   1      32.218  26.706  23.422  1.00  0.00    -0.458 OA
BRANCH   2   3
ATOM      3  C   UNL A   1      33.042  25.910  22.694  1.00  0.00     0.338 C 
ATOM      4  O   UNL A   1      33.665  26.252  21.698  1.00  0.00    -0.246 OA
BRANCH   3   5
ATOM      5  C   UNL A   1      33.164  24.544  23.286  1.00  0.00     0.067 C 
ATOM      6  C   UNL A   1      32.143  23.671  23.130  1.00  0.00     0.024 C 
BRANCH   6   7
ATOM      7  C   UNL A   1      32.156  22.215  23.402  1.00  0.00    -0.025 A 
ATOM      8  C   UNL A   1      32.467  19.444  23.750  1.00  0.00     0.067 A 
ATOM      9  C   UNL A   1      32.449  20.281  24.862  1.00  0.00     0.021 A 
ATOM     10  C   UNL A   1      32.241  19.961  22.474  1.00  0.00     0.021 A 
ATOM     11  C   UNL A   1      32.266  21.653  24.682  1.00  0.00     0.009 A 
ATOM     12  C   UNL A   1      32.087  21.341  22.306  1.00  0.00     0.009 A 
BRANCH   8  13
ATOM     13  S   UNL A   1      32.805  17.715  23.966  1.00  0.00     0.175 S 
ATOM     14  C   UNL A   1      34.496  17.659  24.508  1.00  0.00     0.163 C 
ATOM     15  O   UNL A   1      32.750  17.093  22.661  1.00  0.00    -0.224 OA
ATOM     16  O   UNL A   1      31.958  17.256  25.053  1.00  0.00    -0.224 OA
ENDBRANCH   8  13
ENDBRANCH   6   7
BRANCH   5  17
ATOM     17  C   UNL A   1      34.461  24.171  23.876  1.00  0.00    -0.011 A 
ATOM     18  C   UNL A   1      34.745  24.527  25.198  1.00  0.00     0.009 A 
ATOM     19  C   UNL A   1      35.397  23.421  23.161  1.00  0.00     0.009 A 
ATOM     20  C   UNL A   1      35.939  24.118  25.804  1.00  0.00     0.009 A 
ATOM     21  C   UNL A   1      36.591  23.019  23.773  1.00  0.00     0.009 A 
ATOM     22  C   UNL A   1      36.893  23.357  25.106  1.00  0.00    -0.018 A 
BRANCH  22  23
ATOM     23  C   UNL A   1      38.161  22.932  25.747  1.00  0.00    -0.018 A 
ATOM     24  C   UNL A   1      38.627  21.606  25.641  1.00  0.00     0.010 A 
ATOM     25  C   UNL A   1      38.961  23.839  26.469  1.00  0.00     0.010 A 
ATOM     26  C   UNL A   1      39.845  21.209  26.202  1.00  0.00     0.021 A 
ATOM     27  C   UNL A   1      40.187  23.457  27.026  1.00  0.00     0.021 A 
ATOM     28  C   UNL A   1      40.623  22.143  26.882  1.00  0.00     0.067 A 
BRANCH  28  29
ATOM     29  S   UNL A   1      42.209  21.654  27.513  1.00  0.00     0.175 S 
ATOM     30  C   UNL A   1      42.068  19.901  27.693  1.00  0.00     0.163 C 
ATOM     31  O   UNL A   1      43.179  21.937  26.470  1.00  0.00    -0.224 OA
ATOM     32  O   UNL A   1      42.357  22.236  28.834  1.00  0.00    -0.224 OA
ENDBRANCH  28  29
ENDBRANCH  22  23
ENDBRANCH   5  17
ENDBRANCH   3   5
ENDBRANCH   2   3
ENDBRANCH   1   2
BRANCH   1  33
ATOM     33  C   UNL A   1      32.133  28.786  24.703  1.00  0.00     0.275 C 
BRANCH  33  34
ATOM     34  O   UNL A   1      33.163  29.704  25.114  1.00  0.00    -0.458 OA
BRANCH  34  35
ATOM     35  C   UNL A   1      32.867  30.496  26.168  1.00  0.00     0.338 C 
ATOM     36  O   UNL A   1      31.885  31.216  26.299  1.00  0.00    -0.246 OA
BRANCH  35  37
ATOM     37  C   UNL A   1      33.894  30.369  27.220  1.00  0.00     0.060 A 
ATOM     38  C   UNL A   1      34.581  31.491  27.667  1.00  0.00     0.016 A 
ATOM     39  C   UNL A   1      34.296  29.101  27.643  1.00  0.00     0.016 A 
ATOM     40  C   UNL A   1      35.754  31.332  28.408  1.00  0.00     0.010 A 
ATOM     41  C   UNL A   1      35.409  28.960  28.484  1.00  0.00     0.010 A 
ATOM     42  C   UNL A   1      36.204  30.069  28.824  1.00  0.00    -0.014 A 
BRANCH  42  43
ATOM     43  C   UNL A   1      37.516  29.904  29.535  1.00  0.00     0.031 A 
ATOM     44  C   UNL A   1      37.685  30.363  30.970  1.00  0.00     0.074 A 
ATOM     45  C   UNL A   1      38.574  29.315  28.939  1.00  0.00     0.049 A 
ATOM     46  N   UNL A   1      38.785  30.534  31.665  1.00  0.00    -0.248 NA
ATOM     47  C   UNL A   1      36.459  30.692  31.714  1.00  0.00     0.031 C 
ATOM     48  C   UNL A   1      38.591  28.751  27.589  1.00  0.00     0.029 A 
ATOM     49  N   UNL A   1      39.848  29.080  29.404  1.00  0.00    -0.354 N 
ATOM     50  C   UNL A   1      38.390  31.084  32.880  1.00  0.00     0.074 A 
ATOM     51  C   UNL A   1      36.948  31.193  32.841  1.00  0.00     0.031 C 
ATOM     52  C   UNL A   1      39.776  28.170  27.364  1.00  0.00     0.029 A 
ATOM     53  C   UNL A   1      40.654  28.435  28.498  1.00  0.00     0.049 A 
ATOM     54  H   UNL A   1      40.152  29.349  30.301  1.00  0.00     0.167 HD
ATOM     55  C   UNL A   1      39.158  31.470  33.929  1.00  0.00     0.037 A 
ATOM     56  C   UNL A   1      41.967  28.139  28.527  1.00  0.00     0.037 A 
ATOM     57  C   UNL A   1      40.583  31.268  34.018  1.00  0.00     0.049 A 
ATOM     58  C   UNL A   1      42.807  28.584  29.685  1.00  0.00     0.074 A 
ATOM     59  C   UNL A   1      41.423  31.535  35.086  1.00  0.00     0.029 A 
ATOM     60  N   UNL A   1      41.375  30.742  33.011  1.00  0.00    -0.354 N 
ATOM     61  N   UNL A   1      42.448  29.255  30.752  1.00  0.00    -0.248 NA
ATOM     62  C   UNL A   1      44.239  28.266  29.626  1.00  0.00     0.031 C 
ATOM     63  C   UNL A   1      42.723  31.166  34.727  1.00  0.00     0.029 A 
ATOM     64  C   UNL A   1      42.683  30.628  33.452  1.00  0.00     0.049 A 
ATOM     65  H   UNL A   1      41.055  30.488  32.115  1.00  0.00     0.167 HD
ATOM     66  C   UNL A   1      43.607  29.431  31.494  1.00  0.00     0.074 A 
ATOM     67  C   UNL A   1      44.680  28.793  30.760  1.00  0.00     0.031 C 
ATOM     68  C   UNL A   1      43.759  30.046  32.691  1.00  0.00     0.037 A 
BRANCH  55  69
ATOM     69  C   UNL A   1      38.486  32.170  35.076  1.00  0.00     0.057 A 
ATOM     70  C   UNL A   1      38.137  31.509  36.259  1.00  0.00     0.134 A 
ATOM     71  C   UNL A   1      38.253  33.551  35.014  1.00  0.00     0.134 A 
ATOM     72  F   UNL A   1      38.330  30.187  36.379  1.00  0.00    -0.206 F 
ATOM     73  C   UNL A   1      37.561  32.193  37.333  1.00  0.00     0.040 A 
ATOM     74  C   UNL A   1      37.701  34.250  36.090  1.00  0.00     0.040 A 
ATOM     75  F   UNL A   1      38.577  34.247  33.914  1.00  0.00    -0.206 F 
ATOM     76  C   UNL A   1      37.350  33.569  37.252  1.00  0.00     0.006 A 
ENDBRANCH  55  69
BRANCH  56  77
ATOM     77  C   UNL A   1      42.579  27.427  27.378  1.00  0.00     0.057 A 
ATOM     78  C   UNL A   1      42.780  26.043  27.414  1.00  0.00     0.134 A 
ATOM     79  C   UNL A   1      42.946  28.106  26.211  1.00  0.00     0.134 A 
ATOM     80  F   UNL A   1      42.463  25.345  28.512  1.00  0.00    -0.206 F 
ATOM     81  C   UNL A   1      43.327  25.359  26.328  1.00  0.00     0.040 A 
ATOM     82  C   UNL A   1      43.464  27.432  25.106  1.00  0.00     0.040 A 
ATOM     83  F   UNL A   1      42.770  29.432  26.116  1.00  0.00    -0.206 F 
ATOM     84  C   UNL A   1      43.660  26.053  25.165  1.00  0.00     0.006 A 
ENDBRANCH  56  77
BRANCH  68  85
ATOM     85  C   UNL A   1      45.133  30.037  33.288  1.00  0.00     0.057 A 
ATOM     86  C   UNL A   1      46.033  31.088  33.078  1.00  0.00     0.134 A 
ATOM     87  C   UNL A   1      45.557  28.966  34.084  1.00  0.00     0.134 A 
ATOM     88  F   UNL A   1      45.690  32.134  32.310  1.00  0.00    -0.206 F 
ATOM     89  C   UNL A   1      47.317  31.065  33.625  1.00  0.00     0.040 A 
ATOM     90  C   UNL A   1      46.830  28.941  34.652  1.00  0.00     0.040 A 
ATOM     91  F   UNL A   1      44.737  27.932  34.324  1.00  0.00    -0.206 F 
ATOM     92  C   UNL A   1      47.717  29.990  34.418  1.00  0.00     0.006 A 
ENDBRANCH  68  85
ENDBRANCH  42  43
ENDBRANCH  35  37
ENDBRANCH  34  35
ENDBRANCH  33  34
ENDBRANCH   1  33
TORSDOF 16
ENDMDL
MODEL 3
REMARK VINA RESULT:     -11.7      6.349     12.802
REMARK SMILES CS(=O)(=O)c1ccc(/C=C(/C(=O)OCCOC(=O)c2ccc(-c3c4nc(c(-c5c(F)cccc5F)c5ccc([nH]5)c(-c5c(F)cccc5F)c5nc(c(-c6c(F)cccc6F)c6ccc3[nH]6)C=C5)C=C4)cc2)c2ccc(-c3ccc(S(C)(=O)=O)cc3)cc2)cc1
REMARK SMILES IDX 14 1 13 2 11 3 12 4 10 5 9 6 8 7 5 8 6 9 90 10 7 11 89 12
REMARK SMILES IDX 2 13 1 14 3 15 4 16 73 17 74 18 88 19 75 20 87 21 76 22
REMARK SMILES IDX 77 23 78 24 86 25 79 26 85 27 80 28 81 29 82 30 83 31 84 32
REMARK SMILES IDX 15 33 16 34 17 35 18 36 19 37 20 38 72 39 21 40 71 41 22 42
REMARK SMILES IDX 23 43 24 44 65 45 25 46 70 47 64 48 66 49 26 50 69 51 63 52
REMARK SMILES IDX 62 53 27 55 53 56 36 57 52 58 37 59 40 60 51 61 67 62 38 63
REMARK SMILES IDX 39 64 50 66 68 67 41 68 28 69 29 70 34 71 30 72 31 73 33 74
REMARK SMILES IDX 35 75 32 76 54 77 55 78 60 79 56 80 57 81 59 82 61 83 58 84
REMARK SMILES IDX 42 85 43 86 48 87 44 88 45 89 47 90 49 91 46 92
REMARK H PARENT 66 54 40 65
REMARK Flexibility Score: inf
ROOT
ATOM      1  C   UNL A   1      50.764  20.470  33.739  1.00  0.00     0.275 C 
ENDROOT
BRANCH   1   2
ATOM      2  O   UNL A   1      49.649  20.003  34.529  1.00  0.00    -0.458 OA
BRANCH   2   3
ATOM      3  C   UNL A   1      48.453  19.978  33.886  1.00  0.00     0.338 C 
ATOM      4  O   UNL A   1      48.248  19.491  32.783  1.00  0.00    -0.246 OA
BRANCH   3   5
ATOM      5  C   UNL A   1      47.362  20.572  34.716  1.00  0.00     0.067 C 
ATOM      6  C   UNL A   1      46.933  21.822  34.433  1.00  0.00     0.024 C 
BRANCH   6   7
ATOM      7  C   UNL A   1      45.716  22.493  34.945  1.00  0.00    -0.025 A 
ATOM      8  C   UNL A   1      43.571  24.053  35.875  1.00  0.00     0.067 A 
ATOM      9  C   UNL A   1      43.417  23.282  34.726  1.00  0.00     0.021 A 
ATOM     10  C   UNL A   1      44.752  23.986  36.616  1.00  0.00     0.021 A 
ATOM     11  C   UNL A   1      44.478  22.489  34.287  1.00  0.00     0.009 A 
ATOM     12  C   UNL A   1      45.817  23.208  36.148  1.00  0.00     0.009 A 
BRANCH   8  13
ATOM     13  S   UNL A   1      42.263  25.143  36.375  1.00  0.00     0.175 S 
ATOM     14  C   UNL A   1      42.105  26.292  35.030  1.00  0.00     0.163 C 
ATOM     15  O   UNL A   1      42.730  25.887  37.525  1.00  0.00    -0.224 OA
ATOM     16  O   UNL A   1      41.053  24.341  36.440  1.00  0.00    -0.224 OA
ENDBRANCH   8  13
ENDBRANCH   6   7
BRANCH   5  17
ATOM     17  C   UNL A   1      46.703  19.697  35.702  1.00  0.00    -0.011 A 
ATOM     18  C   UNL A   1      47.096  19.753  37.043  1.00  0.00     0.009 A 
ATOM     19  C   UNL A   1      45.657  18.849  35.338  1.00  0.00     0.009 A 
ATOM     20  C   UNL A   1      46.433  18.988  38.010  1.00  0.00     0.009 A 
ATOM     21  C   UNL A   1      45.001  18.083  36.310  1.00  0.00     0.009 A 
ATOM     22  C   UNL A   1      45.373  18.131  37.668  1.00  0.00    -0.018 A 
BRANCH  22  23
ATOM     23  C   UNL A   1      44.677  17.315  38.693  1.00  0.00    -0.018 A 
ATOM     24  C   UNL A   1      44.808  17.598  40.067  1.00  0.00     0.010 A 
ATOM     25  C   UNL A   1      43.841  16.239  38.334  1.00  0.00     0.010 A 
ATOM     26  C   UNL A   1      44.117  16.864  41.036  1.00  0.00     0.021 A 
ATOM     27  C   UNL A   1      43.137  15.504  39.293  1.00  0.00     0.021 A 
ATOM     28  C   UNL A   1      43.276  15.827  40.640  1.00  0.00     0.067 A 
BRANCH  28  29
ATOM     29  S   UNL A   1      42.333  14.958  41.869  1.00  0.00     0.175 S 
ATOM     30  C   UNL A   1      41.864  13.459  41.058  1.00  0.00     0.163 C 
ATOM     31  O   UNL A   1      43.249  14.635  42.947  1.00  0.00    -0.224 OA
ATOM     32  O   UNL A   1      41.130  15.729  42.128  1.00  0.00    -0.224 OA
ENDBRANCH  28  29
ENDBRANCH  22  23
ENDBRANCH   5  17
ENDBRANCH   3   5
ENDBRANCH   2   3
ENDBRANCH   1   2
BRANCH   1  33
ATOM     33  C   UNL A   1      51.027  21.952  34.004  1.00  0.00     0.275 C 
BRANCH  33  34
ATOM     34  O   UNL A   1      50.600  22.733  32.872  1.00  0.00    -0.458 OA
BRANCH  34  35
ATOM     35  C   UNL A   1      50.875  24.055  32.925  1.00  0.00     0.338 C 
ATOM     36  O   UNL A   1      51.975  24.576  33.059  1.00  0.00    -0.246 OA
BRANCH  35  37
ATOM     37  C   UNL A   1      49.644  24.851  32.759  1.00  0.00     0.060 A 
ATOM     38  C   UNL A   1      48.664  24.841  33.744  1.00  0.00     0.016 A 
ATOM     39  C   UNL A   1      49.386  25.476  31.537  1.00  0.00     0.016 A 
ATOM     40  C   UNL A   1      47.385  25.318  33.452  1.00  0.00     0.010 A 
ATOM     41  C   UNL A   1      48.133  26.058  31.296  1.00  0.00     0.010 A 
ATOM     42  C   UNL A   1      47.083  25.926  32.223  1.00  0.00    -0.014 A 
BRANCH  42  43
ATOM     43  C   UNL A   1      45.682  26.347  31.885  1.00  0.00     0.031 A 
ATOM     44  C   UNL A   1      44.841  25.539  30.918  1.00  0.00     0.074 A 
ATOM     45  C   UNL A   1      45.114  27.433  32.451  1.00  0.00     0.049 A 
ATOM     46  N   UNL A   1      43.721  25.864  30.316  1.00  0.00    -0.248 NA
ATOM     47  C   UNL A   1      45.330  24.196  30.567  1.00  0.00     0.031 C 
ATOM     48  C   UNL A   1      45.737  28.302  33.450  1.00  0.00     0.029 A 
ATOM     49  N   UNL A   1      43.867  27.987  32.271  1.00  0.00    -0.354 N 
ATOM     50  C   UNL A   1      43.435  24.818  29.445  1.00  0.00     0.074 A 
ATOM     51  C   UNL A   1      44.481  23.833  29.616  1.00  0.00     0.031 C 
ATOM     52  C   UNL A   1      44.852  29.223  33.852  1.00  0.00     0.029 A 
ATOM     53  C   UNL A   1      43.644  29.100  33.045  1.00  0.00     0.049 A 
ATOM     54  H   UNL A   1      43.199  27.621  31.648  1.00  0.00     0.167 HD
ATOM     55  C   UNL A   1      42.400  24.692  28.578  1.00  0.00     0.037 A 
ATOM     56  C   UNL A   1      42.621  29.975  33.071  1.00  0.00     0.037 A 
ATOM     57  C   UNL A   1      41.300  25.617  28.476  1.00  0.00     0.049 A 
ATOM     58  C   UNL A   1      41.492  29.834  32.097  1.00  0.00     0.074 A 
ATOM     59  C   UNL A   1      40.159  25.513  27.698  1.00  0.00     0.029 A 
ATOM     60  N   UNL A   1      41.194  26.806  29.179  1.00  0.00    -0.354 N 
ATOM     61  N   UNL A   1      41.320  28.931  31.163  1.00  0.00    -0.248 NA
ATOM     62  C   UNL A   1      40.435  30.851  32.155  1.00  0.00     0.031 C 
ATOM     63  C   UNL A   1      39.361  26.637  27.933  1.00  0.00     0.029 A 
ATOM     64  C   UNL A   1      39.984  27.417  28.892  1.00  0.00     0.049 A 
ATOM     65  H   UNL A   1      41.878  27.163  29.792  1.00  0.00     0.167 HD
ATOM     66  C   UNL A   1      40.133  29.267  30.528  1.00  0.00     0.074 A 
ATOM     67  C   UNL A   1      39.623  30.452  31.185  1.00  0.00     0.031 C 
ATOM     68  C   UNL A   1      39.511  28.631  29.507  1.00  0.00     0.037 A 
BRANCH  55  69
ATOM     69  C   UNL A   1      42.402  23.515  27.643  1.00  0.00     0.057 A 
ATOM     70  C   UNL A   1      41.748  22.315  27.944  1.00  0.00     0.134 A 
ATOM     71  C   UNL A   1      43.012  23.620  26.385  1.00  0.00     0.134 A 
ATOM     72  F   UNL A   1      41.148  22.150  29.134  1.00  0.00    -0.206 F 
ATOM     73  C   UNL A   1      41.718  21.253  27.037  1.00  0.00     0.040 A 
ATOM     74  C   UNL A   1      42.968  22.575  25.460  1.00  0.00     0.040 A 
ATOM     75  F   UNL A   1      43.645  24.748  26.027  1.00  0.00    -0.206 F 
ATOM     76  C   UNL A   1      42.323  21.386  25.787  1.00  0.00     0.006 A 
ENDBRANCH  55  69
BRANCH  56  77
ATOM     77  C   UNL A   1      42.657  31.109  34.028  1.00  0.00     0.057 A 
ATOM     78  C   UNL A   1      42.127  30.981  35.316  1.00  0.00     0.134 A 
ATOM     79  C   UNL A   1      43.248  32.332  33.688  1.00  0.00     0.134 A 
ATOM     80  F   UNL A   1      41.533  29.839  35.689  1.00  0.00    -0.206 F 
ATOM     81  C   UNL A   1      42.182  32.030  36.233  1.00  0.00     0.040 A 
ATOM     82  C   UNL A   1      43.339  33.379  34.605  1.00  0.00     0.040 A 
ATOM     83  F   UNL A   1      43.780  32.510  32.470  1.00  0.00    -0.206 F 
ATOM     84  C   UNL A   1      42.801  33.230  35.881  1.00  0.00     0.006 A 
ENDBRANCH  56  77
BRANCH  68  85
ATOM     85  C   UNL A   1      38.199  29.196  29.055  1.00  0.00     0.057 A 
ATOM     86  C   UNL A   1      37.071  29.188  29.884  1.00  0.00     0.134 A 
ATOM     87  C   UNL A   1      38.066  29.755  27.778  1.00  0.00     0.134 A 
ATOM     88  F   UNL A   1      37.133  28.650  31.111  1.00  0.00    -0.206 F 
ATOM     89  C   UNL A   1      35.848  29.703  29.449  1.00  0.00     0.040 A 
ATOM     90  C   UNL A   1      36.854  30.290  27.341  1.00  0.00     0.040 A 
ATOM     91  F   UNL A   1      39.113  29.794  26.941  1.00  0.00    -0.206 F 
ATOM     92  C   UNL A   1      35.739  30.259  28.176  1.00  0.00     0.006 A 
ENDBRANCH  68  85
ENDBRANCH  42  43
ENDBRANCH  35  37
ENDBRANCH  34  35
ENDBRANCH  33  34
ENDBRANCH   1  33
TORSDOF 16
ENDMDL
