MODEL 1
REMARK VINA RESULT:     -10.1      0.000      0.000
REMARK SMILES Cc1ccc2c(c1)C=C(C(=O)OCCOC(=O)c1ccc(-c3c4nc(c(-c5c(F)cccc5F)c5ccc([nH]5)c(-c5c(F)cccc5F)c5nc(c(-c6c(F)cccc6F)c6ccc3[nH]6)C=C5)C=C4)cc1)[C@@H](C(F)(F)F)O2
REMARK SMILES IDX 14 1 13 2 12 3 10 4 11 5 9 6 1 7 2 8 3 9 7 10 4 11 6 12 5 13
REMARK SMILES IDX 8 14 77 15 72 16 73 17 74 18 75 19 76 20 15 21 16 22 17 23
REMARK SMILES IDX 18 24 19 25 71 26 20 27 70 28 21 29 22 30 23 31 64 32 24 33
REMARK SMILES IDX 69 34 63 35 65 36 25 37 68 38 62 39 61 40 26 42 52 43 35 44
REMARK SMILES IDX 51 45 36 46 39 47 50 48 66 49 37 50 38 51 49 53 67 54 40 55
REMARK SMILES IDX 27 56 28 57 33 58 29 59 30 60 32 61 34 62 31 63 53 64 54 65
REMARK SMILES IDX 59 66 55 67 56 68 58 69 60 70 57 71 41 72 42 73 47 74 43 75
REMARK SMILES IDX 44 76 46 77 48 78 45 79
REMARK H PARENT 65 41 39 52
REMARK Flexibility Score: inf
ROOT
ATOM      1  C   UNL A   1      33.631  33.706  28.319  1.00  0.00     0.275 C 
ENDROOT
BRANCH   1   2
ATOM      2  C   UNL A   1      34.327  34.818  29.101  1.00  0.00     0.275 C 
BRANCH   2   3
ATOM      3  O   UNL A   1      34.147  34.649  30.523  1.00  0.00    -0.459 OA
BRANCH   3   4
ATOM      4  C   UNL A   1      34.787  33.591  31.071  1.00  0.00     0.338 C 
ATOM      5  O   UNL A   1      34.389  32.438  31.113  1.00  0.00    -0.246 OA
BRANCH   4   6
ATOM      6  C   UNL A   1      36.097  34.005  31.608  1.00  0.00     0.087 C 
ATOM      7  C   UNL A   1      42.105  33.986  30.228  1.00  0.00     0.044 C 
ATOM      8  C   UNL A   1      40.886  34.185  31.080  1.00  0.00    -0.050 A 
ATOM      9  C   UNL A   1      41.005  34.613  32.407  1.00  0.00     0.007 A 
ATOM     10  C   UNL A   1      39.609  33.972  30.552  1.00  0.00     0.015 A 
ATOM     11  C   UNL A   1      39.864  34.815  33.195  1.00  0.00     0.047 A 
ATOM     12  C   UNL A   1      38.471  34.156  31.348  1.00  0.00     0.017 A 
ATOM     13  C   UNL A   1      38.596  34.583  32.667  1.00  0.00     0.128 A 
ATOM     14  C   UNL A   1      37.159  33.872  30.808  1.00  0.00     0.027 C 
ATOM     15  O   UNL A   1      37.530  34.809  33.494  1.00  0.00    -0.475 OA
ATOM     16  C   UNL A   1      36.197  34.429  33.046  1.00  0.00     0.316 C 
BRANCH  16  17
ATOM     17  C   UNL A   1      35.651  33.343  33.987  1.00  0.00     0.430 C 
ATOM     18  F   UNL A   1      36.082  32.112  33.625  1.00  0.00    -0.167 F 
ATOM     19  F   UNL A   1      36.068  33.537  35.262  1.00  0.00    -0.167 F 
ATOM     20  F   UNL A   1      34.300  33.312  34.005  1.00  0.00    -0.167 F 
ENDBRANCH  16  17
ENDBRANCH   4   6
ENDBRANCH   3   4
ENDBRANCH   2   3
ENDBRANCH   1   2
BRANCH   1  21
ATOM     21  O   UNL A   1      34.609  32.886  27.654  1.00  0.00    -0.458 OA
BRANCH  21  22
ATOM     22  C   UNL A   1      34.445  31.549  27.786  1.00  0.00     0.338 C 
ATOM     23  O   UNL A   1      33.435  30.898  27.596  1.00  0.00    -0.246 OA
BRANCH  22  24
ATOM     24  C   UNL A   1      35.729  30.942  28.169  1.00  0.00     0.060 A 
ATOM     25  C   UNL A   1      36.923  31.636  28.005  1.00  0.00     0.016 A 
ATOM     26  C   UNL A   1      35.721  29.709  28.813  1.00  0.00     0.016 A 
ATOM     27  C   UNL A   1      38.114  31.070  28.478  1.00  0.00     0.010 A 
ATOM     28  C   UNL A   1      36.880  29.215  29.404  1.00  0.00     0.010 A 
ATOM     29  C   UNL A   1      38.102  29.868  29.213  1.00  0.00    -0.014 A 
BRANCH  29  30
ATOM     30  C   UNL A   1      39.352  29.272  29.764  1.00  0.00     0.031 A 
ATOM     31  C   UNL A   1      39.916  29.751  31.082  1.00  0.00     0.074 A 
ATOM     32  C   UNL A   1      40.021  28.336  29.059  1.00  0.00     0.049 A 
ATOM     33  N   UNL A   1      41.021  29.394  31.690  1.00  0.00    -0.248 NA
ATOM     34  C   UNL A   1      39.167  30.803  31.788  1.00  0.00     0.031 C 
ATOM     35  C   UNL A   1      39.642  27.840  27.734  1.00  0.00     0.029 A 
ATOM     36  N   UNL A   1      41.159  27.631  29.362  1.00  0.00    -0.354 N 
ATOM     37  C   UNL A   1      41.112  30.202  32.819  1.00  0.00     0.074 A 
ATOM     38  C   UNL A   1      39.989  31.110  32.779  1.00  0.00     0.031 C 
ATOM     39  C   UNL A   1      40.495  26.870  27.367  1.00  0.00     0.029 A 
ATOM     40  C   UNL A   1      41.503  26.704  28.408  1.00  0.00     0.049 A 
ATOM     41  H   UNL A   1      41.679  27.777  30.184  1.00  0.00     0.167 HD
ATOM     42  C   UNL A   1      42.024  30.170  33.821  1.00  0.00     0.037 A 
ATOM     43  C   UNL A   1      42.512  25.813  28.380  1.00  0.00     0.037 A 
ATOM     44  C   UNL A   1      43.101  29.220  33.905  1.00  0.00     0.049 A 
ATOM     45  C   UNL A   1      43.480  25.760  29.526  1.00  0.00     0.074 A 
ATOM     46  C   UNL A   1      44.015  29.037  34.928  1.00  0.00     0.029 A 
ATOM     47  N   UNL A   1      43.399  28.284  32.927  1.00  0.00    -0.354 N 
ATOM     48  N   UNL A   1      43.507  26.481  30.621  1.00  0.00    -0.248 NA
ATOM     49  C   UNL A   1      44.562  24.768  29.431  1.00  0.00     0.031 C 
ATOM     50  C   UNL A   1      44.884  28.005  34.557  1.00  0.00     0.029 A 
ATOM     51  C   UNL A   1      44.494  27.529  33.316  1.00  0.00     0.049 A 
ATOM     52  H   UNL A   1      42.907  28.172  32.082  1.00  0.00     0.167 HD
ATOM     53  C   UNL A   1      44.600  26.027  31.347  1.00  0.00     0.074 A 
ATOM     54  C   UNL A   1      45.193  24.949  30.582  1.00  0.00     0.031 C 
ATOM     55  C   UNL A   1      45.074  26.468  32.536  1.00  0.00     0.037 A 
BRANCH  42  56
ATOM     56  C   UNL A   1      41.873  31.180  34.923  1.00  0.00     0.057 A 
ATOM     57  C   UNL A   1      41.009  30.945  35.999  1.00  0.00     0.134 A 
ATOM     58  C   UNL A   1      42.576  32.393  34.913  1.00  0.00     0.134 A 
ATOM     59  F   UNL A   1      40.297  29.809  36.068  1.00  0.00    -0.206 F 
ATOM     60  C   UNL A   1      40.857  31.875  37.031  1.00  0.00     0.040 A 
ATOM     61  C   UNL A   1      42.455  33.317  35.952  1.00  0.00     0.040 A 
ATOM     62  F   UNL A   1      43.428  32.676  33.916  1.00  0.00    -0.206 F 
ATOM     63  C   UNL A   1      41.589  33.061  37.014  1.00  0.00     0.006 A 
ENDBRANCH  42  56
BRANCH  43  64
ATOM     64  C   UNL A   1      42.639  24.870  27.242  1.00  0.00     0.057 A 
ATOM     65  C   UNL A   1      43.414  25.172  26.117  1.00  0.00     0.134 A 
ATOM     66  C   UNL A   1      41.989  23.630  27.265  1.00  0.00     0.134 A 
ATOM     67  F   UNL A   1      44.057  26.346  26.033  1.00  0.00    -0.206 F 
ATOM     68  C   UNL A   1      43.533  24.279  25.051  1.00  0.00     0.040 A 
ATOM     69  C   UNL A   1      42.117  22.717  26.217  1.00  0.00     0.040 A 
ATOM     70  F   UNL A   1      41.249  23.277  28.326  1.00  0.00    -0.206 F 
ATOM     71  C   UNL A   1      42.889  23.044  25.103  1.00  0.00     0.006 A 
ENDBRANCH  43  64
BRANCH  55  72
ATOM     72  C   UNL A   1      46.292  25.782  33.077  1.00  0.00     0.057 A 
ATOM     73  C   UNL A   1      46.176  24.665  33.914  1.00  0.00     0.134 A 
ATOM     74  C   UNL A   1      47.581  26.242  32.781  1.00  0.00     0.134 A 
ATOM     75  F   UNL A   1      44.969  24.179  34.237  1.00  0.00    -0.206 F 
ATOM     76  C   UNL A   1      47.302  24.031  34.439  1.00  0.00     0.040 A 
ATOM     77  C   UNL A   1      48.715  25.604  33.284  1.00  0.00     0.040 A 
ATOM     78  F   UNL A   1      47.757  27.298  31.972  1.00  0.00    -0.206 F 
ATOM     79  C   UNL A   1      48.576  24.496  34.120  1.00  0.00     0.006 A 
ENDBRANCH  55  72
ENDBRANCH  29  30
ENDBRANCH  22  24
ENDBRANCH  21  22
ENDBRANCH   1  21
TORSDOF 12
ENDMDL
MODEL 2
REMARK VINA RESULT:      -9.9      4.464     10.877
REMARK SMILES Cc1ccc2c(c1)C=C(C(=O)OCCOC(=O)c1ccc(-c3c4nc(c(-c5c(F)cccc5F)c5ccc([nH]5)c(-c5c(F)cccc5F)c5nc(c(-c6c(F)cccc6F)c6ccc3[nH]6)C=C5)C=C4)cc1)[C@@H](C(F)(F)F)O2
REMARK SMILES IDX 14 1 13 2 12 3 10 4 11 5 9 6 1 7 2 8 3 9 7 10 4 11 6 12 5 13
REMARK SMILES IDX 8 14 77 15 72 16 73 17 74 18 75 19 76 20 15 21 16 22 17 23
REMARK SMILES IDX 18 24 19 25 71 26 20 27 70 28 21 29 22 30 23 31 64 32 24 33
REMARK SMILES IDX 69 34 63 35 65 36 25 37 68 38 62 39 61 40 26 42 52 43 35 44
REMARK SMILES IDX 51 45 36 46 39 47 50 48 66 49 37 50 38 51 49 53 67 54 40 55
REMARK SMILES IDX 27 56 28 57 33 58 29 59 30 60 32 61 34 62 31 63 53 64 54 65
REMARK SMILES IDX 59 66 55 67 56 68 58 69 60 70 57 71 41 72 42 73 47 74 43 75
REMARK SMILES IDX 44 76 46 77 48 78 45 79
REMARK H PARENT 65 41 39 52
REMARK Flexibility Score: inf
ROOT
ATOM      1  C   UNL A   1      40.603  20.193  26.160  1.00  0.00     0.275 C 
ENDROOT
BRANCH   1   2
ATOM      2  C   UNL A   1      42.130  20.192  26.212  1.00  0.00     0.275 C 
BRANCH   2   3
ATOM      3  O   UNL A   1      42.662  21.516  25.986  1.00  0.00    -0.459 OA
BRANCH   3   4
ATOM      4  C   UNL A   1      43.943  21.564  25.557  1.00  0.00     0.338 C 
ATOM      5  O   UNL A   1      44.403  21.019  24.566  1.00  0.00    -0.246 OA
BRANCH   4   6
ATOM      6  C   UNL A   1      44.751  22.419  26.447  1.00  0.00     0.087 C 
ATOM      7  C   UNL A   1      44.490  25.367  31.854  1.00  0.00     0.044 C 
ATOM      8  C   UNL A   1      45.067  24.965  30.529  1.00  0.00    -0.050 A 
ATOM      9  C   UNL A   1      46.277  25.508  30.083  1.00  0.00     0.007 A 
ATOM     10  C   UNL A   1      44.418  24.020  29.729  1.00  0.00     0.015 A 
ATOM     11  C   UNL A   1      46.823  25.119  28.853  1.00  0.00     0.047 A 
ATOM     12  C   UNL A   1      44.955  23.647  28.491  1.00  0.00     0.017 A 
ATOM     13  C   UNL A   1      46.160  24.190  28.054  1.00  0.00     0.128 A 
ATOM     14  C   UNL A   1      44.240  22.714  27.646  1.00  0.00     0.027 C 
ATOM     15  O   UNL A   1      46.757  23.853  26.870  1.00  0.00    -0.475 OA
ATOM     16  C   UNL A   1      46.030  23.013  25.927  1.00  0.00     0.316 C 
BRANCH  16  17
ATOM     17  C   UNL A   1      45.790  23.813  24.637  1.00  0.00     0.430 C 
ATOM     18  F   UNL A   1      46.107  23.088  23.538  1.00  0.00    -0.167 F 
ATOM     19  F   UNL A   1      44.486  24.159  24.504  1.00  0.00    -0.167 F 
ATOM     20  F   UNL A   1      46.516  24.952  24.597  1.00  0.00    -0.167 F 
ENDBRANCH  16  17
ENDBRANCH   4   6
ENDBRANCH   3   4
ENDBRANCH   2   3
ENDBRANCH   1   2
BRANCH   1  21
ATOM     21  O   UNL A   1      40.082  21.206  27.042  1.00  0.00    -0.458 OA
BRANCH  21  22
ATOM     22  C   UNL A   1      39.330  22.166  26.456  1.00  0.00     0.338 C 
ATOM     23  O   UNL A   1      38.460  22.026  25.617  1.00  0.00    -0.246 OA
BRANCH  22  24
ATOM     24  C   UNL A   1      39.688  23.473  27.028  1.00  0.00     0.060 A 
ATOM     25  C   UNL A   1      40.663  23.577  28.014  1.00  0.00     0.016 A 
ATOM     26  C   UNL A   1      39.123  24.621  26.481  1.00  0.00     0.016 A 
ATOM     27  C   UNL A   1      41.053  24.847  28.459  1.00  0.00     0.010 A 
ATOM     28  C   UNL A   1      39.610  25.878  26.824  1.00  0.00     0.010 A 
ATOM     29  C   UNL A   1      40.556  26.013  27.846  1.00  0.00    -0.014 A 
BRANCH  29  30
ATOM     30  C   UNL A   1      40.991  27.373  28.274  1.00  0.00     0.031 A 
ATOM     31  C   UNL A   1      42.433  27.802  28.123  1.00  0.00     0.074 A 
ATOM     32  C   UNL A   1      40.109  28.212  28.855  1.00  0.00     0.049 A 
ATOM     33  N   UNL A   1      43.008  28.920  28.491  1.00  0.00    -0.248 NA
ATOM     34  C   UNL A   1      43.360  26.830  27.521  1.00  0.00     0.031 C 
ATOM     35  C   UNL A   1      38.707  27.902  29.145  1.00  0.00     0.029 A 
ATOM     36  N   UNL A   1      40.261  29.502  29.301  1.00  0.00    -0.354 N 
ATOM     37  C   UNL A   1      44.360  28.766  28.201  1.00  0.00     0.074 A 
ATOM     38  C   UNL A   1      44.530  27.426  27.688  1.00  0.00     0.031 C 
ATOM     39  C   UNL A   1      38.113  28.990  29.663  1.00  0.00     0.029 A 
ATOM     40  C   UNL A   1      39.099  30.059  29.780  1.00  0.00     0.049 A 
ATOM     41  H   UNL A   1      41.119  29.980  29.281  1.00  0.00     0.167 HD
ATOM     42  C   UNL A   1      45.366  29.666  28.313  1.00  0.00     0.037 A 
ATOM     43  C   UNL A   1      38.854  31.295  30.252  1.00  0.00     0.037 A 
ATOM     44  C   UNL A   1      45.191  31.024  28.753  1.00  0.00     0.049 A 
ATOM     45  C   UNL A   1      39.973  32.294  30.318  1.00  0.00     0.074 A 
ATOM     46  C   UNL A   1      46.125  32.044  28.805  1.00  0.00     0.029 A 
ATOM     47  N   UNL A   1      43.993  31.553  29.208  1.00  0.00    -0.354 N 
ATOM     48  N   UNL A   1      41.229  32.154  29.969  1.00  0.00    -0.248 NA
ATOM     49  C   UNL A   1      39.640  33.625  30.848  1.00  0.00     0.031 C 
ATOM     50  C   UNL A   1      45.498  33.186  29.315  1.00  0.00     0.029 A 
ATOM     51  C   UNL A   1      44.167  32.883  29.556  1.00  0.00     0.049 A 
ATOM     52  H   UNL A   1      43.145  31.058  29.274  1.00  0.00     0.167 HD
ATOM     53  C   UNL A   1      41.834  33.377  30.229  1.00  0.00     0.074 A 
ATOM     54  C   UNL A   1      40.800  34.255  30.738  1.00  0.00     0.031 C 
ATOM     55  C   UNL A   1      43.129  33.737  30.069  1.00  0.00     0.037 A 
BRANCH  42  56
ATOM     56  C   UNL A   1      46.745  29.212  27.926  1.00  0.00     0.057 A 
ATOM     57  C   UNL A   1      47.161  29.240  26.589  1.00  0.00     0.134 A 
ATOM     58  C   UNL A   1      47.658  28.735  28.875  1.00  0.00     0.134 A 
ATOM     59  F   UNL A   1      46.334  29.675  25.626  1.00  0.00    -0.206 F 
ATOM     60  C   UNL A   1      48.439  28.820  26.213  1.00  0.00     0.040 A 
ATOM     61  C   UNL A   1      48.948  28.340  28.516  1.00  0.00     0.040 A 
ATOM     62  F   UNL A   1      47.327  28.691  30.175  1.00  0.00    -0.206 F 
ATOM     63  C   UNL A   1      49.341  28.377  27.179  1.00  0.00     0.006 A 
ENDBRANCH  42  56
BRANCH  43  64
ATOM     64  C   UNL A   1      37.480  31.675  30.664  1.00  0.00     0.057 A 
ATOM     65  C   UNL A   1      36.535  32.137  29.741  1.00  0.00     0.134 A 
ATOM     66  C   UNL A   1      37.080  31.569  32.002  1.00  0.00     0.134 A 
ATOM     67  F   UNL A   1      36.859  32.266  28.446  1.00  0.00    -0.206 F 
ATOM     68  C   UNL A   1      35.243  32.488  30.134  1.00  0.00     0.040 A 
ATOM     69  C   UNL A   1      35.784  31.894  32.406  1.00  0.00     0.040 A 
ATOM     70  F   UNL A   1      37.936  31.111  32.927  1.00  0.00    -0.206 F 
ATOM     71  C   UNL A   1      34.862  32.360  31.469  1.00  0.00     0.006 A 
ENDBRANCH  43  64
BRANCH  55  72
ATOM     72  C   UNL A   1      43.494  35.140  30.448  1.00  0.00     0.057 A 
ATOM     73  C   UNL A   1      43.420  36.180  29.513  1.00  0.00     0.134 A 
ATOM     74  C   UNL A   1      43.938  35.456  31.738  1.00  0.00     0.134 A 
ATOM     75  F   UNL A   1      43.007  35.941  28.260  1.00  0.00    -0.206 F 
ATOM     76  C   UNL A   1      43.777  37.486  29.849  1.00  0.00     0.040 A 
ATOM     77  C   UNL A   1      44.277  36.762  32.092  1.00  0.00     0.040 A 
ATOM     78  F   UNL A   1      44.014  34.505  32.682  1.00  0.00    -0.206 F 
ATOM     79  C   UNL A   1      44.201  37.781  31.143  1.00  0.00     0.006 A 
ENDBRANCH  55  72
ENDBRANCH  29  30
ENDBRANCH  22  24
ENDBRANCH  21  22
ENDBRANCH   1  21
TORSDOF 12
ENDMDL
MODEL 3
REMARK VINA RESULT:      -9.7      4.067      6.938
REMARK SMILES Cc1ccc2c(c1)C=C(C(=O)OCCOC(=O)c1ccc(-c3c4nc(c(-c5c(F)cccc5F)c5ccc([nH]5)c(-c5c(F)cccc5F)c5nc(c(-c6c(F)cccc6F)c6ccc3[nH]6)C=C5)C=C4)cc1)[C@@H](C(F)(F)F)O2
REMARK SMILES IDX 14 1 13 2 12 3 10 4 11 5 9 6 1 7 2 8 3 9 7 10 4 11 6 12 5 13
REMARK SMILES IDX 8 14 77 15 72 16 73 17 74 18 75 19 76 20 15 21 16 22 17 23
REMARK SMILES IDX 18 24 19 25 71 26 20 27 70 28 21 29 22 30 23 31 64 32 24 33
REMARK SMILES IDX 69 34 63 35 65 36 25 37 68 38 62 39 61 40 26 42 52 43 35 44
REMARK SMILES IDX 51 45 36 46 39 47 50 48 66 49 37 50 38 51 49 53 67 54 40 55
REMARK SMILES IDX 27 56 28 57 33 58 29 59 30 60 32 61 34 62 31 63 53 64 54 65
REMARK SMILES IDX 59 66 55 67 56 68 58 69 60 70 57 71 41 72 42 73 47 74 43 75
REMARK SMILES IDX 44 76 46 77 48 78 45 79
REMARK H PARENT 65 41 39 52
REMARK Flexibility Score: inf
ROOT
ATOM      1  C   UNL A   1      31.533  30.030  25.322  1.00  0.00     0.275 C 
ENDROOT
BRANCH   1   2
ATOM      2  C   UNL A   1      31.432  28.889  24.312  1.00  0.00     0.275 C 
BRANCH   2   3
ATOM      3  O   UNL A   1      32.280  27.781  24.688  1.00  0.00    -0.459 OA
BRANCH   3   4
ATOM      4  C   UNL A   1      31.724  26.555  24.568  1.00  0.00     0.338 C 
ATOM      5  O   UNL A   1      30.542  26.272  24.693  1.00  0.00    -0.246 OA
BRANCH   4   6
ATOM      6  C   UNL A   1      32.752  25.556  24.221  1.00  0.00     0.087 C 
ATOM      7  C   UNL A   1      38.177  23.345  26.140  1.00  0.00     0.044 C 
ATOM      8  C   UNL A   1      37.009  23.521  25.215  1.00  0.00    -0.050 A 
ATOM      9  C   UNL A   1      36.969  22.863  23.981  1.00  0.00     0.007 A 
ATOM     10  C   UNL A   1      35.926  24.325  25.585  1.00  0.00     0.015 A 
ATOM     11  C   UNL A   1      35.869  23.016  23.127  1.00  0.00     0.047 A 
ATOM     12  C   UNL A   1      34.836  24.491  24.721  1.00  0.00     0.017 A 
ATOM     13  C   UNL A   1      34.803  23.833  23.495  1.00  0.00     0.128 A 
ATOM     14  C   UNL A   1      33.752  25.375  25.090  1.00  0.00     0.027 C 
ATOM     15  O   UNL A   1      33.762  23.927  22.614  1.00  0.00    -0.475 OA
ATOM     16  C   UNL A   1      32.700  24.890  22.875  1.00  0.00     0.316 C 
BRANCH  16  17
ATOM     17  C   UNL A   1      32.684  25.926  21.741  1.00  0.00     0.430 C 
ATOM     18  F   UNL A   1      33.605  26.898  21.944  1.00  0.00    -0.167 F 
ATOM     19  F   UNL A   1      32.982  25.359  20.546  1.00  0.00    -0.167 F 
ATOM     20  F   UNL A   1      31.480  26.527  21.612  1.00  0.00    -0.167 F 
ENDBRANCH  16  17
ENDBRANCH   4   6
ENDBRANCH   3   4
ENDBRANCH   2   3
ENDBRANCH   1   2
BRANCH   1  21
ATOM     21  O   UNL A   1      32.896  30.183  25.757  1.00  0.00    -0.458 OA
BRANCH  21  22
ATOM     22  C   UNL A   1      33.096  31.050  26.776  1.00  0.00     0.338 C 
ATOM     23  O   UNL A   1      32.337  31.909  27.186  1.00  0.00    -0.246 OA
BRANCH  22  24
ATOM     24  C   UNL A   1      34.405  30.780  27.389  1.00  0.00     0.060 A 
ATOM     25  C   UNL A   1      35.234  31.822  27.789  1.00  0.00     0.016 A 
ATOM     26  C   UNL A   1      34.751  29.463  27.677  1.00  0.00     0.016 A 
ATOM     27  C   UNL A   1      36.426  31.528  28.465  1.00  0.00     0.010 A 
ATOM     28  C   UNL A   1      35.861  29.183  28.468  1.00  0.00     0.010 A 
ATOM     29  C   UNL A   1      36.737  30.207  28.842  1.00  0.00    -0.014 A 
BRANCH  29  30
ATOM     30  C   UNL A   1      37.977  29.878  29.601  1.00  0.00     0.031 A 
ATOM     31  C   UNL A   1      38.181  30.402  31.004  1.00  0.00     0.074 A 
ATOM     32  C   UNL A   1      38.953  29.155  29.016  1.00  0.00     0.049 A 
ATOM     33  N   UNL A   1      39.217  30.269  31.796  1.00  0.00    -0.248 NA
ATOM     34  C   UNL A   1      37.100  31.220  31.577  1.00  0.00     0.031 C 
ATOM     35  C   UNL A   1      38.932  28.657  27.639  1.00  0.00     0.029 A 
ATOM     36  N   UNL A   1      40.154  28.708  29.510  1.00  0.00    -0.354 N 
ATOM     37  C   UNL A   1      38.925  31.016  32.933  1.00  0.00     0.074 A 
ATOM     38  C   UNL A   1      37.648  31.651  32.703  1.00  0.00     0.031 C 
ATOM     39  C   UNL A   1      40.036  27.923  27.418  1.00  0.00     0.029 A 
ATOM     40  C   UNL A   1      40.860  27.932  28.621  1.00  0.00     0.049 A 
ATOM     41  H   UNL A   1      40.478  28.923  30.413  1.00  0.00     0.167 HD
ATOM     42  C   UNL A   1      39.634  31.137  34.081  1.00  0.00     0.037 A 
ATOM     43  C   UNL A   1      42.037  27.293  28.764  1.00  0.00     0.037 A 
ATOM     44  C   UNL A   1      40.870  30.450  34.345  1.00  0.00     0.049 A 
ATOM     45  C   UNL A   1      42.780  27.398  30.064  1.00  0.00     0.074 A 
ATOM     46  C   UNL A   1      41.612  30.423  35.513  1.00  0.00     0.029 A 
ATOM     47  N   UNL A   1      41.538  29.657  33.426  1.00  0.00    -0.354 N 
ATOM     48  N   UNL A   1      42.451  28.048  31.154  1.00  0.00    -0.248 NA
ATOM     49  C   UNL A   1      44.060  26.680  30.153  1.00  0.00     0.031 C 
ATOM     50  C   UNL A   1      42.745  29.633  35.292  1.00  0.00     0.029 A 
ATOM     51  C   UNL A   1      42.693  29.147  33.995  1.00  0.00     0.049 A 
ATOM     52  H   UNL A   1      41.238  29.482  32.505  1.00  0.00     0.167 HD
ATOM     53  C   UNL A   1      43.478  27.813  32.060  1.00  0.00     0.074 A 
ATOM     54  C   UNL A   1      44.426  26.937  31.400  1.00  0.00     0.031 C 
ATOM     55  C   UNL A   1      43.627  28.285  33.320  1.00  0.00     0.037 A 
BRANCH  42  56
ATOM     56  C   UNL A   1      39.068  32.028  35.151  1.00  0.00     0.057 A 
ATOM     57  C   UNL A   1      38.307  31.498  36.200  1.00  0.00     0.134 A 
ATOM     58  C   UNL A   1      39.267  33.415  35.135  1.00  0.00     0.134 A 
ATOM     59  F   UNL A   1      38.069  30.179  36.271  1.00  0.00    -0.206 F 
ATOM     60  C   UNL A   1      37.774  32.314  37.201  1.00  0.00     0.040 A 
ATOM     61  C   UNL A   1      38.764  34.238  36.145  1.00  0.00     0.040 A 
ATOM     62  F   UNL A   1      39.995  33.987  34.164  1.00  0.00    -0.206 F 
ATOM     63  C   UNL A   1      38.010  33.687  37.180  1.00  0.00     0.006 A 
ENDBRANCH  42  56
BRANCH  43  64
ATOM     64  C   UNL A   1      42.570  26.463  27.655  1.00  0.00     0.057 A 
ATOM     65  C   UNL A   1      42.186  25.128  27.485  1.00  0.00     0.134 A 
ATOM     66  C   UNL A   1      43.474  26.999  26.731  1.00  0.00     0.134 A 
ATOM     67  F   UNL A   1      41.327  24.556  28.340  1.00  0.00    -0.206 F 
ATOM     68  C   UNL A   1      42.687  24.354  26.438  1.00  0.00     0.040 A 
ATOM     69  C   UNL A   1      43.967  26.244  25.666  1.00  0.00     0.040 A 
ATOM     70  F   UNL A   1      43.862  28.279  26.832  1.00  0.00    -0.206 F 
ATOM     71  C   UNL A   1      43.575  24.914  25.520  1.00  0.00     0.006 A 
ENDBRANCH  43  64
BRANCH  55  72
ATOM     72  C   UNL A   1      44.859  27.862  34.061  1.00  0.00     0.057 A 
ATOM     73  C   UNL A   1      46.030  28.628  34.004  1.00  0.00     0.134 A 
ATOM     74  C   UNL A   1      44.889  26.684  34.816  1.00  0.00     0.134 A 
ATOM     75  F   UNL A   1      46.067  29.765  33.294  1.00  0.00    -0.206 F 
ATOM     76  C   UNL A   1      47.189  28.234  34.673  1.00  0.00     0.040 A 
ATOM     77  C   UNL A   1      46.035  26.290  35.507  1.00  0.00     0.040 A 
ATOM     78  F   UNL A   1      43.793  25.917  34.922  1.00  0.00    -0.206 F 
ATOM     79  C   UNL A   1      47.192  27.065  35.432  1.00  0.00     0.006 A 
ENDBRANCH  55  72
ENDBRANCH  29  30
ENDBRANCH  22  24
ENDBRANCH  21  22
ENDBRANCH   1  21
TORSDOF 12
ENDMDL
