MODEL 1
REMARK VINA RESULT:     -11.3      0.000      0.000
REMARK SMILES COc1cc(-c2ccc(NC(=O)CCC(=O)OCCOC(=O)c3ccc(-c4c5nc(c(-c6c(F)cccc6F)c6ccc([nH]6)c(-c6c(F)cccc6F)c6nc(c(-c7c(F)cccc7F)c7ccc4[nH]7)C=C6)C=C5)cc3)c(OC)c2)ccc1N
REMARK SMILES IDX 17 1 15 2 16 3 14 4 13 5 11 6 10 7 12 9 9 10 6 11 7 12 80 13
REMARK SMILES IDX 8 14 77 15 5 16 3 17 4 18 83 19 82 20 81 21 2 22 1 23 84 24
REMARK SMILES IDX 78 27 79 28 18 29 19 30 20 31 21 32 22 33 23 34 24 35 76 36
REMARK SMILES IDX 25 37 75 38 26 39 27 40 28 41 69 42 29 43 74 44 68 45 70 46
REMARK SMILES IDX 30 47 73 48 67 49 66 50 31 52 57 53 40 54 56 55 41 56 44 57
REMARK SMILES IDX 55 58 71 59 42 60 43 61 54 63 72 64 45 65 32 66 33 67 38 68
REMARK SMILES IDX 34 69 35 70 37 71 39 72 36 73 58 74 59 75 64 76 60 77 61 78
REMARK SMILES IDX 63 79 65 80 62 81 46 82 47 83 52 84 48 85 49 86 51 87 53 88
REMARK SMILES IDX 50 89
REMARK H PARENT 10 8 84 25 84 26 70 51 44 62
REMARK Flexibility Score: inf
ROOT
ATOM      1  O   UNL A   1      41.407  21.703  25.700  1.00  0.00    -0.462 OA
ENDROOT
BRANCH   1   2
ATOM      2  C   UNL A   1      40.526  21.440  26.699  1.00  0.00     0.306 C 
ATOM      3  O   UNL A   1      40.765  20.664  27.619  1.00  0.00    -0.252 OA
BRANCH   2   4
ATOM      4  C   UNL A   1      39.165  22.123  26.500  1.00  0.00     0.132 C 
BRANCH   4   5
ATOM      5  C   UNL A   1      38.396  21.961  25.166  1.00  0.00     0.112 C 
BRANCH   5   6
ATOM      6  C   UNL A   1      37.363  20.813  25.121  1.00  0.00     0.225 C 
ATOM      7  N   UNL A   1      36.004  20.997  25.350  1.00  0.00    -0.323 N 
ATOM      8  H   UNL A   1      35.514  20.193  25.639  1.00  0.00     0.170 HD
ATOM      9  O   UNL A   1      37.765  19.648  25.003  1.00  0.00    -0.275 OA
BRANCH   7  10
ATOM     10  C   UNL A   1      35.224  22.169  25.228  1.00  0.00     0.083 A 
ATOM     11  C   UNL A   1      33.978  24.633  24.463  1.00  0.00    -0.014 A 
ATOM     12  C   UNL A   1      34.766  24.547  25.621  1.00  0.00     0.011 A 
ATOM     13  C   UNL A   1      33.681  23.406  23.891  1.00  0.00     0.057 A 
ATOM     14  C   UNL A   1      35.417  23.326  25.984  1.00  0.00     0.031 A 
ATOM     15  C   UNL A   1      34.149  22.201  24.382  1.00  0.00     0.142 A 
BRANCH  11  16
ATOM     16  C   UNL A   1      33.467  25.861  23.782  1.00  0.00    -0.014 A 
ATOM     17  C   UNL A   1      32.962  28.289  23.917  1.00  0.00     0.142 A 
ATOM     18  C   UNL A   1      33.636  27.145  24.365  1.00  0.00     0.057 A 
ATOM     19  C   UNL A   1      32.201  28.228  22.750  1.00  0.00     0.074 A 
ATOM     20  C   UNL A   1      32.042  26.977  22.141  1.00  0.00     0.030 A 
ATOM     21  C   UNL A   1      32.663  25.814  22.640  1.00  0.00     0.011 A 
BRANCH  17  22
ATOM     22  O   UNL A   1      33.168  29.423  24.665  1.00  0.00    -0.495 OA
ATOM     23  C   UNL A   1      32.398  29.498  25.867  1.00  0.00     0.278 C 
ENDBRANCH  17  22
BRANCH  19  24
ATOM     24  N   UNL A   1      31.520  29.333  22.249  1.00  0.00    -0.396 N 
ATOM     25  H   UNL A   1      30.614  29.228  21.880  1.00  0.00     0.156 HD
ATOM     26  H   UNL A   1      31.946  30.221  22.264  1.00  0.00     0.156 HD
ENDBRANCH  19  24
ENDBRANCH  11  16
BRANCH  15  27
ATOM     27  O   UNL A   1      33.481  21.089  23.991  1.00  0.00    -0.495 OA
ATOM     28  C   UNL A   1      32.193  20.934  24.583  1.00  0.00     0.278 C 
ENDBRANCH  15  27
ENDBRANCH   7  10
ENDBRANCH   5   6
ENDBRANCH   4   5
ENDBRANCH   2   4
ENDBRANCH   1   2
BRANCH   1  29
ATOM     29  C   UNL A   1      42.797  21.314  25.837  1.00  0.00     0.274 C 
BRANCH  29  30
ATOM     30  C   UNL A   1      43.792  22.323  25.236  1.00  0.00     0.275 C 
BRANCH  30  31
ATOM     31  O   UNL A   1      43.179  23.565  24.838  1.00  0.00    -0.458 OA
BRANCH  31  32
ATOM     32  C   UNL A   1      43.874  24.665  25.144  1.00  0.00     0.338 C 
ATOM     33  O   UNL A   1      44.912  25.080  24.639  1.00  0.00    -0.246 OA
BRANCH  32  34
ATOM     34  C   UNL A   1      43.282  25.473  26.167  1.00  0.00     0.060 A 
ATOM     35  C   UNL A   1      42.132  24.967  26.770  1.00  0.00     0.016 A 
ATOM     36  C   UNL A   1      43.711  26.792  26.337  1.00  0.00     0.016 A 
ATOM     37  C   UNL A   1      41.434  25.774  27.636  1.00  0.00     0.010 A 
ATOM     38  C   UNL A   1      43.037  27.591  27.246  1.00  0.00     0.010 A 
ATOM     39  C   UNL A   1      41.936  27.053  27.926  1.00  0.00    -0.014 A 
BRANCH  39  40
ATOM     40  C   UNL A   1      41.479  27.656  29.178  1.00  0.00     0.031 A 
ATOM     41  C   UNL A   1      42.263  27.518  30.427  1.00  0.00     0.074 A 
ATOM     42  C   UNL A   1      40.381  28.424  29.057  1.00  0.00     0.049 A 
ATOM     43  N   UNL A   1      42.077  28.120  31.567  1.00  0.00    -0.248 NA
ATOM     44  C   UNL A   1      43.401  26.587  30.402  1.00  0.00     0.031 C 
ATOM     45  C   UNL A   1      39.607  28.584  27.816  1.00  0.00     0.029 A 
ATOM     46  N   UNL A   1      39.760  29.253  29.941  1.00  0.00    -0.354 N 
ATOM     47  C   UNL A   1      43.072  27.645  32.404  1.00  0.00     0.074 A 
ATOM     48  C   UNL A   1      43.852  26.690  31.646  1.00  0.00     0.031 C 
ATOM     49  C   UNL A   1      38.662  29.511  28.000  1.00  0.00     0.029 A 
ATOM     50  C   UNL A   1      38.732  29.969  29.377  1.00  0.00     0.049 A 
ATOM     51  H   UNL A   1      40.020  29.332  30.887  1.00  0.00     0.167 HD
ATOM     52  C   UNL A   1      43.285  27.991  33.694  1.00  0.00     0.037 A 
ATOM     53  C   UNL A   1      37.940  30.904  29.923  1.00  0.00     0.037 A 
ATOM     54  C   UNL A   1      42.453  28.934  34.397  1.00  0.00     0.049 A 
ATOM     55  C   UNL A   1      38.209  31.265  31.350  1.00  0.00     0.074 A 
ATOM     56  C   UNL A   1      42.526  29.347  35.714  1.00  0.00     0.029 A 
ATOM     57  N   UNL A   1      41.379  29.612  33.822  1.00  0.00    -0.354 N 
ATOM     58  N   UNL A   1      39.150  30.808  32.145  1.00  0.00    -0.248 NA
ATOM     59  C   UNL A   1      37.318  32.252  31.960  1.00  0.00     0.031 C 
ATOM     60  C   UNL A   1      41.477  30.247  35.943  1.00  0.00     0.029 A 
ATOM     61  C   UNL A   1      40.773  30.428  34.761  1.00  0.00     0.049 A 
ATOM     62  H   UNL A   1      41.094  29.522  32.885  1.00  0.00     0.167 HD
ATOM     63  C   UNL A   1      38.963  31.444  33.358  1.00  0.00     0.074 A 
ATOM     64  C   UNL A   1      37.838  32.347  33.176  1.00  0.00     0.031 C 
ATOM     65  C   UNL A   1      39.642  31.292  34.522  1.00  0.00     0.037 A 
BRANCH  52  66
ATOM     66  C   UNL A   1      44.414  27.311  34.410  1.00  0.00     0.057 A 
ATOM     67  C   UNL A   1      45.701  27.862  34.458  1.00  0.00     0.134 A 
ATOM     68  C   UNL A   1      44.217  26.079  35.046  1.00  0.00     0.134 A 
ATOM     69  F   UNL A   1      45.965  29.028  33.850  1.00  0.00    -0.206 F 
ATOM     70  C   UNL A   1      46.756  27.202  35.095  1.00  0.00     0.040 A 
ATOM     71  C   UNL A   1      45.258  25.419  35.703  1.00  0.00     0.040 A 
ATOM     72  F   UNL A   1      43.011  25.491  35.032  1.00  0.00    -0.206 F 
ATOM     73  C   UNL A   1      46.534  25.978  35.724  1.00  0.00     0.006 A 
ENDBRANCH  52  66
BRANCH  53  74
ATOM     74  C   UNL A   1      36.873  31.533  29.111  1.00  0.00     0.057 A 
ATOM     75  C   UNL A   1      35.688  30.853  28.811  1.00  0.00     0.134 A 
ATOM     76  C   UNL A   1      36.977  32.864  28.681  1.00  0.00     0.134 A 
ATOM     77  F   UNL A   1      35.524  29.578  29.195  1.00  0.00    -0.206 F 
ATOM     78  C   UNL A   1      34.650  31.470  28.110  1.00  0.00     0.040 A 
ATOM     79  C   UNL A   1      35.938  33.500  28.002  1.00  0.00     0.040 A 
ATOM     80  F   UNL A   1      38.078  33.580  28.956  1.00  0.00    -0.206 F 
ATOM     81  C   UNL A   1      34.769  32.801  27.711  1.00  0.00     0.006 A 
ENDBRANCH  53  74
BRANCH  65  82
ATOM     82  C   UNL A   1      39.157  32.123  35.666  1.00  0.00     0.057 A 
ATOM     83  C   UNL A   1      38.251  31.611  36.604  1.00  0.00     0.134 A 
ATOM     84  C   UNL A   1      39.606  33.436  35.833  1.00  0.00     0.134 A 
ATOM     85  F   UNL A   1      37.774  30.364  36.478  1.00  0.00    -0.206 F 
ATOM     86  C   UNL A   1      37.790  32.392  37.662  1.00  0.00     0.040 A 
ATOM     87  C   UNL A   1      39.170  34.218  36.900  1.00  0.00     0.040 A 
ATOM     88  F   UNL A   1      40.475  33.976  34.965  1.00  0.00    -0.206 F 
ATOM     89  C   UNL A   1      38.254  33.698  37.815  1.00  0.00     0.006 A 
ENDBRANCH  65  82
ENDBRANCH  39  40
ENDBRANCH  32  34
ENDBRANCH  31  32
ENDBRANCH  30  31
ENDBRANCH  29  30
ENDBRANCH   1  29
TORSDOF 18
ENDMDL
MODEL 2
REMARK VINA RESULT:     -11.3      1.945      8.352
REMARK SMILES COc1cc(-c2ccc(NC(=O)CCC(=O)OCCOC(=O)c3ccc(-c4c5nc(c(-c6c(F)cccc6F)c6ccc([nH]6)c(-c6c(F)cccc6F)c6nc(c(-c7c(F)cccc7F)c7ccc4[nH]7)C=C6)C=C5)cc3)c(OC)c2)ccc1N
REMARK SMILES IDX 17 1 15 2 16 3 14 4 13 5 11 6 10 7 12 9 9 10 6 11 7 12 80 13
REMARK SMILES IDX 8 14 77 15 5 16 3 17 4 18 83 19 82 20 81 21 2 22 1 23 84 24
REMARK SMILES IDX 78 27 79 28 18 29 19 30 20 31 21 32 22 33 23 34 24 35 76 36
REMARK SMILES IDX 25 37 75 38 26 39 27 40 28 41 69 42 29 43 74 44 68 45 70 46
REMARK SMILES IDX 30 47 73 48 67 49 66 50 31 52 57 53 40 54 56 55 41 56 44 57
REMARK SMILES IDX 55 58 71 59 42 60 43 61 54 63 72 64 45 65 32 66 33 67 38 68
REMARK SMILES IDX 34 69 35 70 37 71 39 72 36 73 58 74 59 75 64 76 60 77 61 78
REMARK SMILES IDX 63 79 65 80 62 81 46 82 47 83 52 84 48 85 49 86 51 87 53 88
REMARK SMILES IDX 50 89
REMARK H PARENT 10 8 84 25 84 26 70 51 44 62
REMARK Flexibility Score: inf
ROOT
ATOM      1  O   UNL A   1      31.697  30.988  25.865  1.00  0.00    -0.462 OA
ENDROOT
BRANCH   1   2
ATOM      2  C   UNL A   1      32.472  29.927  26.204  1.00  0.00     0.306 C 
ATOM      3  O   UNL A   1      33.692  29.912  26.063  1.00  0.00    -0.252 OA
BRANCH   2   4
ATOM      4  C   UNL A   1      31.662  28.712  26.676  1.00  0.00     0.132 C 
BRANCH   4   5
ATOM      5  C   UNL A   1      30.942  27.805  25.648  1.00  0.00     0.112 C 
BRANCH   5   6
ATOM      6  C   UNL A   1      31.254  28.093  24.162  1.00  0.00     0.225 C 
ATOM      7  N   UNL A   1      32.417  27.672  23.528  1.00  0.00    -0.323 N 
ATOM      8  H   UNL A   1      32.670  28.187  22.728  1.00  0.00     0.170 HD
ATOM      9  O   UNL A   1      30.502  28.844  23.527  1.00  0.00    -0.275 OA
BRANCH   7  10
ATOM     10  C   UNL A   1      33.288  26.611  23.865  1.00  0.00     0.083 A 
ATOM     11  C   UNL A   1      34.532  24.123  24.555  1.00  0.00    -0.014 A 
ATOM     12  C   UNL A   1      34.508  25.199  25.457  1.00  0.00     0.011 A 
ATOM     13  C   UNL A   1      34.127  24.456  23.272  1.00  0.00     0.057 A 
ATOM     14  C   UNL A   1      33.857  26.428  25.126  1.00  0.00     0.031 A 
ATOM     15  C   UNL A   1      33.695  25.719  22.910  1.00  0.00     0.142 A 
BRANCH  11  16
ATOM     16  C   UNL A   1      34.901  22.701  24.822  1.00  0.00    -0.014 A 
ATOM     17  C   UNL A   1      36.692  20.989  25.005  1.00  0.00     0.142 A 
ATOM     18  C   UNL A   1      36.257  22.321  25.013  1.00  0.00     0.057 A 
ATOM     19  C   UNL A   1      35.754  19.958  24.964  1.00  0.00     0.074 A 
ATOM     20  C   UNL A   1      34.407  20.308  24.804  1.00  0.00     0.030 A 
ATOM     21  C   UNL A   1      33.983  21.652  24.737  1.00  0.00     0.011 A 
BRANCH  17  22
ATOM     22  O   UNL A   1      38.051  20.814  25.101  1.00  0.00    -0.495 OA
ATOM     23  C   UNL A   1      38.728  21.790  25.897  1.00  0.00     0.278 C 
ENDBRANCH  17  22
BRANCH  19  24
ATOM     24  N   UNL A   1      36.124  18.617  24.967  1.00  0.00    -0.396 N 
ATOM     25  H   UNL A   1      36.329  18.161  24.120  1.00  0.00     0.156 HD
ATOM     26  H   UNL A   1      36.180  18.124  25.818  1.00  0.00     0.156 HD
ENDBRANCH  19  24
ENDBRANCH  11  16
BRANCH  15  27
ATOM     27  O   UNL A   1      33.715  26.009  21.587  1.00  0.00    -0.495 OA
ATOM     28  C   UNL A   1      32.538  25.622  20.880  1.00  0.00     0.278 C 
ENDBRANCH  15  27
ENDBRANCH   7  10
ENDBRANCH   5   6
ENDBRANCH   4   5
ENDBRANCH   2   4
ENDBRANCH   1   2
BRANCH   1  29
ATOM     29  C   UNL A   1      31.335  31.973  26.865  1.00  0.00     0.274 C 
BRANCH  29  30
ATOM     30  C   UNL A   1      32.190  33.252  26.825  1.00  0.00     0.275 C 
BRANCH  30  31
ATOM     31  O   UNL A   1      32.742  33.613  28.106  1.00  0.00    -0.458 OA
BRANCH  31  32
ATOM     32  C   UNL A   1      33.979  34.118  28.069  1.00  0.00     0.338 C 
ATOM     33  O   UNL A   1      34.338  35.242  27.734  1.00  0.00    -0.246 OA
BRANCH  32  34
ATOM     34  C   UNL A   1      34.997  33.223  28.532  1.00  0.00     0.060 A 
ATOM     35  C   UNL A   1      36.285  33.746  28.633  1.00  0.00     0.016 A 
ATOM     36  C   UNL A   1      34.725  31.855  28.616  1.00  0.00     0.016 A 
ATOM     37  C   UNL A   1      37.323  32.890  28.910  1.00  0.00     0.010 A 
ATOM     38  C   UNL A   1      35.761  30.997  28.944  1.00  0.00     0.010 A 
ATOM     39  C   UNL A   1      37.041  31.533  29.140  1.00  0.00    -0.014 A 
BRANCH  39  40
ATOM     40  C   UNL A   1      38.042  30.787  29.903  1.00  0.00     0.031 A 
ATOM     41  C   UNL A   1      38.966  29.841  29.235  1.00  0.00     0.074 A 
ATOM     42  C   UNL A   1      38.118  31.127  31.202  1.00  0.00     0.049 A 
ATOM     43  N   UNL A   1      40.000  29.232  29.741  1.00  0.00    -0.248 NA
ATOM     44  C   UNL A   1      38.701  29.533  27.822  1.00  0.00     0.031 C 
ATOM     45  C   UNL A   1      37.218  32.081  31.869  1.00  0.00     0.029 A 
ATOM     46  N   UNL A   1      39.005  30.777  32.174  1.00  0.00    -0.354 N 
ATOM     47  C   UNL A   1      40.518  28.464  28.713  1.00  0.00     0.074 A 
ATOM     48  C   UNL A   1      39.673  28.670  27.555  1.00  0.00     0.031 C 
ATOM     49  C   UNL A   1      37.644  32.293  33.118  1.00  0.00     0.029 A 
ATOM     50  C   UNL A   1      38.809  31.456  33.352  1.00  0.00     0.049 A 
ATOM     51  H   UNL A   1      39.714  30.106  32.047  1.00  0.00     0.167 HD
ATOM     52  C   UNL A   1      41.604  27.659  28.764  1.00  0.00     0.037 A 
ATOM     53  C   UNL A   1      39.511  31.408  34.494  1.00  0.00     0.037 A 
ATOM     54  C   UNL A   1      42.389  27.482  29.960  1.00  0.00     0.049 A 
ATOM     55  C   UNL A   1      40.708  30.511  34.512  1.00  0.00     0.074 A 
ATOM     56  C   UNL A   1      43.487  26.669  30.168  1.00  0.00     0.029 A 
ATOM     57  N   UNL A   1      42.142  28.140  31.163  1.00  0.00    -0.354 N 
ATOM     58  N   UNL A   1      41.194  29.777  33.537  1.00  0.00    -0.248 NA
ATOM     59  C   UNL A   1      41.448  30.424  35.771  1.00  0.00     0.031 C 
ATOM     60  C   UNL A   1      43.882  26.811  31.504  1.00  0.00     0.029 A 
ATOM     61  C   UNL A   1      43.057  27.741  32.121  1.00  0.00     0.049 A 
ATOM     62  H   UNL A   1      41.421  28.794  31.309  1.00  0.00     0.167 HD
ATOM     63  C   UNL A   1      42.296  29.129  34.063  1.00  0.00     0.074 A 
ATOM     64  C   UNL A   1      42.423  29.590  35.437  1.00  0.00     0.031 C 
ATOM     65  C   UNL A   1      43.120  28.225  33.479  1.00  0.00     0.037 A 
BRANCH  52  66
ATOM     66  C   UNL A   1      41.952  26.895  27.521  1.00  0.00     0.057 A 
ATOM     67  C   UNL A   1      41.501  25.587  27.304  1.00  0.00     0.134 A 
ATOM     68  C   UNL A   1      42.763  27.468  26.535  1.00  0.00     0.134 A 
ATOM     69  F   UNL A   1      40.738  24.969  28.219  1.00  0.00    -0.206 F 
ATOM     70  C   UNL A   1      41.861  24.869  26.160  1.00  0.00     0.040 A 
ATOM     71  C   UNL A   1      43.114  26.769  25.378  1.00  0.00     0.040 A 
ATOM     72  F   UNL A   1      43.237  28.714  26.682  1.00  0.00    -0.206 F 
ATOM     73  C   UNL A   1      42.667  25.462  25.191  1.00  0.00     0.006 A 
ENDBRANCH  52  66
BRANCH  53  74
ATOM     74  C   UNL A   1      39.091  32.231  35.653  1.00  0.00     0.057 A 
ATOM     75  C   UNL A   1      39.467  33.573  35.768  1.00  0.00     0.134 A 
ATOM     76  C   UNL A   1      38.233  31.716  36.635  1.00  0.00     0.134 A 
ATOM     77  F   UNL A   1      40.284  34.126  34.860  1.00  0.00    -0.206 F 
ATOM     78  C   UNL A   1      39.011  34.371  36.820  1.00  0.00     0.040 A 
ATOM     79  C   UNL A   1      37.749  32.509  37.676  1.00  0.00     0.040 A 
ATOM     80  F   UNL A   1      37.816  30.443  36.570  1.00  0.00    -0.206 F 
ATOM     81  C   UNL A   1      38.141  33.842  37.773  1.00  0.00     0.006 A 
ENDBRANCH  53  74
BRANCH  65  82
ATOM     82  C   UNL A   1      44.212  27.690  34.350  1.00  0.00     0.057 A 
ATOM     83  C   UNL A   1      44.048  26.503  35.074  1.00  0.00     0.134 A 
ATOM     84  C   UNL A   1      45.433  28.362  34.454  1.00  0.00     0.134 A 
ATOM     85  F   UNL A   1      42.889  25.831  35.025  1.00  0.00    -0.206 F 
ATOM     86  C   UNL A   1      45.062  26.014  35.896  1.00  0.00     0.040 A 
ATOM     87  C   UNL A   1      46.463  27.870  35.254  1.00  0.00     0.040 A 
ATOM     88  F   UNL A   1      45.645  29.503  33.780  1.00  0.00    -0.206 F 
ATOM     89  C   UNL A   1      46.275  26.695  35.982  1.00  0.00     0.006 A 
ENDBRANCH  65  82
ENDBRANCH  39  40
ENDBRANCH  32  34
ENDBRANCH  31  32
ENDBRANCH  30  31
ENDBRANCH  29  30
ENDBRANCH   1  29
TORSDOF 18
ENDMDL
MODEL 3
REMARK VINA RESULT:     -11.2      3.872      7.242
REMARK SMILES COc1cc(-c2ccc(NC(=O)CCC(=O)OCCOC(=O)c3ccc(-c4c5nc(c(-c6c(F)cccc6F)c6ccc([nH]6)c(-c6c(F)cccc6F)c6nc(c(-c7c(F)cccc7F)c7ccc4[nH]7)C=C6)C=C5)cc3)c(OC)c2)ccc1N
REMARK SMILES IDX 17 1 15 2 16 3 14 4 13 5 11 6 10 7 12 9 9 10 6 11 7 12 80 13
REMARK SMILES IDX 8 14 77 15 5 16 3 17 4 18 83 19 82 20 81 21 2 22 1 23 84 24
REMARK SMILES IDX 78 27 79 28 18 29 19 30 20 31 21 32 22 33 23 34 24 35 76 36
REMARK SMILES IDX 25 37 75 38 26 39 27 40 28 41 69 42 29 43 74 44 68 45 70 46
REMARK SMILES IDX 30 47 73 48 67 49 66 50 31 52 57 53 40 54 56 55 41 56 44 57
REMARK SMILES IDX 55 58 71 59 42 60 43 61 54 63 72 64 45 65 32 66 33 67 38 68
REMARK SMILES IDX 34 69 35 70 37 71 39 72 36 73 58 74 59 75 64 76 60 77 61 78
REMARK SMILES IDX 63 79 65 80 62 81 46 82 47 83 52 84 48 85 49 86 51 87 53 88
REMARK SMILES IDX 50 89
REMARK H PARENT 10 8 84 25 84 26 70 51 44 62
REMARK Flexibility Score: inf
ROOT
ATOM      1  O   UNL A   1      35.226  22.713  24.368  1.00  0.00    -0.462 OA
ENDROOT
BRANCH   1   2
ATOM      2  C   UNL A   1      34.925  23.508  25.427  1.00  0.00     0.306 C 
ATOM      3  O   UNL A   1      34.816  23.085  26.574  1.00  0.00    -0.252 OA
BRANCH   2   4
ATOM      4  C   UNL A   1      34.628  24.960  25.028  1.00  0.00     0.132 C 
BRANCH   4   5
ATOM      5  C   UNL A   1      33.659  25.267  23.860  1.00  0.00     0.112 C 
BRANCH   5   6
ATOM      6  C   UNL A   1      32.160  25.331  24.229  1.00  0.00     0.225 C 
ATOM      7  N   UNL A   1      31.284  24.265  24.060  1.00  0.00    -0.323 N 
ATOM      8  H   UNL A   1      30.333  24.510  23.990  1.00  0.00     0.170 HD
ATOM      9  O   UNL A   1      31.673  26.416  24.574  1.00  0.00    -0.275 OA
BRANCH   7  10
ATOM     10  C   UNL A   1      31.560  22.882  23.973  1.00  0.00     0.083 A 
ATOM     11  C   UNL A   1      32.686  20.247  23.993  1.00  0.00    -0.014 A 
ATOM     12  C   UNL A   1      32.310  20.867  22.791  1.00  0.00     0.011 A 
ATOM     13  C   UNL A   1      32.251  20.911  25.129  1.00  0.00     0.057 A 
ATOM     14  C   UNL A   1      31.781  22.196  22.777  1.00  0.00     0.031 A 
ATOM     15  C   UNL A   1      31.547  22.101  25.096  1.00  0.00     0.142 A 
BRANCH  11  16
ATOM     16  C   UNL A   1      33.502  19.010  24.179  1.00  0.00    -0.014 A 
ATOM     17  C   UNL A   1      33.550  16.561  24.592  1.00  0.00     0.142 A 
ATOM     18  C   UNL A   1      32.895  17.725  24.169  1.00  0.00     0.057 A 
ATOM     19  C   UNL A   1      34.910  16.607  24.898  1.00  0.00     0.074 A 
ATOM     20  C   UNL A   1      35.537  17.859  24.888  1.00  0.00     0.030 A 
ATOM     21  C   UNL A   1      34.852  19.040  24.533  1.00  0.00     0.011 A 
BRANCH  17  22
ATOM     22  O   UNL A   1      32.776  15.426  24.612  1.00  0.00    -0.495 OA
ATOM     23  C   UNL A   1      32.189  15.121  25.879  1.00  0.00     0.278 C 
ENDBRANCH  17  22
BRANCH  19  24
ATOM     24  N   UNL A   1      35.617  15.483  25.311  1.00  0.00    -0.396 N 
ATOM     25  H   UNL A   1      35.284  14.939  26.061  1.00  0.00     0.156 HD
ATOM     26  H   UNL A   1      36.451  15.230  24.853  1.00  0.00     0.156 HD
ENDBRANCH  19  24
ENDBRANCH  11  16
BRANCH  15  27
ATOM     27  O   UNL A   1      30.853  22.424  26.214  1.00  0.00    -0.495 OA
ATOM     28  C   UNL A   1      31.622  23.085  27.217  1.00  0.00     0.278 C 
ENDBRANCH  15  27
ENDBRANCH   7  10
ENDBRANCH   5   6
ENDBRANCH   4   5
ENDBRANCH   2   4
ENDBRANCH   1   2
BRANCH   1  29
ATOM     29  C   UNL A   1      36.588  22.649  23.872  1.00  0.00     0.274 C 
BRANCH  29  30
ATOM     30  C   UNL A   1      37.402  21.467  24.427  1.00  0.00     0.275 C 
BRANCH  30  31
ATOM     31  O   UNL A   1      37.725  21.600  25.825  1.00  0.00    -0.458 OA
BRANCH  31  32
ATOM     32  C   UNL A   1      39.029  21.544  26.114  1.00  0.00     0.338 C 
ATOM     33  O   UNL A   1      39.810  20.612  25.955  1.00  0.00    -0.246 OA
BRANCH  32  34
ATOM     34  C   UNL A   1      39.572  22.763  26.635  1.00  0.00     0.060 A 
ATOM     35  C   UNL A   1      40.601  22.637  27.566  1.00  0.00     0.016 A 
ATOM     36  C   UNL A   1      38.909  23.970  26.394  1.00  0.00     0.016 A 
ATOM     37  C   UNL A   1      41.040  23.765  28.217  1.00  0.00     0.010 A 
ATOM     38  C   UNL A   1      39.382  25.115  27.012  1.00  0.00     0.010 A 
ATOM     39  C   UNL A   1      40.479  25.007  27.878  1.00  0.00    -0.014 A 
BRANCH  39  40
ATOM     40  C   UNL A   1      41.285  26.186  28.194  1.00  0.00     0.031 A 
ATOM     41  C   UNL A   1      42.645  26.359  27.632  1.00  0.00     0.074 A 
ATOM     42  C   UNL A   1      40.643  27.121  28.919  1.00  0.00     0.049 A 
ATOM     43  N   UNL A   1      43.412  27.410  27.688  1.00  0.00    -0.248 NA
ATOM     44  C   UNL A   1      43.223  25.212  26.917  1.00  0.00     0.031 C 
ATOM     45  C   UNL A   1      39.285  26.966  29.464  1.00  0.00     0.029 A 
ATOM     46  N   UNL A   1      40.997  28.387  29.271  1.00  0.00    -0.354 N 
ATOM     47  C   UNL A   1      44.571  27.059  27.017  1.00  0.00     0.074 A 
ATOM     48  C   UNL A   1      44.413  25.689  26.575  1.00  0.00     0.031 C 
ATOM     49  C   UNL A   1      38.896  28.119  30.016  1.00  0.00     0.029 A 
ATOM     50  C   UNL A   1      39.990  29.069  29.909  1.00  0.00     0.049 A 
ATOM     51  H   UNL A   1      41.883  28.775  29.087  1.00  0.00     0.167 HD
ATOM     52  C   UNL A   1      45.660  27.834  26.810  1.00  0.00     0.037 A 
ATOM     53  C   UNL A   1      39.961  30.336  30.350  1.00  0.00     0.037 A 
ATOM     54  C   UNL A   1      45.760  29.186  27.300  1.00  0.00     0.049 A 
ATOM     55  C   UNL A   1      41.180  31.165  30.099  1.00  0.00     0.074 A 
ATOM     56  C   UNL A   1      46.816  30.071  27.201  1.00  0.00     0.029 A 
ATOM     57  N   UNL A   1      44.747  29.844  27.993  1.00  0.00    -0.354 N 
ATOM     58  N   UNL A   1      42.282  30.828  29.468  1.00  0.00    -0.248 NA
ATOM     59  C   UNL A   1      41.167  32.533  30.618  1.00  0.00     0.031 C 
ATOM     60  C   UNL A   1      46.454  31.251  27.863  1.00  0.00     0.029 A 
ATOM     61  C   UNL A   1      45.158  31.118  28.342  1.00  0.00     0.049 A 
ATOM     62  H   UNL A   1      43.867  29.458  28.205  1.00  0.00     0.167 HD
ATOM     63  C   UNL A   1      43.103  31.939  29.518  1.00  0.00     0.074 A 
ATOM     64  C   UNL A   1      42.351  32.972  30.213  1.00  0.00     0.031 C 
ATOM     65  C   UNL A   1      44.366  32.095  29.051  1.00  0.00     0.037 A 
BRANCH  52  66
ATOM     66  C   UNL A   1      46.814  27.216  26.079  1.00  0.00     0.057 A 
ATOM     67  C   UNL A   1      47.786  26.453  26.739  1.00  0.00     0.134 A 
ATOM     68  C   UNL A   1      46.967  27.400  24.700  1.00  0.00     0.134 A 
ATOM     69  F   UNL A   1      47.714  26.255  28.064  1.00  0.00    -0.206 F 
ATOM     70  C   UNL A   1      48.880  25.912  26.056  1.00  0.00     0.040 A 
ATOM     71  C   UNL A   1      48.044  26.848  24.002  1.00  0.00     0.040 A 
ATOM     72  F   UNL A   1      46.077  28.126  24.008  1.00  0.00    -0.206 F 
ATOM     73  C   UNL A   1      49.008  26.106  24.682  1.00  0.00     0.006 A 
ENDBRANCH  52  66
BRANCH  53  74
ATOM     74  C   UNL A   1      38.752  30.851  31.035  1.00  0.00     0.057 A 
ATOM     75  C   UNL A   1      38.591  30.732  32.418  1.00  0.00     0.134 A 
ATOM     76  C   UNL A   1      37.761  31.550  30.330  1.00  0.00     0.134 A 
ATOM     77  F   UNL A   1      39.503  30.077  33.151  1.00  0.00    -0.206 F 
ATOM     78  C   UNL A   1      37.488  31.283  33.075  1.00  0.00     0.040 A 
ATOM     79  C   UNL A   1      36.668  32.128  30.976  1.00  0.00     0.040 A 
ATOM     80  F   UNL A   1      37.868  31.721  29.003  1.00  0.00    -0.206 F 
ATOM     81  C   UNL A   1      36.527  31.992  32.354  1.00  0.00     0.006 A 
ENDBRANCH  53  74
BRANCH  65  82
ATOM     82  C   UNL A   1      44.986  33.433  29.301  1.00  0.00     0.057 A 
ATOM     83  C   UNL A   1      45.745  33.680  30.451  1.00  0.00     0.134 A 
ATOM     84  C   UNL A   1      44.829  34.473  28.379  1.00  0.00     0.134 A 
ATOM     85  F   UNL A   1      45.910  32.722  31.376  1.00  0.00    -0.206 F 
ATOM     86  C   UNL A   1      46.310  34.931  30.688  1.00  0.00     0.040 A 
ATOM     87  C   UNL A   1      45.409  35.722  28.595  1.00  0.00     0.040 A 
ATOM     88  F   UNL A   1      44.112  34.291  27.260  1.00  0.00    -0.206 F 
ATOM     89  C   UNL A   1      46.147  35.954  29.755  1.00  0.00     0.006 A 
ENDBRANCH  65  82
ENDBRANCH  39  40
ENDBRANCH  32  34
ENDBRANCH  31  32
ENDBRANCH  30  31
ENDBRANCH  29  30
ENDBRANCH   1  29
TORSDOF 18
ENDMDL
