MODEL 1
REMARK VINA RESULT:     -12.1      0.000      0.000
REMARK SMILES Cc1ccnc(C(=O)c2[nH]c3cc(F)ccc3c2CC(=O)OCCOC(=O)c2ccc(-c3c4nc(c(-c5c(F)cccc5F)c5ccc([nH]5)c(-c5c(F)cccc5F)c5nc(c(-c6c(F)cccc6F)c6ccc3[nH]6)C=C5)C=C4)cc2)c1
REMARK SMILES IDX 23 1 22 2 20 3 21 4 19 5 18 6 9 7 10 8 11 9 17 11 12 12
REMARK SMILES IDX 16 13 13 14 15 15 14 16 7 17 8 18 6 19 1 20 2 21 3 22 82 23
REMARK SMILES IDX 4 24 5 25 24 26 25 27 26 28 27 29 28 30 29 31 81 32 30 33
REMARK SMILES IDX 80 34 31 35 32 36 33 37 74 38 34 39 79 40 73 41 75 42 35 43
REMARK SMILES IDX 78 44 72 45 71 46 36 48 62 49 45 50 61 51 46 52 49 53 60 54
REMARK SMILES IDX 76 55 47 56 48 57 59 59 77 60 50 61 37 62 38 63 43 64 39 65
REMARK SMILES IDX 40 66 42 67 44 68 41 69 63 70 64 71 69 72 65 73 66 74 68 75
REMARK SMILES IDX 70 76 67 77 51 78 52 79 57 80 53 81 54 82 56 83 58 84 55 85
REMARK H PARENT 10 10 75 47 49 58
REMARK Flexibility Score: inf
ROOT
ATOM      1  C   UNL A   1      35.528  21.245  25.638  1.00  0.00     0.274 C 
ENDROOT
BRANCH   1   2
ATOM      2  O   UNL A   1      35.428  22.627  25.223  1.00  0.00    -0.462 OA
BRANCH   2   3
ATOM      3  C   UNL A   1      34.775  23.457  26.071  1.00  0.00     0.310 C 
ATOM      4  O   UNL A   1      34.665  23.251  27.280  1.00  0.00    -0.252 OA
BRANCH   3   5
ATOM      5  C   UNL A   1      34.286  24.757  25.472  1.00  0.00     0.161 C 
BRANCH   5   6
ATOM      6  C   UNL A   1      33.134  25.492  26.083  1.00  0.00     0.000 A 
ATOM      7  C   UNL A   1      31.866  25.012  26.409  1.00  0.00     0.093 A 
ATOM      8  N   UNL A   1      31.137  26.079  26.877  1.00  0.00    -0.351 N 
ATOM      9  C   UNL A   1      31.823  27.252  26.717  1.00  0.00     0.049 A 
ATOM     10  H   UNL A   1      30.239  26.009  27.274  1.00  0.00     0.167 HD
ATOM     11  C   UNL A   1      33.107  26.917  26.295  1.00  0.00     0.004 A 
ATOM     12  C   UNL A   1      31.404  28.569  26.925  1.00  0.00     0.066 A 
ATOM     13  C   UNL A   1      34.045  27.960  26.116  1.00  0.00     0.013 A 
ATOM     14  C   UNL A   1      32.345  29.572  26.715  1.00  0.00     0.125 A 
ATOM     15  C   UNL A   1      33.648  29.286  26.332  1.00  0.00     0.040 A 
ATOM     16  F   UNL A   1      31.979  30.850  26.888  1.00  0.00    -0.207 F 
BRANCH   7  17
ATOM     17  C   UNL A   1      31.245  23.694  26.402  1.00  0.00     0.227 C 
ATOM     18  O   UNL A   1      30.400  23.412  27.251  1.00  0.00    -0.285 OA
BRANCH  17  19
ATOM     19  C   UNL A   1      31.404  22.790  25.199  1.00  0.00     0.113 A 
ATOM     20  C   UNL A   1      32.711  19.340  24.289  1.00  0.00     0.044 C 
ATOM     21  C   UNL A   1      32.180  20.741  24.196  1.00  0.00    -0.047 A 
ATOM     22  C   UNL A   1      32.153  21.382  22.958  1.00  0.00     0.023 A 
ATOM     23  C   UNL A   1      31.779  21.452  25.337  1.00  0.00     0.036 A 
ATOM     24  C   UNL A   1      31.739  22.700  22.906  1.00  0.00     0.112 A 
ATOM     25  N   UNL A   1      31.374  23.414  23.989  1.00  0.00    -0.253 NA
ENDBRANCH  17  19
ENDBRANCH   7  17
ENDBRANCH   5   6
ENDBRANCH   3   5
ENDBRANCH   2   3
ENDBRANCH   1   2
BRANCH   1  26
ATOM     26  C   UNL A   1      36.735  20.532  25.007  1.00  0.00     0.275 C 
BRANCH  26  27
ATOM     27  O   UNL A   1      37.899  21.382  24.887  1.00  0.00    -0.458 OA
BRANCH  27  28
ATOM     28  C   UNL A   1      38.864  21.085  25.777  1.00  0.00     0.338 C 
ATOM     29  O   UNL A   1      39.393  19.992  25.937  1.00  0.00    -0.246 OA
BRANCH  28  30
ATOM     30  C   UNL A   1      39.387  22.241  26.501  1.00  0.00     0.060 A 
ATOM     31  C   UNL A   1      38.923  23.493  26.097  1.00  0.00     0.016 A 
ATOM     32  C   UNL A   1      40.502  22.128  27.332  1.00  0.00     0.016 A 
ATOM     33  C   UNL A   1      39.621  24.635  26.449  1.00  0.00     0.010 A 
ATOM     34  C   UNL A   1      41.158  23.290  27.753  1.00  0.00     0.010 A 
ATOM     35  C   UNL A   1      40.741  24.549  27.289  1.00  0.00    -0.014 A 
BRANCH  35  36
ATOM     36  C   UNL A   1      41.405  25.810  27.694  1.00  0.00     0.031 A 
ATOM     37  C   UNL A   1      42.810  26.129  27.274  1.00  0.00     0.074 A 
ATOM     38  C   UNL A   1      40.673  26.721  28.364  1.00  0.00     0.049 A 
ATOM     39  N   UNL A   1      43.489  27.235  27.446  1.00  0.00    -0.248 NA
ATOM     40  C   UNL A   1      43.546  25.079  26.556  1.00  0.00     0.031 C 
ATOM     41  C   UNL A   1      39.286  26.531  28.793  1.00  0.00     0.029 A 
ATOM     42  N   UNL A   1      40.979  27.992  28.771  1.00  0.00    -0.354 N 
ATOM     43  C   UNL A   1      44.719  27.025  26.841  1.00  0.00     0.074 A 
ATOM     44  C   UNL A   1      44.710  25.673  26.322  1.00  0.00     0.031 C 
ATOM     45  C   UNL A   1      38.848  27.658  29.371  1.00  0.00     0.029 A 
ATOM     46  C   UNL A   1      39.938  28.625  29.401  1.00  0.00     0.049 A 
ATOM     47  H   UNL A   1      41.859  28.409  28.626  1.00  0.00     0.167 HD
ATOM     48  C   UNL A   1      45.759  27.886  26.724  1.00  0.00     0.037 A 
ATOM     49  C   UNL A   1      39.874  29.846  29.960  1.00  0.00     0.037 A 
ATOM     50  C   UNL A   1      45.783  29.213  27.281  1.00  0.00     0.049 A 
ATOM     51  C   UNL A   1      41.080  30.734  29.913  1.00  0.00     0.074 A 
ATOM     52  C   UNL A   1      46.802  30.151  27.240  1.00  0.00     0.029 A 
ATOM     53  N   UNL A   1      44.744  29.786  28.000  1.00  0.00    -0.354 N 
ATOM     54  N   UNL A   1      42.233  30.527  29.326  1.00  0.00    -0.248 NA
ATOM     55  C   UNL A   1      40.979  32.018  30.617  1.00  0.00     0.031 C 
ATOM     56  C   UNL A   1      46.394  31.276  27.968  1.00  0.00     0.029 A 
ATOM     57  C   UNL A   1      45.108  31.051  28.433  1.00  0.00     0.049 A 
ATOM     58  H   UNL A   1      43.876  29.356  28.177  1.00  0.00     0.167 HD
ATOM     59  C   UNL A   1      42.997  31.654  29.586  1.00  0.00     0.074 A 
ATOM     60  C   UNL A   1      42.165  32.552  30.363  1.00  0.00     0.031 C 
ATOM     61  C   UNL A   1      44.274  31.920  29.221  1.00  0.00     0.037 A 
BRANCH  48  62
ATOM     62  C   UNL A   1      46.968  27.413  25.976  1.00  0.00     0.057 A 
ATOM     63  C   UNL A   1      48.017  26.748  26.625  1.00  0.00     0.134 A 
ATOM     64  C   UNL A   1      47.062  27.570  24.588  1.00  0.00     0.134 A 
ATOM     65  F   UNL A   1      47.996  26.583  27.957  1.00  0.00    -0.206 F 
ATOM     66  C   UNL A   1      49.115  26.255  25.918  1.00  0.00     0.040 A 
ATOM     67  C   UNL A   1      48.151  27.073  23.869  1.00  0.00     0.040 A 
ATOM     68  F   UNL A   1      46.092  28.201  23.908  1.00  0.00    -0.206 F 
ATOM     69  C   UNL A   1      49.180  26.411  24.535  1.00  0.00     0.006 A 
ENDBRANCH  48  62
BRANCH  49  70
ATOM     70  C   UNL A   1      38.630  30.275  30.641  1.00  0.00     0.057 A 
ATOM     71  C   UNL A   1      38.388  29.955  31.981  1.00  0.00     0.134 A 
ATOM     72  C   UNL A   1      37.662  31.028  29.967  1.00  0.00     0.134 A 
ATOM     73  F   UNL A   1      39.272  29.221  32.671  1.00  0.00    -0.206 F 
ATOM     74  C   UNL A   1      37.219  30.366  32.625  1.00  0.00     0.040 A 
ATOM     75  C   UNL A   1      36.501  31.464  30.605  1.00  0.00     0.040 A 
ATOM     76  F   UNL A   1      37.842  31.368  28.682  1.00  0.00    -0.206 F 
ATOM     77  C   UNL A   1      36.276  31.128  31.937  1.00  0.00     0.006 A 
ENDBRANCH  49  70
BRANCH  61  78
ATOM     78  C   UNL A   1      44.835  33.234  29.670  1.00  0.00     0.057 A 
ATOM     79  C   UNL A   1      44.692  34.391  28.893  1.00  0.00     0.134 A 
ATOM     80  C   UNL A   1      45.531  33.343  30.879  1.00  0.00     0.134 A 
ATOM     81  F   UNL A   1      44.051  34.344  27.716  1.00  0.00    -0.206 F 
ATOM     82  C   UNL A   1      45.248  35.607  29.292  1.00  0.00     0.040 A 
ATOM     83  C   UNL A   1      46.075  34.557  31.297  1.00  0.00     0.040 A 
ATOM     84  F   UNL A   1      45.698  32.270  31.667  1.00  0.00    -0.206 F 
ATOM     85  C   UNL A   1      45.940  35.692  30.499  1.00  0.00     0.006 A 
ENDBRANCH  61  78
ENDBRANCH  35  36
ENDBRANCH  28  30
ENDBRANCH  27  28
ENDBRANCH  26  27
ENDBRANCH   1  26
TORSDOF 14
ENDMDL
MODEL 2
REMARK VINA RESULT:     -12.0      1.953      3.894
REMARK SMILES Cc1ccnc(C(=O)c2[nH]c3cc(F)ccc3c2CC(=O)OCCOC(=O)c2ccc(-c3c4nc(c(-c5c(F)cccc5F)c5ccc([nH]5)c(-c5c(F)cccc5F)c5nc(c(-c6c(F)cccc6F)c6ccc3[nH]6)C=C5)C=C4)cc2)c1
REMARK SMILES IDX 23 1 22 2 20 3 21 4 19 5 18 6 9 7 10 8 11 9 17 11 12 12
REMARK SMILES IDX 16 13 13 14 15 15 14 16 7 17 8 18 6 19 1 20 2 21 3 22 82 23
REMARK SMILES IDX 4 24 5 25 24 26 25 27 26 28 27 29 28 30 29 31 81 32 30 33
REMARK SMILES IDX 80 34 31 35 32 36 33 37 74 38 34 39 79 40 73 41 75 42 35 43
REMARK SMILES IDX 78 44 72 45 71 46 36 48 62 49 45 50 61 51 46 52 49 53 60 54
REMARK SMILES IDX 76 55 47 56 48 57 59 59 77 60 50 61 37 62 38 63 43 64 39 65
REMARK SMILES IDX 40 66 42 67 44 68 41 69 63 70 64 71 69 72 65 73 66 74 68 75
REMARK SMILES IDX 70 76 67 77 51 78 52 79 57 80 53 81 54 82 56 83 58 84 55 85
REMARK H PARENT 10 10 75 47 49 58
REMARK Flexibility Score: inf
ROOT
ATOM      1  C   UNL A   1      36.369  22.991  23.639  1.00  0.00     0.274 C 
ENDROOT
BRANCH   1   2
ATOM      2  O   UNL A   1      35.398  22.935  22.568  1.00  0.00    -0.462 OA
BRANCH   2   3
ATOM      3  C   UNL A   1      34.211  23.541  22.810  1.00  0.00     0.310 C 
ATOM      4  O   UNL A   1      34.053  24.762  22.805  1.00  0.00    -0.252 OA
BRANCH   3   5
ATOM      5  C   UNL A   1      33.022  22.619  22.961  1.00  0.00     0.161 C 
BRANCH   5   6
ATOM      6  C   UNL A   1      32.903  21.716  24.148  1.00  0.00     0.000 A 
ATOM      7  C   UNL A   1      33.110  22.013  25.496  1.00  0.00     0.093 A 
ATOM      8  N   UNL A   1      32.952  20.842  26.197  1.00  0.00    -0.351 N 
ATOM      9  C   UNL A   1      32.812  19.776  25.352  1.00  0.00     0.049 A 
ATOM     10  H   UNL A   1      32.941  20.778  27.180  1.00  0.00     0.167 HD
ATOM     11  C   UNL A   1      32.700  20.292  24.063  1.00  0.00     0.004 A 
ATOM     12  C   UNL A   1      32.767  18.408  25.635  1.00  0.00     0.066 A 
ATOM     13  C   UNL A   1      32.480  19.389  22.998  1.00  0.00     0.013 A 
ATOM     14  C   UNL A   1      32.576  17.546  24.561  1.00  0.00     0.125 A 
ATOM     15  C   UNL A   1      32.418  18.014  23.263  1.00  0.00     0.040 A 
ATOM     16  F   UNL A   1      32.542  16.225  24.788  1.00  0.00    -0.207 F 
BRANCH   7  17
ATOM     17  C   UNL A   1      33.379  23.238  26.237  1.00  0.00     0.227 C 
ATOM     18  O   UNL A   1      34.436  23.358  26.855  1.00  0.00    -0.285 OA
BRANCH  17  19
ATOM     19  C   UNL A   1      32.522  24.464  26.009  1.00  0.00     0.113 A 
ATOM     20  C   UNL A   1      32.714  28.251  26.259  1.00  0.00     0.044 C 
ATOM     21  C   UNL A   1      32.198  26.850  26.101  1.00  0.00    -0.047 A 
ATOM     22  C   UNL A   1      30.822  26.624  26.090  1.00  0.00     0.023 A 
ATOM     23  C   UNL A   1      33.066  25.750  26.039  1.00  0.00     0.036 A 
ATOM     24  C   UNL A   1      30.367  25.321  26.028  1.00  0.00     0.112 A 
ATOM     25  N   UNL A   1      31.178  24.245  25.995  1.00  0.00    -0.253 NA
ENDBRANCH  17  19
ENDBRANCH   7  17
ENDBRANCH   5   6
ENDBRANCH   3   5
ENDBRANCH   2   3
ENDBRANCH   1   2
BRANCH   1  26
ATOM     26  C   UNL A   1      36.629  21.610  24.262  1.00  0.00     0.275 C 
BRANCH  26  27
ATOM     27  O   UNL A   1      37.014  21.677  25.654  1.00  0.00    -0.458 OA
BRANCH  27  28
ATOM     28  C   UNL A   1      38.334  21.498  25.848  1.00  0.00     0.338 C 
ATOM     29  O   UNL A   1      39.020  20.595  25.386  1.00  0.00    -0.246 OA
BRANCH  28  30
ATOM     30  C   UNL A   1      38.984  22.584  26.575  1.00  0.00     0.060 A 
ATOM     31  C   UNL A   1      38.562  23.879  26.275  1.00  0.00     0.016 A 
ATOM     32  C   UNL A   1      40.159  22.368  27.296  1.00  0.00     0.016 A 
ATOM     33  C   UNL A   1      39.353  24.962  26.616  1.00  0.00     0.010 A 
ATOM     34  C   UNL A   1      40.917  23.470  27.711  1.00  0.00     0.010 A 
ATOM     35  C   UNL A   1      40.535  24.772  27.346  1.00  0.00    -0.014 A 
BRANCH  35  36
ATOM     36  C   UNL A   1      41.304  25.972  27.748  1.00  0.00     0.031 A 
ATOM     37  C   UNL A   1      42.721  26.185  27.301  1.00  0.00     0.074 A 
ATOM     38  C   UNL A   1      40.661  26.930  28.443  1.00  0.00     0.049 A 
ATOM     39  N   UNL A   1      43.488  27.232  27.469  1.00  0.00    -0.248 NA
ATOM     40  C   UNL A   1      43.357  25.089  26.557  1.00  0.00     0.031 C 
ATOM     41  C   UNL A   1      39.272  26.845  28.900  1.00  0.00     0.029 A 
ATOM     42  N   UNL A   1      41.075  28.168  28.856  1.00  0.00    -0.354 N 
ATOM     43  C   UNL A   1      44.685  26.934  26.834  1.00  0.00     0.074 A 
ATOM     44  C   UNL A   1      44.559  25.593  26.303  1.00  0.00     0.031 C 
ATOM     45  C   UNL A   1      38.937  27.996  29.500  1.00  0.00     0.029 A 
ATOM     46  C   UNL A   1      40.100  28.874  29.515  1.00  0.00     0.049 A 
ATOM     47  H   UNL A   1      41.981  28.517  28.696  1.00  0.00     0.167 HD
ATOM     48  C   UNL A   1      45.787  27.712  26.703  1.00  0.00     0.037 A 
ATOM     49  C   UNL A   1      40.143  30.090  30.087  1.00  0.00     0.037 A 
ATOM     50  C   UNL A   1      45.927  29.027  27.272  1.00  0.00     0.049 A 
ATOM     51  C   UNL A   1      41.414  30.881  30.022  1.00  0.00     0.074 A 
ATOM     52  C   UNL A   1      47.015  29.882  27.217  1.00  0.00     0.029 A 
ATOM     53  N   UNL A   1      44.952  29.671  28.019  1.00  0.00    -0.354 N 
ATOM     54  N   UNL A   1      42.535  30.591  29.407  1.00  0.00    -0.248 NA
ATOM     55  C   UNL A   1      41.429  32.161  30.740  1.00  0.00     0.031 C 
ATOM     56  C   UNL A   1      46.712  31.027  27.966  1.00  0.00     0.029 A 
ATOM     57  C   UNL A   1      45.423  30.898  28.456  1.00  0.00     0.049 A 
ATOM     58  H   UNL A   1      44.057  29.309  28.212  1.00  0.00     0.167 HD
ATOM     59  C   UNL A   1      43.390  31.652  29.662  1.00  0.00     0.074 A 
ATOM     60  C   UNL A   1      42.649  32.604  30.465  1.00  0.00     0.031 C 
ATOM     61  C   UNL A   1      44.676  31.821  29.271  1.00  0.00     0.037 A 
BRANCH  48  62
ATOM     62  C   UNL A   1      46.939  27.154  25.924  1.00  0.00     0.057 A 
ATOM     63  C   UNL A   1      47.084  27.403  24.553  1.00  0.00     0.134 A 
ATOM     64  C   UNL A   1      47.943  26.412  26.558  1.00  0.00     0.134 A 
ATOM     65  F   UNL A   1      46.147  28.092  23.884  1.00  0.00    -0.206 F 
ATOM     66  C   UNL A   1      48.190  26.934  23.841  1.00  0.00     0.040 A 
ATOM     67  C   UNL A   1      49.058  25.945  25.858  1.00  0.00     0.040 A 
ATOM     68  F   UNL A   1      47.861  26.137  27.868  1.00  0.00    -0.206 F 
ATOM     69  C   UNL A   1      49.184  26.209  24.495  1.00  0.00     0.006 A 
ENDBRANCH  48  62
BRANCH  49  70
ATOM     70  C   UNL A   1      38.952  30.607  30.799  1.00  0.00     0.057 A 
ATOM     71  C   UNL A   1      38.719  30.299  32.143  1.00  0.00     0.134 A 
ATOM     72  C   UNL A   1      38.027  31.435  30.152  1.00  0.00     0.134 A 
ATOM     73  F   UNL A   1      39.561  29.496  32.809  1.00  0.00    -0.206 F 
ATOM     74  C   UNL A   1      37.600  30.792  32.817  1.00  0.00     0.040 A 
ATOM     75  C   UNL A   1      36.919  31.953  30.819  1.00  0.00     0.040 A 
ATOM     76  F   UNL A   1      38.202  31.768  28.864  1.00  0.00    -0.206 F 
ATOM     77  C   UNL A   1      36.700  31.628  32.155  1.00  0.00     0.006 A 
ENDBRANCH  49  70
BRANCH  61  78
ATOM     78  C   UNL A   1      45.348  33.082  29.720  1.00  0.00     0.057 A 
ATOM     79  C   UNL A   1      45.283  34.254  28.956  1.00  0.00     0.134 A 
ATOM     80  C   UNL A   1      46.074  33.123  30.916  1.00  0.00     0.134 A 
ATOM     81  F   UNL A   1      44.618  34.271  27.791  1.00  0.00    -0.206 F 
ATOM     82  C   UNL A   1      45.941  35.419  29.354  1.00  0.00     0.040 A 
ATOM     83  C   UNL A   1      46.720  34.286  31.334  1.00  0.00     0.040 A 
ATOM     84  F   UNL A   1      46.170  32.032  31.691  1.00  0.00    -0.206 F 
ATOM     85  C   UNL A   1      46.661  35.436  30.548  1.00  0.00     0.006 A 
ENDBRANCH  61  78
ENDBRANCH  35  36
ENDBRANCH  28  30
ENDBRANCH  27  28
ENDBRANCH  26  27
ENDBRANCH   1  26
TORSDOF 14
ENDMDL
MODEL 3
REMARK VINA RESULT:     -12.0      4.150      8.726
REMARK SMILES Cc1ccnc(C(=O)c2[nH]c3cc(F)ccc3c2CC(=O)OCCOC(=O)c2ccc(-c3c4nc(c(-c5c(F)cccc5F)c5ccc([nH]5)c(-c5c(F)cccc5F)c5nc(c(-c6c(F)cccc6F)c6ccc3[nH]6)C=C5)C=C4)cc2)c1
REMARK SMILES IDX 23 1 22 2 20 3 21 4 19 5 18 6 9 7 10 8 11 9 17 11 12 12
REMARK SMILES IDX 16 13 13 14 15 15 14 16 7 17 8 18 6 19 1 20 2 21 3 22 82 23
REMARK SMILES IDX 4 24 5 25 24 26 25 27 26 28 27 29 28 30 29 31 81 32 30 33
REMARK SMILES IDX 80 34 31 35 32 36 33 37 74 38 34 39 79 40 73 41 75 42 35 43
REMARK SMILES IDX 78 44 72 45 71 46 36 48 62 49 45 50 61 51 46 52 49 53 60 54
REMARK SMILES IDX 76 55 47 56 48 57 59 59 77 60 50 61 37 62 38 63 43 64 39 65
REMARK SMILES IDX 40 66 42 67 44 68 41 69 63 70 64 71 69 72 65 73 66 74 68 75
REMARK SMILES IDX 70 76 67 77 51 78 52 79 57 80 53 81 54 82 56 83 58 84 55 85
REMARK H PARENT 10 10 75 47 49 58
REMARK Flexibility Score: inf
ROOT
ATOM      1  C   UNL A   1      32.436  28.758  25.428  1.00  0.00     0.274 C 
ENDROOT
BRANCH   1   2
ATOM      2  O   UNL A   1      31.636  27.778  26.130  1.00  0.00    -0.462 OA
BRANCH   2   3
ATOM      3  C   UNL A   1      32.221  26.575  26.342  1.00  0.00     0.310 C 
ATOM      4  O   UNL A   1      31.650  25.622  26.872  1.00  0.00    -0.252 OA
BRANCH   3   5
ATOM      5  C   UNL A   1      33.607  26.407  25.761  1.00  0.00     0.161 C 
BRANCH   5   6
ATOM      6  C   UNL A   1      33.897  25.307  24.789  1.00  0.00     0.000 A 
ATOM      7  C   UNL A   1      33.561  25.225  23.437  1.00  0.00     0.093 A 
ATOM      8  N   UNL A   1      33.980  23.995  22.990  1.00  0.00    -0.351 N 
ATOM      9  C   UNL A   1      34.425  23.220  24.025  1.00  0.00     0.049 A 
ATOM     10  H   UNL A   1      33.962  23.709  22.048  1.00  0.00     0.167 HD
ATOM     11  C   UNL A   1      34.461  24.033  25.155  1.00  0.00     0.004 A 
ATOM     12  C   UNL A   1      34.804  21.874  24.037  1.00  0.00     0.066 A 
ATOM     13  C   UNL A   1      34.951  23.480  26.360  1.00  0.00     0.013 A 
ATOM     14  C   UNL A   1      35.257  21.356  25.246  1.00  0.00     0.125 A 
ATOM     15  C   UNL A   1      35.349  22.137  26.390  1.00  0.00     0.040 A 
ATOM     16  F   UNL A   1      35.616  20.066  25.304  1.00  0.00    -0.207 F 
BRANCH   7  17
ATOM     17  C   UNL A   1      32.955  26.145  22.483  1.00  0.00     0.227 C 
ATOM     18  O   UNL A   1      33.513  26.366  21.409  1.00  0.00    -0.285 OA
BRANCH  17  19
ATOM     19  C   UNL A   1      31.520  26.587  22.667  1.00  0.00     0.113 A 
ATOM     20  C   UNL A   1      29.401  29.740  22.568  1.00  0.00     0.044 C 
ATOM     21  C   UNL A   1      29.854  28.325  22.781  1.00  0.00    -0.047 A 
ATOM     22  C   UNL A   1      29.044  27.447  23.501  1.00  0.00     0.023 A 
ATOM     23  C   UNL A   1      31.108  27.880  22.337  1.00  0.00     0.036 A 
ATOM     24  C   UNL A   1      29.516  26.174  23.758  1.00  0.00     0.112 A 
ATOM     25  N   UNL A   1      30.726  25.730  23.367  1.00  0.00    -0.253 NA
ENDBRANCH  17  19
ENDBRANCH   7  17
ENDBRANCH   5   6
ENDBRANCH   3   5
ENDBRANCH   2   3
ENDBRANCH   1   2
BRANCH   1  26
ATOM     26  C   UNL A   1      32.034  30.199  25.781  1.00  0.00     0.275 C 
BRANCH  26  27
ATOM     27  O   UNL A   1      32.290  30.539  27.163  1.00  0.00    -0.458 OA
BRANCH  27  28
ATOM     28  C   UNL A   1      33.066  31.630  27.305  1.00  0.00     0.338 C 
ATOM     29  O   UNL A   1      32.700  32.796  27.228  1.00  0.00    -0.246 OA
BRANCH  28  30
ATOM     30  C   UNL A   1      34.436  31.340  27.718  1.00  0.00     0.060 A 
ATOM     31  C   UNL A   1      34.709  30.027  28.101  1.00  0.00     0.016 A 
ATOM     32  C   UNL A   1      35.336  32.367  28.004  1.00  0.00     0.016 A 
ATOM     33  C   UNL A   1      35.840  29.745  28.849  1.00  0.00     0.010 A 
ATOM     34  C   UNL A   1      36.519  32.066  28.690  1.00  0.00     0.010 A 
ATOM     35  C   UNL A   1      36.762  30.759  29.144  1.00  0.00    -0.014 A 
BRANCH  35  36
ATOM     36  C   UNL A   1      37.991  30.386  29.883  1.00  0.00     0.031 A 
ATOM     37  C   UNL A   1      38.228  30.838  31.294  1.00  0.00     0.074 A 
ATOM     38  C   UNL A   1      38.849  29.533  29.291  1.00  0.00     0.049 A 
ATOM     39  N   UNL A   1      39.192  30.504  32.114  1.00  0.00    -0.248 NA
ATOM     40  C   UNL A   1      37.253  31.778  31.866  1.00  0.00     0.031 C 
ATOM     41  C   UNL A   1      38.700  29.000  27.935  1.00  0.00     0.029 A 
ATOM     42  N   UNL A   1      39.992  28.942  29.759  1.00  0.00    -0.354 N 
ATOM     43  C   UNL A   1      38.929  31.169  33.303  1.00  0.00     0.074 A 
ATOM     44  C   UNL A   1      37.732  31.956  33.092  1.00  0.00     0.031 C 
ATOM     45  C   UNL A   1      39.693  28.133  27.693  1.00  0.00     0.029 A 
ATOM     46  C   UNL A   1      40.574  28.092  28.854  1.00  0.00     0.049 A 
ATOM     47  H   UNL A   1      40.359  29.111  30.657  1.00  0.00     0.167 HD
ATOM     48  C   UNL A   1      39.622  31.123  34.466  1.00  0.00     0.037 A 
ATOM     49  C   UNL A   1      41.705  27.371  28.940  1.00  0.00     0.037 A 
ATOM     50  C   UNL A   1      40.839  30.377  34.660  1.00  0.00     0.049 A 
ATOM     51  C   UNL A   1      42.511  27.428  30.202  1.00  0.00     0.074 A 
ATOM     52  C   UNL A   1      41.629  30.289  35.794  1.00  0.00     0.029 A 
ATOM     53  N   UNL A   1      41.453  29.604  33.686  1.00  0.00    -0.354 N 
ATOM     54  N   UNL A   1      42.243  28.052  31.323  1.00  0.00    -0.248 NA
ATOM     55  C   UNL A   1      43.780  26.692  30.206  1.00  0.00     0.031 C 
ATOM     56  C   UNL A   1      42.742  29.494  35.493  1.00  0.00     0.029 A 
ATOM     57  C   UNL A   1      42.626  29.060  34.183  1.00  0.00     0.049 A 
ATOM     58  H   UNL A   1      41.106  29.462  32.775  1.00  0.00     0.167 HD
ATOM     59  C   UNL A   1      43.309  27.784  32.168  1.00  0.00     0.074 A 
ATOM     60  C   UNL A   1      44.214  26.919  31.438  1.00  0.00     0.031 C 
ATOM     61  C   UNL A   1      43.522  28.219  33.433  1.00  0.00     0.037 A 
BRANCH  48  62
ATOM     62  C   UNL A   1      39.089  31.914  35.622  1.00  0.00     0.057 A 
ATOM     63  C   UNL A   1      38.226  31.342  36.565  1.00  0.00     0.134 A 
ATOM     64  C   UNL A   1      39.486  33.241  35.827  1.00  0.00     0.134 A 
ATOM     65  F   UNL A   1      37.794  30.081  36.414  1.00  0.00    -0.206 F 
ATOM     66  C   UNL A   1      37.778  32.063  37.674  1.00  0.00     0.040 A 
ATOM     67  C   UNL A   1      39.053  33.969  36.938  1.00  0.00     0.040 A 
ATOM     68  F   UNL A   1      40.310  33.848  34.959  1.00  0.00    -0.206 F 
ATOM     69  C   UNL A   1      38.197  33.378  37.866  1.00  0.00     0.006 A 
ENDBRANCH  48  62
BRANCH  49  70
ATOM     70  C   UNL A   1      42.152  26.567  27.779  1.00  0.00     0.057 A 
ATOM     71  C   UNL A   1      41.776  25.228  27.635  1.00  0.00     0.134 A 
ATOM     72  C   UNL A   1      42.955  27.128  26.779  1.00  0.00     0.134 A 
ATOM     73  F   UNL A   1      41.022  24.633  28.570  1.00  0.00    -0.206 F 
ATOM     74  C   UNL A   1      42.190  24.472  26.537  1.00  0.00     0.040 A 
ATOM     75  C   UNL A   1      43.357  26.391  25.666  1.00  0.00     0.040 A 
ATOM     76  F   UNL A   1      43.344  28.409  26.862  1.00  0.00    -0.206 F 
ATOM     77  C   UNL A   1      42.978  25.057  25.546  1.00  0.00     0.006 A 
ENDBRANCH  49  70
BRANCH  61  78
ATOM     78  C   UNL A   1      44.789  27.762  34.089  1.00  0.00     0.057 A 
ATOM     79  C   UNL A   1      45.975  28.501  33.979  1.00  0.00     0.134 A 
ATOM     80  C   UNL A   1      44.828  26.573  34.826  1.00  0.00     0.134 A 
ATOM     81  F   UNL A   1      46.003  29.638  33.270  1.00  0.00    -0.206 F 
ATOM     82  C   UNL A   1      47.164  28.056  34.558  1.00  0.00     0.040 A 
ATOM     83  C   UNL A   1      46.007  26.128  35.425  1.00  0.00     0.040 A 
ATOM     84  F   UNL A   1      43.724  25.825  34.969  1.00  0.00    -0.206 F 
ATOM     85  C   UNL A   1      47.181  26.867  35.285  1.00  0.00     0.006 A 
ENDBRANCH  61  78
ENDBRANCH  35  36
ENDBRANCH  28  30
ENDBRANCH  27  28
ENDBRANCH  26  27
ENDBRANCH   1  26
TORSDOF 14
ENDMDL
