MODEL 1
REMARK VINA RESULT:     -10.8      0.000      0.000
REMARK SMILES CC1([C@](C)(Nc2cccc(Cl)c2)C(=O)OCCOC(=O)c2ccc(-c3c4nc(c(-c5c(F)cccc5F)c5ccc([nH]5)c(-c5c(F)cccc5F)c5nc(c(-c6c(F)cccc6F)c6ccc3[nH]6)C=C5)C=C4)cc2)CC1
REMARK SMILES IDX 16 1 15 2 13 3 14 4 3 5 4 6 2 7 1 8 75 9 76 10 5 11 6 13
REMARK SMILES IDX 7 14 12 15 8 16 10 17 9 18 11 19 17 20 18 21 19 22 20 23
REMARK SMILES IDX 21 24 22 25 74 26 23 27 73 28 24 29 25 30 26 31 67 32 27 33
REMARK SMILES IDX 72 34 66 35 68 36 28 37 71 38 65 39 64 40 29 42 55 43 38 44
REMARK SMILES IDX 54 45 39 46 42 47 53 48 69 49 40 50 41 51 52 53 70 54 43 55
REMARK SMILES IDX 30 56 31 57 36 58 32 59 33 60 35 61 37 62 34 63 56 64 57 65
REMARK SMILES IDX 62 66 58 67 59 68 61 69 63 70 60 71 44 72 45 73 50 74 46 75
REMARK SMILES IDX 47 76 49 77 51 78 48 79
REMARK H PARENT 5 12 68 41 42 52
REMARK Flexibility Score: inf
ROOT
ATOM      1  C   UNL A   1      35.320  21.436  26.024  1.00  0.00     0.274 C 
ENDROOT
BRANCH   1   2
ATOM      2  O   UNL A   1      34.912  22.648  25.361  1.00  0.00    -0.460 OA
BRANCH   2   3
ATOM      3  C   UNL A   1      34.092  22.527  24.288  1.00  0.00     0.332 C 
ATOM      4  O   UNL A   1      34.495  22.652  23.130  1.00  0.00    -0.249 OA
BRANCH   3   5
ATOM      5  C   UNL A   1      32.574  22.312  24.633  1.00  0.00     0.138 C 
ATOM      6  C   UNL A   1      31.804  22.636  23.326  1.00  0.00     0.048 C 
BRANCH   5   7
ATOM      7  C   UNL A   1      32.097  23.278  25.772  1.00  0.00     0.001 C 
ATOM      8  C   UNL A   1      32.350  24.757  25.536  1.00  0.00     0.014 C 
ATOM      9  C   UNL A   1      32.158  22.859  27.235  1.00  0.00     0.010 C 
ATOM     10  C   UNL A   1      30.832  22.913  26.534  1.00  0.00     0.010 C 
ENDBRANCH   5   7
BRANCH   5  11
ATOM     11  N   UNL A   1      32.135  20.948  25.037  1.00  0.00    -0.370 N 
ATOM     12  H   UNL A   1      31.568  20.903  25.839  1.00  0.00     0.161 HD
BRANCH  11  13
ATOM     13  C   UNL A   1      32.421  19.742  24.435  1.00  0.00     0.036 A 
ATOM     14  C   UNL A   1      32.188  19.561  23.067  1.00  0.00     0.026 A 
ATOM     15  C   UNL A   1      33.048  18.715  25.143  1.00  0.00     0.046 A 
ATOM     16  C   UNL A   1      32.528  18.369  22.424  1.00  0.00     0.004 A 
ATOM     17  C   UNL A   1      33.409  17.529  24.498  1.00  0.00     0.043 A 
ATOM     18  C   UNL A   1      33.144  17.349  23.143  1.00  0.00     0.020 A 
ATOM     19  Cl  UNL A   1      34.225  16.293  25.376  1.00  0.00    -0.084 Cl
ENDBRANCH  11  13
ENDBRANCH   5  11
ENDBRANCH   3   5
ENDBRANCH   2   3
ENDBRANCH   1   2
BRANCH   1  20
ATOM     20  C   UNL A   1      36.284  20.642  25.144  1.00  0.00     0.275 C 
BRANCH  20  21
ATOM     21  O   UNL A   1      37.464  21.429  24.917  1.00  0.00    -0.458 OA
BRANCH  21  22
ATOM     22  C   UNL A   1      38.560  21.068  25.619  1.00  0.00     0.338 C 
ATOM     23  O   UNL A   1      39.017  19.946  25.750  1.00  0.00    -0.246 OA
BRANCH  22  24
ATOM     24  C   UNL A   1      39.154  22.262  26.255  1.00  0.00     0.060 A 
ATOM     25  C   UNL A   1      38.591  23.525  26.069  1.00  0.00     0.016 A 
ATOM     26  C   UNL A   1      40.347  22.131  26.963  1.00  0.00     0.016 A 
ATOM     27  C   UNL A   1      39.264  24.667  26.499  1.00  0.00     0.010 A 
ATOM     28  C   UNL A   1      40.977  23.269  27.473  1.00  0.00     0.010 A 
ATOM     29  C   UNL A   1      40.467  24.553  27.205  1.00  0.00    -0.014 A 
BRANCH  29  30
ATOM     30  C   UNL A   1      41.243  25.764  27.583  1.00  0.00     0.031 A 
ATOM     31  C   UNL A   1      40.610  26.799  28.477  1.00  0.00     0.074 A 
ATOM     32  C   UNL A   1      42.508  25.941  27.159  1.00  0.00     0.049 A 
ATOM     33  N   UNL A   1      41.014  28.011  28.760  1.00  0.00    -0.248 NA
ATOM     34  C   UNL A   1      39.341  26.422  29.124  1.00  0.00     0.031 C 
ATOM     35  C   UNL A   1      43.271  24.999  26.339  1.00  0.00     0.029 A 
ATOM     36  N   UNL A   1      43.380  26.981  27.367  1.00  0.00    -0.354 N 
ATOM     37  C   UNL A   1      40.016  28.565  29.552  1.00  0.00     0.074 A 
ATOM     38  C   UNL A   1      38.994  27.554  29.719  1.00  0.00     0.031 C 
ATOM     39  C   UNL A   1      44.507  25.487  26.145  1.00  0.00     0.029 A 
ATOM     40  C   UNL A   1      44.600  26.806  26.760  1.00  0.00     0.049 A 
ATOM     41  H   UNL A   1      43.153  27.776  27.902  1.00  0.00     0.167 HD
ATOM     42  C   UNL A   1      39.955  29.809  30.083  1.00  0.00     0.037 A 
ATOM     43  C   UNL A   1      45.661  27.630  26.680  1.00  0.00     0.037 A 
ATOM     44  C   UNL A   1      41.002  30.789  29.975  1.00  0.00     0.049 A 
ATOM     45  C   UNL A   1      45.585  28.993  27.304  1.00  0.00     0.074 A 
ATOM     46  C   UNL A   1      41.030  32.086  30.457  1.00  0.00     0.029 A 
ATOM     47  N   UNL A   1      42.227  30.564  29.364  1.00  0.00    -0.354 N 
ATOM     48  N   UNL A   1      44.595  29.545  27.963  1.00  0.00    -0.248 NA
ATOM     49  C   UNL A   1      46.766  29.856  27.157  1.00  0.00     0.031 C 
ATOM     50  C   UNL A   1      42.270  32.648  30.132  1.00  0.00     0.029 A 
ATOM     51  C   UNL A   1      43.022  31.690  29.471  1.00  0.00     0.049 A 
ATOM     52  H   UNL A   1      42.490  29.724  28.920  1.00  0.00     0.167 HD
ATOM     53  C   UNL A   1      45.034  30.815  28.313  1.00  0.00     0.074 A 
ATOM     54  C   UNL A   1      46.387  30.944  27.814  1.00  0.00     0.031 C 
ATOM     55  C   UNL A   1      44.371  31.791  28.978  1.00  0.00     0.037 A 
BRANCH  42  56
ATOM     56  C   UNL A   1      38.692  30.190  30.796  1.00  0.00     0.057 A 
ATOM     57  C   UNL A   1      37.612  30.782  30.133  1.00  0.00     0.134 A 
ATOM     58  C   UNL A   1      38.556  29.946  32.169  1.00  0.00     0.134 A 
ATOM     59  F   UNL A   1      37.687  31.060  28.823  1.00  0.00    -0.206 F 
ATOM     60  C   UNL A   1      36.445  31.137  30.815  1.00  0.00     0.040 A 
ATOM     61  C   UNL A   1      37.388  30.277  32.857  1.00  0.00     0.040 A 
ATOM     62  F   UNL A   1      39.556  29.380  32.862  1.00  0.00    -0.206 F 
ATOM     63  C   UNL A   1      36.330  30.879  32.180  1.00  0.00     0.006 A 
ENDBRANCH  42  56
BRANCH  43  64
ATOM     64  C   UNL A   1      46.880  27.194  25.955  1.00  0.00     0.057 A 
ATOM     65  C   UNL A   1      47.927  26.554  26.627  1.00  0.00     0.134 A 
ATOM     66  C   UNL A   1      47.023  27.397  24.578  1.00  0.00     0.134 A 
ATOM     67  F   UNL A   1      47.856  26.353  27.951  1.00  0.00    -0.206 F 
ATOM     68  C   UNL A   1      49.076  26.134  25.956  1.00  0.00     0.040 A 
ATOM     69  C   UNL A   1      48.156  26.962  23.889  1.00  0.00     0.040 A 
ATOM     70  F   UNL A   1      46.053  28.004  23.879  1.00  0.00    -0.206 F 
ATOM     71  C   UNL A   1      49.189  26.332  24.580  1.00  0.00     0.006 A 
ENDBRANCH  43  64
BRANCH  55  72
ATOM     72  C   UNL A   1      45.116  33.066  29.229  1.00  0.00     0.057 A 
ATOM     73  C   UNL A   1      45.899  33.245  30.374  1.00  0.00     0.134 A 
ATOM     74  C   UNL A   1      45.063  34.115  28.304  1.00  0.00     0.134 A 
ATOM     75  F   UNL A   1      45.977  32.279  31.303  1.00  0.00    -0.206 F 
ATOM     76  C   UNL A   1      46.591  34.436  30.602  1.00  0.00     0.040 A 
ATOM     77  C   UNL A   1      45.763  35.304  28.513  1.00  0.00     0.040 A 
ATOM     78  F   UNL A   1      44.332  34.000  27.184  1.00  0.00    -0.206 F 
ATOM     79  C   UNL A   1      46.526  35.467  29.668  1.00  0.00     0.006 A 
ENDBRANCH  55  72
ENDBRANCH  29  30
ENDBRANCH  22  24
ENDBRANCH  21  22
ENDBRANCH  20  21
ENDBRANCH   1  20
TORSDOF 14
ENDMDL
MODEL 2
REMARK VINA RESULT:     -10.7      2.030      3.577
REMARK SMILES CC1([C@](C)(Nc2cccc(Cl)c2)C(=O)OCCOC(=O)c2ccc(-c3c4nc(c(-c5c(F)cccc5F)c5ccc([nH]5)c(-c5c(F)cccc5F)c5nc(c(-c6c(F)cccc6F)c6ccc3[nH]6)C=C5)C=C4)cc2)CC1
REMARK SMILES IDX 16 1 15 2 13 3 14 4 3 5 4 6 2 7 1 8 75 9 76 10 5 11 6 13
REMARK SMILES IDX 7 14 12 15 8 16 10 17 9 18 11 19 17 20 18 21 19 22 20 23
REMARK SMILES IDX 21 24 22 25 74 26 23 27 73 28 24 29 25 30 26 31 67 32 27 33
REMARK SMILES IDX 72 34 66 35 68 36 28 37 71 38 65 39 64 40 29 42 55 43 38 44
REMARK SMILES IDX 54 45 39 46 42 47 53 48 69 49 40 50 41 51 52 53 70 54 43 55
REMARK SMILES IDX 30 56 31 57 36 58 32 59 33 60 35 61 37 62 34 63 56 64 57 65
REMARK SMILES IDX 62 66 58 67 59 68 61 69 63 70 60 71 44 72 45 73 50 74 46 75
REMARK SMILES IDX 47 76 49 77 51 78 48 79
REMARK H PARENT 5 12 68 41 42 52
REMARK Flexibility Score: inf
ROOT
ATOM      1  C   UNL A   1      35.255  21.584  25.832  1.00  0.00     0.274 C 
ENDROOT
BRANCH   1   2
ATOM      2  O   UNL A   1      34.121  21.992  25.043  1.00  0.00    -0.460 OA
BRANCH   2   3
ATOM      3  C   UNL A   1      34.080  23.282  24.627  1.00  0.00     0.332 C 
ATOM      4  O   UNL A   1      34.982  23.790  23.959  1.00  0.00    -0.249 OA
BRANCH   3   5
ATOM      5  C   UNL A   1      32.846  24.107  25.142  1.00  0.00     0.138 C 
ATOM      6  C   UNL A   1      32.927  24.049  26.689  1.00  0.00     0.048 C 
BRANCH   5   7
ATOM      7  C   UNL A   1      31.491  23.478  24.667  1.00  0.00     0.001 C 
ATOM      8  C   UNL A   1      30.712  22.708  25.720  1.00  0.00     0.014 C 
ATOM      9  C   UNL A   1      31.327  22.941  23.251  1.00  0.00     0.010 C 
ATOM     10  C   UNL A   1      30.675  24.237  23.632  1.00  0.00     0.010 C 
ENDBRANCH   5   7
BRANCH   5  11
ATOM     11  N   UNL A   1      32.776  25.552  24.791  1.00  0.00    -0.370 N 
ATOM     12  H   UNL A   1      32.792  25.759  23.829  1.00  0.00     0.161 HD
BRANCH  11  13
ATOM     13  C   UNL A   1      32.694  26.637  25.637  1.00  0.00     0.036 A 
ATOM     14  C   UNL A   1      31.493  26.936  26.290  1.00  0.00     0.026 A 
ATOM     15  C   UNL A   1      33.825  27.394  25.949  1.00  0.00     0.046 A 
ATOM     16  C   UNL A   1      31.403  27.992  27.199  1.00  0.00     0.004 A 
ATOM     17  C   UNL A   1      33.744  28.438  26.875  1.00  0.00     0.043 A 
ATOM     18  C   UNL A   1      32.535  28.745  27.495  1.00  0.00     0.020 A 
ATOM     19  Cl  UNL A   1      35.159  29.329  27.284  1.00  0.00    -0.084 Cl
ENDBRANCH  11  13
ENDBRANCH   5  11
ENDBRANCH   3   5
ENDBRANCH   2   3
ENDBRANCH   1   2
BRANCH   1  20
ATOM     20  C   UNL A   1      36.185  20.693  25.012  1.00  0.00     0.275 C 
BRANCH  20  21
ATOM     21  O   UNL A   1      37.410  21.402  24.762  1.00  0.00    -0.458 OA
BRANCH  21  22
ATOM     22  C   UNL A   1      38.475  21.022  25.501  1.00  0.00     0.338 C 
ATOM     23  O   UNL A   1      38.901  19.891  25.656  1.00  0.00    -0.246 OA
BRANCH  22  24
ATOM     24  C   UNL A   1      39.076  22.208  26.145  1.00  0.00     0.060 A 
ATOM     25  C   UNL A   1      38.515  23.474  25.976  1.00  0.00     0.016 A 
ATOM     26  C   UNL A   1      40.274  22.068  26.842  1.00  0.00     0.016 A 
ATOM     27  C   UNL A   1      39.193  24.610  26.413  1.00  0.00     0.010 A 
ATOM     28  C   UNL A   1      40.911  23.199  27.359  1.00  0.00     0.010 A 
ATOM     29  C   UNL A   1      40.401  24.486  27.108  1.00  0.00    -0.014 A 
BRANCH  29  30
ATOM     30  C   UNL A   1      41.182  25.692  27.494  1.00  0.00     0.031 A 
ATOM     31  C   UNL A   1      40.551  26.728  28.387  1.00  0.00     0.074 A 
ATOM     32  C   UNL A   1      42.451  25.862  27.075  1.00  0.00     0.049 A 
ATOM     33  N   UNL A   1      40.962  27.937  28.675  1.00  0.00    -0.248 NA
ATOM     34  C   UNL A   1      39.278  26.357  29.027  1.00  0.00     0.031 C 
ATOM     35  C   UNL A   1      43.212  24.919  26.256  1.00  0.00     0.029 A 
ATOM     36  N   UNL A   1      43.328  26.897  27.290  1.00  0.00    -0.354 N 
ATOM     37  C   UNL A   1      39.963  28.495  29.464  1.00  0.00     0.074 A 
ATOM     38  C   UNL A   1      38.935  27.490  29.624  1.00  0.00     0.031 C 
ATOM     39  C   UNL A   1      44.451  25.399  26.069  1.00  0.00     0.029 A 
ATOM     40  C   UNL A   1      44.549  26.716  26.688  1.00  0.00     0.049 A 
ATOM     41  H   UNL A   1      43.103  27.692  27.826  1.00  0.00     0.167 HD
ATOM     42  C   UNL A   1      39.907  29.738  29.998  1.00  0.00     0.037 A 
ATOM     43  C   UNL A   1      45.615  27.534  26.614  1.00  0.00     0.037 A 
ATOM     44  C   UNL A   1      40.960  30.712  29.897  1.00  0.00     0.049 A 
ATOM     45  C   UNL A   1      45.545  28.896  27.242  1.00  0.00     0.074 A 
ATOM     46  C   UNL A   1      40.994  32.008  30.383  1.00  0.00     0.029 A 
ATOM     47  N   UNL A   1      42.186  30.481  29.291  1.00  0.00    -0.354 N 
ATOM     48  N   UNL A   1      44.555  29.452  27.898  1.00  0.00    -0.248 NA
ATOM     49  C   UNL A   1      46.731  29.752  27.103  1.00  0.00     0.031 C 
ATOM     50  C   UNL A   1      42.239  32.563  30.065  1.00  0.00     0.029 A 
ATOM     51  C   UNL A   1      42.988  31.603  29.405  1.00  0.00     0.049 A 
ATOM     52  H   UNL A   1      42.447  29.641  28.846  1.00  0.00     0.167 HD
ATOM     53  C   UNL A   1      45.000  30.718  28.253  1.00  0.00     0.074 A 
ATOM     54  C   UNL A   1      46.356  30.840  27.760  1.00  0.00     0.031 C 
ATOM     55  C   UNL A   1      44.339  31.697  28.918  1.00  0.00     0.037 A 
BRANCH  42  56
ATOM     56  C   UNL A   1      38.644  30.125  30.706  1.00  0.00     0.057 A 
ATOM     57  C   UNL A   1      37.569  30.724  30.040  1.00  0.00     0.134 A 
ATOM     58  C   UNL A   1      38.500  29.879  32.078  1.00  0.00     0.134 A 
ATOM     59  F   UNL A   1      37.651  31.004  28.731  1.00  0.00    -0.206 F 
ATOM     60  C   UNL A   1      36.402  31.084  30.718  1.00  0.00     0.040 A 
ATOM     61  C   UNL A   1      37.331  30.215  32.762  1.00  0.00     0.040 A 
ATOM     62  F   UNL A   1      39.493  29.306  32.774  1.00  0.00    -0.206 F 
ATOM     63  C   UNL A   1      36.279  30.824  32.082  1.00  0.00     0.006 A 
ENDBRANCH  42  56
BRANCH  43  64
ATOM     64  C   UNL A   1      46.835  27.093  25.894  1.00  0.00     0.057 A 
ATOM     65  C   UNL A   1      47.035  27.421  24.549  1.00  0.00     0.134 A 
ATOM     66  C   UNL A   1      47.830  26.344  26.532  1.00  0.00     0.134 A 
ATOM     67  F   UNL A   1      46.104  28.116  23.878  1.00  0.00    -0.206 F 
ATOM     68  C   UNL A   1      48.180  27.017  23.861  1.00  0.00     0.040 A 
ATOM     69  C   UNL A   1      48.991  25.952  25.865  1.00  0.00     0.040 A 
ATOM     70  F   UNL A   1      47.696  26.000  27.822  1.00  0.00    -0.206 F 
ATOM     71  C   UNL A   1      49.166  26.285  24.523  1.00  0.00     0.006 A 
ENDBRANCH  43  64
BRANCH  55  72
ATOM     72  C   UNL A   1      45.091  32.966  29.176  1.00  0.00     0.057 A 
ATOM     73  C   UNL A   1      45.042  34.042  28.283  1.00  0.00     0.134 A 
ATOM     74  C   UNL A   1      45.854  33.118  30.340  1.00  0.00     0.134 A 
ATOM     75  F   UNL A   1      44.338  33.950  27.144  1.00  0.00    -0.206 F 
ATOM     76  C   UNL A   1      45.746  35.222  28.528  1.00  0.00     0.040 A 
ATOM     77  C   UNL A   1      46.549  34.299  30.604  1.00  0.00     0.040 A 
ATOM     78  F   UNL A   1      45.935  32.123  31.235  1.00  0.00    -0.206 F 
ATOM     79  C   UNL A   1      46.498  35.353  29.694  1.00  0.00     0.006 A 
ENDBRANCH  55  72
ENDBRANCH  29  30
ENDBRANCH  22  24
ENDBRANCH  21  22
ENDBRANCH  20  21
ENDBRANCH   1  20
TORSDOF 14
ENDMDL
MODEL 3
REMARK VINA RESULT:     -10.6      0.734      6.416
REMARK SMILES CC1([C@](C)(Nc2cccc(Cl)c2)C(=O)OCCOC(=O)c2ccc(-c3c4nc(c(-c5c(F)cccc5F)c5ccc([nH]5)c(-c5c(F)cccc5F)c5nc(c(-c6c(F)cccc6F)c6ccc3[nH]6)C=C5)C=C4)cc2)CC1
REMARK SMILES IDX 16 1 15 2 13 3 14 4 3 5 4 6 2 7 1 8 75 9 76 10 5 11 6 13
REMARK SMILES IDX 7 14 12 15 8 16 10 17 9 18 11 19 17 20 18 21 19 22 20 23
REMARK SMILES IDX 21 24 22 25 74 26 23 27 73 28 24 29 25 30 26 31 67 32 27 33
REMARK SMILES IDX 72 34 66 35 68 36 28 37 71 38 65 39 64 40 29 42 55 43 38 44
REMARK SMILES IDX 54 45 39 46 42 47 53 48 69 49 40 50 41 51 52 53 70 54 43 55
REMARK SMILES IDX 30 56 31 57 36 58 32 59 33 60 35 61 37 62 34 63 56 64 57 65
REMARK SMILES IDX 62 66 58 67 59 68 61 69 63 70 60 71 44 72 45 73 50 74 46 75
REMARK SMILES IDX 47 76 49 77 51 78 48 79
REMARK H PARENT 5 12 68 41 42 52
REMARK Flexibility Score: inf
ROOT
ATOM      1  C   UNL A   1      36.008  20.041  24.999  1.00  0.00     0.274 C 
ENDROOT
BRANCH   1   2
ATOM      2  O   UNL A   1      35.599  21.409  25.193  1.00  0.00    -0.460 OA
BRANCH   2   3
ATOM      3  C   UNL A   1      34.499  21.631  25.954  1.00  0.00     0.332 C 
ATOM      4  O   UNL A   1      34.495  21.458  27.174  1.00  0.00    -0.249 OA
BRANCH   3   5
ATOM      5  C   UNL A   1      33.207  22.031  25.155  1.00  0.00     0.138 C 
ATOM      6  C   UNL A   1      33.709  22.484  23.759  1.00  0.00     0.048 C 
BRANCH   5   7
ATOM      7  C   UNL A   1      32.444  23.215  25.843  1.00  0.00     0.001 C 
ATOM      8  C   UNL A   1      33.260  24.470  26.100  1.00  0.00     0.014 C 
ATOM      9  C   UNL A   1      31.357  22.953  26.877  1.00  0.00     0.010 C 
ATOM     10  C   UNL A   1      30.975  23.411  25.501  1.00  0.00     0.010 C 
ENDBRANCH   5   7
BRANCH   5  11
ATOM     11  N   UNL A   1      32.189  20.975  24.898  1.00  0.00    -0.370 N 
ATOM     12  H   UNL A   1      31.260  21.218  25.112  1.00  0.00     0.161 HD
BRANCH  11  13
ATOM     13  C   UNL A   1      32.378  19.704  24.403  1.00  0.00     0.036 A 
ATOM     14  C   UNL A   1      32.285  19.458  23.029  1.00  0.00     0.026 A 
ATOM     15  C   UNL A   1      32.774  18.657  25.239  1.00  0.00     0.046 A 
ATOM     16  C   UNL A   1      32.534  18.190  22.498  1.00  0.00     0.004 A 
ATOM     17  C   UNL A   1      33.046  17.393  24.709  1.00  0.00     0.043 A 
ATOM     18  C   UNL A   1      32.919  17.153  23.343  1.00  0.00     0.020 A 
ATOM     19  Cl  UNL A   1      33.579  16.128  25.747  1.00  0.00    -0.084 Cl
ENDBRANCH  11  13
ENDBRANCH   5  11
ENDBRANCH   3   5
ENDBRANCH   2   3
ENDBRANCH   1   2
BRANCH   1  20
ATOM     20  C   UNL A   1      37.531  19.932  24.997  1.00  0.00     0.275 C 
BRANCH  20  21
ATOM     21  O   UNL A   1      38.087  21.162  25.491  1.00  0.00    -0.458 OA
BRANCH  21  22
ATOM     22  C   UNL A   1      39.276  21.061  26.124  1.00  0.00     0.338 C 
ATOM     23  O   UNL A   1      39.937  20.053  26.299  1.00  0.00    -0.246 OA
BRANCH  22  24
ATOM     24  C   UNL A   1      39.683  22.392  26.620  1.00  0.00     0.060 A 
ATOM     25  C   UNL A   1      39.045  23.549  26.171  1.00  0.00     0.016 A 
ATOM     26  C   UNL A   1      40.786  22.492  27.466  1.00  0.00     0.016 A 
ATOM     27  C   UNL A   1      39.561  24.805  26.482  1.00  0.00     0.010 A 
ATOM     28  C   UNL A   1      41.251  23.753  27.851  1.00  0.00     0.010 A 
ATOM     29  C   UNL A   1      40.672  24.922  27.324  1.00  0.00    -0.014 A 
BRANCH  29  30
ATOM     30  C   UNL A   1      41.290  26.250  27.585  1.00  0.00     0.031 A 
ATOM     31  C   UNL A   1      42.664  26.546  27.042  1.00  0.00     0.074 A 
ATOM     32  C   UNL A   1      40.635  27.199  28.280  1.00  0.00     0.049 A 
ATOM     33  N   UNL A   1      43.470  27.539  27.318  1.00  0.00    -0.248 NA
ATOM     34  C   UNL A   1      43.209  25.583  26.070  1.00  0.00     0.031 C 
ATOM     35  C   UNL A   1      39.279  27.077  28.817  1.00  0.00     0.029 A 
ATOM     36  N   UNL A   1      41.026  28.462  28.649  1.00  0.00    -0.354 N 
ATOM     37  C   UNL A   1      44.641  27.280  26.616  1.00  0.00     0.074 A 
ATOM     38  C   UNL A   1      44.437  26.046  25.889  1.00  0.00     0.031 C 
ATOM     39  C   UNL A   1      38.938  28.231  29.413  1.00  0.00     0.029 A 
ATOM     40  C   UNL A   1      40.075  29.144  29.369  1.00  0.00     0.049 A 
ATOM     41  H   UNL A   1      41.904  28.843  28.420  1.00  0.00     0.167 HD
ATOM     42  C   UNL A   1      45.785  28.003  26.590  1.00  0.00     0.037 A 
ATOM     43  C   UNL A   1      40.125  30.354  29.955  1.00  0.00     0.037 A 
ATOM     44  C   UNL A   1      45.963  29.264  27.258  1.00  0.00     0.049 A 
ATOM     45  C   UNL A   1      41.393  31.155  29.886  1.00  0.00     0.074 A 
ATOM     46  C   UNL A   1      47.090  30.066  27.313  1.00  0.00     0.029 A 
ATOM     47  N   UNL A   1      44.968  29.925  27.963  1.00  0.00    -0.354 N 
ATOM     48  N   UNL A   1      42.529  30.852  29.306  1.00  0.00    -0.248 NA
ATOM     49  C   UNL A   1      41.394  32.455  30.570  1.00  0.00     0.031 C 
ATOM     50  C   UNL A   1      46.778  31.210  28.057  1.00  0.00     0.029 A 
ATOM     51  C   UNL A   1      45.449  31.130  28.442  1.00  0.00     0.049 A 
ATOM     52  H   UNL A   1      44.053  29.586  28.100  1.00  0.00     0.167 HD
ATOM     53  C   UNL A   1      43.376  31.924  29.550  1.00  0.00     0.074 A 
ATOM     54  C   UNL A   1      42.617  32.894  30.311  1.00  0.00     0.031 C 
ATOM     55  C   UNL A   1      44.672  32.086  29.186  1.00  0.00     0.037 A 
BRANCH  42  56
ATOM     56  C   UNL A   1      46.948  27.421  25.844  1.00  0.00     0.057 A 
ATOM     57  C   UNL A   1      47.216  27.747  24.510  1.00  0.00     0.134 A 
ATOM     58  C   UNL A   1      47.821  26.529  26.481  1.00  0.00     0.134 A 
ATOM     59  F   UNL A   1      46.407  28.580  23.838  1.00  0.00    -0.206 F 
ATOM     60  C   UNL A   1      48.301  27.190  23.828  1.00  0.00     0.040 A 
ATOM     61  C   UNL A   1      48.919  25.981  25.817  1.00  0.00     0.040 A 
ATOM     62  F   UNL A   1      47.619  26.177  27.760  1.00  0.00    -0.206 F 
ATOM     63  C   UNL A   1      49.158  26.308  24.484  1.00  0.00     0.006 A 
ENDBRANCH  42  56
BRANCH  43  64
ATOM     64  C   UNL A   1      38.940  30.871  30.683  1.00  0.00     0.057 A 
ATOM     65  C   UNL A   1      38.748  30.586  32.040  1.00  0.00     0.134 A 
ATOM     66  C   UNL A   1      37.980  31.665  30.046  1.00  0.00     0.134 A 
ATOM     67  F   UNL A   1      39.622  29.811  32.697  1.00  0.00    -0.206 F 
ATOM     68  C   UNL A   1      37.640  31.071  32.737  1.00  0.00     0.040 A 
ATOM     69  C   UNL A   1      36.880  32.175  30.735  1.00  0.00     0.040 A 
ATOM     70  F   UNL A   1      38.110  31.972  28.747  1.00  0.00    -0.206 F 
ATOM     71  C   UNL A   1      36.706  31.875  32.085  1.00  0.00     0.006 A 
ENDBRANCH  43  64
BRANCH  55  72
ATOM     72  C   UNL A   1      45.330  33.371  29.580  1.00  0.00     0.057 A 
ATOM     73  C   UNL A   1      45.284  34.502  28.758  1.00  0.00     0.134 A 
ATOM     74  C   UNL A   1      45.999  33.482  30.805  1.00  0.00     0.134 A 
ATOM     75  F   UNL A   1      44.669  34.453  27.567  1.00  0.00    -0.206 F 
ATOM     76  C   UNL A   1      45.901  35.698  29.131  1.00  0.00     0.040 A 
ATOM     77  C   UNL A   1      46.606  34.676  31.197  1.00  0.00     0.040 A 
ATOM     78  F   UNL A   1      46.073  32.433  31.638  1.00  0.00    -0.206 F 
ATOM     79  C   UNL A   1      46.561  35.786  30.356  1.00  0.00     0.006 A 
ENDBRANCH  55  72
ENDBRANCH  29  30
ENDBRANCH  22  24
ENDBRANCH  21  22
ENDBRANCH  20  21
ENDBRANCH   1  20
TORSDOF 14
ENDMDL
