MODEL 1
REMARK VINA RESULT:     -11.7      0.000      0.000
REMARK SMILES NS(=O)(=O)c1ccc(N2N=C(C(=O)OCCOC(=O)c3ccc(-c4c5nc(c(-c6c(F)cccc6F)c6ccc([nH]6)c(-c6c(F)cccc6F)c6nc(c(-c7c(F)cccc7F)c7ccc4[nH]7)C=C6)C=C5)cc3)C[C@H]2c2cccs2)cc1
REMARK SMILES IDX 15 1 14 2 12 3 13 4 11 5 9 6 10 7 75 8 74 9 8 10 5 11 6 12
REMARK SMILES IDX 82 13 7 14 81 15 2 16 3 17 4 18 1 19 76 22 77 23 80 24 78 25
REMARK SMILES IDX 79 26 16 27 17 28 18 29 19 30 20 31 21 32 73 33 22 34 72 35
REMARK SMILES IDX 23 36 24 37 25 38 66 39 26 40 71 41 65 42 67 43 27 44 70 45
REMARK SMILES IDX 64 46 63 47 28 49 54 50 37 51 53 52 38 53 41 54 52 55 68 56
REMARK SMILES IDX 39 57 40 58 51 60 69 61 42 62 29 63 30 64 35 65 31 66 32 67
REMARK SMILES IDX 34 68 36 69 33 70 55 71 56 72 61 73 57 74 58 75 60 76 62 77
REMARK SMILES IDX 59 78 43 79 44 80 49 81 45 82 46 83 48 84 50 85 47 86
REMARK H PARENT 1 20 1 21 67 48 41 59
REMARK Flexibility Score: inf
ROOT
ATOM      1  C   UNL A   1      31.986  27.905  24.619  1.00  0.00     0.275 C 
ENDROOT
BRANCH   1   2
ATOM      2  O   UNL A   1      33.306  27.381  24.864  1.00  0.00    -0.458 OA
BRANCH   2   3
ATOM      3  C   UNL A   1      33.667  26.345  24.084  1.00  0.00     0.354 C 
ATOM      4  O   UNL A   1      33.662  26.296  22.868  1.00  0.00    -0.245 OA
BRANCH   3   5
ATOM      5  C   UNL A   1      34.220  25.216  24.917  1.00  0.00     0.148 C 
ATOM      6  N   UNL A   1      35.517  23.677  25.565  1.00  0.00    -0.256 N 
ATOM      7  N   UNL A   1      35.406  24.723  24.716  1.00  0.00    -0.169 NA
ATOM      8  C   UNL A   1      34.225  23.284  26.141  1.00  0.00     0.154 C 
ATOM      9  C   UNL A   1      33.456  24.617  26.051  1.00  0.00     0.099 C 
BRANCH   6  10
ATOM     10  C   UNL A   1      36.724  23.014  25.701  1.00  0.00     0.060 A 
ATOM     11  C   UNL A   1      39.156  21.650  26.106  1.00  0.00     0.082 A 
ATOM     12  C   UNL A   1      39.031  22.978  26.517  1.00  0.00     0.024 A 
ATOM     13  C   UNL A   1      38.105  21.020  25.441  1.00  0.00     0.024 A 
ATOM     14  C   UNL A   1      37.822  23.653  26.301  1.00  0.00     0.029 A 
ATOM     15  C   UNL A   1      36.902  21.704  25.241  1.00  0.00     0.029 A 
BRANCH  11  16
ATOM     16  S   UNL A   1      40.635  20.728  26.402  1.00  0.00     0.238 S 
ATOM     17  O   UNL A   1      40.781  20.525  27.822  1.00  0.00    -0.207 OA
ATOM     18  O   UNL A   1      41.685  21.297  25.585  1.00  0.00    -0.207 OA
BRANCH  16  19
ATOM     19  N   UNL A   1      40.323  19.209  25.762  1.00  0.00    -0.225 NA
ATOM     20  H   UNL A   1      40.088  19.299  24.773  1.00  0.00     0.137 HD
ATOM     21  H   UNL A   1      39.542  18.783  26.260  1.00  0.00     0.137 HD
ENDBRANCH  16  19
ENDBRANCH  11  16
ENDBRANCH   6  10
BRANCH   8  22
ATOM     22  C   UNL A   1      33.537  22.126  25.431  1.00  0.00     0.030 A 
ATOM     23  C   UNL A   1      33.292  20.866  25.952  1.00  0.00     0.017 A 
ATOM     24  S   UNL A   1      33.033  22.210  23.789  1.00  0.00    -0.147 S 
ATOM     25  C   UNL A   1      32.733  19.973  24.995  1.00  0.00     0.012 A 
ATOM     26  C   UNL A   1      32.517  20.586  23.784  1.00  0.00     0.065 A 
ENDBRANCH   8  22
ENDBRANCH   3   5
ENDBRANCH   2   3
ENDBRANCH   1   2
BRANCH   1  27
ATOM     27  C   UNL A   1      31.757  29.188  25.422  1.00  0.00     0.275 C 
BRANCH  27  28
ATOM     28  O   UNL A   1      32.968  29.963  25.519  1.00  0.00    -0.458 OA
BRANCH  28  29
ATOM     29  C   UNL A   1      33.005  30.842  26.547  1.00  0.00     0.338 C 
ATOM     30  O   UNL A   1      32.107  31.572  26.932  1.00  0.00    -0.246 OA
BRANCH  29  31
ATOM     31  C   UNL A   1      34.288  30.715  27.251  1.00  0.00     0.060 A 
ATOM     32  C   UNL A   1      34.692  29.441  27.630  1.00  0.00     0.016 A 
ATOM     33  C   UNL A   1      35.034  31.827  27.627  1.00  0.00     0.016 A 
ATOM     34  C   UNL A   1      35.793  29.257  28.450  1.00  0.00     0.010 A 
ATOM     35  C   UNL A   1      36.206  31.638  28.372  1.00  0.00     0.010 A 
ATOM     36  C   UNL A   1      36.588  30.351  28.797  1.00  0.00    -0.014 A 
BRANCH  36  37
ATOM     37  C   UNL A   1      37.840  30.127  29.558  1.00  0.00     0.031 A 
ATOM     38  C   UNL A   1      38.941  29.290  28.981  1.00  0.00     0.074 A 
ATOM     39  C   UNL A   1      37.977  30.687  30.777  1.00  0.00     0.049 A 
ATOM     40  N   UNL A   1      40.035  28.858  29.552  1.00  0.00    -0.248 NA
ATOM     41  C   UNL A   1      38.792  28.880  27.576  1.00  0.00     0.031 C 
ATOM     42  C   UNL A   1      37.000  31.571  31.417  1.00  0.00     0.029 A 
ATOM     43  N   UNL A   1      38.990  30.592  31.698  1.00  0.00    -0.354 N 
ATOM     44  C   UNL A   1      40.688  28.095  28.593  1.00  0.00     0.074 A 
ATOM     45  C   UNL A   1      39.863  28.118  27.403  1.00  0.00     0.031 C 
ATOM     46  C   UNL A   1      37.462  31.943  32.618  1.00  0.00     0.029 A 
ATOM     47  C   UNL A   1      38.725  31.261  32.868  1.00  0.00     0.049 A 
ATOM     48  H   UNL A   1      39.823  30.094  31.536  1.00  0.00     0.167 HD
ATOM     49  C   UNL A   1      41.865  27.437  28.706  1.00  0.00     0.037 A 
ATOM     50  C   UNL A   1      39.395  31.279  34.035  1.00  0.00     0.037 A 
ATOM     51  C   UNL A   1      42.682  27.442  29.893  1.00  0.00     0.049 A 
ATOM     52  C   UNL A   1      40.653  30.470  34.160  1.00  0.00     0.074 A 
ATOM     53  C   UNL A   1      43.905  26.829  30.100  1.00  0.00     0.029 A 
ATOM     54  N   UNL A   1      42.353  28.088  31.076  1.00  0.00    -0.354 N 
ATOM     55  N   UNL A   1      41.257  29.742  33.253  1.00  0.00    -0.248 NA
ATOM     56  C   UNL A   1      41.311  30.470  35.472  1.00  0.00     0.031 C 
ATOM     57  C   UNL A   1      44.290  27.059  31.425  1.00  0.00     0.029 A 
ATOM     58  C   UNL A   1      43.332  27.858  32.029  1.00  0.00     0.049 A 
ATOM     59  H   UNL A   1      41.544  28.630  31.217  1.00  0.00     0.167 HD
ATOM     60  C   UNL A   1      42.372  29.203  33.881  1.00  0.00     0.074 A 
ATOM     61  C   UNL A   1      42.370  29.707  35.239  1.00  0.00     0.031 C 
ATOM     62  C   UNL A   1      43.308  28.363  33.378  1.00  0.00     0.037 A 
BRANCH  49  63
ATOM     63  C   UNL A   1      42.320  26.620  27.532  1.00  0.00     0.057 A 
ATOM     64  C   UNL A   1      43.082  27.165  26.492  1.00  0.00     0.134 A 
ATOM     65  C   UNL A   1      42.017  25.253  27.463  1.00  0.00     0.134 A 
ATOM     66  F   UNL A   1      43.398  28.469  26.489  1.00  0.00    -0.206 F 
ATOM     67  C   UNL A   1      43.509  26.384  25.415  1.00  0.00     0.040 A 
ATOM     68  C   UNL A   1      42.460  24.458  26.406  1.00  0.00     0.040 A 
ATOM     69  F   UNL A   1      41.295  24.665  28.430  1.00  0.00    -0.206 F 
ATOM     70  C   UNL A   1      43.204  25.025  25.373  1.00  0.00     0.006 A 
ENDBRANCH  49  63
BRANCH  50  71
ATOM     71  C   UNL A   1      38.853  32.042  35.188  1.00  0.00     0.057 A 
ATOM     72  C   UNL A   1      38.167  31.401  36.224  1.00  0.00     0.134 A 
ATOM     73  C   UNL A   1      39.017  33.430  35.284  1.00  0.00     0.134 A 
ATOM     74  F   UNL A   1      37.958  30.078  36.179  1.00  0.00    -0.206 F 
ATOM     75  C   UNL A   1      37.655  32.113  37.311  1.00  0.00     0.040 A 
ATOM     76  C   UNL A   1      38.535  34.151  36.379  1.00  0.00     0.040 A 
ATOM     77  F   UNL A   1      39.667  34.106  34.324  1.00  0.00    -0.206 F 
ATOM     78  C   UNL A   1      37.846  33.492  37.394  1.00  0.00     0.006 A 
ENDBRANCH  50  71
BRANCH  62  79
ATOM     79  C   UNL A   1      44.413  27.946  34.302  1.00  0.00     0.057 A 
ATOM     80  C   UNL A   1      44.323  26.786  35.081  1.00  0.00     0.134 A 
ATOM     81  C   UNL A   1      45.596  28.691  34.384  1.00  0.00     0.134 A 
ATOM     82  F   UNL A   1      43.208  26.039  35.061  1.00  0.00    -0.206 F 
ATOM     83  C   UNL A   1      45.365  26.389  35.920  1.00  0.00     0.040 A 
ATOM     84  C   UNL A   1      46.655  28.290  35.198  1.00  0.00     0.040 A 
ATOM     85  F   UNL A   1      45.749  29.810  33.658  1.00  0.00    -0.206 F 
ATOM     86  C   UNL A   1      46.538  27.138  35.973  1.00  0.00     0.006 A 
ENDBRANCH  62  79
ENDBRANCH  36  37
ENDBRANCH  29  31
ENDBRANCH  28  29
ENDBRANCH  27  28
ENDBRANCH   1  27
TORSDOF 15
ENDMDL
MODEL 2
REMARK VINA RESULT:     -11.4      3.860      9.180
REMARK SMILES NS(=O)(=O)c1ccc(N2N=C(C(=O)OCCOC(=O)c3ccc(-c4c5nc(c(-c6c(F)cccc6F)c6ccc([nH]6)c(-c6c(F)cccc6F)c6nc(c(-c7c(F)cccc7F)c7ccc4[nH]7)C=C6)C=C5)cc3)C[C@H]2c2cccs2)cc1
REMARK SMILES IDX 15 1 14 2 12 3 13 4 11 5 9 6 10 7 75 8 74 9 8 10 5 11 6 12
REMARK SMILES IDX 82 13 7 14 81 15 2 16 3 17 4 18 1 19 76 22 77 23 80 24 78 25
REMARK SMILES IDX 79 26 16 27 17 28 18 29 19 30 20 31 21 32 73 33 22 34 72 35
REMARK SMILES IDX 23 36 24 37 25 38 66 39 26 40 71 41 65 42 67 43 27 44 70 45
REMARK SMILES IDX 64 46 63 47 28 49 54 50 37 51 53 52 38 53 41 54 52 55 68 56
REMARK SMILES IDX 39 57 40 58 51 60 69 61 42 62 29 63 30 64 35 65 31 66 32 67
REMARK SMILES IDX 34 68 36 69 33 70 55 71 56 72 61 73 57 74 58 75 60 76 62 77
REMARK SMILES IDX 59 78 43 79 44 80 49 81 45 82 46 83 48 84 50 85 47 86
REMARK H PARENT 1 20 1 21 67 48 41 59
REMARK Flexibility Score: inf
ROOT
ATOM      1  C   UNL A   1      34.109  22.071  25.805  1.00  0.00     0.275 C 
ENDROOT
BRANCH   1   2
ATOM      2  O   UNL A   1      34.243  23.474  25.503  1.00  0.00    -0.458 OA
BRANCH   2   3
ATOM      3  C   UNL A   1      33.301  24.270  26.044  1.00  0.00     0.354 C 
ATOM      4  O   UNL A   1      32.421  23.954  26.823  1.00  0.00    -0.245 OA
BRANCH   3   5
ATOM      5  C   UNL A   1      33.526  25.708  25.649  1.00  0.00     0.148 C 
ATOM      6  N   UNL A   1      33.582  27.818  25.781  1.00  0.00    -0.256 N 
ATOM      7  N   UNL A   1      33.418  26.685  26.500  1.00  0.00    -0.169 NA
ATOM      8  C   UNL A   1      33.499  27.579  24.335  1.00  0.00     0.154 C 
ATOM      9  C   UNL A   1      33.924  26.099  24.264  1.00  0.00     0.099 C 
BRANCH   6  10
ATOM     10  C   UNL A   1      33.662  29.043  26.418  1.00  0.00     0.060 A 
ATOM     11  C   UNL A   1      33.902  31.581  27.618  1.00  0.00     0.082 A 
ATOM     12  C   UNL A   1      34.970  30.685  27.676  1.00  0.00     0.024 A 
ATOM     13  C   UNL A   1      32.699  31.201  27.024  1.00  0.00     0.024 A 
ATOM     14  C   UNL A   1      34.838  29.420  27.088  1.00  0.00     0.029 A 
ATOM     15  C   UNL A   1      32.587  29.939  26.433  1.00  0.00     0.029 A 
BRANCH  11  16
ATOM     16  S   UNL A   1      34.028  33.211  28.291  1.00  0.00     0.238 S 
ATOM     17  O   UNL A   1      35.129  33.893  27.657  1.00  0.00    -0.207 OA
ATOM     18  O   UNL A   1      33.899  33.109  29.729  1.00  0.00    -0.207 OA
BRANCH  16  19
ATOM     19  N   UNL A   1      32.646  33.998  27.758  1.00  0.00    -0.225 NA
ATOM     20  H   UNL A   1      32.482  33.769  26.777  1.00  0.00     0.137 HD
ATOM     21  H   UNL A   1      32.768  35.006  27.856  1.00  0.00     0.137 HD
ENDBRANCH  16  19
ENDBRANCH  11  16
ENDBRANCH   6  10
BRANCH   8  22
ATOM     22  C   UNL A   1      32.133  27.858  23.721  1.00  0.00     0.030 A 
ATOM     23  C   UNL A   1      31.839  28.808  22.757  1.00  0.00     0.017 A 
ATOM     24  S   UNL A   1      30.702  27.054  24.235  1.00  0.00    -0.147 S 
ATOM     25  C   UNL A   1      30.446  28.896  22.476  1.00  0.00     0.012 A 
ATOM     26  C   UNL A   1      29.718  27.977  23.194  1.00  0.00     0.065 A 
ENDBRANCH   8  22
ENDBRANCH   3   5
ENDBRANCH   2   3
ENDBRANCH   1   2
BRANCH   1  27
ATOM     27  C   UNL A   1      35.475  21.453  26.114  1.00  0.00     0.275 C 
BRANCH  27  28
ATOM     28  O   UNL A   1      36.536  22.195  25.482  1.00  0.00    -0.458 OA
BRANCH  28  29
ATOM     29  C   UNL A   1      37.780  21.704  25.688  1.00  0.00     0.338 C 
ATOM     30  O   UNL A   1      38.204  20.604  25.376  1.00  0.00    -0.246 OA
BRANCH  29  31
ATOM     31  C   UNL A   1      38.633  22.757  26.254  1.00  0.00     0.060 A 
ATOM     32  C   UNL A   1      38.255  24.078  26.040  1.00  0.00     0.016 A 
ATOM     33  C   UNL A   1      39.834  22.468  26.893  1.00  0.00     0.016 A 
ATOM     34  C   UNL A   1      39.095  25.124  26.384  1.00  0.00     0.010 A 
ATOM     35  C   UNL A   1      40.641  23.526  27.334  1.00  0.00     0.010 A 
ATOM     36  C   UNL A   1      40.281  24.861  27.073  1.00  0.00    -0.014 A 
BRANCH  36  37
ATOM     37  C   UNL A   1      41.104  25.994  27.559  1.00  0.00     0.031 A 
ATOM     38  C   UNL A   1      40.501  27.054  28.430  1.00  0.00     0.074 A 
ATOM     39  C   UNL A   1      42.404  26.060  27.208  1.00  0.00     0.049 A 
ATOM     40  N   UNL A   1      41.015  28.190  28.824  1.00  0.00    -0.248 NA
ATOM     41  C   UNL A   1      39.137  26.806  28.923  1.00  0.00     0.031 C 
ATOM     42  C   UNL A   1      43.118  25.055  26.414  1.00  0.00     0.029 A 
ATOM     43  N   UNL A   1      43.356  27.013  27.468  1.00  0.00    -0.354 N 
ATOM     44  C   UNL A   1      40.029  28.811  29.578  1.00  0.00     0.074 A 
ATOM     45  C   UNL A   1      38.881  27.928  29.582  1.00  0.00     0.031 C 
ATOM     46  C   UNL A   1      44.392  25.440  26.260  1.00  0.00     0.029 A 
ATOM     47  C   UNL A   1      44.565  26.752  26.869  1.00  0.00     0.049 A 
ATOM     48  H   UNL A   1      43.189  27.805  28.028  1.00  0.00     0.167 HD
ATOM     49  C   UNL A   1      40.084  30.011  30.202  1.00  0.00     0.037 A 
ATOM     50  C   UNL A   1      45.673  27.509  26.771  1.00  0.00     0.037 A 
ATOM     51  C   UNL A   1      41.242  30.868  30.203  1.00  0.00     0.049 A 
ATOM     52  C   UNL A   1      45.675  28.872  27.400  1.00  0.00     0.074 A 
ATOM     53  C   UNL A   1      41.409  32.091  30.828  1.00  0.00     0.029 A 
ATOM     54  N   UNL A   1      42.430  30.593  29.540  1.00  0.00    -0.354 N 
ATOM     55  N   UNL A   1      44.736  29.458  28.100  1.00  0.00    -0.248 NA
ATOM     56  C   UNL A   1      46.883  29.686  27.209  1.00  0.00     0.031 C 
ATOM     57  C   UNL A   1      42.678  32.581  30.499  1.00  0.00     0.029 A 
ATOM     58  C   UNL A   1      43.321  31.640  29.710  1.00  0.00     0.049 A 
ATOM     59  H   UNL A   1      42.612  29.774  29.025  1.00  0.00     0.167 HD
ATOM     60  C   UNL A   1      45.240  30.705  28.443  1.00  0.00     0.074 A 
ATOM     61  C   UNL A   1      46.577  30.781  27.891  1.00  0.00     0.031 C 
ATOM     62  C   UNL A   1      44.646  31.699  29.146  1.00  0.00     0.037 A 
BRANCH  49  63
ATOM     63  C   UNL A   1      38.844  30.490  30.899  1.00  0.00     0.057 A 
ATOM     64  C   UNL A   1      38.591  30.216  32.249  1.00  0.00     0.134 A 
ATOM     65  C   UNL A   1      37.904  31.270  30.211  1.00  0.00     0.134 A 
ATOM     66  F   UNL A   1      39.444  29.465  32.963  1.00  0.00    -0.206 F 
ATOM     67  C   UNL A   1      37.438  30.683  32.884  1.00  0.00     0.040 A 
ATOM     68  C   UNL A   1      36.761  31.764  30.842  1.00  0.00     0.040 A 
ATOM     69  F   UNL A   1      38.087  31.575  28.918  1.00  0.00    -0.206 F 
ATOM     70  C   UNL A   1      36.523  31.465  32.182  1.00  0.00     0.006 A 
ENDBRANCH  49  63
BRANCH  50  71
ATOM     71  C   UNL A   1      46.841  27.015  26.000  1.00  0.00     0.057 A 
ATOM     72  C   UNL A   1      47.854  26.271  26.612  1.00  0.00     0.134 A 
ATOM     73  C   UNL A   1      46.967  27.269  24.627  1.00  0.00     0.134 A 
ATOM     74  F   UNL A   1      47.802  26.014  27.927  1.00  0.00    -0.206 F 
ATOM     75  C   UNL A   1      48.955  25.803  25.891  1.00  0.00     0.040 A 
ATOM     76  C   UNL A   1      48.048  26.784  23.888  1.00  0.00     0.040 A 
ATOM     77  F   UNL A   1      46.029  27.977  23.978  1.00  0.00    -0.206 F 
ATOM     78  C   UNL A   1      49.049  26.053  24.523  1.00  0.00     0.006 A 
ENDBRANCH  50  71
BRANCH  62  79
ATOM     79  C   UNL A   1      45.445  32.949  29.365  1.00  0.00     0.057 A 
ATOM     80  C   UNL A   1      45.352  34.043  28.498  1.00  0.00     0.134 A 
ATOM     81  C   UNL A   1      46.287  33.072  30.478  1.00  0.00     0.134 A 
ATOM     82  F   UNL A   1      44.577  33.980  27.404  1.00  0.00    -0.206 F 
ATOM     83  C   UNL A   1      46.079  35.213  28.721  1.00  0.00     0.040 A 
ATOM     84  C   UNL A   1      46.999  34.246  30.726  1.00  0.00     0.040 A 
ATOM     85  F   UNL A   1      46.416  32.062  31.351  1.00  0.00    -0.206 F 
ATOM     86  C   UNL A   1      46.899  35.319  29.843  1.00  0.00     0.006 A 
ENDBRANCH  62  79
ENDBRANCH  36  37
ENDBRANCH  29  31
ENDBRANCH  28  29
ENDBRANCH  27  28
ENDBRANCH   1  27
TORSDOF 15
ENDMDL
MODEL 3
REMARK VINA RESULT:     -11.3      2.236      3.140
REMARK SMILES NS(=O)(=O)c1ccc(N2N=C(C(=O)OCCOC(=O)c3ccc(-c4c5nc(c(-c6c(F)cccc6F)c6ccc([nH]6)c(-c6c(F)cccc6F)c6nc(c(-c7c(F)cccc7F)c7ccc4[nH]7)C=C6)C=C5)cc3)C[C@H]2c2cccs2)cc1
REMARK SMILES IDX 15 1 14 2 12 3 13 4 11 5 9 6 10 7 75 8 74 9 8 10 5 11 6 12
REMARK SMILES IDX 82 13 7 14 81 15 2 16 3 17 4 18 1 19 76 22 77 23 80 24 78 25
REMARK SMILES IDX 79 26 16 27 17 28 18 29 19 30 20 31 21 32 73 33 22 34 72 35
REMARK SMILES IDX 23 36 24 37 25 38 66 39 26 40 71 41 65 42 67 43 27 44 70 45
REMARK SMILES IDX 64 46 63 47 28 49 54 50 37 51 53 52 38 53 41 54 52 55 68 56
REMARK SMILES IDX 39 57 40 58 51 60 69 61 42 62 29 63 30 64 35 65 31 66 32 67
REMARK SMILES IDX 34 68 36 69 33 70 55 71 56 72 61 73 57 74 58 75 60 76 62 77
REMARK SMILES IDX 59 78 43 79 44 80 49 81 45 82 46 83 48 84 50 85 47 86
REMARK H PARENT 1 20 1 21 67 48 41 59
REMARK Flexibility Score: inf
ROOT
ATOM      1  C   UNL A   1      32.692  28.196  23.788  1.00  0.00     0.275 C 
ENDROOT
BRANCH   1   2
ATOM      2  O   UNL A   1      33.902  27.436  23.595  1.00  0.00    -0.458 OA
BRANCH   2   3
ATOM      3  C   UNL A   1      33.752  26.280  22.922  1.00  0.00     0.354 C 
ATOM      4  O   UNL A   1      33.705  26.124  21.716  1.00  0.00    -0.245 OA
BRANCH   3   5
ATOM      5  C   UNL A   1      33.761  25.105  23.869  1.00  0.00     0.148 C 
ATOM      6  N   UNL A   1      33.588  23.117  24.568  1.00  0.00    -0.256 N 
ATOM      7  N   UNL A   1      33.643  23.879  23.452  1.00  0.00    -0.169 NA
ATOM      8  C   UNL A   1      33.362  23.914  25.779  1.00  0.00     0.154 C 
ATOM      9  C   UNL A   1      33.945  25.273  25.341  1.00  0.00     0.099 C 
BRANCH   6  10
ATOM     10  C   UNL A   1      33.602  21.738  24.470  1.00  0.00     0.060 A 
ATOM     11  C   UNL A   1      33.661  18.939  24.146  1.00  0.00     0.082 A 
ATOM     12  C   UNL A   1      32.578  19.669  23.656  1.00  0.00     0.024 A 
ATOM     13  C   UNL A   1      34.680  19.582  24.848  1.00  0.00     0.024 A 
ATOM     14  C   UNL A   1      32.550  21.059  23.832  1.00  0.00     0.029 A 
ATOM     15  C   UNL A   1      34.642  20.970  25.007  1.00  0.00     0.029 A 
BRANCH  11  16
ATOM     16  S   UNL A   1      33.782  17.191  23.904  1.00  0.00     0.238 S 
ATOM     17  O   UNL A   1      34.899  16.692  24.667  1.00  0.00    -0.207 OA
ATOM     18  O   UNL A   1      33.623  16.926  22.491  1.00  0.00    -0.207 OA
BRANCH  16  19
ATOM     19  N   UNL A   1      32.415  16.565  24.649  1.00  0.00    -0.225 NA
ATOM     20  H   UNL A   1      32.673  15.743  25.195  1.00  0.00     0.137 HD
ATOM     21  H   UNL A   1      31.731  16.302  23.940  1.00  0.00     0.137 HD
ENDBRANCH  16  19
ENDBRANCH  11  16
ENDBRANCH   6  10
BRANCH   8  22
ATOM     22  C   UNL A   1      31.911  23.984  26.234  1.00  0.00     0.030 A 
ATOM     23  C   UNL A   1      31.180  22.965  26.822  1.00  0.00     0.017 A 
ATOM     24  S   UNL A   1      30.924  25.370  25.983  1.00  0.00    -0.147 S 
ATOM     25  C   UNL A   1      29.814  23.313  27.025  1.00  0.00     0.012 A 
ATOM     26  C   UNL A   1      29.548  24.604  26.636  1.00  0.00     0.065 A 
ENDBRANCH   8  22
ENDBRANCH   3   5
ENDBRANCH   2   3
ENDBRANCH   1   2
BRANCH   1  27
ATOM     27  C   UNL A   1      32.991  29.509  24.516  1.00  0.00     0.275 C 
BRANCH  27  28
ATOM     28  O   UNL A   1      32.808  29.368  25.938  1.00  0.00    -0.458 OA
BRANCH  28  29
ATOM     29  C   UNL A   1      32.946  30.511  26.650  1.00  0.00     0.338 C 
ATOM     30  O   UNL A   1      32.110  31.381  26.824  1.00  0.00    -0.246 OA
BRANCH  29  31
ATOM     31  C   UNL A   1      34.254  30.515  27.317  1.00  0.00     0.060 A 
ATOM     32  C   UNL A   1      34.779  29.292  27.717  1.00  0.00     0.016 A 
ATOM     33  C   UNL A   1      34.912  31.698  27.641  1.00  0.00     0.016 A 
ATOM     34  C   UNL A   1      35.914  29.228  28.507  1.00  0.00     0.010 A 
ATOM     35  C   UNL A   1      36.116  31.632  28.354  1.00  0.00     0.010 A 
ATOM     36  C   UNL A   1      36.620  30.396  28.801  1.00  0.00    -0.014 A 
BRANCH  36  37
ATOM     37  C   UNL A   1      37.908  30.302  29.529  1.00  0.00     0.031 A 
ATOM     38  C   UNL A   1      39.072  29.576  28.925  1.00  0.00     0.074 A 
ATOM     39  C   UNL A   1      38.021  30.880  30.742  1.00  0.00     0.049 A 
ATOM     40  N   UNL A   1      40.219  29.259  29.468  1.00  0.00    -0.248 NA
ATOM     41  C   UNL A   1      38.927  29.145  27.526  1.00  0.00     0.031 C 
ATOM     42  C   UNL A   1      36.976  31.666  31.405  1.00  0.00     0.029 A 
ATOM     43  N   UNL A   1      39.062  30.892  31.636  1.00  0.00    -0.354 N 
ATOM     44  C   UNL A   1      40.919  28.560  28.494  1.00  0.00     0.074 A 
ATOM     45  C   UNL A   1      40.064  28.493  27.327  1.00  0.00     0.031 C 
ATOM     46  C   UNL A   1      37.431  32.089  32.592  1.00  0.00     0.029 A 
ATOM     47  C   UNL A   1      38.762  31.538  32.810  1.00  0.00     0.049 A 
ATOM     48  H   UNL A   1      39.936  30.480  31.453  1.00  0.00     0.167 HD
ATOM     49  C   UNL A   1      42.158  28.023  28.578  1.00  0.00     0.037 A 
ATOM     50  C   UNL A   1      39.457  31.630  33.959  1.00  0.00     0.037 A 
ATOM     51  C   UNL A   1      43.001  28.117  29.742  1.00  0.00     0.049 A 
ATOM     52  C   UNL A   1      40.792  30.952  34.053  1.00  0.00     0.074 A 
ATOM     53  C   UNL A   1      44.285  27.631  29.918  1.00  0.00     0.029 A 
ATOM     54  N   UNL A   1      42.641  28.734  30.932  1.00  0.00    -0.354 N 
ATOM     55  N   UNL A   1      41.443  30.282  33.133  1.00  0.00    -0.248 NA
ATOM     56  C   UNL A   1      41.481  31.025  35.347  1.00  0.00     0.031 C 
ATOM     57  C   UNL A   1      44.680  27.905  31.233  1.00  0.00     0.029 A 
ATOM     58  C   UNL A   1      43.663  28.608  31.859  1.00  0.00     0.049 A 
ATOM     59  H   UNL A   1      41.785  29.193  31.093  1.00  0.00     0.167 HD
ATOM     60  C   UNL A   1      42.622  29.861  33.732  1.00  0.00     0.074 A 
ATOM     61  C   UNL A   1      42.606  30.371  35.088  1.00  0.00     0.031 C 
ATOM     62  C   UNL A   1      43.624  29.116  33.207  1.00  0.00     0.037 A 
BRANCH  49  63
ATOM     63  C   UNL A   1      42.662  27.249  27.395  1.00  0.00     0.057 A 
ATOM     64  C   UNL A   1      42.445  25.874  27.253  1.00  0.00     0.134 A 
ATOM     65  C   UNL A   1      43.348  27.905  26.363  1.00  0.00     0.134 A 
ATOM     66  F   UNL A   1      41.806  25.183  28.210  1.00  0.00    -0.206 F 
ATOM     67  C   UNL A   1      42.910  25.174  26.137  1.00  0.00     0.040 A 
ATOM     68  C   UNL A   1      43.795  27.221  25.231  1.00  0.00     0.040 A 
ATOM     69  F   UNL A   1      43.586  29.224  26.432  1.00  0.00    -0.206 F 
ATOM     70  C   UNL A   1      43.580  25.849  25.119  1.00  0.00     0.006 A 
ENDBRANCH  49  63
BRANCH  50  71
ATOM     71  C   UNL A   1      38.872  32.341  35.124  1.00  0.00     0.057 A 
ATOM     72  C   UNL A   1      38.919  33.735  35.222  1.00  0.00     0.134 A 
ATOM     73  C   UNL A   1      38.242  31.642  36.162  1.00  0.00     0.134 A 
ATOM     74  F   UNL A   1      39.527  34.459  34.271  1.00  0.00    -0.206 F 
ATOM     75  C   UNL A   1      38.370  34.410  36.314  1.00  0.00     0.040 A 
ATOM     76  C   UNL A   1      37.664  32.305  37.247  1.00  0.00     0.040 A 
ATOM     77  F   UNL A   1      38.161  30.303  36.129  1.00  0.00    -0.206 F 
ATOM     78  C   UNL A   1      37.733  33.693  37.327  1.00  0.00     0.006 A 
ENDBRANCH  50  71
BRANCH  62  79
ATOM     79  C   UNL A   1      44.789  28.817  34.102  1.00  0.00     0.057 A 
ATOM     80  C   UNL A   1      45.877  29.691  34.210  1.00  0.00     0.134 A 
ATOM     81  C   UNL A   1      44.804  27.662  34.894  1.00  0.00     0.134 A 
ATOM     82  F   UNL A   1      45.930  30.805  33.465  1.00  0.00    -0.206 F 
ATOM     83  C   UNL A   1      46.947  29.420  35.064  1.00  0.00     0.040 A 
ATOM     84  C   UNL A   1      45.855  27.393  35.771  1.00  0.00     0.040 A 
ATOM     85  F   UNL A   1      43.788  26.786  34.842  1.00  0.00    -0.206 F 
ATOM     86  C   UNL A   1      46.933  28.272  35.854  1.00  0.00     0.006 A 
ENDBRANCH  62  79
ENDBRANCH  36  37
ENDBRANCH  29  31
ENDBRANCH  28  29
ENDBRANCH  27  28
ENDBRANCH   1  27
TORSDOF 15
ENDMDL
