MODEL 1
REMARK VINA RESULT:     -12.8      0.000      0.000
REMARK SMILES O=C(OCCOC(=O)c1ccc2c(c1)[C@@H]1C=CC[C@@H]1[C@H](c1ccncc1)N2)c1ccc(-c2c3nc(c(-c4c(F)cccc4F)c4ccc([nH]4)c(-c4c(F)cccc4F)c4nc(c(-c5c(F)cccc5F)c5ccc2[nH]5)C=C4)C=C3)cc1
REMARK SMILES IDX 4 1 3 2 2 3 1 4 28 5 29 6 81 7 30 8 80 9 31 10 32 11 33 12
REMARK SMILES IDX 74 13 34 14 79 15 73 16 75 17 35 18 78 19 72 20 71 21 36 23
REMARK SMILES IDX 62 24 45 25 61 26 46 27 49 28 60 29 76 30 47 31 48 32 59 34
REMARK SMILES IDX 77 35 50 36 37 37 38 38 43 39 39 40 40 41 42 42 44 43 41 44
REMARK SMILES IDX 63 45 64 46 69 47 65 48 66 49 68 50 70 51 67 52 51 53 52 54
REMARK SMILES IDX 57 55 53 56 54 57 56 58 58 59 55 60 5 61 6 62 7 63 8 64 9 65
REMARK SMILES IDX 10 66 14 67 11 68 13 69 12 70 15 71 27 72 16 73 19 74 20 75
REMARK SMILES IDX 17 77 18 78 21 79 22 80 26 81 23 82 25 83 24 84
REMARK H PARENT 75 22 49 33 27 76
REMARK Flexibility Score: inf
ROOT
ATOM      1  C   UNL A   1      32.826  31.017  26.926  1.00  0.00     0.275 C 
ENDROOT
BRANCH   1   2
ATOM      2  O   UNL A   1      32.492  32.387  27.220  1.00  0.00    -0.458 OA
BRANCH   2   3
ATOM      3  C   UNL A   1      33.159  33.292  27.975  1.00  0.00     0.338 C 
ATOM      4  O   UNL A   1      32.746  34.448  28.035  1.00  0.00    -0.246 OA
BRANCH   3   5
ATOM      5  C   UNL A   1      34.462  32.979  28.630  1.00  0.00     0.060 A 
ATOM      6  C   UNL A   1      35.719  33.234  28.079  1.00  0.00     0.016 A 
ATOM      7  C   UNL A   1      34.403  32.381  29.899  1.00  0.00     0.016 A 
ATOM      8  C   UNL A   1      36.887  33.000  28.805  1.00  0.00     0.010 A 
ATOM      9  C   UNL A   1      35.567  32.150  30.636  1.00  0.00     0.010 A 
ATOM     10  C   UNL A   1      36.825  32.452  30.084  1.00  0.00    -0.014 A 
BRANCH  10  11
ATOM     11  C   UNL A   1      38.066  31.942  30.714  1.00  0.00     0.031 A 
ATOM     12  C   UNL A   1      38.638  30.677  30.147  1.00  0.00     0.074 A 
ATOM     13  C   UNL A   1      38.707  32.597  31.707  1.00  0.00     0.049 A 
ATOM     14  N   UNL A   1      39.597  29.923  30.608  1.00  0.00    -0.248 NA
ATOM     15  C   UNL A   1      38.081  30.225  28.856  1.00  0.00     0.031 C 
ATOM     16  C   UNL A   1      38.336  33.903  32.255  1.00  0.00     0.029 A 
ATOM     17  N   UNL A   1      39.727  32.174  32.537  1.00  0.00    -0.354 N 
ATOM     18  C   UNL A   1      39.830  28.983  29.614  1.00  0.00     0.074 A 
ATOM     19  C   UNL A   1      38.813  29.152  28.605  1.00  0.00     0.031 C 
ATOM     20  C   UNL A   1      38.959  34.076  33.438  1.00  0.00     0.029 A 
ATOM     21  C   UNL A   1      39.737  32.880  33.730  1.00  0.00     0.049 A 
ATOM     22  H   UNL A   1      40.365  31.459  32.310  1.00  0.00     0.167 HD
ATOM     23  C   UNL A   1      40.872  28.127  29.514  1.00  0.00     0.037 A 
ATOM     24  C   UNL A   1      40.154  32.479  34.950  1.00  0.00     0.037 A 
ATOM     25  C   UNL A   1      41.837  27.960  30.561  1.00  0.00     0.049 A 
ATOM     26  C   UNL A   1      40.969  31.225  35.034  1.00  0.00     0.074 A 
ATOM     27  C   UNL A   1      42.981  27.187  30.585  1.00  0.00     0.029 A 
ATOM     28  N   UNL A   1      41.733  28.567  31.805  1.00  0.00    -0.354 N 
ATOM     29  N   UNL A   1      41.243  30.358  34.091  1.00  0.00    -0.248 NA
ATOM     30  C   UNL A   1      41.612  30.947  36.324  1.00  0.00     0.031 C 
ATOM     31  C   UNL A   1      43.536  27.283  31.869  1.00  0.00     0.029 A 
ATOM     32  C   UNL A   1      42.768  28.159  32.621  1.00  0.00     0.049 A 
ATOM     33  H   UNL A   1      41.023  29.198  32.066  1.00  0.00     0.167 HD
ATOM     34  C   UNL A   1      42.206  29.517  34.627  1.00  0.00     0.074 A 
ATOM     35  C   UNL A   1      42.375  29.909  36.013  1.00  0.00     0.031 C 
ATOM     36  C   UNL A   1      42.947  28.577  33.991  1.00  0.00     0.037 A 
BRANCH  23  37
ATOM     37  C   UNL A   1      41.005  27.370  28.227  1.00  0.00     0.057 A 
ATOM     38  C   UNL A   1      41.767  27.874  27.160  1.00  0.00     0.134 A 
ATOM     39  C   UNL A   1      40.345  26.155  28.027  1.00  0.00     0.134 A 
ATOM     40  F   UNL A   1      42.417  29.043  27.278  1.00  0.00    -0.206 F 
ATOM     41  C   UNL A   1      41.827  27.221  25.928  1.00  0.00     0.040 A 
ATOM     42  C   UNL A   1      40.420  25.478  26.808  1.00  0.00     0.040 A 
ATOM     43  F   UNL A   1      39.600  25.615  29.003  1.00  0.00    -0.206 F 
ATOM     44  C   UNL A   1      41.152  26.017  25.751  1.00  0.00     0.006 A 
ENDBRANCH  23  37
BRANCH  24  45
ATOM     45  C   UNL A   1      39.749  33.180  36.199  1.00  0.00     0.057 A 
ATOM     46  C   UNL A   1      38.581  32.852  36.888  1.00  0.00     0.134 A 
ATOM     47  C   UNL A   1      40.488  34.271  36.686  1.00  0.00     0.134 A 
ATOM     48  F   UNL A   1      37.784  31.876  36.433  1.00  0.00    -0.206 F 
ATOM     49  C   UNL A   1      38.182  33.559  38.029  1.00  0.00     0.040 A 
ATOM     50  C   UNL A   1      40.123  34.961  37.845  1.00  0.00     0.040 A 
ATOM     51  F   UNL A   1      41.539  34.741  36.003  1.00  0.00    -0.206 F 
ATOM     52  C   UNL A   1      38.962  34.605  38.521  1.00  0.00     0.006 A 
ENDBRANCH  24  45
BRANCH  36  53
ATOM     53  C   UNL A   1      44.133  28.044  34.729  1.00  0.00     0.057 A 
ATOM     54  C   UNL A   1      45.371  28.690  34.750  1.00  0.00     0.134 A 
ATOM     55  C   UNL A   1      44.007  26.850  35.452  1.00  0.00     0.134 A 
ATOM     56  F   UNL A   1      45.563  29.820  34.051  1.00  0.00    -0.206 F 
ATOM     57  C   UNL A   1      46.451  28.158  35.455  1.00  0.00     0.040 A 
ATOM     58  C   UNL A   1      45.066  26.327  36.188  1.00  0.00     0.040 A 
ATOM     59  F   UNL A   1      42.844  26.180  35.465  1.00  0.00    -0.206 F 
ATOM     60  C   UNL A   1      46.296  26.979  36.185  1.00  0.00     0.006 A 
ENDBRANCH  36  53
ENDBRANCH  10  11
ENDBRANCH   3   5
ENDBRANCH   2   3
ENDBRANCH   1   2
BRANCH   1  61
ATOM     61  C   UNL A   1      31.703  30.154  26.333  1.00  0.00     0.275 C 
BRANCH  61  62
ATOM     62  O   UNL A   1      32.087  28.811  25.980  1.00  0.00    -0.458 OA
BRANCH  62  63
ATOM     63  C   UNL A   1      31.621  27.851  26.825  1.00  0.00     0.338 C 
ATOM     64  O   UNL A   1      31.047  28.046  27.879  1.00  0.00    -0.246 OA
BRANCH  63  65
ATOM     65  C   UNL A   1      31.782  26.491  26.249  1.00  0.00     0.060 A 
ATOM     66  C   UNL A   1      30.681  25.923  25.603  1.00  0.00     0.018 A 
ATOM     67  C   UNL A   1      32.956  25.747  26.369  1.00  0.00     0.022 A 
ATOM     68  C   UNL A   1      30.752  24.625  25.074  1.00  0.00     0.027 A 
ATOM     69  C   UNL A   1      33.013  24.420  25.866  1.00  0.00    -0.017 A 
ATOM     70  C   UNL A   1      31.897  23.838  25.233  1.00  0.00     0.038 A 
ATOM     71  C   UNL A   1      34.281  23.616  26.018  1.00  0.00     0.049 C 
ATOM     72  N   UNL A   1      31.924  22.531  24.738  1.00  0.00    -0.378 N 
ATOM     73  C   UNL A   1      35.439  24.263  25.339  1.00  0.00    -0.023 C 
ATOM     74  C   UNL A   1      34.284  22.275  25.281  1.00  0.00     0.031 C 
ATOM     75  C   UNL A   1      32.923  21.599  25.260  1.00  0.00     0.114 C 
ATOM     76  H   UNL A   1      31.283  22.243  24.049  1.00  0.00     0.161 HD
ATOM     77  C   UNL A   1      35.697  23.712  24.149  1.00  0.00    -0.030 C 
ATOM     78  C   UNL A   1      34.833  22.550  23.872  1.00  0.00     0.034 C 
BRANCH  75  79
ATOM     79  C   UNL A   1      33.087  20.297  24.476  1.00  0.00    -0.022 A 
ATOM     80  C   UNL A   1      32.226  20.071  23.383  1.00  0.00     0.026 A 
ATOM     81  C   UNL A   1      33.877  19.227  24.901  1.00  0.00     0.026 A 
ATOM     82  C   UNL A   1      32.153  18.810  22.817  1.00  0.00     0.111 A 
ATOM     83  C   UNL A   1      33.752  18.004  24.251  1.00  0.00     0.111 A 
ATOM     84  N   UNL A   1      32.905  17.771  23.224  1.00  0.00    -0.265 NA
ENDBRANCH  75  79
ENDBRANCH  63  65
ENDBRANCH  62  63
ENDBRANCH  61  62
ENDBRANCH   1  61
TORSDOF 12
ENDMDL
MODEL 2
REMARK VINA RESULT:     -12.7      4.930      9.620
REMARK SMILES O=C(OCCOC(=O)c1ccc2c(c1)[C@@H]1C=CC[C@@H]1[C@H](c1ccncc1)N2)c1ccc(-c2c3nc(c(-c4c(F)cccc4F)c4ccc([nH]4)c(-c4c(F)cccc4F)c4nc(c(-c5c(F)cccc5F)c5ccc2[nH]5)C=C4)C=C3)cc1
REMARK SMILES IDX 4 1 3 2 2 3 1 4 28 5 29 6 81 7 30 8 80 9 31 10 32 11 33 12
REMARK SMILES IDX 74 13 34 14 79 15 73 16 75 17 35 18 78 19 72 20 71 21 36 23
REMARK SMILES IDX 62 24 45 25 61 26 46 27 49 28 60 29 76 30 47 31 48 32 59 34
REMARK SMILES IDX 77 35 50 36 37 37 38 38 43 39 39 40 40 41 42 42 44 43 41 44
REMARK SMILES IDX 63 45 64 46 69 47 65 48 66 49 68 50 70 51 67 52 51 53 52 54
REMARK SMILES IDX 57 55 53 56 54 57 56 58 58 59 55 60 5 61 6 62 7 63 8 64 9 65
REMARK SMILES IDX 10 66 14 67 11 68 13 69 12 70 15 71 27 72 16 73 19 74 20 75
REMARK SMILES IDX 17 77 18 78 21 79 22 80 26 81 23 82 25 83 24 84
REMARK H PARENT 75 22 49 33 27 76
REMARK Flexibility Score: inf
ROOT
ATOM      1  C   UNL A   1      38.116  21.323  25.404  1.00  0.00     0.275 C 
ENDROOT
BRANCH   1   2
ATOM      2  O   UNL A   1      38.993  20.192  25.566  1.00  0.00    -0.458 OA
BRANCH   2   3
ATOM      3  C   UNL A   1      40.290  20.159  25.954  1.00  0.00     0.338 C 
ATOM      4  O   UNL A   1      40.902  19.093  25.923  1.00  0.00    -0.246 OA
BRANCH   3   5
ATOM      5  C   UNL A   1      40.975  21.341  26.554  1.00  0.00     0.060 A 
ATOM      6  C   UNL A   1      41.019  21.635  27.918  1.00  0.00     0.016 A 
ATOM      7  C   UNL A   1      41.619  22.216  25.665  1.00  0.00     0.016 A 
ATOM      8  C   UNL A   1      41.767  22.709  28.401  1.00  0.00     0.010 A 
ATOM      9  C   UNL A   1      42.377  23.290  26.140  1.00  0.00     0.010 A 
ATOM     10  C   UNL A   1      42.446  23.549  27.521  1.00  0.00    -0.014 A 
BRANCH  10  11
ATOM     11  C   UNL A   1      42.984  24.837  28.019  1.00  0.00     0.031 A 
ATOM     12  C   UNL A   1      41.989  25.935  28.256  1.00  0.00     0.074 A 
ATOM     13  C   UNL A   1      44.289  25.022  28.315  1.00  0.00     0.049 A 
ATOM     14  N   UNL A   1      42.195  27.196  28.514  1.00  0.00    -0.248 NA
ATOM     15  C   UNL A   1      40.565  25.545  28.244  1.00  0.00     0.031 C 
ATOM     16  C   UNL A   1      45.336  24.000  28.263  1.00  0.00     0.029 A 
ATOM     17  N   UNL A   1      44.985  26.186  28.576  1.00  0.00    -0.354 N 
ATOM     18  C   UNL A   1      40.942  27.716  28.805  1.00  0.00     0.074 A 
ATOM     19  C   UNL A   1      39.967  26.689  28.533  1.00  0.00     0.031 C 
ATOM     20  C   UNL A   1      46.540  24.604  28.271  1.00  0.00     0.029 A 
ATOM     21  C   UNL A   1      46.335  26.045  28.296  1.00  0.00     0.049 A 
ATOM     22  H   UNL A   1      44.573  27.014  28.917  1.00  0.00     0.167 HD
ATOM     23  C   UNL A   1      40.653  28.918  29.355  1.00  0.00     0.037 A 
ATOM     24  C   UNL A   1      47.223  26.984  27.903  1.00  0.00     0.037 A 
ATOM     25  C   UNL A   1      41.649  29.929  29.569  1.00  0.00     0.049 A 
ATOM     26  C   UNL A   1      46.824  28.422  28.033  1.00  0.00     0.074 A 
ATOM     27  C   UNL A   1      41.529  31.165  30.173  1.00  0.00     0.029 A 
ATOM     28  N   UNL A   1      42.962  29.815  29.136  1.00  0.00    -0.354 N 
ATOM     29  N   UNL A   1      45.661  28.927  28.360  1.00  0.00    -0.248 NA
ATOM     30  C   UNL A   1      47.886  29.416  27.834  1.00  0.00     0.031 C 
ATOM     31  C   UNL A   1      42.761  31.822  30.049  1.00  0.00     0.029 A 
ATOM     32  C   UNL A   1      43.659  30.972  29.422  1.00  0.00     0.049 A 
ATOM     33  H   UNL A   1      43.343  29.024  28.689  1.00  0.00     0.167 HD
ATOM     34  C   UNL A   1      45.884  30.281  28.554  1.00  0.00     0.074 A 
ATOM     35  C   UNL A   1      47.265  30.531  28.190  1.00  0.00     0.031 C 
ATOM     36  C   UNL A   1      45.042  31.203  29.082  1.00  0.00     0.037 A 
BRANCH  23  37
ATOM     37  C   UNL A   1      39.233  29.147  29.773  1.00  0.00     0.057 A 
ATOM     38  C   UNL A   1      38.296  29.715  28.894  1.00  0.00     0.134 A 
ATOM     39  C   UNL A   1      38.797  28.842  31.065  1.00  0.00     0.134 A 
ATOM     40  F   UNL A   1      38.649  30.046  27.641  1.00  0.00    -0.206 F 
ATOM     41  C   UNL A   1      36.994  30.014  29.300  1.00  0.00     0.040 A 
ATOM     42  C   UNL A   1      37.490  29.110  31.475  1.00  0.00     0.040 A 
ATOM     43  F   UNL A   1      39.638  28.298  31.957  1.00  0.00    -0.206 F 
ATOM     44  C   UNL A   1      36.589  29.709  30.596  1.00  0.00     0.006 A 
ENDBRANCH  23  37
BRANCH  24  45
ATOM     45  C   UNL A   1      48.520  26.633  27.264  1.00  0.00     0.057 A 
ATOM     46  C   UNL A   1      48.650  26.483  25.883  1.00  0.00     0.134 A 
ATOM     47  C   UNL A   1      49.654  26.346  28.043  1.00  0.00     0.134 A 
ATOM     48  F   UNL A   1      47.589  26.659  25.085  1.00  0.00    -0.206 F 
ATOM     49  C   UNL A   1      49.863  26.094  25.300  1.00  0.00     0.040 A 
ATOM     50  C   UNL A   1      50.881  25.996  27.473  1.00  0.00     0.040 A 
ATOM     51  F   UNL A   1      49.575  26.325  29.379  1.00  0.00    -0.206 F 
ATOM     52  C   UNL A   1      50.987  25.868  26.093  1.00  0.00     0.006 A 
ENDBRANCH  24  45
BRANCH  36  53
ATOM     53  C   UNL A   1      45.643  32.513  29.477  1.00  0.00     0.057 A 
ATOM     54  C   UNL A   1      46.282  32.721  30.702  1.00  0.00     0.134 A 
ATOM     55  C   UNL A   1      45.587  33.588  28.580  1.00  0.00     0.134 A 
ATOM     56  F   UNL A   1      46.339  31.740  31.616  1.00  0.00    -0.206 F 
ATOM     57  C   UNL A   1      46.832  33.961  31.028  1.00  0.00     0.040 A 
ATOM     58  C   UNL A   1      46.162  34.820  28.878  1.00  0.00     0.040 A 
ATOM     59  F   UNL A   1      44.982  33.451  27.389  1.00  0.00    -0.206 F 
ATOM     60  C   UNL A   1      46.782  35.010  30.110  1.00  0.00     0.006 A 
ENDBRANCH  36  53
ENDBRANCH  10  11
ENDBRANCH   3   5
ENDBRANCH   2   3
ENDBRANCH   1   2
BRANCH   1  61
ATOM     61  C   UNL A   1      36.801  21.063  24.655  1.00  0.00     0.275 C 
BRANCH  61  62
ATOM     62  O   UNL A   1      35.841  22.135  24.716  1.00  0.00    -0.458 OA
BRANCH  62  63
ATOM     63  C   UNL A   1      35.828  22.943  23.620  1.00  0.00     0.338 C 
ATOM     64  O   UNL A   1      36.630  22.919  22.707  1.00  0.00    -0.246 OA
BRANCH  63  65
ATOM     65  C   UNL A   1      34.619  23.807  23.593  1.00  0.00     0.060 A 
ATOM     66  C   UNL A   1      33.483  23.315  22.946  1.00  0.00     0.018 A 
ATOM     67  C   UNL A   1      34.588  25.091  24.136  1.00  0.00     0.022 A 
ATOM     68  C   UNL A   1      32.321  24.096  22.847  1.00  0.00     0.027 A 
ATOM     69  C   UNL A   1      33.424  25.894  24.000  1.00  0.00    -0.017 A 
ATOM     70  C   UNL A   1      32.285  25.408  23.329  1.00  0.00     0.038 A 
ATOM     71  C   UNL A   1      33.408  27.290  24.573  1.00  0.00     0.049 C 
ATOM     72  N   UNL A   1      31.130  26.181  23.175  1.00  0.00    -0.378 N 
ATOM     73  C   UNL A   1      33.626  27.293  26.047  1.00  0.00    -0.023 C 
ATOM     74  C   UNL A   1      32.046  27.987  24.526  1.00  0.00     0.031 C 
ATOM     75  C   UNL A   1      31.233  27.634  23.292  1.00  0.00     0.114 C 
ATOM     76  H   UNL A   1      30.262  25.754  22.992  1.00  0.00     0.161 HD
ATOM     77  C   UNL A   1      32.481  27.423  26.725  1.00  0.00    -0.030 C 
ATOM     78  C   UNL A   1      31.324  27.628  25.835  1.00  0.00     0.034 C 
BRANCH  75  79
ATOM     79  C   UNL A   1      29.907  28.386  23.405  1.00  0.00    -0.022 A 
ATOM     80  C   UNL A   1      28.716  27.631  23.372  1.00  0.00     0.026 A 
ATOM     81  C   UNL A   1      29.788  29.775  23.318  1.00  0.00     0.026 A 
ATOM     82  C   UNL A   1      27.502  28.275  23.201  1.00  0.00     0.111 A 
ATOM     83  C   UNL A   1      28.521  30.329  23.175  1.00  0.00     0.111 A 
ATOM     84  N   UNL A   1      27.378  29.611  23.109  1.00  0.00    -0.265 NA
ENDBRANCH  75  79
ENDBRANCH  63  65
ENDBRANCH  62  63
ENDBRANCH  61  62
ENDBRANCH   1  61
TORSDOF 12
ENDMDL
MODEL 3
REMARK VINA RESULT:     -12.7      3.367      5.541
REMARK SMILES O=C(OCCOC(=O)c1ccc2c(c1)[C@@H]1C=CC[C@@H]1[C@H](c1ccncc1)N2)c1ccc(-c2c3nc(c(-c4c(F)cccc4F)c4ccc([nH]4)c(-c4c(F)cccc4F)c4nc(c(-c5c(F)cccc5F)c5ccc2[nH]5)C=C4)C=C3)cc1
REMARK SMILES IDX 4 1 3 2 2 3 1 4 28 5 29 6 81 7 30 8 80 9 31 10 32 11 33 12
REMARK SMILES IDX 74 13 34 14 79 15 73 16 75 17 35 18 78 19 72 20 71 21 36 23
REMARK SMILES IDX 62 24 45 25 61 26 46 27 49 28 60 29 76 30 47 31 48 32 59 34
REMARK SMILES IDX 77 35 50 36 37 37 38 38 43 39 39 40 40 41 42 42 44 43 41 44
REMARK SMILES IDX 63 45 64 46 69 47 65 48 66 49 68 50 70 51 67 52 51 53 52 54
REMARK SMILES IDX 57 55 53 56 54 57 56 58 58 59 55 60 5 61 6 62 7 63 8 64 9 65
REMARK SMILES IDX 10 66 14 67 11 68 13 69 12 70 15 71 27 72 16 73 19 74 20 75
REMARK SMILES IDX 17 77 18 78 21 79 22 80 26 81 23 82 25 83 24 84
REMARK H PARENT 75 22 49 33 27 76
REMARK Flexibility Score: inf
ROOT
ATOM      1  C   UNL A   1      30.438  27.753  22.397  1.00  0.00     0.275 C 
ENDROOT
BRANCH   1   2
ATOM      2  O   UNL A   1      29.957  27.873  23.749  1.00  0.00    -0.458 OA
BRANCH   2   3
ATOM      3  C   UNL A   1      30.551  27.502  24.908  1.00  0.00     0.338 C 
ATOM      4  O   UNL A   1      30.159  26.492  25.490  1.00  0.00    -0.246 OA
BRANCH   3   5
ATOM      5  C   UNL A   1      31.573  28.350  25.588  1.00  0.00     0.060 A 
ATOM      6  C   UNL A   1      32.186  29.472  25.029  1.00  0.00     0.016 A 
ATOM      7  C   UNL A   1      31.937  27.975  26.892  1.00  0.00     0.016 A 
ATOM      8  C   UNL A   1      33.059  30.264  25.774  1.00  0.00     0.010 A 
ATOM      9  C   UNL A   1      32.804  28.768  27.648  1.00  0.00     0.010 A 
ATOM     10  C   UNL A   1      33.382  29.919  27.084  1.00  0.00    -0.014 A 
BRANCH  10  11
ATOM     11  C   UNL A   1      34.521  30.594  27.751  1.00  0.00     0.031 A 
ATOM     12  C   UNL A   1      35.779  29.793  27.912  1.00  0.00     0.074 A 
ATOM     13  C   UNL A   1      34.478  31.885  28.146  1.00  0.00     0.049 A 
ATOM     14  N   UNL A   1      36.850  30.064  28.603  1.00  0.00    -0.248 NA
ATOM     15  C   UNL A   1      35.855  28.530  27.149  1.00  0.00     0.031 C 
ATOM     16  C   UNL A   1      33.370  32.817  27.926  1.00  0.00     0.029 A 
ATOM     17  N   UNL A   1      35.344  32.596  28.956  1.00  0.00    -0.354 N 
ATOM     18  C   UNL A   1      37.759  29.071  28.267  1.00  0.00     0.074 A 
ATOM     19  C   UNL A   1      37.070  28.104  27.448  1.00  0.00     0.031 C 
ATOM     20  C   UNL A   1      33.518  33.876  28.745  1.00  0.00     0.029 A 
ATOM     21  C   UNL A   1      34.708  33.671  29.557  1.00  0.00     0.049 A 
ATOM     22  H   UNL A   1      36.292  32.366  29.090  1.00  0.00     0.167 HD
ATOM     23  C   UNL A   1      39.084  29.037  28.540  1.00  0.00     0.037 A 
ATOM     24  C   UNL A   1      34.975  34.259  30.744  1.00  0.00     0.037 A 
ATOM     25  C   UNL A   1      39.721  29.995  29.396  1.00  0.00     0.049 A 
ATOM     26  C   UNL A   1      36.275  33.929  31.412  1.00  0.00     0.074 A 
ATOM     27  C   UNL A   1      41.057  30.136  29.715  1.00  0.00     0.029 A 
ATOM     28  N   UNL A   1      39.031  30.968  30.106  1.00  0.00    -0.354 N 
ATOM     29  N   UNL A   1      37.168  33.033  31.076  1.00  0.00    -0.248 NA
ATOM     30  C   UNL A   1      36.647  34.758  32.565  1.00  0.00     0.031 C 
ATOM     31  C   UNL A   1      41.165  31.159  30.667  1.00  0.00     0.029 A 
ATOM     32  C   UNL A   1      39.904  31.690  30.894  1.00  0.00     0.049 A 
ATOM     33  H   UNL A   1      38.059  31.120  30.055  1.00  0.00     0.167 HD
ATOM     34  C   UNL A   1      38.271  33.287  31.876  1.00  0.00     0.074 A 
ATOM     35  C   UNL A   1      37.885  34.343  32.793  1.00  0.00     0.031 C 
ATOM     36  C   UNL A   1      39.516  32.759  31.782  1.00  0.00     0.037 A 
BRANCH  23  37
ATOM     37  C   UNL A   1      39.885  27.960  27.873  1.00  0.00     0.057 A 
ATOM     38  C   UNL A   1      39.994  26.677  28.436  1.00  0.00     0.134 A 
ATOM     39  C   UNL A   1      40.584  28.203  26.688  1.00  0.00     0.134 A 
ATOM     40  F   UNL A   1      39.359  26.379  29.580  1.00  0.00    -0.206 F 
ATOM     41  C   UNL A   1      40.807  25.694  27.870  1.00  0.00     0.040 A 
ATOM     42  C   UNL A   1      41.379  27.218  26.097  1.00  0.00     0.040 A 
ATOM     43  F   UNL A   1      40.525  29.405  26.095  1.00  0.00    -0.206 F 
ATOM     44  C   UNL A   1      41.502  25.965  26.695  1.00  0.00     0.006 A 
ENDBRANCH  23  37
BRANCH  24  45
ATOM     45  C   UNL A   1      33.988  35.128  31.440  1.00  0.00     0.057 A 
ATOM     46  C   UNL A   1      33.311  34.711  32.587  1.00  0.00     0.134 A 
ATOM     47  C   UNL A   1      33.629  36.379  30.912  1.00  0.00     0.134 A 
ATOM     48  F   UNL A   1      33.542  33.495  33.099  1.00  0.00    -0.206 F 
ATOM     49  C   UNL A   1      32.341  35.516  33.197  1.00  0.00     0.040 A 
ATOM     50  C   UNL A   1      32.692  37.210  31.532  1.00  0.00     0.040 A 
ATOM     51  F   UNL A   1      34.124  36.789  29.738  1.00  0.00    -0.206 F 
ATOM     52  C   UNL A   1      32.042  36.776  32.681  1.00  0.00     0.006 A 
ENDBRANCH  24  45
BRANCH  36  53
ATOM     53  C   UNL A   1      40.596  33.443  32.557  1.00  0.00     0.057 A 
ATOM     54  C   UNL A   1      40.910  33.118  33.879  1.00  0.00     0.134 A 
ATOM     55  C   UNL A   1      41.349  34.449  31.936  1.00  0.00     0.134 A 
ATOM     56  F   UNL A   1      40.204  32.185  34.537  1.00  0.00    -0.206 F 
ATOM     57  C   UNL A   1      41.929  33.782  34.563  1.00  0.00     0.040 A 
ATOM     58  C   UNL A   1      42.390  35.095  32.595  1.00  0.00     0.040 A 
ATOM     59  F   UNL A   1      41.090  34.810  30.669  1.00  0.00    -0.206 F 
ATOM     60  C   UNL A   1      42.679  34.765  33.917  1.00  0.00     0.006 A 
ENDBRANCH  36  53
ENDBRANCH  10  11
ENDBRANCH   3   5
ENDBRANCH   2   3
ENDBRANCH   1   2
BRANCH   1  61
ATOM     61  C   UNL A   1      31.322  26.534  22.094  1.00  0.00     0.275 C 
BRANCH  61  62
ATOM     62  O   UNL A   1      32.730  26.815  21.972  1.00  0.00    -0.458 OA
BRANCH  62  63
ATOM     63  C   UNL A   1      33.489  26.343  22.998  1.00  0.00     0.338 C 
ATOM     64  O   UNL A   1      34.085  27.018  23.815  1.00  0.00    -0.246 OA
BRANCH  63  65
ATOM     65  C   UNL A   1      33.416  24.862  23.095  1.00  0.00     0.060 A 
ATOM     66  C   UNL A   1      32.905  24.163  21.999  1.00  0.00     0.018 A 
ATOM     67  C   UNL A   1      33.784  24.154  24.239  1.00  0.00     0.022 A 
ATOM     68  C   UNL A   1      32.769  22.766  22.040  1.00  0.00     0.027 A 
ATOM     69  C   UNL A   1      33.610  22.746  24.293  1.00  0.00    -0.017 A 
ATOM     70  C   UNL A   1      33.075  22.041  23.196  1.00  0.00     0.038 A 
ATOM     71  C   UNL A   1      33.993  21.991  25.543  1.00  0.00     0.049 C 
ATOM     72  N   UNL A   1      32.885  20.656  23.227  1.00  0.00    -0.378 N 
ATOM     73  C   UNL A   1      35.439  22.145  25.869  1.00  0.00    -0.023 C 
ATOM     74  C   UNL A   1      33.931  20.467  25.417  1.00  0.00     0.031 C 
ATOM     75  C   UNL A   1      32.802  19.984  24.522  1.00  0.00     0.114 C 
ATOM     76  H   UNL A   1      32.810  20.143  22.391  1.00  0.00     0.161 HD
ATOM     77  C   UNL A   1      36.157  21.086  25.481  1.00  0.00    -0.030 C 
ATOM     78  C   UNL A   1      35.315  20.011  24.927  1.00  0.00     0.034 C 
BRANCH  75  79
ATOM     79  C   UNL A   1      32.890  18.458  24.483  1.00  0.00    -0.022 A 
ATOM     80  C   UNL A   1      32.622  17.751  25.674  1.00  0.00     0.026 A 
ATOM     81  C   UNL A   1      33.428  17.735  23.416  1.00  0.00     0.026 A 
ATOM     82  C   UNL A   1      32.947  16.408  25.761  1.00  0.00     0.111 A 
ATOM     83  C   UNL A   1      33.694  16.382  23.592  1.00  0.00     0.111 A 
ATOM     84  N   UNL A   1      33.472  15.705  24.741  1.00  0.00    -0.265 NA
ENDBRANCH  75  79
ENDBRANCH  63  65
ENDBRANCH  62  63
ENDBRANCH  61  62
ENDBRANCH   1  61
TORSDOF 12
ENDMDL
