MODEL 1
REMARK VINA RESULT:     -11.6      0.000      0.000
REMARK SMILES C[C@@H](C(=O)OCCOC(=O)c1ccc(-c2c3nc(c(-c4c(F)cccc4F)c4ccc([nH]4)c(-c4c(F)cccc4F)c4nc(c(-c5c(F)cccc5F)c5ccc2[nH]5)C=C4)C=C3)cc1)c1ccc(C[C@H]2CCCC2=O)cc1
REMARK SMILES IDX 6 1 5 2 3 3 4 4 2 5 1 6 65 7 66 8 77 9 67 10 76 11 68 12
REMARK SMILES IDX 69 13 70 14 71 15 74 16 72 17 73 18 75 19 7 20 8 21 9 22
REMARK SMILES IDX 10 23 11 24 12 25 64 26 13 27 63 28 14 29 15 30 16 31 57 32
REMARK SMILES IDX 17 33 62 34 56 35 58 36 18 37 61 38 55 39 54 40 19 42 45 43
REMARK SMILES IDX 28 44 44 45 29 46 32 47 43 48 59 49 30 50 31 51 42 53 60 54
REMARK SMILES IDX 33 55 20 56 21 57 26 58 22 59 23 60 25 61 27 62 24 63 46 64
REMARK SMILES IDX 47 65 52 66 48 67 49 68 51 69 53 70 50 71 34 72 35 73 40 74
REMARK SMILES IDX 36 75 37 76 39 77 41 78 38 79
REMARK H PARENT 58 41 32 52
REMARK Flexibility Score: inf
ROOT
ATOM      1  C   UNL A   1      31.955  27.917  25.917  1.00  0.00     0.274 C 
ENDROOT
BRANCH   1   2
ATOM      2  O   UNL A   1      30.654  27.294  25.941  1.00  0.00    -0.462 OA
BRANCH   2   3
ATOM      3  C   UNL A   1      30.617  25.941  25.785  1.00  0.00     0.313 C 
ATOM      4  O   UNL A   1      31.033  25.144  26.620  1.00  0.00    -0.252 OA
BRANCH   3   5
ATOM      5  C   UNL A   1      30.040  25.522  24.427  1.00  0.00     0.126 C 
ATOM      6  C   UNL A   1      30.981  24.633  23.607  1.00  0.00     0.025 C 
BRANCH   5   7
ATOM      7  C   UNL A   1      29.530  26.732  23.646  1.00  0.00    -0.034 A 
ATOM      8  C   UNL A   1      28.179  27.100  23.760  1.00  0.00     0.005 A 
ATOM      9  C   UNL A   1      30.369  27.537  22.862  1.00  0.00     0.005 A 
ATOM     10  C   UNL A   1      27.687  28.244  23.124  1.00  0.00     0.004 A 
ATOM     11  C   UNL A   1      29.876  28.682  22.225  1.00  0.00     0.004 A 
ATOM     12  C   UNL A   1      28.533  29.055  22.360  1.00  0.00    -0.047 A 
BRANCH  12  13
ATOM     13  C   UNL A   1      28.013  30.336  21.750  1.00  0.00     0.047 C 
BRANCH  13  14
ATOM     14  C   UNL A   1      27.653  31.467  22.713  1.00  0.00     0.060 C 
ATOM     15  C   UNL A   1      28.304  31.394  24.098  1.00  0.00     0.012 C 
ATOM     16  C   UNL A   1      28.109  32.818  22.216  1.00  0.00     0.136 C 
ATOM     17  C   UNL A   1      29.528  32.299  24.035  1.00  0.00     0.009 C 
ATOM     18  C   UNL A   1      29.128  33.453  23.126  1.00  0.00     0.076 C 
ATOM     19  O   UNL A   1      27.684  33.353  21.199  1.00  0.00    -0.299 OA
ENDBRANCH  13  14
ENDBRANCH  12  13
ENDBRANCH   5   7
ENDBRANCH   3   5
ENDBRANCH   2   3
ENDBRANCH   1   2
BRANCH   1  20
ATOM     20  C   UNL A   1      31.801  29.429  25.788  1.00  0.00     0.275 C 
BRANCH  20  21
ATOM     21  O   UNL A   1      31.966  30.026  27.085  1.00  0.00    -0.458 OA
BRANCH  21  22
ATOM     22  C   UNL A   1      32.657  31.184  27.133  1.00  0.00     0.338 C 
ATOM     23  O   UNL A   1      32.254  32.302  26.825  1.00  0.00    -0.246 OA
BRANCH  22  24
ATOM     24  C   UNL A   1      34.023  30.933  27.627  1.00  0.00     0.060 A 
ATOM     25  C   UNL A   1      34.493  29.631  27.771  1.00  0.00     0.016 A 
ATOM     26  C   UNL A   1      34.808  32.006  28.055  1.00  0.00     0.016 A 
ATOM     27  C   UNL A   1      35.701  29.399  28.431  1.00  0.00     0.010 A 
ATOM     28  C   UNL A   1      36.058  31.769  28.643  1.00  0.00     0.010 A 
ATOM     29  C   UNL A   1      36.500  30.458  28.890  1.00  0.00    -0.014 A 
BRANCH  29  30
ATOM     30  C   UNL A   1      37.734  30.197  29.694  1.00  0.00     0.031 A 
ATOM     31  C   UNL A   1      38.896  29.438  29.091  1.00  0.00     0.074 A 
ATOM     32  C   UNL A   1      37.873  30.680  30.946  1.00  0.00     0.049 A 
ATOM     33  N   UNL A   1      39.957  28.943  29.678  1.00  0.00    -0.248 NA
ATOM     34  C   UNL A   1      38.857  29.202  27.639  1.00  0.00     0.031 C 
ATOM     35  C   UNL A   1      36.889  31.494  31.659  1.00  0.00     0.029 A 
ATOM     36  N   UNL A   1      38.918  30.575  31.834  1.00  0.00    -0.354 N 
ATOM     37  C   UNL A   1      40.661  28.263  28.691  1.00  0.00     0.074 A 
ATOM     38  C   UNL A   1      39.924  28.435  27.457  1.00  0.00     0.031 C 
ATOM     39  C   UNL A   1      37.402  31.875  32.838  1.00  0.00     0.029 A 
ATOM     40  C   UNL A   1      38.707  31.247  33.015  1.00  0.00     0.049 A 
ATOM     41  H   UNL A   1      39.739  30.068  31.642  1.00  0.00     0.167 HD
ATOM     42  C   UNL A   1      41.808  27.551  28.804  1.00  0.00     0.037 A 
ATOM     43  C   UNL A   1      39.450  31.318  34.135  1.00  0.00     0.037 A 
ATOM     44  C   UNL A   1      42.594  27.445  30.005  1.00  0.00     0.049 A 
ATOM     45  C   UNL A   1      40.721  30.529  34.239  1.00  0.00     0.074 A 
ATOM     46  C   UNL A   1      43.764  26.731  30.212  1.00  0.00     0.029 A 
ATOM     47  N   UNL A   1      42.312  28.098  31.193  1.00  0.00    -0.354 N 
ATOM     48  N   UNL A   1      41.298  29.771  33.339  1.00  0.00    -0.248 NA
ATOM     49  C   UNL A   1      41.423  30.571  35.531  1.00  0.00     0.031 C 
ATOM     50  C   UNL A   1      44.183  26.946  31.531  1.00  0.00     0.029 A 
ATOM     51  C   UNL A   1      43.289  27.813  32.133  1.00  0.00     0.049 A 
ATOM     52  H   UNL A   1      41.533  28.681  31.346  1.00  0.00     0.167 HD
ATOM     53  C   UNL A   1      42.416  29.232  33.961  1.00  0.00     0.074 A 
ATOM     54  C   UNL A   1      42.460  29.778  35.301  1.00  0.00     0.031 C 
ATOM     55  C   UNL A   1      43.316  28.347  33.467  1.00  0.00     0.037 A 
BRANCH  42  56
ATOM     56  C   UNL A   1      42.273  26.789  27.599  1.00  0.00     0.057 A 
ATOM     57  C   UNL A   1      41.873  25.472  27.348  1.00  0.00     0.134 A 
ATOM     58  C   UNL A   1      43.092  27.411  26.647  1.00  0.00     0.134 A 
ATOM     59  F   UNL A   1      41.102  24.817  28.230  1.00  0.00    -0.206 F 
ATOM     60  C   UNL A   1      42.281  24.795  26.197  1.00  0.00     0.040 A 
ATOM     61  C   UNL A   1      43.491  26.752  25.484  1.00  0.00     0.040 A 
ATOM     62  F   UNL A   1      43.505  28.675  26.826  1.00  0.00    -0.206 F 
ATOM     63  C   UNL A   1      43.086  25.438  25.257  1.00  0.00     0.006 A 
ENDBRANCH  42  56
BRANCH  43  64
ATOM     64  C   UNL A   1      38.974  32.132  35.280  1.00  0.00     0.057 A 
ATOM     65  C   UNL A   1      38.215  31.558  36.304  1.00  0.00     0.134 A 
ATOM     66  C   UNL A   1      39.280  33.494  35.384  1.00  0.00     0.134 A 
ATOM     67  F   UNL A   1      37.865  30.266  36.243  1.00  0.00    -0.206 F 
ATOM     68  C   UNL A   1      37.779  32.310  37.396  1.00  0.00     0.040 A 
ATOM     69  C   UNL A   1      38.872  34.252  36.481  1.00  0.00     0.040 A 
ATOM     70  F   UNL A   1      40.002  34.100  34.429  1.00  0.00    -0.206 F 
ATOM     71  C   UNL A   1      38.116  33.660  37.491  1.00  0.00     0.006 A 
ENDBRANCH  43  64
BRANCH  55  72
ATOM     72  C   UNL A   1      44.415  27.911  34.385  1.00  0.00     0.057 A 
ATOM     73  C   UNL A   1      44.272  26.788  35.210  1.00  0.00     0.134 A 
ATOM     74  C   UNL A   1      45.631  28.602  34.432  1.00  0.00     0.134 A 
ATOM     75  F   UNL A   1      43.125  26.093  35.218  1.00  0.00    -0.206 F 
ATOM     76  C   UNL A   1      45.297  26.377  36.063  1.00  0.00     0.040 A 
ATOM     77  C   UNL A   1      46.669  28.192  35.270  1.00  0.00     0.040 A 
ATOM     78  F   UNL A   1      45.829  29.683  33.663  1.00  0.00    -0.206 F 
ATOM     79  C   UNL A   1      46.501  27.078  36.092  1.00  0.00     0.006 A 
ENDBRANCH  55  72
ENDBRANCH  29  30
ENDBRANCH  22  24
ENDBRANCH  21  22
ENDBRANCH  20  21
ENDBRANCH   1  20
TORSDOF 14
ENDMDL
MODEL 2
REMARK VINA RESULT:     -11.6      4.123      9.095
REMARK SMILES C[C@@H](C(=O)OCCOC(=O)c1ccc(-c2c3nc(c(-c4c(F)cccc4F)c4ccc([nH]4)c(-c4c(F)cccc4F)c4nc(c(-c5c(F)cccc5F)c5ccc2[nH]5)C=C4)C=C3)cc1)c1ccc(C[C@H]2CCCC2=O)cc1
REMARK SMILES IDX 6 1 5 2 3 3 4 4 2 5 1 6 65 7 66 8 77 9 67 10 76 11 68 12
REMARK SMILES IDX 69 13 70 14 71 15 74 16 72 17 73 18 75 19 7 20 8 21 9 22
REMARK SMILES IDX 10 23 11 24 12 25 64 26 13 27 63 28 14 29 15 30 16 31 57 32
REMARK SMILES IDX 17 33 62 34 56 35 58 36 18 37 61 38 55 39 54 40 19 42 45 43
REMARK SMILES IDX 28 44 44 45 29 46 32 47 43 48 59 49 30 50 31 51 42 53 60 54
REMARK SMILES IDX 33 55 20 56 21 57 26 58 22 59 23 60 25 61 27 62 24 63 46 64
REMARK SMILES IDX 47 65 52 66 48 67 49 68 51 69 53 70 50 71 34 72 35 73 40 74
REMARK SMILES IDX 36 75 37 76 39 77 41 78 38 79
REMARK H PARENT 58 41 32 52
REMARK Flexibility Score: inf
ROOT
ATOM      1  C   UNL A   1      43.841  21.816  25.668  1.00  0.00     0.274 C 
ENDROOT
BRANCH   1   2
ATOM      2  O   UNL A   1      42.706  21.013  25.282  1.00  0.00    -0.462 OA
BRANCH   2   3
ATOM      3  C   UNL A   1      41.773  20.763  26.243  1.00  0.00     0.313 C 
ATOM      4  O   UNL A   1      41.332  19.647  26.496  1.00  0.00    -0.252 OA
BRANCH   3   5
ATOM      5  C   UNL A   1      41.297  22.041  26.944  1.00  0.00     0.126 C 
ATOM      6  C   UNL A   1      41.490  22.017  28.464  1.00  0.00     0.025 C 
BRANCH   5   7
ATOM      7  C   UNL A   1      39.872  22.403  26.528  1.00  0.00    -0.034 A 
ATOM      8  C   UNL A   1      39.355  23.661  26.879  1.00  0.00     0.005 A 
ATOM      9  C   UNL A   1      39.071  21.554  25.751  1.00  0.00     0.005 A 
ATOM     10  C   UNL A   1      38.085  24.063  26.454  1.00  0.00     0.004 A 
ATOM     11  C   UNL A   1      37.799  21.957  25.327  1.00  0.00     0.004 A 
ATOM     12  C   UNL A   1      37.299  23.221  25.662  1.00  0.00    -0.047 A 
BRANCH  12  13
ATOM     13  C   UNL A   1      35.966  23.698  25.133  1.00  0.00     0.047 C 
BRANCH  13  14
ATOM     14  C   UNL A   1      34.713  23.165  25.828  1.00  0.00     0.060 C 
ATOM     15  C   UNL A   1      33.625  24.201  26.125  1.00  0.00     0.012 C 
ATOM     16  C   UNL A   1      33.971  22.154  24.986  1.00  0.00     0.136 C 
ATOM     17  C   UNL A   1      32.621  24.095  24.985  1.00  0.00     0.009 C 
ATOM     18  C   UNL A   1      32.587  22.619  24.615  1.00  0.00     0.076 C 
ATOM     19  O   UNL A   1      34.429  21.066  24.659  1.00  0.00    -0.299 OA
ENDBRANCH  13  14
ENDBRANCH  12  13
ENDBRANCH   5   7
ENDBRANCH   3   5
ENDBRANCH   2   3
ENDBRANCH   1   2
BRANCH   1  20
ATOM     20  C   UNL A   1      44.267  22.703  24.503  1.00  0.00     0.275 C 
BRANCH  20  21
ATOM     21  O   UNL A   1      43.609  23.975  24.620  1.00  0.00    -0.458 OA
BRANCH  21  22
ATOM     22  C   UNL A   1      44.360  25.004  25.062  1.00  0.00     0.338 C 
ATOM     23  O   UNL A   1      45.501  25.293  24.716  1.00  0.00    -0.246 OA
BRANCH  22  24
ATOM     24  C   UNL A   1      43.605  25.782  26.062  1.00  0.00     0.060 A 
ATOM     25  C   UNL A   1      43.926  27.114  26.309  1.00  0.00     0.016 A 
ATOM     26  C   UNL A   1      42.637  25.145  26.842  1.00  0.00     0.016 A 
ATOM     27  C   UNL A   1      43.351  27.775  27.395  1.00  0.00     0.010 A 
ATOM     28  C   UNL A   1      42.004  25.841  27.881  1.00  0.00     0.010 A 
ATOM     29  C   UNL A   1      42.391  27.153  28.209  1.00  0.00    -0.014 A 
BRANCH  29  30
ATOM     30  C   UNL A   1      41.866  27.830  29.434  1.00  0.00     0.031 A 
ATOM     31  C   UNL A   1      40.570  28.608  29.385  1.00  0.00     0.074 A 
ATOM     32  C   UNL A   1      42.493  27.714  30.624  1.00  0.00     0.049 A 
ATOM     33  N   UNL A   1      40.057  29.421  30.275  1.00  0.00    -0.248 NA
ATOM     34  C   UNL A   1      39.746  28.456  28.175  1.00  0.00     0.031 C 
ATOM     35  C   UNL A   1      43.710  26.943  30.875  1.00  0.00     0.029 A 
ATOM     36  N   UNL A   1      42.171  28.230  31.858  1.00  0.00    -0.354 N 
ATOM     37  C   UNL A   1      38.905  29.944  29.699  1.00  0.00     0.074 A 
ATOM     38  C   UNL A   1      38.775  29.332  28.394  1.00  0.00     0.031 C 
ATOM     39  C   UNL A   1      43.990  26.975  32.186  1.00  0.00     0.029 A 
ATOM     40  C   UNL A   1      43.038  27.855  32.855  1.00  0.00     0.049 A 
ATOM     41  H   UNL A   1      41.393  28.813  32.011  1.00  0.00     0.167 HD
ATOM     42  C   UNL A   1      38.042  30.857  30.205  1.00  0.00     0.037 A 
ATOM     43  C   UNL A   1      43.098  28.207  34.153  1.00  0.00     0.037 A 
ATOM     44  C   UNL A   1      38.114  31.408  31.534  1.00  0.00     0.049 A 
ATOM     45  C   UNL A   1      42.129  29.215  34.698  1.00  0.00     0.074 A 
ATOM     46  C   UNL A   1      37.288  32.352  32.124  1.00  0.00     0.029 A 
ATOM     47  N   UNL A   1      39.043  31.038  32.491  1.00  0.00    -0.354 N 
ATOM     48  N   UNL A   1      41.131  29.811  34.094  1.00  0.00    -0.248 NA
ATOM     49  C   UNL A   1      42.322  29.631  36.095  1.00  0.00     0.031 C 
ATOM     50  C   UNL A   1      37.726  32.559  33.438  1.00  0.00     0.029 A 
ATOM     51  C   UNL A   1      38.807  31.726  33.670  1.00  0.00     0.049 A 
ATOM     52  H   UNL A   1      39.764  30.381  32.354  1.00  0.00     0.167 HD
ATOM     53  C   UNL A   1      40.592  30.685  35.028  1.00  0.00     0.074 A 
ATOM     54  C   UNL A   1      41.347  30.515  36.251  1.00  0.00     0.031 C 
ATOM     55  C   UNL A   1      39.572  31.563  34.876  1.00  0.00     0.037 A 
BRANCH  42  56
ATOM     56  C   UNL A   1      36.955  31.360  29.302  1.00  0.00     0.057 A 
ATOM     57  C   UNL A   1      35.816  30.601  29.011  1.00  0.00     0.134 A 
ATOM     58  C   UNL A   1      37.031  32.651  28.763  1.00  0.00     0.134 A 
ATOM     59  F   UNL A   1      35.693  29.352  29.484  1.00  0.00    -0.206 F 
ATOM     60  C   UNL A   1      34.794  31.106  28.204  1.00  0.00     0.040 A 
ATOM     61  C   UNL A   1      36.007  33.174  27.972  1.00  0.00     0.040 A 
ATOM     62  F   UNL A   1      38.094  33.431  29.010  1.00  0.00    -0.206 F 
ATOM     63  C   UNL A   1      34.885  32.399  27.689  1.00  0.00     0.006 A 
ENDBRANCH  42  56
BRANCH  43  64
ATOM     64  C   UNL A   1      44.159  27.638  35.020  1.00  0.00     0.057 A 
ATOM     65  C   UNL A   1      43.954  26.444  35.717  1.00  0.00     0.134 A 
ATOM     66  C   UNL A   1      45.403  28.266  35.157  1.00  0.00     0.134 A 
ATOM     67  F   UNL A   1      42.772  25.816  35.648  1.00  0.00    -0.206 F 
ATOM     68  C   UNL A   1      44.952  25.890  36.520  1.00  0.00     0.040 A 
ATOM     69  C   UNL A   1      46.418  27.711  35.937  1.00  0.00     0.040 A 
ATOM     70  F   UNL A   1      45.656  29.416  34.516  1.00  0.00    -0.206 F 
ATOM     71  C   UNL A   1      46.192  26.520  36.623  1.00  0.00     0.006 A 
ENDBRANCH  43  64
BRANCH  55  72
ATOM     72  C   UNL A   1      39.222  32.411  36.060  1.00  0.00     0.057 A 
ATOM     73  C   UNL A   1      39.760  33.694  36.219  1.00  0.00     0.134 A 
ATOM     74  C   UNL A   1      38.329  31.954  37.034  1.00  0.00     0.134 A 
ATOM     75  F   UNL A   1      40.633  34.182  35.324  1.00  0.00    -0.206 F 
ATOM     76  C   UNL A   1      39.434  34.488  37.319  1.00  0.00     0.040 A 
ATOM     77  C   UNL A   1      37.982  32.745  38.131  1.00  0.00     0.040 A 
ATOM     78  F   UNL A   1      37.777  30.735  36.934  1.00  0.00    -0.206 F 
ATOM     79  C   UNL A   1      38.538  34.015  38.276  1.00  0.00     0.006 A 
ENDBRANCH  55  72
ENDBRANCH  29  30
ENDBRANCH  22  24
ENDBRANCH  21  22
ENDBRANCH  20  21
ENDBRANCH   1  20
TORSDOF 14
ENDMDL
MODEL 3
REMARK VINA RESULT:     -11.5      2.132      4.816
REMARK SMILES C[C@@H](C(=O)OCCOC(=O)c1ccc(-c2c3nc(c(-c4c(F)cccc4F)c4ccc([nH]4)c(-c4c(F)cccc4F)c4nc(c(-c5c(F)cccc5F)c5ccc2[nH]5)C=C4)C=C3)cc1)c1ccc(C[C@H]2CCCC2=O)cc1
REMARK SMILES IDX 6 1 5 2 3 3 4 4 2 5 1 6 65 7 66 8 77 9 67 10 76 11 68 12
REMARK SMILES IDX 69 13 70 14 71 15 74 16 72 17 73 18 75 19 7 20 8 21 9 22
REMARK SMILES IDX 10 23 11 24 12 25 64 26 13 27 63 28 14 29 15 30 16 31 57 32
REMARK SMILES IDX 17 33 62 34 56 35 58 36 18 37 61 38 55 39 54 40 19 42 45 43
REMARK SMILES IDX 28 44 44 45 29 46 32 47 43 48 59 49 30 50 31 51 42 53 60 54
REMARK SMILES IDX 33 55 20 56 21 57 26 58 22 59 23 60 25 61 27 62 24 63 46 64
REMARK SMILES IDX 47 65 52 66 48 67 49 68 51 69 53 70 50 71 34 72 35 73 40 74
REMARK SMILES IDX 36 75 37 76 39 77 41 78 38 79
REMARK H PARENT 58 41 32 52
REMARK Flexibility Score: inf
ROOT
ATOM      1  C   UNL A   1      31.710  28.253  26.182  1.00  0.00     0.274 C 
ENDROOT
BRANCH   1   2
ATOM      2  O   UNL A   1      31.190  27.294  25.237  1.00  0.00    -0.462 OA
BRANCH   2   3
ATOM      3  C   UNL A   1      31.809  27.227  24.025  1.00  0.00     0.313 C 
ATOM      4  O   UNL A   1      31.216  27.123  22.957  1.00  0.00    -0.252 OA
BRANCH   3   5
ATOM      5  C   UNL A   1      33.338  27.246  24.146  1.00  0.00     0.126 C 
ATOM      6  C   UNL A   1      34.028  28.115  23.088  1.00  0.00     0.025 C 
BRANCH   5   7
ATOM      7  C   UNL A   1      33.906  25.831  24.220  1.00  0.00    -0.034 A 
ATOM      8  C   UNL A   1      34.339  25.330  25.459  1.00  0.00     0.005 A 
ATOM      9  C   UNL A   1      33.959  24.976  23.109  1.00  0.00     0.005 A 
ATOM     10  C   UNL A   1      34.793  24.014  25.586  1.00  0.00     0.004 A 
ATOM     11  C   UNL A   1      34.415  23.659  23.237  1.00  0.00     0.004 A 
ATOM     12  C   UNL A   1      34.824  23.160  24.480  1.00  0.00    -0.047 A 
BRANCH  12  13
ATOM     13  C   UNL A   1      35.233  21.714  24.644  1.00  0.00     0.047 C 
BRANCH  13  14
ATOM     14  C   UNL A   1      34.216  20.776  25.293  1.00  0.00     0.060 C 
ATOM     15  C   UNL A   1      32.752  21.219  25.209  1.00  0.00     0.012 C 
ATOM     16  C   UNL A   1      34.178  19.418  24.633  1.00  0.00     0.136 C 
ATOM     17  C   UNL A   1      32.158  20.481  24.016  1.00  0.00     0.009 C 
ATOM     18  C   UNL A   1      32.842  19.121  24.003  1.00  0.00     0.076 C 
ATOM     19  O   UNL A   1      35.118  18.632  24.627  1.00  0.00    -0.299 OA
ENDBRANCH  13  14
ENDBRANCH  12  13
ENDBRANCH   5   7
ENDBRANCH   3   5
ENDBRANCH   2   3
ENDBRANCH   1   2
BRANCH   1  20
ATOM     20  C   UNL A   1      31.433  29.668  25.687  1.00  0.00     0.275 C 
BRANCH  20  21
ATOM     21  O   UNL A   1      32.665  30.408  25.680  1.00  0.00    -0.458 OA
BRANCH  21  22
ATOM     22  C   UNL A   1      32.908  31.187  26.754  1.00  0.00     0.338 C 
ATOM     23  O   UNL A   1      32.157  32.021  27.251  1.00  0.00    -0.246 OA
BRANCH  22  24
ATOM     24  C   UNL A   1      34.252  30.901  27.287  1.00  0.00     0.060 A 
ATOM     25  C   UNL A   1      34.689  29.587  27.430  1.00  0.00     0.016 A 
ATOM     26  C   UNL A   1      35.046  31.951  27.754  1.00  0.00     0.016 A 
ATOM     27  C   UNL A   1      35.869  29.321  28.126  1.00  0.00     0.010 A 
ATOM     28  C   UNL A   1      36.271  31.680  28.379  1.00  0.00     0.010 A 
ATOM     29  C   UNL A   1      36.676  30.356  28.623  1.00  0.00    -0.014 A 
BRANCH  29  30
ATOM     30  C   UNL A   1      37.878  30.059  29.463  1.00  0.00     0.031 A 
ATOM     31  C   UNL A   1      39.034  29.266  28.894  1.00  0.00     0.074 A 
ATOM     32  C   UNL A   1      37.994  30.539  30.719  1.00  0.00     0.049 A 
ATOM     33  N   UNL A   1      40.062  28.740  29.512  1.00  0.00    -0.248 NA
ATOM     34  C   UNL A   1      39.031  29.031  27.441  1.00  0.00     0.031 C 
ATOM     35  C   UNL A   1      37.014  31.382  31.404  1.00  0.00     0.029 A 
ATOM     36  N   UNL A   1      39.009  30.403  31.638  1.00  0.00    -0.354 N 
ATOM     37  C   UNL A   1      40.774  28.039  28.546  1.00  0.00     0.074 A 
ATOM     38  C   UNL A   1      40.079  28.233  27.291  1.00  0.00     0.031 C 
ATOM     39  C   UNL A   1      37.504  31.748  32.597  1.00  0.00     0.029 A 
ATOM     40  C   UNL A   1      38.783  31.081  32.811  1.00  0.00     0.049 A 
ATOM     41  H   UNL A   1      39.820  29.872  31.469  1.00  0.00     0.167 HD
ATOM     42  C   UNL A   1      41.896  27.294  28.692  1.00  0.00     0.037 A 
ATOM     43  C   UNL A   1      39.494  31.131  33.953  1.00  0.00     0.037 A 
ATOM     44  C   UNL A   1      42.643  27.164  29.916  1.00  0.00     0.049 A 
ATOM     45  C   UNL A   1      40.738  30.304  34.094  1.00  0.00     0.074 A 
ATOM     46  C   UNL A   1      43.784  26.416  30.156  1.00  0.00     0.029 A 
ATOM     47  N   UNL A   1      42.345  27.826  31.095  1.00  0.00    -0.354 N 
ATOM     48  N   UNL A   1      41.319  29.529  33.211  1.00  0.00    -0.248 NA
ATOM     49  C   UNL A   1      41.404  30.326  35.406  1.00  0.00     0.031 C 
ATOM     50  C   UNL A   1      44.171  26.619  31.487  1.00  0.00     0.029 A 
ATOM     51  C   UNL A   1      43.285  27.512  32.063  1.00  0.00     0.049 A 
ATOM     52  H   UNL A   1      41.580  28.432  31.225  1.00  0.00     0.167 HD
ATOM     53  C   UNL A   1      42.402  28.957  33.866  1.00  0.00     0.074 A 
ATOM     54  C   UNL A   1      42.422  29.503  35.206  1.00  0.00     0.031 C 
ATOM     55  C   UNL A   1      43.289  28.046  33.398  1.00  0.00     0.037 A 
BRANCH  42  56
ATOM     56  C   UNL A   1      42.373  26.518  27.500  1.00  0.00     0.057 A 
ATOM     57  C   UNL A   1      43.282  27.047  26.579  1.00  0.00     0.134 A 
ATOM     58  C   UNL A   1      41.952  25.194  27.310  1.00  0.00     0.134 A 
ATOM     59  F   UNL A   1      43.710  28.313  26.698  1.00  0.00    -0.206 F 
ATOM     60  C   UNL A   1      43.749  26.291  25.502  1.00  0.00     0.040 A 
ATOM     61  C   UNL A   1      42.426  24.423  26.248  1.00  0.00     0.040 A 
ATOM     62  F   UNL A   1      41.085  24.626  28.162  1.00  0.00    -0.206 F 
ATOM     63  C   UNL A   1      43.326  24.972  25.339  1.00  0.00     0.006 A 
ENDBRANCH  42  56
BRANCH  43  64
ATOM     64  C   UNL A   1      39.010  31.959  35.085  1.00  0.00     0.057 A 
ATOM     65  C   UNL A   1      39.261  33.334  35.128  1.00  0.00     0.134 A 
ATOM     66  C   UNL A   1      38.273  31.399  36.135  1.00  0.00     0.134 A 
ATOM     67  F   UNL A   1      39.987  33.919  34.165  1.00  0.00    -0.206 F 
ATOM     68  C   UNL A   1      38.793  34.126  36.177  1.00  0.00     0.040 A 
ATOM     69  C   UNL A   1      37.779  32.183  37.177  1.00  0.00     0.040 A 
ATOM     70  F   UNL A   1      38.005  30.086  36.150  1.00  0.00    -0.206 F 
ATOM     71  C   UNL A   1      38.040  33.552  37.201  1.00  0.00     0.006 A 
ENDBRANCH  43  64
BRANCH  55  72
ATOM     72  C   UNL A   1      44.348  27.578  34.348  1.00  0.00     0.057 A 
ATOM     73  C   UNL A   1      44.163  26.436  35.137  1.00  0.00     0.134 A 
ATOM     74  C   UNL A   1      45.566  28.257  34.459  1.00  0.00     0.134 A 
ATOM     75  F   UNL A   1      43.010  25.751  35.083  1.00  0.00    -0.206 F 
ATOM     76  C   UNL A   1      45.149  25.995  36.020  1.00  0.00     0.040 A 
ATOM     77  C   UNL A   1      46.566  27.817  35.327  1.00  0.00     0.040 A 
ATOM     78  F   UNL A   1      45.803  29.355  33.726  1.00  0.00    -0.206 F 
ATOM     79  C   UNL A   1      46.357  26.685  36.114  1.00  0.00     0.006 A 
ENDBRANCH  55  72
ENDBRANCH  29  30
ENDBRANCH  22  24
ENDBRANCH  21  22
ENDBRANCH  20  21
ENDBRANCH   1  20
TORSDOF 14
ENDMDL
