MODEL 1
REMARK VINA RESULT:     -13.1      0.000      0.000
REMARK SMILES Cc1ccccc1C(=O)Nc1ccc(N2CCCCC2)cc1C(=O)OCCOC(=O)c1ccc(-c2c3nc(c(-c4c(F)cccc4F)c4ccc([nH]4)c(-c4c(F)cccc4F)c4nc(c(-c5c(F)cccc5F)c5ccc2[nH]5)C=C4)C=C3)cc1
REMARK SMILES IDX 26 1 25 2 23 3 24 4 22 5 11 6 12 7 13 8 21 9 14 10 10 11
REMARK SMILES IDX 8 12 9 13 7 15 1 16 2 17 3 18 4 19 6 20 5 21 15 22 16 23
REMARK SMILES IDX 20 24 17 25 19 26 18 27 27 28 28 29 29 30 30 31 31 32 32 33
REMARK SMILES IDX 84 34 33 35 83 36 34 37 35 38 36 39 77 40 37 41 82 42 76 43
REMARK SMILES IDX 78 44 38 45 81 46 75 47 74 48 39 50 65 51 48 52 64 53 49 54
REMARK SMILES IDX 52 55 63 56 79 57 50 58 51 59 62 61 80 62 53 63 40 64 41 65
REMARK SMILES IDX 46 66 42 67 43 68 45 69 47 70 44 71 66 72 67 73 72 74 68 75
REMARK SMILES IDX 69 76 71 77 73 78 70 79 54 80 55 81 60 82 56 83 57 84 59 85
REMARK SMILES IDX 61 86 58 87
REMARK H PARENT 10 14 78 49 52 60
REMARK Flexibility Score: inf
ROOT
ATOM      1  C   UNL A   1      33.036  30.880  27.226  1.00  0.00     0.275 C 
ENDROOT
BRANCH   1   2
ATOM      2  O   UNL A   1      33.252  29.803  26.261  1.00  0.00    -0.458 OA
BRANCH   2   3
ATOM      3  C   UNL A   1      32.655  28.604  26.437  1.00  0.00     0.340 C 
ATOM      4  O   UNL A   1      33.044  27.814  27.261  1.00  0.00    -0.246 OA
BRANCH   3   5
ATOM      5  C   UNL A   1      31.534  28.290  25.505  1.00  0.00     0.085 A 
ATOM      6  C   UNL A   1      30.908  27.017  25.448  1.00  0.00     0.056 A 
ATOM      7  C   UNL A   1      29.988  26.775  24.411  1.00  0.00     0.029 A 
ATOM      8  C   UNL A   1      29.551  27.794  23.578  1.00  0.00     0.028 A 
ATOM      9  C   UNL A   1      31.099  29.305  24.620  1.00  0.00     0.043 A 
ATOM     10  C   UNL A   1      30.063  29.080  23.707  1.00  0.00     0.038 A 
BRANCH   6  11
ATOM     11  N   UNL A   1      31.004  25.893  26.299  1.00  0.00    -0.321 N 
ATOM     12  C   UNL A   1      31.495  24.610  26.234  1.00  0.00     0.255 C 
ATOM     13  O   UNL A   1      31.365  23.924  27.255  1.00  0.00    -0.269 OA
ATOM     14  H   UNL A   1      30.614  26.082  27.183  1.00  0.00     0.170 HD
BRANCH  12  15
ATOM     15  C   UNL A   1      32.186  24.000  25.073  1.00  0.00     0.043 A 
ATOM     16  C   UNL A   1      34.420  25.250  25.302  1.00  0.00     0.045 C 
ATOM     17  C   UNL A   1      33.448  24.372  24.573  1.00  0.00    -0.038 A 
ATOM     18  C   UNL A   1      33.811  23.917  23.290  1.00  0.00     0.004 A 
ATOM     19  C   UNL A   1      32.991  23.046  22.569  1.00  0.00     0.000 A 
ATOM     20  C   UNL A   1      31.405  23.055  24.374  1.00  0.00     0.014 A 
ATOM     21  C   UNL A   1      31.800  22.589  23.124  1.00  0.00     0.001 A 
ENDBRANCH  12  15
ENDBRANCH   6  11
BRANCH  10  22
ATOM     22  N   UNL A   1      29.442  30.089  23.001  1.00  0.00    -0.372 N 
ATOM     23  C   UNL A   1      29.155  31.316  23.739  1.00  0.00     0.116 C 
ATOM     24  C   UNL A   1      29.589  30.184  21.557  1.00  0.00     0.116 C 
ATOM     25  C   UNL A   1      27.879  31.947  23.188  1.00  0.00     0.021 C 
ATOM     26  C   UNL A   1      28.309  30.797  20.982  1.00  0.00     0.021 C 
ATOM     27  C   UNL A   1      27.952  32.116  21.672  1.00  0.00     0.004 C 
ENDBRANCH  10  22
ENDBRANCH   3   5
ENDBRANCH   2   3
ENDBRANCH   1   2
BRANCH   1  28
ATOM     28  C   UNL A   1      34.170  31.820  27.754  1.00  0.00     0.275 C 
BRANCH  28  29
ATOM     29  O   UNL A   1      34.008  33.102  28.457  1.00  0.00    -0.458 OA
BRANCH  29  30
ATOM     30  C   UNL A   1      34.404  33.415  29.722  1.00  0.00     0.338 C 
ATOM     31  O   UNL A   1      33.839  34.203  30.464  1.00  0.00    -0.246 OA
BRANCH  30  32
ATOM     32  C   UNL A   1      35.750  32.922  30.007  1.00  0.00     0.060 A 
ATOM     33  C   UNL A   1      36.893  33.521  29.448  1.00  0.00     0.016 A 
ATOM     34  C   UNL A   1      35.826  31.929  30.975  1.00  0.00     0.016 A 
ATOM     35  C   UNL A   1      38.142  33.172  29.940  1.00  0.00     0.010 A 
ATOM     36  C   UNL A   1      37.027  31.695  31.571  1.00  0.00     0.010 A 
ATOM     37  C   UNL A   1      38.181  32.238  30.980  1.00  0.00    -0.014 A 
BRANCH  37  38
ATOM     38  C   UNL A   1      39.252  31.268  31.086  1.00  0.00     0.031 A 
ATOM     39  C   UNL A   1      39.342  30.115  30.194  1.00  0.00     0.074 A 
ATOM     40  C   UNL A   1      40.284  31.851  31.739  1.00  0.00     0.049 A 
ATOM     41  N   UNL A   1      40.088  29.098  30.438  1.00  0.00    -0.248 NA
ATOM     42  C   UNL A   1      38.581  29.990  28.950  1.00  0.00     0.031 C 
ATOM     43  C   UNL A   1      41.717  31.682  31.616  1.00  0.00     0.029 A 
ATOM     44  N   UNL A   1      40.164  32.853  32.703  1.00  0.00    -0.354 N 
ATOM     45  C   UNL A   1      40.201  28.403  29.256  1.00  0.00     0.074 A 
ATOM     46  C   UNL A   1      39.131  28.891  28.416  1.00  0.00     0.031 C 
ATOM     47  C   UNL A   1      42.312  32.341  32.636  1.00  0.00     0.029 A 
ATOM     48  C   UNL A   1      41.267  32.837  33.532  1.00  0.00     0.049 A 
ATOM     49  H   UNL A   1      39.407  33.476  32.780  1.00  0.00     0.167 HD
ATOM     50  C   UNL A   1      41.331  27.675  29.027  1.00  0.00     0.037 A 
ATOM     51  C   UNL A   1      41.036  32.420  34.814  1.00  0.00     0.037 A 
ATOM     52  C   UNL A   1      42.297  27.911  30.102  1.00  0.00     0.049 A 
ATOM     53  C   UNL A   1      41.572  31.021  35.011  1.00  0.00     0.074 A 
ATOM     54  C   UNL A   1      43.349  28.810  30.187  1.00  0.00     0.029 A 
ATOM     55  N   UNL A   1      42.013  27.518  31.406  1.00  0.00    -0.354 N 
ATOM     56  N   UNL A   1      41.766  30.168  34.041  1.00  0.00    -0.248 NA
ATOM     57  C   UNL A   1      41.963  30.491  36.310  1.00  0.00     0.031 C 
ATOM     58  C   UNL A   1      43.652  29.007  31.558  1.00  0.00     0.029 A 
ATOM     59  C   UNL A   1      42.789  28.229  32.309  1.00  0.00     0.049 A 
ATOM     60  H   UNL A   1      41.352  26.832  31.654  1.00  0.00     0.167 HD
ATOM     61  C   UNL A   1      42.331  29.031  34.536  1.00  0.00     0.074 A 
ATOM     62  C   UNL A   1      42.430  29.277  35.964  1.00  0.00     0.031 C 
ATOM     63  C   UNL A   1      42.680  27.979  33.739  1.00  0.00     0.037 A 
BRANCH  50  64
ATOM     64  C   UNL A   1      41.695  27.082  27.685  1.00  0.00     0.057 A 
ATOM     65  C   UNL A   1      41.620  25.694  27.453  1.00  0.00     0.134 A 
ATOM     66  C   UNL A   1      42.116  27.836  26.575  1.00  0.00     0.134 A 
ATOM     67  F   UNL A   1      41.159  24.846  28.381  1.00  0.00    -0.206 F 
ATOM     68  C   UNL A   1      42.014  25.096  26.250  1.00  0.00     0.040 A 
ATOM     69  C   UNL A   1      42.545  27.247  25.373  1.00  0.00     0.040 A 
ATOM     70  F   UNL A   1      42.096  29.177  26.594  1.00  0.00    -0.206 F 
ATOM     71  C   UNL A   1      42.502  25.869  25.211  1.00  0.00     0.006 A 
ENDBRANCH  50  64
BRANCH  51  72
ATOM     72  C   UNL A   1      39.744  32.934  35.396  1.00  0.00     0.057 A 
ATOM     73  C   UNL A   1      38.600  32.107  35.367  1.00  0.00     0.134 A 
ATOM     74  C   UNL A   1      39.660  34.065  36.217  1.00  0.00     0.134 A 
ATOM     75  F   UNL A   1      38.596  30.992  34.616  1.00  0.00    -0.206 F 
ATOM     76  C   UNL A   1      37.474  32.343  36.166  1.00  0.00     0.040 A 
ATOM     77  C   UNL A   1      38.529  34.324  37.011  1.00  0.00     0.040 A 
ATOM     78  F   UNL A   1      40.699  34.906  36.332  1.00  0.00    -0.206 F 
ATOM     79  C   UNL A   1      37.442  33.450  37.006  1.00  0.00     0.006 A 
ENDBRANCH  51  72
BRANCH  63  80
ATOM     80  C   UNL A   1      43.044  26.617  34.248  1.00  0.00     0.057 A 
ATOM     81  C   UNL A   1      44.361  26.144  34.307  1.00  0.00     0.134 A 
ATOM     82  C   UNL A   1      42.072  25.800  34.865  1.00  0.00     0.134 A 
ATOM     83  F   UNL A   1      45.391  26.878  33.865  1.00  0.00    -0.206 F 
ATOM     84  C   UNL A   1      44.683  24.914  34.883  1.00  0.00     0.040 A 
ATOM     85  C   UNL A   1      42.392  24.603  35.502  1.00  0.00     0.040 A 
ATOM     86  F   UNL A   1      40.777  26.146  34.904  1.00  0.00    -0.206 F 
ATOM     87  C   UNL A   1      43.700  24.145  35.496  1.00  0.00     0.006 A 
ENDBRANCH  63  80
ENDBRANCH  37  38
ENDBRANCH  30  32
ENDBRANCH  29  30
ENDBRANCH  28  29
ENDBRANCH   1  28
TORSDOF 14
ENDMDL
MODEL 2
REMARK VINA RESULT:     -13.1      3.828      9.063
REMARK SMILES Cc1ccccc1C(=O)Nc1ccc(N2CCCCC2)cc1C(=O)OCCOC(=O)c1ccc(-c2c3nc(c(-c4c(F)cccc4F)c4ccc([nH]4)c(-c4c(F)cccc4F)c4nc(c(-c5c(F)cccc5F)c5ccc2[nH]5)C=C4)C=C3)cc1
REMARK SMILES IDX 26 1 25 2 23 3 24 4 22 5 11 6 12 7 13 8 21 9 14 10 10 11
REMARK SMILES IDX 8 12 9 13 7 15 1 16 2 17 3 18 4 19 6 20 5 21 15 22 16 23
REMARK SMILES IDX 20 24 17 25 19 26 18 27 27 28 28 29 29 30 30 31 31 32 32 33
REMARK SMILES IDX 84 34 33 35 83 36 34 37 35 38 36 39 77 40 37 41 82 42 76 43
REMARK SMILES IDX 78 44 38 45 81 46 75 47 74 48 39 50 65 51 48 52 64 53 49 54
REMARK SMILES IDX 52 55 63 56 79 57 50 58 51 59 62 61 80 62 53 63 40 64 41 65
REMARK SMILES IDX 46 66 42 67 43 68 45 69 47 70 44 71 66 72 67 73 72 74 68 75
REMARK SMILES IDX 69 76 71 77 73 78 70 79 54 80 55 81 60 82 56 83 57 84 59 85
REMARK SMILES IDX 61 86 58 87
REMARK H PARENT 10 14 78 49 52 60
REMARK Flexibility Score: inf
ROOT
ATOM      1  C   UNL A   1      37.389  23.729  25.427  1.00  0.00     0.275 C 
ENDROOT
BRANCH   1   2
ATOM      2  O   UNL A   1      36.059  23.674  24.823  1.00  0.00    -0.458 OA
BRANCH   2   3
ATOM      3  C   UNL A   1      35.052  23.032  25.456  1.00  0.00     0.340 C 
ATOM      4  O   UNL A   1      34.931  23.065  26.656  1.00  0.00    -0.246 OA
BRANCH   3   5
ATOM      5  C   UNL A   1      34.147  22.224  24.590  1.00  0.00     0.085 A 
ATOM      6  C   UNL A   1      33.444  22.769  23.483  1.00  0.00     0.056 A 
ATOM      7  C   UNL A   1      32.480  21.965  22.847  1.00  0.00     0.029 A 
ATOM      8  C   UNL A   1      32.342  20.621  23.154  1.00  0.00     0.028 A 
ATOM      9  C   UNL A   1      33.963  20.858  24.909  1.00  0.00     0.043 A 
ATOM     10  C   UNL A   1      33.117  20.040  24.152  1.00  0.00     0.038 A 
BRANCH   6  11
ATOM     11  N   UNL A   1      33.557  24.019  22.833  1.00  0.00    -0.321 N 
ATOM     12  C   UNL A   1      33.311  25.341  23.125  1.00  0.00     0.255 C 
ATOM     13  O   UNL A   1      33.557  26.153  22.226  1.00  0.00    -0.269 OA
ATOM     14  H   UNL A   1      33.909  23.915  21.920  1.00  0.00     0.170 HD
BRANCH  12  15
ATOM     15  C   UNL A   1      32.816  25.868  24.419  1.00  0.00     0.043 A 
ATOM     16  C   UNL A   1      30.363  25.141  24.177  1.00  0.00     0.045 C 
ATOM     17  C   UNL A   1      31.474  25.895  24.843  1.00  0.00    -0.038 A 
ATOM     18  C   UNL A   1      31.145  26.709  25.945  1.00  0.00     0.004 A 
ATOM     19  C   UNL A   1      32.129  27.397  26.660  1.00  0.00     0.000 A 
ATOM     20  C   UNL A   1      33.811  26.498  25.198  1.00  0.00     0.014 A 
ATOM     21  C   UNL A   1      33.467  27.267  26.306  1.00  0.00     0.001 A 
ENDBRANCH  12  15
ENDBRANCH   6  11
BRANCH  10  22
ATOM     22  N   UNL A   1      33.089  18.666  24.265  1.00  0.00    -0.372 N 
ATOM     23  C   UNL A   1      32.492  18.128  25.485  1.00  0.00     0.116 C 
ATOM     24  C   UNL A   1      33.087  17.824  23.080  1.00  0.00     0.116 C 
ATOM     25  C   UNL A   1      33.189  16.821  25.850  1.00  0.00     0.021 C 
ATOM     26  C   UNL A   1      33.800  16.512  23.420  1.00  0.00     0.021 C 
ATOM     27  C   UNL A   1      33.210  15.852  24.669  1.00  0.00     0.004 C 
ENDBRANCH  10  22
ENDBRANCH   3   5
ENDBRANCH   2   3
ENDBRANCH   1   2
BRANCH   1  28
ATOM     28  C   UNL A   1      38.233  22.464  25.797  1.00  0.00     0.275 C 
BRANCH  28  29
ATOM     29  O   UNL A   1      39.346  22.386  26.756  1.00  0.00    -0.458 OA
BRANCH  29  30
ATOM     30  C   UNL A   1      40.572  22.969  26.659  1.00  0.00     0.338 C 
ATOM     31  O   UNL A   1      41.630  22.371  26.536  1.00  0.00    -0.246 OA
BRANCH  30  32
ATOM     32  C   UNL A   1      40.528  24.388  27.005  1.00  0.00     0.060 A 
ATOM     33  C   UNL A   1      41.007  25.380  26.131  1.00  0.00     0.016 A 
ATOM     34  C   UNL A   1      39.851  24.692  28.178  1.00  0.00     0.016 A 
ATOM     35  C   UNL A   1      40.718  26.709  26.402  1.00  0.00     0.010 A 
ATOM     36  C   UNL A   1      39.429  25.972  28.372  1.00  0.00     0.010 A 
ATOM     37  C   UNL A   1      39.954  26.978  27.542  1.00  0.00    -0.014 A 
BRANCH  37  38
ATOM     38  C   UNL A   1      40.181  28.163  28.344  1.00  0.00     0.031 A 
ATOM     39  C   UNL A   1      39.169  29.205  28.488  1.00  0.00     0.074 A 
ATOM     40  C   UNL A   1      41.174  27.891  29.223  1.00  0.00     0.049 A 
ATOM     41  N   UNL A   1      39.433  30.379  28.936  1.00  0.00    -0.248 NA
ATOM     42  C   UNL A   1      37.764  29.027  28.119  1.00  0.00     0.031 C 
ATOM     43  C   UNL A   1      41.414  28.353  30.575  1.00  0.00     0.029 A 
ATOM     44  N   UNL A   1      42.223  26.997  29.003  1.00  0.00    -0.354 N 
ATOM     45  C   UNL A   1      38.226  30.952  29.268  1.00  0.00     0.074 A 
ATOM     46  C   UNL A   1      37.222  30.156  28.599  1.00  0.00     0.031 C 
ATOM     47  C   UNL A   1      42.651  27.953  30.948  1.00  0.00     0.029 A 
ATOM     48  C   UNL A   1      43.303  27.341  29.790  1.00  0.00     0.049 A 
ATOM     49  H   UNL A   1      42.196  26.236  28.380  1.00  0.00     0.167 HD
ATOM     50  C   UNL A   1      38.191  31.879  30.268  1.00  0.00     0.037 A 
ATOM     51  C   UNL A   1      44.389  27.833  29.120  1.00  0.00     0.037 A 
ATOM     52  C   UNL A   1      39.509  31.975  30.899  1.00  0.00     0.049 A 
ATOM     53  C   UNL A   1      44.488  29.329  29.317  1.00  0.00     0.074 A 
ATOM     54  C   UNL A   1      40.020  31.340  32.020  1.00  0.00     0.029 A 
ATOM     55  N   UNL A   1      40.606  32.434  30.177  1.00  0.00    -0.354 N 
ATOM     56  N   UNL A   1      43.479  30.093  29.635  1.00  0.00    -0.248 NA
ATOM     57  C   UNL A   1      45.738  30.067  29.206  1.00  0.00     0.031 C 
ATOM     58  C   UNL A   1      41.435  31.362  31.934  1.00  0.00     0.029 A 
ATOM     59  C   UNL A   1      41.788  32.011  30.764  1.00  0.00     0.049 A 
ATOM     60  H   UNL A   1      40.551  32.984  29.361  1.00  0.00     0.167 HD
ATOM     61  C   UNL A   1      43.912  31.373  29.818  1.00  0.00     0.074 A 
ATOM     62  C   UNL A   1      45.335  31.309  29.531  1.00  0.00     0.031 C 
ATOM     63  C   UNL A   1      43.076  32.383  30.194  1.00  0.00     0.037 A 
BRANCH  50  64
ATOM     64  C   UNL A   1      36.917  32.388  30.902  1.00  0.00     0.057 A 
ATOM     65  C   UNL A   1      36.225  33.493  30.368  1.00  0.00     0.134 A 
ATOM     66  C   UNL A   1      36.315  31.817  32.037  1.00  0.00     0.134 A 
ATOM     67  F   UNL A   1      36.621  34.099  29.241  1.00  0.00    -0.206 F 
ATOM     68  C   UNL A   1      35.082  34.042  30.962  1.00  0.00     0.040 A 
ATOM     69  C   UNL A   1      35.187  32.376  32.663  1.00  0.00     0.040 A 
ATOM     70  F   UNL A   1      36.772  30.674  32.569  1.00  0.00    -0.206 F 
ATOM     71  C   UNL A   1      34.570  33.499  32.129  1.00  0.00     0.006 A 
ENDBRANCH  50  64
BRANCH  51  72
ATOM     72  C   UNL A   1      44.680  27.117  27.827  1.00  0.00     0.057 A 
ATOM     73  C   UNL A   1      44.285  27.711  26.608  1.00  0.00     0.134 A 
ATOM     74  C   UNL A   1      45.564  26.036  27.722  1.00  0.00     0.134 A 
ATOM     75  F   UNL A   1      43.449  28.763  26.614  1.00  0.00    -0.206 F 
ATOM     76  C   UNL A   1      44.799  27.309  25.368  1.00  0.00     0.040 A 
ATOM     77  C   UNL A   1      46.074  25.612  26.481  1.00  0.00     0.040 A 
ATOM     78  F   UNL A   1      46.018  25.413  28.819  1.00  0.00    -0.206 F 
ATOM     79  C   UNL A   1      45.711  26.263  25.304  1.00  0.00     0.006 A 
ENDBRANCH  51  72
BRANCH  63  80
ATOM     80  C   UNL A   1      43.430  33.839  30.144  1.00  0.00     0.057 A 
ATOM     81  C   UNL A   1      43.510  34.571  28.952  1.00  0.00     0.134 A 
ATOM     82  C   UNL A   1      43.530  34.593  31.333  1.00  0.00     0.134 A 
ATOM     83  F   UNL A   1      43.313  33.994  27.759  1.00  0.00    -0.206 F 
ATOM     84  C   UNL A   1      43.739  35.948  28.941  1.00  0.00     0.040 A 
ATOM     85  C   UNL A   1      43.689  35.977  31.333  1.00  0.00     0.040 A 
ATOM     86  F   UNL A   1      43.443  34.021  32.544  1.00  0.00    -0.206 F 
ATOM     87  C   UNL A   1      43.814  36.658  30.134  1.00  0.00     0.006 A 
ENDBRANCH  63  80
ENDBRANCH  37  38
ENDBRANCH  30  32
ENDBRANCH  29  30
ENDBRANCH  28  29
ENDBRANCH   1  28
TORSDOF 14
ENDMDL
MODEL 3
REMARK VINA RESULT:     -13.0      2.064      3.130
REMARK SMILES Cc1ccccc1C(=O)Nc1ccc(N2CCCCC2)cc1C(=O)OCCOC(=O)c1ccc(-c2c3nc(c(-c4c(F)cccc4F)c4ccc([nH]4)c(-c4c(F)cccc4F)c4nc(c(-c5c(F)cccc5F)c5ccc2[nH]5)C=C4)C=C3)cc1
REMARK SMILES IDX 26 1 25 2 23 3 24 4 22 5 11 6 12 7 13 8 21 9 14 10 10 11
REMARK SMILES IDX 8 12 9 13 7 15 1 16 2 17 3 18 4 19 6 20 5 21 15 22 16 23
REMARK SMILES IDX 20 24 17 25 19 26 18 27 27 28 28 29 29 30 30 31 31 32 32 33
REMARK SMILES IDX 84 34 33 35 83 36 34 37 35 38 36 39 77 40 37 41 82 42 76 43
REMARK SMILES IDX 78 44 38 45 81 46 75 47 74 48 39 50 65 51 48 52 64 53 49 54
REMARK SMILES IDX 52 55 63 56 79 57 50 58 51 59 62 61 80 62 53 63 40 64 41 65
REMARK SMILES IDX 46 66 42 67 43 68 45 69 47 70 44 71 66 72 67 73 72 74 68 75
REMARK SMILES IDX 69 76 71 77 73 78 70 79 54 80 55 81 60 82 56 83 57 84 59 85
REMARK SMILES IDX 61 86 58 87
REMARK H PARENT 10 14 78 49 52 60
REMARK Flexibility Score: inf
ROOT
ATOM      1  C   UNL A   1      34.118  28.890  26.839  1.00  0.00     0.275 C 
ENDROOT
BRANCH   1   2
ATOM      2  O   UNL A   1      33.317  27.957  26.049  1.00  0.00    -0.458 OA
BRANCH   2   3
ATOM      3  C   UNL A   1      32.069  27.626  26.447  1.00  0.00     0.340 C 
ATOM      4  O   UNL A   1      31.818  27.359  27.597  1.00  0.00    -0.246 OA
BRANCH   3   5
ATOM      5  C   UNL A   1      31.040  27.543  25.371  1.00  0.00     0.085 A 
ATOM      6  C   UNL A   1      30.358  26.342  25.044  1.00  0.00     0.056 A 
ATOM      7  C   UNL A   1      29.544  26.332  23.896  1.00  0.00     0.029 A 
ATOM      8  C   UNL A   1      29.253  27.498  23.205  1.00  0.00     0.028 A 
ATOM      9  C   UNL A   1      30.757  28.713  24.628  1.00  0.00     0.043 A 
ATOM     10  C   UNL A   1      29.815  28.709  23.594  1.00  0.00     0.038 A 
BRANCH   6  11
ATOM     11  N   UNL A   1      30.303  25.093  25.703  1.00  0.00    -0.321 N 
ATOM     12  C   UNL A   1      31.104  23.983  25.843  1.00  0.00     0.255 C 
ATOM     13  O   UNL A   1      30.649  23.067  26.539  1.00  0.00    -0.269 OA
ATOM     14  H   UNL A   1      29.460  24.990  26.200  1.00  0.00     0.170 HD
BRANCH  12  15
ATOM     15  C   UNL A   1      32.458  23.809  25.266  1.00  0.00     0.043 A 
ATOM     16  C   UNL A   1      31.769  22.565  23.125  1.00  0.00     0.045 C 
ATOM     17  C   UNL A   1      32.778  23.066  24.114  1.00  0.00    -0.038 A 
ATOM     18  C   UNL A   1      34.131  22.743  23.890  1.00  0.00     0.004 A 
ATOM     19  C   UNL A   1      35.141  23.221  24.729  1.00  0.00     0.000 A 
ATOM     20  C   UNL A   1      33.491  24.356  26.057  1.00  0.00     0.014 A 
ATOM     21  C   UNL A   1      34.825  24.055  25.796  1.00  0.00     0.001 A 
ENDBRANCH  12  15
ENDBRANCH   6  11
BRANCH  10  22
ATOM     22  N   UNL A   1      29.327  29.858  23.007  1.00  0.00    -0.372 N 
ATOM     23  C   UNL A   1      29.194  31.024  23.876  1.00  0.00     0.116 C 
ATOM     24  C   UNL A   1      29.489  30.088  21.581  1.00  0.00     0.116 C 
ATOM     25  C   UNL A   1      28.009  31.865  23.410  1.00  0.00     0.021 C 
ATOM     26  C   UNL A   1      28.298  30.916  21.088  1.00  0.00     0.021 C 
ATOM     27  C   UNL A   1      28.107  32.186  21.920  1.00  0.00     0.004 C 
ENDBRANCH  10  22
ENDBRANCH   3   5
ENDBRANCH   2   3
ENDBRANCH   1   2
BRANCH   1  28
ATOM     28  C   UNL A   1      33.632  30.317  27.261  1.00  0.00     0.275 C 
BRANCH  28  29
ATOM     29  O   UNL A   1      34.245  31.206  28.260  1.00  0.00    -0.458 OA
BRANCH  29  30
ATOM     30  C   UNL A   1      35.489  31.761  28.231  1.00  0.00     0.338 C 
ATOM     31  O   UNL A   1      35.764  32.848  27.746  1.00  0.00    -0.246 OA
BRANCH  30  32
ATOM     32  C   UNL A   1      36.524  30.794  28.587  1.00  0.00     0.060 A 
ATOM     33  C   UNL A   1      36.502  30.099  29.809  1.00  0.00     0.016 A 
ATOM     34  C   UNL A   1      37.436  30.504  27.581  1.00  0.00     0.016 A 
ATOM     35  C   UNL A   1      37.363  29.027  29.987  1.00  0.00     0.010 A 
ATOM     36  C   UNL A   1      38.173  29.364  27.682  1.00  0.00     0.010 A 
ATOM     37  C   UNL A   1      38.206  28.701  28.920  1.00  0.00    -0.014 A 
BRANCH  37  38
ATOM     38  C   UNL A   1      39.549  28.206  29.141  1.00  0.00     0.031 A 
ATOM     39  C   UNL A   1      39.985  26.902  28.647  1.00  0.00     0.074 A 
ATOM     40  C   UNL A   1      40.351  29.266  29.400  1.00  0.00     0.049 A 
ATOM     41  N   UNL A   1      41.047  26.314  29.066  1.00  0.00    -0.248 NA
ATOM     42  C   UNL A   1      39.248  26.125  27.649  1.00  0.00     0.031 C 
ATOM     43  C   UNL A   1      41.745  29.513  29.098  1.00  0.00     0.029 A 
ATOM     44  N   UNL A   1      39.944  30.452  30.013  1.00  0.00    -0.354 N 
ATOM     45  C   UNL A   1      41.330  25.322  28.156  1.00  0.00     0.074 A 
ATOM     46  C   UNL A   1      40.115  25.134  27.397  1.00  0.00     0.031 C 
ATOM     47  C   UNL A   1      42.130  30.633  29.750  1.00  0.00     0.029 A 
ATOM     48  C   UNL A   1      41.027  31.064  30.610  1.00  0.00     0.049 A 
ATOM     49  H   UNL A   1      39.023  30.799  30.018  1.00  0.00     0.167 HD
ATOM     50  C   UNL A   1      42.628  24.943  27.978  1.00  0.00     0.037 A 
ATOM     51  C   UNL A   1      41.022  31.069  31.978  1.00  0.00     0.037 A 
ATOM     52  C   UNL A   1      43.509  25.822  28.750  1.00  0.00     0.049 A 
ATOM     53  C   UNL A   1      42.018  30.061  32.505  1.00  0.00     0.074 A 
ATOM     54  C   UNL A   1      44.189  26.971  28.376  1.00  0.00     0.029 A 
ATOM     55  N   UNL A   1      43.447  25.840  30.140  1.00  0.00    -0.354 N 
ATOM     56  N   UNL A   1      42.442  29.029  31.828  1.00  0.00    -0.248 NA
ATOM     57  C   UNL A   1      42.635  30.163  33.820  1.00  0.00     0.031 C 
ATOM     58  C   UNL A   1      44.478  27.715  29.548  1.00  0.00     0.029 A 
ATOM     59  C   UNL A   1      43.978  27.021  30.636  1.00  0.00     0.049 A 
ATOM     60  H   UNL A   1      43.078  25.115  30.695  1.00  0.00     0.167 HD
ATOM     61  C   UNL A   1      43.390  28.365  32.549  1.00  0.00     0.074 A 
ATOM     62  C   UNL A   1      43.473  29.110  33.794  1.00  0.00     0.031 C 
ATOM     63  C   UNL A   1      44.037  27.263  32.071  1.00  0.00     0.037 A 
BRANCH  50  64
ATOM     64  C   UNL A   1      43.102  24.064  26.844  1.00  0.00     0.057 A 
ATOM     65  C   UNL A   1      43.060  22.659  26.941  1.00  0.00     0.134 A 
ATOM     66  C   UNL A   1      43.601  24.549  25.622  1.00  0.00     0.134 A 
ATOM     67  F   UNL A   1      42.536  22.038  28.006  1.00  0.00    -0.206 F 
ATOM     68  C   UNL A   1      43.553  21.807  25.945  1.00  0.00     0.040 A 
ATOM     69  C   UNL A   1      44.129  23.707  24.628  1.00  0.00     0.040 A 
ATOM     70  F   UNL A   1      43.566  25.856  25.323  1.00  0.00    -0.206 F 
ATOM     71  C   UNL A   1      44.114  22.329  24.791  1.00  0.00     0.006 A 
ENDBRANCH  50  64
BRANCH  51  72
ATOM     72  C   UNL A   1      39.665  31.331  32.579  1.00  0.00     0.057 A 
ATOM     73  C   UNL A   1      39.084  32.609  32.430  1.00  0.00     0.134 A 
ATOM     74  C   UNL A   1      38.811  30.320  33.035  1.00  0.00     0.134 A 
ATOM     75  F   UNL A   1      39.826  33.637  31.984  1.00  0.00    -0.206 F 
ATOM     76  C   UNL A   1      37.719  32.850  32.642  1.00  0.00     0.040 A 
ATOM     77  C   UNL A   1      37.444  30.552  33.268  1.00  0.00     0.040 A 
ATOM     78  F   UNL A   1      39.257  29.065  33.191  1.00  0.00    -0.206 F 
ATOM     79  C   UNL A   1      36.890  31.813  33.049  1.00  0.00     0.006 A 
ENDBRANCH  51  72
BRANCH  63  80
ATOM     80  C   UNL A   1      44.875  26.344  32.907  1.00  0.00     0.057 A 
ATOM     81  C   UNL A   1      44.338  25.462  33.855  1.00  0.00     0.134 A 
ATOM     82  C   UNL A   1      46.255  26.198  32.648  1.00  0.00     0.134 A 
ATOM     83  F   UNL A   1      43.023  25.417  34.106  1.00  0.00    -0.206 F 
ATOM     84  C   UNL A   1      45.131  24.543  34.544  1.00  0.00     0.040 A 
ATOM     85  C   UNL A   1      47.040  25.237  33.281  1.00  0.00     0.040 A 
ATOM     86  F   UNL A   1      46.890  26.960  31.744  1.00  0.00    -0.206 F 
ATOM     87  C   UNL A   1      46.483  24.417  34.248  1.00  0.00     0.006 A 
ENDBRANCH  63  80
ENDBRANCH  37  38
ENDBRANCH  30  32
ENDBRANCH  29  30
ENDBRANCH  28  29
ENDBRANCH   1  28
TORSDOF 14
ENDMDL
