MODEL 1
REMARK VINA RESULT:     -12.4      0.000      0.000
REMARK SMILES Cc1ccc(S(=O)(=O)N(c2ccccc2)[C@H](C)C(=O)OCCOC(=O)c2ccc(-c3c4nc(c(-c5c(F)cccc5F)c5ccc([nH]5)c(-c5c(F)cccc5F)c5nc(c(-c6c(F)cccc6F)c6ccc3[nH]6)C=C5)C=C4)cc2)cc1
REMARK SMILES IDX 21 1 20 2 18 3 19 4 16 5 17 6 9 7 6 8 7 9 8 10 5 11 1 12
REMARK SMILES IDX 2 13 3 14 81 15 4 16 80 17 10 18 11 19 15 20 12 21 14 22
REMARK SMILES IDX 13 23 22 24 23 25 24 26 25 27 26 28 27 29 79 30 28 31 78 32
REMARK SMILES IDX 29 33 30 34 31 35 72 36 32 37 77 38 71 39 73 40 33 41 76 42
REMARK SMILES IDX 70 43 69 44 34 46 60 47 43 48 59 49 44 50 47 51 58 52 74 53
REMARK SMILES IDX 45 54 46 55 57 57 75 58 48 59 35 60 36 61 41 62 37 63 38 64
REMARK SMILES IDX 40 65 42 66 39 67 61 68 62 69 67 70 63 71 64 72 66 73 68 74
REMARK SMILES IDX 65 75 49 76 50 77 55 78 51 79 52 80 54 81 56 82 53 83
REMARK H PARENT 73 45 47 56
REMARK Flexibility Score: inf
ROOT
ATOM      1  C   UNL A   1      32.551  29.627  25.617  1.00  0.00     0.274 C 
ENDROOT
BRANCH   1   2
ATOM      2  O   UNL A   1      33.091  29.427  24.299  1.00  0.00    -0.461 OA
BRANCH   2   3
ATOM      3  C   UNL A   1      33.499  28.172  24.021  1.00  0.00     0.329 C 
ATOM      4  O   UNL A   1      34.353  27.950  23.166  1.00  0.00    -0.250 OA
BRANCH   3   5
ATOM      5  C   UNL A   1      32.909  26.976  25.048  1.00  0.00     0.206 C 
ATOM      6  C   UNL A   1      31.022  26.627  26.164  1.00  0.00     0.045 C 
BRANCH   5   7
ATOM      7  N   UNL A   1      32.732  25.836  24.644  1.00  0.00    -0.252 N 
BRANCH   7   8
ATOM      8  S   UNL A   1      31.355  25.950  22.847  1.00  0.00     0.265 S 
ATOM      9  O   UNL A   1      30.406  24.851  22.979  1.00  0.00    -0.201 OA
ATOM     10  O   UNL A   1      32.155  26.042  21.653  1.00  0.00    -0.201 OA
BRANCH   8  11
ATOM     11  C   UNL A   1      30.116  27.637  22.854  1.00  0.00     0.088 A 
ATOM     12  C   UNL A   1      27.545  31.209  23.092  1.00  0.00     0.044 C 
ATOM     13  C   UNL A   1      28.425  30.006  22.886  1.00  0.00    -0.051 A 
ATOM     14  C   UNL A   1      29.699  30.002  22.281  1.00  0.00     0.005 A 
ATOM     15  C   UNL A   1      27.962  28.800  23.357  1.00  0.00     0.005 A 
ATOM     16  C   UNL A   1      30.545  28.830  22.253  1.00  0.00     0.022 A 
ATOM     17  C   UNL A   1      28.794  27.677  23.347  1.00  0.00     0.022 A 
ENDBRANCH   8  11
ENDBRANCH   7   8
BRANCH   7  18
ATOM     18  C   UNL A   1      34.389  24.503  24.723  1.00  0.00     0.053 A 
ATOM     19  C   UNL A   1      34.989  23.719  23.584  1.00  0.00     0.027 A 
ATOM     20  C   UNL A   1      35.377  24.301  25.862  1.00  0.00     0.027 A 
ATOM     21  C   UNL A   1      36.268  23.109  23.546  1.00  0.00     0.002 A 
ATOM     22  C   UNL A   1      36.652  23.694  25.807  1.00  0.00     0.002 A 
ATOM     23  C   UNL A   1      37.113  23.142  24.636  1.00  0.00     0.000 A 
ENDBRANCH   7  18
ENDBRANCH   5   7
ENDBRANCH   3   5
ENDBRANCH   2   3
ENDBRANCH   1   2
BRANCH   1  24
ATOM     24  C   UNL A   1      33.453  30.038  26.853  1.00  0.00     0.275 C 
BRANCH  24  25
ATOM     25  O   UNL A   1      33.704  31.432  27.317  1.00  0.00    -0.458 OA
BRANCH  25  26
ATOM     26  C   UNL A   1      34.692  32.154  27.949  1.00  0.00     0.338 C 
ATOM     27  O   UNL A   1      34.993  33.294  27.634  1.00  0.00    -0.246 OA
BRANCH  26  28
ATOM     28  C   UNL A   1      35.490  31.450  28.968  1.00  0.00     0.060 A 
ATOM     29  C   UNL A   1      35.720  31.480  30.954  1.00  0.00     0.016 A 
ATOM     30  C   UNL A   1      36.920  30.356  28.225  1.00  0.00     0.016 A 
ATOM     31  C   UNL A   1      37.256  30.631  31.852  1.00  0.00     0.010 A 
ATOM     32  C   UNL A   1      38.528  29.729  29.029  1.00  0.00     0.010 A 
ATOM     33  C   UNL A   1      38.914  29.838  30.941  1.00  0.00    -0.014 A 
BRANCH  33  34
ATOM     34  C   UNL A   1      40.433  29.906  30.719  1.00  0.00     0.031 A 
ATOM     35  C   UNL A   1      40.974  31.077  31.345  1.00  0.00     0.074 A 
ATOM     36  C   UNL A   1      41.323  28.875  30.521  1.00  0.00     0.049 A 
ATOM     37  N   UNL A   1      41.447  32.090  30.709  1.00  0.00    -0.248 NA
ATOM     38  C   UNL A   1      40.709  31.229  32.771  1.00  0.00     0.031 C 
ATOM     39  C   UNL A   1      42.664  28.823  31.121  1.00  0.00     0.029 A 
ATOM     40  N   UNL A   1      41.251  27.606  29.947  1.00  0.00    -0.354 N 
ATOM     41  C   UNL A   1      41.706  32.967  31.724  1.00  0.00     0.074 A 
ATOM     42  C   UNL A   1      40.848  32.546  32.832  1.00  0.00     0.031 C 
ATOM     43  C   UNL A   1      43.317  27.721  30.717  1.00  0.00     0.029 A 
ATOM     44  C   UNL A   1      42.515  27.050  29.714  1.00  0.00     0.049 A 
ATOM     45  H   UNL A   1      40.406  27.150  29.732  1.00  0.00     0.167 HD
ATOM     46  C   UNL A   1      42.981  33.362  31.990  1.00  0.00     0.037 A 
ATOM     47  C   UNL A   1      43.002  26.735  28.471  1.00  0.00     0.037 A 
ATOM     48  C   UNL A   1      43.976  32.447  31.420  1.00  0.00     0.049 A 
ATOM     49  C   UNL A   1      43.854  27.854  27.897  1.00  0.00     0.074 A 
ATOM     50  C   UNL A   1      44.823  31.489  31.961  1.00  0.00     0.029 A 
ATOM     51  N   UNL A   1      43.974  32.179  30.058  1.00  0.00    -0.354 N 
ATOM     52  N   UNL A   1      44.334  28.836  28.610  1.00  0.00    -0.248 NA
ATOM     53  C   UNL A   1      44.167  28.010  26.477  1.00  0.00     0.031 C 
ATOM     54  C   UNL A   1      45.421  30.753  30.893  1.00  0.00     0.029 A 
ATOM     55  C   UNL A   1      44.953  31.271  29.701  1.00  0.00     0.049 A 
ATOM     56  H   UNL A   1      43.347  32.590  29.420  1.00  0.00     0.167 HD
ATOM     57  C   UNL A   1      44.828  29.814  27.792  1.00  0.00     0.074 A 
ATOM     58  C   UNL A   1      44.730  29.233  26.462  1.00  0.00     0.031 C 
ATOM     59  C   UNL A   1      45.207  31.039  28.279  1.00  0.00     0.037 A 
BRANCH  46  60
ATOM     60  C   UNL A   1      43.157  34.304  33.147  1.00  0.00     0.057 A 
ATOM     61  C   UNL A   1      43.356  33.844  34.447  1.00  0.00     0.134 A 
ATOM     62  C   UNL A   1      43.138  35.716  32.999  1.00  0.00     0.134 A 
ATOM     63  F   UNL A   1      43.513  32.541  34.710  1.00  0.00    -0.206 F 
ATOM     64  C   UNL A   1      43.416  34.716  35.538  1.00  0.00     0.040 A 
ATOM     65  C   UNL A   1      43.120  36.591  34.083  1.00  0.00     0.040 A 
ATOM     66  F   UNL A   1      43.107  36.298  31.787  1.00  0.00    -0.206 F 
ATOM     67  C   UNL A   1      43.258  36.087  35.365  1.00  0.00     0.006 A 
ENDBRANCH  46  60
BRANCH  47  68
ATOM     68  C   UNL A   1      42.154  25.786  27.714  1.00  0.00     0.057 A 
ATOM     69  C   UNL A   1      42.299  24.420  28.008  1.00  0.00     0.134 A 
ATOM     70  C   UNL A   1      40.964  26.187  27.112  1.00  0.00     0.134 A 
ATOM     71  F   UNL A   1      43.466  23.950  28.479  1.00  0.00    -0.206 F 
ATOM     72  C   UNL A   1      41.224  23.536  27.928  1.00  0.00     0.040 A 
ATOM     73  C   UNL A   1      39.867  25.328  27.066  1.00  0.00     0.040 A 
ATOM     74  F   UNL A   1      40.826  27.433  26.644  1.00  0.00    -0.206 F 
ATOM     75  C   UNL A   1      39.983  24.012  27.520  1.00  0.00     0.006 A 
ENDBRANCH  47  68
BRANCH  59  76
ATOM     76  C   UNL A   1      45.777  32.176  27.448  1.00  0.00     0.057 A 
ATOM     77  C   UNL A   1      45.046  32.872  26.479  1.00  0.00     0.134 A 
ATOM     78  C   UNL A   1      47.137  32.568  27.531  1.00  0.00     0.134 A 
ATOM     79  F   UNL A   1      43.827  32.466  26.097  1.00  0.00    -0.206 F 
ATOM     80  C   UNL A   1      45.562  33.983  25.795  1.00  0.00     0.040 A 
ATOM     81  C   UNL A   1      47.674  33.649  26.833  1.00  0.00     0.040 A 
ATOM     82  F   UNL A   1      48.043  31.918  28.270  1.00  0.00    -0.206 F 
ATOM     83  C   UNL A   1      46.874  34.390  25.989  1.00  0.00     0.006 A 
ENDBRANCH  59  76
ENDBRANCH  33  34
ENDBRANCH  26  28
ENDBRANCH  25  26
ENDBRANCH  24  25
ENDBRANCH   1  24
TORSDOF 15
ENDMDL
MODEL 2
REMARK VINA RESULT:     -12.4      4.072      7.969
REMARK SMILES Cc1ccc(S(=O)(=O)N(c2ccccc2)[C@H](C)C(=O)OCCOC(=O)c2ccc(-c3c4nc(c(-c5c(F)cccc5F)c5ccc([nH]5)c(-c5c(F)cccc5F)c5nc(c(-c6c(F)cccc6F)c6ccc3[nH]6)C=C5)C=C4)cc2)cc1
REMARK SMILES IDX 21 1 20 2 18 3 19 4 16 5 17 6 9 7 6 8 7 9 8 10 5 11 1 12
REMARK SMILES IDX 2 13 3 14 81 15 4 16 80 17 10 18 11 19 15 20 12 21 14 22
REMARK SMILES IDX 13 23 22 24 23 25 24 26 25 27 26 28 27 29 79 30 28 31 78 32
REMARK SMILES IDX 29 33 30 34 31 35 72 36 32 37 77 38 71 39 73 40 33 41 76 42
REMARK SMILES IDX 70 43 69 44 34 46 60 47 43 48 59 49 44 50 47 51 58 52 74 53
REMARK SMILES IDX 45 54 46 55 57 57 75 58 48 59 35 60 36 61 41 62 37 63 38 64
REMARK SMILES IDX 40 65 42 66 39 67 61 68 62 69 67 70 63 71 64 72 66 73 68 74
REMARK SMILES IDX 65 75 49 76 50 77 55 78 51 79 52 80 54 81 56 82 53 83
REMARK H PARENT 73 45 47 56
REMARK Flexibility Score: inf
ROOT
ATOM      1  C   UNL A   1      37.162  22.567  25.823  1.00  0.00     0.274 C 
ENDROOT
BRANCH   1   2
ATOM      2  O   UNL A   1      36.180  23.174  24.964  1.00  0.00    -0.461 OA
BRANCH   2   3
ATOM      3  C   UNL A   1      35.097  22.417  24.690  1.00  0.00     0.329 C 
ATOM      4  O   UNL A   1      34.775  22.153  23.535  1.00  0.00    -0.250 OA
BRANCH   3   5
ATOM      5  C   UNL A   1      34.353  21.713  26.025  1.00  0.00     0.206 C 
ATOM      6  C   UNL A   1      33.532  22.439  27.956  1.00  0.00     0.045 C 
BRANCH   5   7
ATOM      7  N   UNL A   1      33.268  21.160  25.917  1.00  0.00    -0.252 N 
BRANCH   7   8
ATOM      8  S   UNL A   1      31.777  22.709  25.199  1.00  0.00     0.265 S 
ATOM      9  O   UNL A   1      30.551  22.492  25.959  1.00  0.00    -0.201 OA
ATOM     10  O   UNL A   1      31.723  22.671  23.760  1.00  0.00    -0.201 OA
BRANCH   8  11
ATOM     11  C   UNL A   1      32.300  24.670  25.714  1.00  0.00     0.088 A 
ATOM     12  C   UNL A   1      33.422  28.729  27.015  1.00  0.00     0.044 C 
ATOM     13  C   UNL A   1      33.064  27.379  26.453  1.00  0.00    -0.051 A 
ATOM     14  C   UNL A   1      33.917  26.535  25.713  1.00  0.00     0.005 A 
ATOM     15  C   UNL A   1      31.799  26.907  26.708  1.00  0.00     0.005 A 
ATOM     16  C   UNL A   1      33.546  25.190  25.335  1.00  0.00     0.022 A 
ATOM     17  C   UNL A   1      31.455  25.597  26.359  1.00  0.00     0.022 A 
ENDBRANCH   8  11
ENDBRANCH   7   8
BRANCH   7  18
ATOM     18  C   UNL A   1      33.259  19.157  25.201  1.00  0.00     0.053 A 
ATOM     19  C   UNL A   1      34.139  18.562  24.132  1.00  0.00     0.027 A 
ATOM     20  C   UNL A   1      32.544  17.951  25.793  1.00  0.00     0.027 A 
ATOM     21  C   UNL A   1      34.378  17.186  23.888  1.00  0.00     0.002 A 
ATOM     22  C   UNL A   1      32.797  16.584  25.544  1.00  0.00     0.002 A 
ATOM     23  C   UNL A   1      33.748  16.206  24.626  1.00  0.00     0.000 A 
ENDBRANCH   7  18
ENDBRANCH   5   7
ENDBRANCH   3   5
ENDBRANCH   2   3
ENDBRANCH   1   2
BRANCH   1  24
ATOM     24  C   UNL A   1      38.211  21.502  25.296  1.00  0.00     0.275 C 
BRANCH  24  25
ATOM     25  O   UNL A   1      39.270  20.850  26.118  1.00  0.00    -0.458 OA
BRANCH  25  26
ATOM     26  C   UNL A   1      40.392  21.202  26.835  1.00  0.00     0.338 C 
ATOM     27  O   UNL A   1      40.832  20.536  27.757  1.00  0.00    -0.246 OA
BRANCH  26  28
ATOM     28  C   UNL A   1      40.997  22.511  26.534  1.00  0.00     0.060 A 
ATOM     29  C   UNL A   1      42.584  23.220  25.547  1.00  0.00     0.016 A 
ATOM     30  C   UNL A   1      40.238  23.980  27.564  1.00  0.00     0.016 A 
ATOM     31  C   UNL A   1      43.239  25.064  25.787  1.00  0.00     0.010 A 
ATOM     32  C   UNL A   1      40.973  25.683  27.996  1.00  0.00     0.010 A 
ATOM     33  C   UNL A   1      42.598  26.412  27.194  1.00  0.00    -0.014 A 
BRANCH  33  34
ATOM     34  C   UNL A   1      42.933  27.258  28.432  1.00  0.00     0.031 A 
ATOM     35  C   UNL A   1      44.272  26.987  28.869  1.00  0.00     0.074 A 
ATOM     36  C   UNL A   1      42.424  28.479  28.807  1.00  0.00     0.049 A 
ATOM     37  N   UNL A   1      44.573  26.372  29.958  1.00  0.00    -0.248 NA
ATOM     38  C   UNL A   1      45.326  27.179  27.880  1.00  0.00     0.031 C 
ATOM     39  C   UNL A   1      43.232  29.565  29.381  1.00  0.00     0.029 A 
ATOM     40  N   UNL A   1      41.203  29.134  28.635  1.00  0.00    -0.354 N 
ATOM     41  C   UNL A   1      45.929  26.256  29.853  1.00  0.00     0.074 A 
ATOM     42  C   UNL A   1      46.222  26.367  28.424  1.00  0.00     0.031 C 
ATOM     43  C   UNL A   1      42.455  30.619  29.684  1.00  0.00     0.029 A 
ATOM     44  C   UNL A   1      41.071  30.249  29.471  1.00  0.00     0.049 A 
ATOM     45  H   UNL A   1      40.512  28.844  27.997  1.00  0.00     0.167 HD
ATOM     46  C   UNL A   1      46.749  26.877  30.744  1.00  0.00     0.037 A 
ATOM     47  C   UNL A   1      40.116  30.373  30.449  1.00  0.00     0.037 A 
ATOM     48  C   UNL A   1      46.070  27.963  31.460  1.00  0.00     0.049 A 
ATOM     49  C   UNL A   1      40.640  29.945  31.808  1.00  0.00     0.074 A 
ATOM     50  C   UNL A   1      46.131  29.349  31.387  1.00  0.00     0.029 A 
ATOM     51  N   UNL A   1      44.911  27.704  32.178  1.00  0.00    -0.354 N 
ATOM     52  N   UNL A   1      41.909  29.797  32.080  1.00  0.00    -0.248 NA
ATOM     53  C   UNL A   1      39.794  29.571  32.941  1.00  0.00     0.031 C 
ATOM     54  C   UNL A   1      45.078  29.895  32.184  1.00  0.00     0.029 A 
ATOM     55  C   UNL A   1      44.385  28.845  32.756  1.00  0.00     0.049 A 
ATOM     56  H   UNL A   1      44.509  26.810  32.265  1.00  0.00     0.167 HD
ATOM     57  C   UNL A   1      42.061  29.160  33.281  1.00  0.00     0.074 A 
ATOM     58  C   UNL A   1      40.703  29.069  33.797  1.00  0.00     0.031 C 
ATOM     59  C   UNL A   1      43.282  28.704  33.706  1.00  0.00     0.037 A 
BRANCH  46  60
ATOM     60  C   UNL A   1      48.225  26.709  30.520  1.00  0.00     0.057 A 
ATOM     61  C   UNL A   1      48.934  27.527  29.643  1.00  0.00     0.134 A 
ATOM     62  C   UNL A   1      48.996  25.718  31.182  1.00  0.00     0.134 A 
ATOM     63  F   UNL A   1      48.356  28.575  29.044  1.00  0.00    -0.206 F 
ATOM     64  C   UNL A   1      50.283  27.306  29.354  1.00  0.00     0.040 A 
ATOM     65  C   UNL A   1      50.319  25.438  30.847  1.00  0.00     0.040 A 
ATOM     66  F   UNL A   1      48.476  24.959  32.165  1.00  0.00    -0.206 F 
ATOM     67  C   UNL A   1      50.969  26.238  29.924  1.00  0.00     0.006 A 
ENDBRANCH  46  60
BRANCH  47  68
ATOM     68  C   UNL A   1      38.726  30.249  29.953  1.00  0.00     0.057 A 
ATOM     69  C   UNL A   1      38.120  31.411  29.445  1.00  0.00     0.134 A 
ATOM     70  C   UNL A   1      38.198  29.026  29.550  1.00  0.00     0.134 A 
ATOM     71  F   UNL A   1      38.504  32.621  29.884  1.00  0.00    -0.206 F 
ATOM     72  C   UNL A   1      37.193  31.358  28.406  1.00  0.00     0.040 A 
ATOM     73  C   UNL A   1      37.304  28.954  28.482  1.00  0.00     0.040 A 
ATOM     74  F   UNL A   1      38.606  27.889  30.126  1.00  0.00    -0.206 F 
ATOM     75  C   UNL A   1      36.837  30.123  27.877  1.00  0.00     0.006 A 
ENDBRANCH  47  68
BRANCH  59  76
ATOM     76  C   UNL A   1      43.546  27.999  35.026  1.00  0.00     0.057 A 
ATOM     77  C   UNL A   1      43.119  26.698  35.310  1.00  0.00     0.134 A 
ATOM     78  C   UNL A   1      44.177  28.646  36.118  1.00  0.00     0.134 A 
ATOM     79  F   UNL A   1      42.293  26.036  34.487  1.00  0.00    -0.206 F 
ATOM     80  C   UNL A   1      43.459  26.032  36.498  1.00  0.00     0.040 A 
ATOM     81  C   UNL A   1      44.493  28.009  37.317  1.00  0.00     0.040 A 
ATOM     82  F   UNL A   1      44.508  29.942  36.110  1.00  0.00    -0.206 F 
ATOM     83  C   UNL A   1      44.170  26.681  37.497  1.00  0.00     0.006 A 
ENDBRANCH  59  76
ENDBRANCH  33  34
ENDBRANCH  26  28
ENDBRANCH  25  26
ENDBRANCH  24  25
ENDBRANCH   1  24
TORSDOF 15
ENDMDL
MODEL 3
REMARK VINA RESULT:     -12.3     10.386     14.773
REMARK SMILES Cc1ccc(S(=O)(=O)N(c2ccccc2)[C@H](C)C(=O)OCCOC(=O)c2ccc(-c3c4nc(c(-c5c(F)cccc5F)c5ccc([nH]5)c(-c5c(F)cccc5F)c5nc(c(-c6c(F)cccc6F)c6ccc3[nH]6)C=C5)C=C4)cc2)cc1
REMARK SMILES IDX 21 1 20 2 18 3 19 4 16 5 17 6 9 7 6 8 7 9 8 10 5 11 1 12
REMARK SMILES IDX 2 13 3 14 81 15 4 16 80 17 10 18 11 19 15 20 12 21 14 22
REMARK SMILES IDX 13 23 22 24 23 25 24 26 25 27 26 28 27 29 79 30 28 31 78 32
REMARK SMILES IDX 29 33 30 34 31 35 72 36 32 37 77 38 71 39 73 40 33 41 76 42
REMARK SMILES IDX 70 43 69 44 34 46 60 47 43 48 59 49 44 50 47 51 58 52 74 53
REMARK SMILES IDX 45 54 46 55 57 57 75 58 48 59 35 60 36 61 41 62 37 63 38 64
REMARK SMILES IDX 40 65 42 66 39 67 61 68 62 69 67 70 63 71 64 72 66 73 68 74
REMARK SMILES IDX 65 75 49 76 50 77 55 78 51 79 52 80 54 81 56 82 53 83
REMARK H PARENT 73 45 47 56
REMARK Flexibility Score: inf
ROOT
ATOM      1  C   UNL A   1      46.524  20.269  38.261  1.00  0.00     0.274 C 
ENDROOT
BRANCH   1   2
ATOM      2  O   UNL A   1      45.657  19.250  38.788  1.00  0.00    -0.461 OA
BRANCH   2   3
ATOM      3  C   UNL A   1      46.209  18.432  39.708  1.00  0.00     0.329 C 
ATOM      4  O   UNL A   1      47.186  17.736  39.444  1.00  0.00    -0.250 OA
BRANCH   3   5
ATOM      5  C   UNL A   1      45.595  18.582  41.268  1.00  0.00     0.206 C 
ATOM      6  C   UNL A   1      43.899  19.658  42.213  1.00  0.00     0.045 C 
BRANCH   5   7
ATOM      7  N   UNL A   1      45.142  17.612  41.858  1.00  0.00    -0.252 N 
BRANCH   7   8
ATOM      8  S   UNL A   1      43.801  16.494  40.413  1.00  0.00     0.265 S 
ATOM      9  O   UNL A   1      44.679  15.833  39.455  1.00  0.00    -0.201 OA
ATOM     10  O   UNL A   1      42.787  17.394  39.927  1.00  0.00    -0.201 OA
BRANCH   8  11
ATOM     11  C   UNL A   1      42.785  14.888  41.293  1.00  0.00     0.088 A 
ATOM     12  C   UNL A   1      40.807  11.370  43.065  1.00  0.00     0.044 C 
ATOM     13  C   UNL A   1      41.412  12.643  42.535  1.00  0.00    -0.051 A 
ATOM     14  C   UNL A   1      42.092  13.618  43.293  1.00  0.00     0.005 A 
ATOM     15  C   UNL A   1      41.320  12.866  41.182  1.00  0.00     0.005 A 
ATOM     16  C   UNL A   1      42.772  14.741  42.688  1.00  0.00     0.022 A 
ATOM     17  C   UNL A   1      42.000  13.942  40.602  1.00  0.00     0.022 A 
ENDBRANCH   8  11
ENDBRANCH   7   8
BRANCH   7  18
ATOM     18  C   UNL A   1      46.432  16.607  43.220  1.00  0.00     0.053 A 
ATOM     19  C   UNL A   1      47.491  17.219  44.101  1.00  0.00     0.027 A 
ATOM     20  C   UNL A   1      46.349  15.166  43.702  1.00  0.00     0.027 A 
ATOM     21  C   UNL A   1      48.108  16.630  45.233  1.00  0.00     0.002 A 
ATOM     22  C   UNL A   1      46.967  14.594  44.837  1.00  0.00     0.002 A 
ATOM     23  C   UNL A   1      47.807  15.343  45.626  1.00  0.00     0.000 A 
ENDBRANCH   7  18
ENDBRANCH   5   7
ENDBRANCH   3   5
ENDBRANCH   2   3
ENDBRANCH   1   2
BRANCH   1  24
ATOM     24  C   UNL A   1      46.037  21.331  37.191  1.00  0.00     0.275 C 
BRANCH  24  25
ATOM     25  O   UNL A   1      45.540  22.703  37.497  1.00  0.00    -0.458 OA
BRANCH  25  26
ATOM     26  C   UNL A   1      45.078  23.813  36.825  1.00  0.00     0.338 C 
ATOM     27  O   UNL A   1      44.148  24.496  37.222  1.00  0.00    -0.246 OA
BRANCH  26  28
ATOM     28  C   UNL A   1      45.671  24.095  35.506  1.00  0.00     0.060 A 
ATOM     29  C   UNL A   1      47.256  25.065  34.769  1.00  0.00     0.016 A 
ATOM     30  C   UNL A   1      44.504  23.649  34.012  1.00  0.00     0.016 A 
ATOM     31  C   UNL A   1      47.405  25.547  32.863  1.00  0.00     0.010 A 
ATOM     32  C   UNL A   1      44.504  24.296  32.221  1.00  0.00     0.010 A 
ATOM     33  C   UNL A   1      45.936  25.372  31.442  1.00  0.00    -0.014 A 
BRANCH  33  34
ATOM     34  C   UNL A   1      44.991  26.075  30.456  1.00  0.00     0.031 A 
ATOM     35  C   UNL A   1      44.896  27.471  30.770  1.00  0.00     0.074 A 
ATOM     36  C   UNL A   1      44.695  25.739  29.155  1.00  0.00     0.049 A 
ATOM     37  N   UNL A   1      43.845  28.041  31.244  1.00  0.00    -0.248 NA
ATOM     38  C   UNL A   1      46.152  28.211  30.812  1.00  0.00     0.031 C 
ATOM     39  C   UNL A   1      44.547  26.718  28.069  1.00  0.00     0.029 A 
ATOM     40  N   UNL A   1      44.632  24.547  28.434  1.00  0.00    -0.354 N 
ATOM     41  C   UNL A   1      44.294  29.308  31.486  1.00  0.00     0.074 A 
ATOM     42  C   UNL A   1      45.747  29.191  31.608  1.00  0.00     0.031 C 
ATOM     43  C   UNL A   1      44.219  26.100  26.921  1.00  0.00     0.029 A 
ATOM     44  C   UNL A   1      43.985  24.699  27.201  1.00  0.00     0.049 A 
ATOM     45  H   UNL A   1      45.003  23.693  28.755  1.00  0.00     0.167 HD
ATOM     46  C   UNL A   1      43.773  30.369  30.812  1.00  0.00     0.037 A 
ATOM     47  C   UNL A   1      42.818  24.064  26.859  1.00  0.00     0.037 A 
ATOM     48  C   UNL A   1      43.086  29.962  29.581  1.00  0.00     0.049 A 
ATOM     49  C   UNL A   1      41.602  24.932  27.127  1.00  0.00     0.074 A 
ATOM     50  C   UNL A   1      43.397  30.054  28.231  1.00  0.00     0.029 A 
ATOM     51  N   UNL A   1      42.047  29.043  29.636  1.00  0.00    -0.354 N 
ATOM     52  N   UNL A   1      41.664  26.219  27.338  1.00  0.00    -0.248 NA
ATOM     53  C   UNL A   1      40.237  24.425  27.261  1.00  0.00     0.031 C 
ATOM     54  C   UNL A   1      42.444  29.291  27.489  1.00  0.00     0.029 A 
ATOM     55  C   UNL A   1      41.542  28.747  28.384  1.00  0.00     0.049 A 
ATOM     56  H   UNL A   1      41.710  28.647  30.472  1.00  0.00     0.167 HD
ATOM     57  C   UNL A   1      40.463  26.678  27.805  1.00  0.00     0.074 A 
ATOM     58  C   UNL A   1      39.590  25.518  27.707  1.00  0.00     0.031 C 
ATOM     59  C   UNL A   1      40.318  27.951  28.294  1.00  0.00     0.037 A 
BRANCH  46  60
ATOM     60  C   UNL A   1      44.360  31.715  31.133  1.00  0.00     0.057 A 
ATOM     61  C   UNL A   1      45.442  32.233  30.425  1.00  0.00     0.134 A 
ATOM     62  C   UNL A   1      43.856  32.547  32.166  1.00  0.00     0.134 A 
ATOM     63  F   UNL A   1      45.939  31.606  29.352  1.00  0.00    -0.206 F 
ATOM     64  C   UNL A   1      46.055  33.435  30.789  1.00  0.00     0.040 A 
ATOM     65  C   UNL A   1      44.502  33.708  32.588  1.00  0.00     0.040 A 
ATOM     66  F   UNL A   1      42.724  32.244  32.828  1.00  0.00    -0.206 F 
ATOM     67  C   UNL A   1      45.613  34.156  31.894  1.00  0.00     0.006 A 
ENDBRANCH  46  60
BRANCH  47  68
ATOM     68  C   UNL A   1      42.891  22.587  26.937  1.00  0.00     0.057 A 
ATOM     69  C   UNL A   1      42.271  21.971  28.038  1.00  0.00     0.134 A 
ATOM     70  C   UNL A   1      43.110  21.803  25.808  1.00  0.00     0.134 A 
ATOM     71  F   UNL A   1      42.138  22.636  29.198  1.00  0.00    -0.206 F 
ATOM     72  C   UNL A   1      41.684  20.711  27.938  1.00  0.00     0.040 A 
ATOM     73  C   UNL A   1      42.492  20.560  25.675  1.00  0.00     0.040 A 
ATOM     74  F   UNL A   1      43.849  22.266  24.793  1.00  0.00    -0.206 F 
ATOM     75  C   UNL A   1      41.737  20.033  26.725  1.00  0.00     0.006 A 
ENDBRANCH  47  68
BRANCH  59  76
ATOM     76  C   UNL A   1      39.023  28.548  28.818  1.00  0.00     0.057 A 
ATOM     77  C   UNL A   1      38.177  29.359  28.055  1.00  0.00     0.134 A 
ATOM     78  C   UNL A   1      38.611  28.397  30.166  1.00  0.00     0.134 A 
ATOM     79  F   UNL A   1      38.540  29.807  26.845  1.00  0.00    -0.206 F 
ATOM     80  C   UNL A   1      36.938  29.817  28.528  1.00  0.00     0.040 A 
ATOM     81  C   UNL A   1      37.398  28.875  30.662  1.00  0.00     0.040 A 
ATOM     82  F   UNL A   1      39.361  27.803  31.100  1.00  0.00    -0.206 F 
ATOM     83  C   UNL A   1      36.534  29.554  29.829  1.00  0.00     0.006 A 
ENDBRANCH  59  76
ENDBRANCH  33  34
ENDBRANCH  26  28
ENDBRANCH  25  26
ENDBRANCH  24  25
ENDBRANCH   1  24
TORSDOF 15
ENDMDL
