MODEL 1
REMARK VINA RESULT:     -12.1      0.000      0.000
REMARK SMILES O=C(COc1ccc(Cl)c2ccccc12)N[C@@H](Cc1c[nH]c2ccccc12)C(=O)OCCOC(=O)c1ccc(-c2c3nc(c(-c4c(F)cccc4F)c4ccc([nH]4)c(-c4c(F)cccc4F)c4nc(c(-c5c(F)cccc5F)c5ccc2[nH]5)C=C4)C=C3)cc1
REMARK SMILES IDX 31 1 30 2 28 3 29 4 17 5 16 6 1 7 2 8 3 10 4 11 5 12 6 13
REMARK SMILES IDX 15 14 7 15 10 16 14 17 8 18 11 19 13 20 9 21 12 22 18 23
REMARK SMILES IDX 19 24 20 25 27 26 21 27 22 28 26 29 23 31 25 32 24 33 32 34
REMARK SMILES IDX 33 35 34 36 35 37 36 38 37 39 89 40 38 41 88 42 39 43 40 44
REMARK SMILES IDX 41 45 82 46 42 47 87 48 81 49 83 50 43 51 86 52 80 53 79 54
REMARK SMILES IDX 44 56 70 57 53 58 69 59 54 60 57 61 68 62 84 63 55 64 56 65
REMARK SMILES IDX 67 67 85 68 58 69 45 70 46 71 51 72 47 73 48 74 50 75 52 76
REMARK SMILES IDX 49 77 71 78 72 79 77 80 73 81 74 82 76 83 78 84 75 85 59 86
REMARK SMILES IDX 60 87 65 88 61 89 62 90 64 91 66 92 63 93
REMARK H PARENT 16 9 21 30 83 55 57 66
REMARK Flexibility Score: inf
ROOT
ATOM      1  C   UNL A   1      35.971  19.970  25.008  1.00  0.00     0.274 C 
ENDROOT
BRANCH   1   2
ATOM      2  O   UNL A   1      35.540  21.142  25.730  1.00  0.00    -0.461 OA
BRANCH   2   3
ATOM      3  C   UNL A   1      34.219  21.207  26.046  1.00  0.00     0.329 C 
ATOM      4  O   UNL A   1      33.679  20.539  26.921  1.00  0.00    -0.250 OA
BRANCH   3   5
ATOM      5  C   UNL A   1      33.441  22.189  25.155  1.00  0.00     0.196 C 
BRANCH   5   6
ATOM      6  N   UNL A   1      32.539  23.149  25.816  1.00  0.00    -0.339 N 
ATOM      7  O   UNL A   1      30.740  21.751  25.697  1.00  0.00    -0.271 OA
ATOM      8  C   UNL A   1      31.209  22.847  26.007  1.00  0.00     0.258 C 
ATOM      9  H   UNL A   1      32.891  24.016  26.123  1.00  0.00     0.164 HD
BRANCH   8  10
ATOM     10  C   UNL A   1      30.302  23.960  26.562  1.00  0.00     0.329 C 
BRANCH  10  11
ATOM     11  O   UNL A   1      30.829  25.259  26.753  1.00  0.00    -0.483 OA
BRANCH  11  12
ATOM     12  C   UNL A   1      30.697  26.149  25.710  1.00  0.00     0.128 A 
ATOM     13  C   UNL A   1      30.012  25.827  24.539  1.00  0.00     0.048 A 
ATOM     14  C   UNL A   1      31.188  27.465  25.910  1.00  0.00     0.025 A 
ATOM     15  C   UNL A   1      29.701  26.820  23.615  1.00  0.00     0.025 A 
ATOM     16  C   UNL A   1      30.876  28.483  24.967  1.00  0.00     0.004 A 
ATOM     17  C   UNL A   1      32.004  27.796  27.014  1.00  0.00     0.012 A 
ATOM     18  C   UNL A   1      30.095  28.138  23.841  1.00  0.00     0.049 A 
ATOM     19  C   UNL A   1      31.367  29.792  25.201  1.00  0.00     0.010 A 
ATOM     20  C   UNL A   1      32.509  29.084  27.195  1.00  0.00     0.001 A 
ATOM     21  Cl  UNL A   1      29.574  29.310  22.675  1.00  0.00    -0.084 Cl
ATOM     22  C   UNL A   1      32.181  30.085  26.294  1.00  0.00     0.001 A 
ENDBRANCH  11  12
ENDBRANCH  10  11
ENDBRANCH   8  10
ENDBRANCH   5   6
BRANCH   5  23
ATOM     23  C   UNL A   1      34.403  22.864  24.166  1.00  0.00     0.074 C 
BRANCH  23  24
ATOM     24  C   UNL A   1      33.789  23.695  23.075  1.00  0.00    -0.020 A 
ATOM     25  C   UNL A   1      33.200  23.284  21.894  1.00  0.00     0.087 A 
ATOM     26  C   UNL A   1      33.724  25.129  23.081  1.00  0.00     0.003 A 
ATOM     27  N   UNL A   1      32.752  24.389  21.222  1.00  0.00    -0.361 N 
ATOM     28  C   UNL A   1      33.069  25.530  21.917  1.00  0.00     0.046 A 
ATOM     29  C   UNL A   1      34.166  26.124  23.978  1.00  0.00     0.010 A 
ATOM     30  H   UNL A   1      32.272  24.369  20.362  1.00  0.00     0.166 HD
ATOM     31  C   UNL A   1      32.830  26.873  21.606  1.00  0.00     0.026 A 
ATOM     32  C   UNL A   1      33.944  27.472  23.679  1.00  0.00     0.001 A 
ATOM     33  C   UNL A   1      33.284  27.839  22.509  1.00  0.00     0.002 A 
ENDBRANCH  23  24
ENDBRANCH   5  23
ENDBRANCH   3   5
ENDBRANCH   2   3
ENDBRANCH   1   2
BRANCH   1  34
ATOM     34  C   UNL A   1      37.501  19.896  24.959  1.00  0.00     0.275 C 
BRANCH  34  35
ATOM     35  O   UNL A   1      38.104  21.091  25.496  1.00  0.00    -0.458 OA
BRANCH  35  36
ATOM     36  C   UNL A   1      39.290  20.867  26.107  1.00  0.00     0.338 C 
ATOM     37  O   UNL A   1      39.902  19.814  26.140  1.00  0.00    -0.246 OA
BRANCH  36  38
ATOM     38  C   UNL A   1      39.856  22.121  26.626  1.00  0.00     0.060 A 
ATOM     39  C   UNL A   1      39.385  23.321  26.087  1.00  0.00     0.016 A 
ATOM     40  C   UNL A   1      40.915  22.120  27.532  1.00  0.00     0.016 A 
ATOM     41  C   UNL A   1      39.966  24.531  26.448  1.00  0.00     0.010 A 
ATOM     42  C   UNL A   1      41.501  23.338  27.895  1.00  0.00     0.010 A 
ATOM     43  C   UNL A   1      41.031  24.548  27.353  1.00  0.00    -0.014 A 
BRANCH  43  44
ATOM     44  C   UNL A   1      41.653  25.838  27.726  1.00  0.00     0.031 A 
ATOM     45  C   UNL A   1      40.870  26.857  28.500  1.00  0.00     0.074 A 
ATOM     46  C   UNL A   1      42.927  26.081  27.371  1.00  0.00     0.049 A 
ATOM     47  N   UNL A   1      41.203  28.079  28.827  1.00  0.00    -0.248 NA
ATOM     48  C   UNL A   1      39.539  26.446  28.973  1.00  0.00     0.031 C 
ATOM     49  C   UNL A   1      43.801  25.140  26.668  1.00  0.00     0.029 A 
ATOM     50  N   UNL A   1      43.706  27.196  27.545  1.00  0.00    -0.354 N 
ATOM     51  C   UNL A   1      40.116  28.594  29.521  1.00  0.00     0.074 A 
ATOM     52  C   UNL A   1      39.112  27.552  29.569  1.00  0.00     0.031 C 
ATOM     53  C   UNL A   1      44.992  25.724  26.459  1.00  0.00     0.029 A 
ATOM     54  C   UNL A   1      44.948  27.090  26.971  1.00  0.00     0.049 A 
ATOM     55  H   UNL A   1      43.403  27.995  28.036  1.00  0.00     0.167 HD
ATOM     56  C   UNL A   1      39.976  29.825  30.065  1.00  0.00     0.037 A 
ATOM     57  C   UNL A   1      45.925  28.006  26.839  1.00  0.00     0.037 A 
ATOM     58  C   UNL A   1      40.990  30.848  30.031  1.00  0.00     0.049 A 
ATOM     59  C   UNL A   1      45.713  29.386  27.395  1.00  0.00     0.074 A 
ATOM     60  C   UNL A   1      40.951  32.119  30.577  1.00  0.00     0.029 A 
ATOM     61  N   UNL A   1      42.224  30.714  29.414  1.00  0.00    -0.354 N 
ATOM     62  N   UNL A   1      44.683  29.864  28.050  1.00  0.00    -0.248 NA
ATOM     63  C   UNL A   1      46.796  30.358  27.184  1.00  0.00     0.031 C 
ATOM     64  C   UNL A   1      42.148  32.769  30.255  1.00  0.00     0.029 A 
ATOM     65  C   UNL A   1      42.946  31.889  29.543  1.00  0.00     0.049 A 
ATOM     66  H   UNL A   1      42.540  29.905  28.952  1.00  0.00     0.167 HD
ATOM     67  C   UNL A   1      45.002  31.180  28.352  1.00  0.00     0.074 A 
ATOM     68  C   UNL A   1      46.327  31.424  27.817  1.00  0.00     0.031 C 
ATOM     69  C   UNL A   1      44.266  32.107  29.013  1.00  0.00     0.037 A 
BRANCH  56  70
ATOM     70  C   UNL A   1      38.668  30.155  30.719  1.00  0.00     0.057 A 
ATOM     71  C   UNL A   1      38.444  29.933  32.082  1.00  0.00     0.134 A 
ATOM     72  C   UNL A   1      37.643  30.764  29.982  1.00  0.00     0.134 A 
ATOM     73  F   UNL A   1      39.381  29.343  32.839  1.00  0.00    -0.206 F 
ATOM     74  C   UNL A   1      37.240  30.300  32.690  1.00  0.00     0.040 A 
ATOM     75  C   UNL A   1      36.445  31.152  30.582  1.00  0.00     0.040 A 
ATOM     76  F   UNL A   1      37.799  31.009  28.673  1.00  0.00    -0.206 F 
ATOM     77  C   UNL A   1      36.241  30.919  31.942  1.00  0.00     0.006 A 
ENDBRANCH  56  70
BRANCH  57  78
ATOM     78  C   UNL A   1      47.178  27.663  26.122  1.00  0.00     0.057 A 
ATOM     79  C   UNL A   1      47.253  27.719  24.727  1.00  0.00     0.134 A 
ATOM     80  C   UNL A   1      48.321  27.246  26.815  1.00  0.00     0.134 A 
ATOM     81  F   UNL A   1      46.183  28.086  24.007  1.00  0.00    -0.206 F 
ATOM     82  C   UNL A   1      48.415  27.356  24.043  1.00  0.00     0.040 A 
ATOM     83  C   UNL A   1      49.497  26.905  26.147  1.00  0.00     0.040 A 
ATOM     84  F   UNL A   1      48.312  27.171  28.154  1.00  0.00    -0.206 F 
ATOM     85  C   UNL A   1      49.543  26.952  24.755  1.00  0.00     0.006 A 
ENDBRANCH  57  78
BRANCH  69  86
ATOM     86  C   UNL A   1      44.894  33.451  29.224  1.00  0.00     0.057 A 
ATOM     87  C   UNL A   1      45.704  33.719  30.335  1.00  0.00     0.134 A 
ATOM     88  C   UNL A   1      44.710  34.478  28.291  1.00  0.00     0.134 A 
ATOM     89  F   UNL A   1      45.906  32.780  31.272  1.00  0.00    -0.206 F 
ATOM     90  C   UNL A   1      46.292  34.971  30.520  1.00  0.00     0.040 A 
ATOM     91  C   UNL A   1      45.311  35.727  28.454  1.00  0.00     0.040 A 
ATOM     92  F   UNL A   1      43.950  34.282  27.202  1.00  0.00    -0.206 F 
ATOM     93  C   UNL A   1      46.099  35.977  29.575  1.00  0.00     0.006 A 
ENDBRANCH  69  86
ENDBRANCH  43  44
ENDBRANCH  36  38
ENDBRANCH  35  36
ENDBRANCH  34  35
ENDBRANCH   1  34
TORSDOF 17
ENDMDL
MODEL 2
REMARK VINA RESULT:     -12.0      1.510      2.985
REMARK SMILES O=C(COc1ccc(Cl)c2ccccc12)N[C@@H](Cc1c[nH]c2ccccc12)C(=O)OCCOC(=O)c1ccc(-c2c3nc(c(-c4c(F)cccc4F)c4ccc([nH]4)c(-c4c(F)cccc4F)c4nc(c(-c5c(F)cccc5F)c5ccc2[nH]5)C=C4)C=C3)cc1
REMARK SMILES IDX 31 1 30 2 28 3 29 4 17 5 16 6 1 7 2 8 3 10 4 11 5 12 6 13
REMARK SMILES IDX 15 14 7 15 10 16 14 17 8 18 11 19 13 20 9 21 12 22 18 23
REMARK SMILES IDX 19 24 20 25 27 26 21 27 22 28 26 29 23 31 25 32 24 33 32 34
REMARK SMILES IDX 33 35 34 36 35 37 36 38 37 39 89 40 38 41 88 42 39 43 40 44
REMARK SMILES IDX 41 45 82 46 42 47 87 48 81 49 83 50 43 51 86 52 80 53 79 54
REMARK SMILES IDX 44 56 70 57 53 58 69 59 54 60 57 61 68 62 84 63 55 64 56 65
REMARK SMILES IDX 67 67 85 68 58 69 45 70 46 71 51 72 47 73 48 74 50 75 52 76
REMARK SMILES IDX 49 77 71 78 72 79 77 80 73 81 74 82 76 83 78 84 75 85 59 86
REMARK SMILES IDX 60 87 65 88 61 89 62 90 64 91 66 92 63 93
REMARK H PARENT 16 9 21 30 83 55 57 66
REMARK Flexibility Score: inf
ROOT
ATOM      1  C   UNL A   1      36.506  22.900  23.523  1.00  0.00     0.274 C 
ENDROOT
BRANCH   1   2
ATOM      2  O   UNL A   1      35.284  23.579  23.877  1.00  0.00    -0.461 OA
BRANCH   2   3
ATOM      3  C   UNL A   1      34.156  23.170  23.238  1.00  0.00     0.329 C 
ATOM      4  O   UNL A   1      33.924  23.356  22.047  1.00  0.00    -0.250 OA
BRANCH   3   5
ATOM      5  C   UNL A   1      33.158  22.472  24.176  1.00  0.00     0.196 C 
BRANCH   5   6
ATOM      6  N   UNL A   1      31.936  23.206  24.548  1.00  0.00    -0.339 N 
ATOM      7  O   UNL A   1      32.418  23.152  26.777  1.00  0.00    -0.271 OA
ATOM      8  C   UNL A   1      31.646  23.464  25.869  1.00  0.00     0.258 C 
ATOM      9  H   UNL A   1      31.320  23.515  23.844  1.00  0.00     0.164 HD
BRANCH   8  10
ATOM     10  C   UNL A   1      30.279  24.096  26.185  1.00  0.00     0.329 C 
BRANCH  10  11
ATOM     11  O   UNL A   1      30.203  25.474  26.497  1.00  0.00    -0.483 OA
BRANCH  11  12
ATOM     12  C   UNL A   1      30.384  26.362  25.460  1.00  0.00     0.128 A 
ATOM     13  C   UNL A   1      29.723  26.227  24.240  1.00  0.00     0.048 A 
ATOM     14  C   UNL A   1      31.189  27.504  25.712  1.00  0.00     0.025 A 
ATOM     15  C   UNL A   1      29.750  27.262  23.311  1.00  0.00     0.025 A 
ATOM     16  C   UNL A   1      31.222  28.564  24.764  1.00  0.00     0.004 A 
ATOM     17  C   UNL A   1      31.983  27.614  26.874  1.00  0.00     0.012 A 
ATOM     18  C   UNL A   1      30.460  28.430  23.581  1.00  0.00     0.049 A 
ATOM     19  C   UNL A   1      32.022  29.698  25.050  1.00  0.00     0.010 A 
ATOM     20  C   UNL A   1      32.795  28.724  27.108  1.00  0.00     0.001 A 
ATOM     21  Cl  UNL A   1      30.350  29.693  22.398  1.00  0.00    -0.084 Cl
ATOM     22  C   UNL A   1      32.806  29.772  26.201  1.00  0.00     0.001 A 
ENDBRANCH  11  12
ENDBRANCH  10  11
ENDBRANCH   8  10
ENDBRANCH   5   6
BRANCH   5  23
ATOM     23  C   UNL A   1      32.864  21.056  23.656  1.00  0.00     0.074 C 
BRANCH  23  24
ATOM     24  C   UNL A   1      32.950  19.932  24.649  1.00  0.00    -0.020 A 
ATOM     25  C   UNL A   1      32.750  19.960  26.017  1.00  0.00     0.087 A 
ATOM     26  C   UNL A   1      33.282  18.575  24.317  1.00  0.00     0.003 A 
ATOM     27  N   UNL A   1      32.904  18.690  26.506  1.00  0.00    -0.361 N 
ATOM     28  C   UNL A   1      33.240  17.827  25.493  1.00  0.00     0.046 A 
ATOM     29  C   UNL A   1      33.615  17.916  23.115  1.00  0.00     0.010 A 
ATOM     30  H   UNL A   1      32.789  18.434  27.450  1.00  0.00     0.166 HD
ATOM     31  C   UNL A   1      33.511  16.455  25.529  1.00  0.00     0.026 A 
ATOM     32  C   UNL A   1      33.898  16.547  23.133  1.00  0.00     0.001 A 
ATOM     33  C   UNL A   1      33.844  15.827  24.325  1.00  0.00     0.002 A 
ENDBRANCH  23  24
ENDBRANCH   5  23
ENDBRANCH   3   5
ENDBRANCH   2   3
ENDBRANCH   1   2
BRANCH   1  34
ATOM     34  C   UNL A   1      36.645  21.591  24.307  1.00  0.00     0.275 C 
BRANCH  34  35
ATOM     35  O   UNL A   1      37.031  21.833  25.676  1.00  0.00    -0.458 OA
BRANCH  35  36
ATOM     36  C   UNL A   1      38.319  21.510  25.936  1.00  0.00     0.338 C 
ATOM     37  O   UNL A   1      38.874  20.462  25.659  1.00  0.00    -0.246 OA
BRANCH  36  38
ATOM     38  C   UNL A   1      39.048  22.664  26.482  1.00  0.00     0.060 A 
ATOM     39  C   UNL A   1      38.620  23.941  26.109  1.00  0.00     0.016 A 
ATOM     40  C   UNL A   1      40.205  22.501  27.241  1.00  0.00     0.016 A 
ATOM     41  C   UNL A   1      39.341  25.066  26.492  1.00  0.00     0.010 A 
ATOM     42  C   UNL A   1      40.932  23.632  27.628  1.00  0.00     0.010 A 
ATOM     43  C   UNL A   1      40.505  24.919  27.252  1.00  0.00    -0.014 A 
BRANCH  43  44
ATOM     44  C   UNL A   1      41.275  26.119  27.650  1.00  0.00     0.031 A 
ATOM     45  C   UNL A   1      40.626  27.195  28.467  1.00  0.00     0.074 A 
ATOM     46  C   UNL A   1      42.562  26.227  27.277  1.00  0.00     0.049 A 
ATOM     47  N   UNL A   1      41.100  28.361  28.822  1.00  0.00    -0.248 NA
ATOM     48  C   UNL A   1      39.264  26.924  28.954  1.00  0.00     0.031 C 
ATOM     49  C   UNL A   1      43.313  25.215  26.531  1.00  0.00     0.029 A 
ATOM     50  N   UNL A   1      43.465  27.241  27.467  1.00  0.00    -0.354 N 
ATOM     51  C   UNL A   1      40.090  28.975  29.551  1.00  0.00     0.074 A 
ATOM     52  C   UNL A   1      38.975  28.052  29.589  1.00  0.00     0.031 C 
ATOM     53  C   UNL A   1      44.559  25.667  26.315  1.00  0.00     0.029 A 
ATOM     54  C   UNL A   1      44.678  27.013  26.866  1.00  0.00     0.049 A 
ATOM     55  H   UNL A   1      43.263  28.054  27.986  1.00  0.00     0.167 HD
ATOM     56  C   UNL A   1      40.099  30.197  30.132  1.00  0.00     0.037 A 
ATOM     57  C   UNL A   1      45.750  27.816  26.741  1.00  0.00     0.037 A 
ATOM     58  C   UNL A   1      41.222  31.099  30.107  1.00  0.00     0.049 A 
ATOM     59  C   UNL A   1      45.706  29.194  27.340  1.00  0.00     0.074 A 
ATOM     60  C   UNL A   1      41.336  32.350  30.689  1.00  0.00     0.029 A 
ATOM     61  N   UNL A   1      42.423  30.846  29.463  1.00  0.00    -0.354 N 
ATOM     62  N   UNL A   1      44.747  29.765  28.028  1.00  0.00    -0.248 NA
ATOM     63  C   UNL A   1      46.888  30.043  27.135  1.00  0.00     0.031 C 
ATOM     64  C   UNL A   1      42.594  32.870  30.363  1.00  0.00     0.029 A 
ATOM     65  C   UNL A   1      43.276  31.927  29.611  1.00  0.00     0.049 A 
ATOM     66  H   UNL A   1      42.638  30.020  28.972  1.00  0.00     0.167 HD
ATOM     67  C   UNL A   1      45.218  31.027  28.360  1.00  0.00     0.074 A 
ATOM     68  C   UNL A   1      46.553  31.136  27.807  1.00  0.00     0.031 C 
ATOM     69  C   UNL A   1      44.603  32.011  29.061  1.00  0.00     0.037 A 
BRANCH  56  70
ATOM     70  C   UNL A   1      38.848  30.653  30.820  1.00  0.00     0.057 A 
ATOM     71  C   UNL A   1      38.640  30.454  32.189  1.00  0.00     0.134 A 
ATOM     72  C   UNL A   1      37.867  31.358  30.110  1.00  0.00     0.134 A 
ATOM     73  F   UNL A   1      39.536  29.776  32.923  1.00  0.00    -0.206 F 
ATOM     74  C   UNL A   1      37.495  30.936  32.829  1.00  0.00     0.040 A 
ATOM     75  C   UNL A   1      36.729  31.861  30.741  1.00  0.00     0.040 A 
ATOM     76  F   UNL A   1      38.010  31.586  28.796  1.00  0.00    -0.206 F 
ATOM     77  C   UNL A   1      36.541  31.649  32.106  1.00  0.00     0.006 A 
ENDBRANCH  56  70
BRANCH  57  78
ATOM     78  C   UNL A   1      46.944  27.356  25.990  1.00  0.00     0.057 A 
ATOM     79  C   UNL A   1      47.039  27.522  24.605  1.00  0.00     0.134 A 
ATOM     80  C   UNL A   1      48.008  26.715  26.639  1.00  0.00     0.134 A 
ATOM     81  F   UNL A   1      46.040  28.105  23.926  1.00  0.00    -0.206 F 
ATOM     82  C   UNL A   1      48.140  27.052  23.886  1.00  0.00     0.040 A 
ATOM     83  C   UNL A   1      49.126  26.264  25.937  1.00  0.00     0.040 A 
ATOM     84  F   UNL A   1      47.978  26.526  27.966  1.00  0.00    -0.206 F 
ATOM     85  C   UNL A   1      49.190  26.425  24.555  1.00  0.00     0.006 A 
ENDBRANCH  57  78
BRANCH  69  86
ATOM     86  C   UNL A   1      45.383  33.268  29.298  1.00  0.00     0.057 A 
ATOM     87  C   UNL A   1      46.234  33.410  30.401  1.00  0.00     0.134 A 
ATOM     88  C   UNL A   1      45.302  34.336  28.397  1.00  0.00     0.134 A 
ATOM     89  F   UNL A   1      46.343  32.427  31.308  1.00  0.00    -0.206 F 
ATOM     90  C   UNL A   1      46.964  34.581  30.610  1.00  0.00     0.040 A 
ATOM     91  C   UNL A   1      46.043  35.504  28.584  1.00  0.00     0.040 A 
ATOM     92  F   UNL A   1      44.509  34.260  27.318  1.00  0.00    -0.206 F 
ATOM     93  C   UNL A   1      46.872  35.630  29.696  1.00  0.00     0.006 A 
ENDBRANCH  69  86
ENDBRANCH  43  44
ENDBRANCH  36  38
ENDBRANCH  35  36
ENDBRANCH  34  35
ENDBRANCH   1  34
TORSDOF 17
ENDMDL
MODEL 3
REMARK VINA RESULT:     -12.0      3.153      7.067
REMARK SMILES O=C(COc1ccc(Cl)c2ccccc12)N[C@@H](Cc1c[nH]c2ccccc12)C(=O)OCCOC(=O)c1ccc(-c2c3nc(c(-c4c(F)cccc4F)c4ccc([nH]4)c(-c4c(F)cccc4F)c4nc(c(-c5c(F)cccc5F)c5ccc2[nH]5)C=C4)C=C3)cc1
REMARK SMILES IDX 31 1 30 2 28 3 29 4 17 5 16 6 1 7 2 8 3 10 4 11 5 12 6 13
REMARK SMILES IDX 15 14 7 15 10 16 14 17 8 18 11 19 13 20 9 21 12 22 18 23
REMARK SMILES IDX 19 24 20 25 27 26 21 27 22 28 26 29 23 31 25 32 24 33 32 34
REMARK SMILES IDX 33 35 34 36 35 37 36 38 37 39 89 40 38 41 88 42 39 43 40 44
REMARK SMILES IDX 41 45 82 46 42 47 87 48 81 49 83 50 43 51 86 52 80 53 79 54
REMARK SMILES IDX 44 56 70 57 53 58 69 59 54 60 57 61 68 62 84 63 55 64 56 65
REMARK SMILES IDX 67 67 85 68 58 69 45 70 46 71 51 72 47 73 48 74 50 75 52 76
REMARK SMILES IDX 49 77 71 78 72 79 77 80 73 81 74 82 76 83 78 84 75 85 59 86
REMARK SMILES IDX 60 87 65 88 61 89 62 90 64 91 66 92 63 93
REMARK H PARENT 16 9 21 30 83 55 57 66
REMARK Flexibility Score: inf
ROOT
ATOM      1  C   UNL A   1      32.629  27.527  26.602  1.00  0.00     0.274 C 
ENDROOT
BRANCH   1   2
ATOM      2  O   UNL A   1      31.289  27.094  26.911  1.00  0.00    -0.461 OA
BRANCH   2   3
ATOM      3  C   UNL A   1      30.696  26.266  26.009  1.00  0.00     0.329 C 
ATOM      4  O   UNL A   1      30.084  25.243  26.300  1.00  0.00    -0.250 OA
BRANCH   3   5
ATOM      5  C   UNL A   1      30.903  26.721  24.555  1.00  0.00     0.196 C 
BRANCH   5   6
ATOM      6  N   UNL A   1      31.352  25.714  23.578  1.00  0.00    -0.339 N 
ATOM      7  O   UNL A   1      33.372  26.726  23.258  1.00  0.00    -0.271 OA
ATOM      8  C   UNL A   1      32.582  25.827  22.967  1.00  0.00     0.258 C 
ATOM      9  H   UNL A   1      30.767  24.952  23.359  1.00  0.00     0.164 HD
BRANCH   8  10
ATOM     10  C   UNL A   1      32.912  24.824  21.848  1.00  0.00     0.329 C 
BRANCH  10  11
ATOM     11  O   UNL A   1      33.942  23.873  22.044  1.00  0.00    -0.483 OA
BRANCH  11  12
ATOM     12  C   UNL A   1      33.701  22.868  22.953  1.00  0.00     0.128 A 
ATOM     13  C   UNL A   1      32.509  22.145  22.966  1.00  0.00     0.048 A 
ATOM     14  C   UNL A   1      34.765  22.503  23.819  1.00  0.00     0.025 A 
ATOM     15  C   UNL A   1      32.396  20.993  23.738  1.00  0.00     0.025 A 
ATOM     16  C   UNL A   1      34.654  21.328  24.613  1.00  0.00     0.004 A 
ATOM     17  C   UNL A   1      35.932  23.289  23.938  1.00  0.00     0.012 A 
ATOM     18  C   UNL A   1      33.466  20.568  24.524  1.00  0.00     0.049 A 
ATOM     19  C   UNL A   1      35.738  20.981  25.457  1.00  0.00     0.010 A 
ATOM     20  C   UNL A   1      36.965  22.945  24.810  1.00  0.00     0.001 A 
ATOM     21  Cl  UNL A   1      33.254  19.071  25.373  1.00  0.00    -0.084 Cl
ATOM     22  C   UNL A   1      36.873  21.784  25.562  1.00  0.00     0.001 A 
ENDBRANCH  11  12
ENDBRANCH  10  11
ENDBRANCH   8  10
ENDBRANCH   5   6
BRANCH   5  23
ATOM     23  C   UNL A   1      29.670  27.501  24.077  1.00  0.00     0.074 C 
BRANCH  23  24
ATOM     24  C   UNL A   1      29.909  28.652  23.141  1.00  0.00    -0.020 A 
ATOM     25  C   UNL A   1      30.926  28.830  22.221  1.00  0.00     0.087 A 
ATOM     26  C   UNL A   1      29.078  29.819  23.055  1.00  0.00     0.003 A 
ATOM     27  N   UNL A   1      30.721  30.015  21.568  1.00  0.00    -0.361 N 
ATOM     28  C   UNL A   1      29.606  30.646  22.064  1.00  0.00     0.046 A 
ATOM     29  C   UNL A   1      27.918  30.246  23.735  1.00  0.00     0.010 A 
ATOM     30  H   UNL A   1      31.290  30.365  20.845  1.00  0.00     0.166 HD
ATOM     31  C   UNL A   1      29.035  31.874  21.716  1.00  0.00     0.026 A 
ATOM     32  C   UNL A   1      27.338  31.475  23.407  1.00  0.00     0.001 A 
ATOM     33  C   UNL A   1      27.890  32.277  22.410  1.00  0.00     0.002 A 
ENDBRANCH  23  24
ENDBRANCH   5  23
ENDBRANCH   3   5
ENDBRANCH   2   3
ENDBRANCH   1   2
BRANCH   1  34
ATOM     34  C   UNL A   1      32.893  28.923  27.175  1.00  0.00     0.275 C 
BRANCH  34  35
ATOM     35  O   UNL A   1      34.236  29.365  26.891  1.00  0.00    -0.458 OA
BRANCH  35  36
ATOM     36  C   UNL A   1      34.688  30.301  27.757  1.00  0.00     0.338 C 
ATOM     37  O   UNL A   1      34.044  31.215  28.240  1.00  0.00    -0.246 OA
BRANCH  36  38
ATOM     38  C   UNL A   1      36.062  29.998  28.185  1.00  0.00     0.060 A 
ATOM     39  C   UNL A   1      37.081  30.116  27.236  1.00  0.00     0.016 A 
ATOM     40  C   UNL A   1      36.333  29.486  29.452  1.00  0.00     0.016 A 
ATOM     41  C   UNL A   1      38.379  29.726  27.544  1.00  0.00     0.010 A 
ATOM     42  C   UNL A   1      37.639  29.094  29.764  1.00  0.00     0.010 A 
ATOM     43  C   UNL A   1      38.668  29.209  28.810  1.00  0.00    -0.014 A 
BRANCH  43  44
ATOM     44  C   UNL A   1      40.049  28.787  29.130  1.00  0.00     0.031 A 
ATOM     45  C   UNL A   1      40.973  29.717  29.858  1.00  0.00     0.074 A 
ATOM     46  C   UNL A   1      40.462  27.559  28.769  1.00  0.00     0.049 A 
ATOM     47  N   UNL A   1      42.243  29.571  30.133  1.00  0.00    -0.248 NA
ATOM     48  C   UNL A   1      40.392  30.979  30.343  1.00  0.00     0.031 C 
ATOM     49  C   UNL A   1      39.631  26.549  28.110  1.00  0.00     0.029 A 
ATOM     50  N   UNL A   1      41.685  26.953  28.899  1.00  0.00    -0.354 N 
ATOM     51  C   UNL A   1      42.622  30.727  30.801  1.00  0.00     0.074 A 
ATOM     52  C   UNL A   1      41.447  31.569  30.890  1.00  0.00     0.031 C 
ATOM     53  C   UNL A   1      40.374  25.455  27.880  1.00  0.00     0.029 A 
ATOM     54  C   UNL A   1      41.738  25.703  28.333  1.00  0.00     0.049 A 
ATOM     55  H   UNL A   1      42.450  27.374  29.353  1.00  0.00     0.167 HD
ATOM     56  C   UNL A   1      43.840  31.052  31.292  1.00  0.00     0.037 A 
ATOM     57  C   UNL A   1      42.781  24.870  28.166  1.00  0.00     0.037 A 
ATOM     58  C   UNL A   1      44.998  30.199  31.217  1.00  0.00     0.049 A 
ATOM     59  C   UNL A   1      44.138  25.287  28.662  1.00  0.00     0.074 A 
ATOM     60  C   UNL A   1      46.272  30.429  31.709  1.00  0.00     0.029 A 
ATOM     61  N   UNL A   1      45.022  28.952  30.611  1.00  0.00    -0.354 N 
ATOM     62  N   UNL A   1      44.486  26.382  29.293  1.00  0.00    -0.248 NA
ATOM     63  C   UNL A   1      45.248  24.356  28.413  1.00  0.00     0.031 C 
ATOM     64  C   UNL A   1      47.077  29.337  31.363  1.00  0.00     0.029 A 
ATOM     65  C   UNL A   1      46.294  28.411  30.693  1.00  0.00     0.049 A 
ATOM     66  H   UNL A   1      44.249  28.516  30.185  1.00  0.00     0.167 HD
ATOM     67  C   UNL A   1      45.847  26.262  29.539  1.00  0.00     0.074 A 
ATOM     68  C   UNL A   1      46.259  24.982  28.999  1.00  0.00     0.031 C 
ATOM     69  C   UNL A   1      46.682  27.133  30.158  1.00  0.00     0.037 A 
BRANCH  56  70
ATOM     70  C   UNL A   1      44.002  32.400  31.926  1.00  0.00     0.057 A 
ATOM     71  C   UNL A   1      44.338  33.535  31.181  1.00  0.00     0.134 A 
ATOM     72  C   UNL A   1      43.753  32.572  33.295  1.00  0.00     0.134 A 
ATOM     73  F   UNL A   1      44.600  33.435  29.869  1.00  0.00    -0.206 F 
ATOM     74  C   UNL A   1      44.428  34.796  31.776  1.00  0.00     0.040 A 
ATOM     75  C   UNL A   1      43.821  33.829  33.897  1.00  0.00     0.040 A 
ATOM     76  F   UNL A   1      43.421  31.524  34.063  1.00  0.00    -0.206 F 
ATOM     77  C   UNL A   1      44.161  34.946  33.136  1.00  0.00     0.006 A 
ENDBRANCH  56  70
BRANCH  57  78
ATOM     78  C   UNL A   1      42.597  23.574  27.468  1.00  0.00     0.057 A 
ATOM     79  C   UNL A   1      42.293  22.406  28.175  1.00  0.00     0.134 A 
ATOM     80  C   UNL A   1      42.746  23.469  26.079  1.00  0.00     0.134 A 
ATOM     81  F   UNL A   1      42.163  22.439  29.509  1.00  0.00    -0.206 F 
ATOM     82  C   UNL A   1      42.161  21.175  27.529  1.00  0.00     0.040 A 
ATOM     83  C   UNL A   1      42.592  22.250  25.418  1.00  0.00     0.040 A 
ATOM     84  F   UNL A   1      43.038  24.552  25.345  1.00  0.00    -0.206 F 
ATOM     85  C   UNL A   1      42.306  21.097  26.146  1.00  0.00     0.006 A 
ENDBRANCH  57  78
BRANCH  69  86
ATOM     86  C   UNL A   1      48.111  26.710  30.314  1.00  0.00     0.057 A 
ATOM     87  C   UNL A   1      48.529  25.908  31.383  1.00  0.00     0.134 A 
ATOM     88  C   UNL A   1      49.072  27.087  29.368  1.00  0.00     0.134 A 
ATOM     89  F   UNL A   1      47.658  25.527  32.330  1.00  0.00    -0.206 F 
ATOM     90  C   UNL A   1      49.861  25.512  31.516  1.00  0.00     0.040 A 
ATOM     91  C   UNL A   1      50.402  26.679  29.479  1.00  0.00     0.040 A 
ATOM     92  F   UNL A   1      48.733  27.849  28.318  1.00  0.00    -0.206 F 
ATOM     93  C   UNL A   1      50.800  25.894  30.559  1.00  0.00     0.006 A 
ENDBRANCH  69  86
ENDBRANCH  43  44
ENDBRANCH  36  38
ENDBRANCH  35  36
ENDBRANCH  34  35
ENDBRANCH   1  34
TORSDOF 17
ENDMDL
