MODEL 1
REMARK VINA RESULT:     -11.5      0.000      0.000
REMARK SMILES CC[C@](C)(NC(=O)c1ccc2ccccc2c1O)C(=O)OCCOC(=O)c1ccc(-c2c3nc(c(-c4c(F)cccc4F)c4ccc([nH]4)c(-c4c(F)cccc4F)c4nc(c(-c5c(F)cccc5F)c5ccc2[nH]5)C=C4)C=C3)cc1
REMARK SMILES IDX 22 1 21 2 19 3 20 4 3 5 4 6 2 7 1 8 5 9 6 10 7 12 8 13 9 14
REMARK SMILES IDX 17 15 10 16 16 17 11 18 15 19 12 20 14 21 13 22 18 23 23 25
REMARK SMILES IDX 24 26 25 27 26 28 27 29 28 30 80 31 29 32 79 33 30 34 31 35
REMARK SMILES IDX 32 36 73 37 33 38 78 39 72 40 74 41 34 42 77 43 71 44 70 45
REMARK SMILES IDX 35 47 61 48 44 49 60 50 45 51 48 52 59 53 75 54 46 55 47 56
REMARK SMILES IDX 58 58 76 59 49 60 36 61 37 62 42 63 38 64 39 65 41 66 43 67
REMARK SMILES IDX 40 68 62 69 63 70 68 71 64 72 65 73 67 74 69 75 66 76 50 77
REMARK SMILES IDX 51 78 56 79 52 80 53 81 55 82 57 83 54 84
REMARK H PARENT 5 11 18 24 74 46 48 57
REMARK Flexibility Score: inf
ROOT
ATOM      1  C   UNL A   1      35.742  20.910  24.642  1.00  0.00     0.274 C 
ENDROOT
BRANCH   1   2
ATOM      2  O   UNL A   1      35.476  22.203  25.232  1.00  0.00    -0.460 OA
BRANCH   2   3
ATOM      3  C   UNL A   1      35.509  23.279  24.423  1.00  0.00     0.331 C 
ATOM      4  O   UNL A   1      36.498  23.602  23.767  1.00  0.00    -0.249 OA
BRANCH   3   5
ATOM      5  C   UNL A   1      34.185  24.115  24.403  1.00  0.00     0.135 C 
ATOM      6  C   UNL A   1      34.016  24.597  22.946  1.00  0.00     0.047 C 
BRANCH   5   7
ATOM      7  C   UNL A   1      34.489  25.304  25.380  1.00  0.00     0.037 C 
ATOM      8  C   UNL A   1      33.426  26.392  25.461  1.00  0.00     0.007 C 
ENDBRANCH   5   7
BRANCH   5   9
ATOM      9  N   UNL A   1      32.876  23.524  24.868  1.00  0.00    -0.336 N 
ATOM     10  C   UNL A   1      31.926  22.963  24.029  1.00  0.00     0.255 C 
ATOM     11  H   UNL A   1      32.685  23.537  25.834  1.00  0.00     0.165 HD
ATOM     12  O   UNL A   1      30.996  23.654  23.626  1.00  0.00    -0.269 OA
BRANCH  10  13
ATOM     13  C   UNL A   1      31.982  21.501  23.763  1.00  0.00     0.082 A 
ATOM     14  C   UNL A   1      31.914  21.080  22.431  1.00  0.00     0.018 A 
ATOM     15  C   UNL A   1      32.151  20.545  24.774  1.00  0.00     0.136 A 
ATOM     16  C   UNL A   1      32.188  19.751  22.099  1.00  0.00     0.010 A 
ATOM     17  C   UNL A   1      32.493  19.214  24.453  1.00  0.00     0.024 A 
ATOM     18  C   UNL A   1      32.549  18.829  23.093  1.00  0.00    -0.015 A 
ATOM     19  C   UNL A   1      32.892  18.285  25.435  1.00  0.00     0.012 A 
ATOM     20  C   UNL A   1      33.040  17.557  22.755  1.00  0.00     0.009 A 
ATOM     21  C   UNL A   1      33.410  17.039  25.082  1.00  0.00     0.001 A 
ATOM     22  C   UNL A   1      33.493  16.680  23.742  1.00  0.00     0.001 A 
BRANCH  15  23
ATOM     23  O   UNL A   1      32.086  20.885  26.108  1.00  0.00    -0.506 OA
ATOM     24  H   UNL A   1      32.781  20.643  26.687  1.00  0.00     0.293 HD
ENDBRANCH  15  23
ENDBRANCH  10  13
ENDBRANCH   5   9
ENDBRANCH   3   5
ENDBRANCH   2   3
ENDBRANCH   1   2
BRANCH   1  25
ATOM     25  C   UNL A   1      37.144  20.415  24.990  1.00  0.00     0.275 C 
BRANCH  25  26
ATOM     26  O   UNL A   1      37.727  21.248  26.002  1.00  0.00    -0.458 OA
BRANCH  26  27
ATOM     27  C   UNL A   1      39.062  21.132  26.141  1.00  0.00     0.338 C 
ATOM     28  O   UNL A   1      39.790  20.195  25.861  1.00  0.00    -0.246 OA
BRANCH  27  29
ATOM     29  C   UNL A   1      39.580  22.404  26.605  1.00  0.00     0.060 A 
ATOM     30  C   UNL A   1      40.622  22.378  27.529  1.00  0.00     0.016 A 
ATOM     31  C   UNL A   1      39.026  23.596  26.151  1.00  0.00     0.016 A 
ATOM     32  C   UNL A   1      41.132  23.562  28.015  1.00  0.00     0.010 A 
ATOM     33  C   UNL A   1      39.592  24.789  26.578  1.00  0.00     0.010 A 
ATOM     34  C   UNL A   1      40.659  24.769  27.493  1.00  0.00    -0.014 A 
BRANCH  34  35
ATOM     35  C   UNL A   1      41.364  26.010  27.844  1.00  0.00     0.031 A 
ATOM     36  C   UNL A   1      40.678  27.045  28.667  1.00  0.00     0.074 A 
ATOM     37  C   UNL A   1      42.622  26.162  27.391  1.00  0.00     0.049 A 
ATOM     38  N   UNL A   1      41.075  28.252  28.961  1.00  0.00    -0.248 NA
ATOM     39  C   UNL A   1      39.362  26.684  29.217  1.00  0.00     0.031 C 
ATOM     40  C   UNL A   1      43.359  25.169  26.600  1.00  0.00     0.029 A 
ATOM     41  N   UNL A   1      43.507  27.193  27.532  1.00  0.00    -0.354 N 
ATOM     42  C   UNL A   1      40.041  28.815  29.693  1.00  0.00     0.074 A 
ATOM     43  C   UNL A   1      38.998  27.818  29.799  1.00  0.00     0.031 C 
ATOM     44  C   UNL A   1      44.594  25.626  26.358  1.00  0.00     0.029 A 
ATOM     45  C   UNL A   1      44.708  26.971  26.904  1.00  0.00     0.049 A 
ATOM     46  H   UNL A   1      43.303  28.016  28.034  1.00  0.00     0.167 HD
ATOM     47  C   UNL A   1      39.982  30.063  30.212  1.00  0.00     0.037 A 
ATOM     48  C   UNL A   1      45.767  27.784  26.760  1.00  0.00     0.037 A 
ATOM     49  C   UNL A   1      41.054  31.016  30.093  1.00  0.00     0.049 A 
ATOM     50  C   UNL A   1      45.673  29.159  27.351  1.00  0.00     0.074 A 
ATOM     51  C   UNL A   1      41.118  32.314  30.564  1.00  0.00     0.029 A 
ATOM     52  N   UNL A   1      42.263  30.759  29.456  1.00  0.00    -0.354 N 
ATOM     53  N   UNL A   1      44.678  29.702  28.012  1.00  0.00    -0.248 NA
ATOM     54  C   UNL A   1      46.831  30.038  27.166  1.00  0.00     0.031 C 
ATOM     55  C   UNL A   1      42.355  32.851  30.186  1.00  0.00     0.029 A 
ATOM     56  C   UNL A   1      43.077  31.875  29.515  1.00  0.00     0.049 A 
ATOM     57  H   UNL A   1      42.504  29.907  29.025  1.00  0.00     0.167 HD
ATOM     58  C   UNL A   1      45.086  30.987  28.327  1.00  0.00     0.074 A 
ATOM     59  C   UNL A   1      46.434  31.130  27.804  1.00  0.00     0.031 C 
ATOM     60  C   UNL A   1      44.412  31.967  28.977  1.00  0.00     0.037 A 
BRANCH  47  61
ATOM     61  C   UNL A   1      38.709  30.462  30.895  1.00  0.00     0.057 A 
ATOM     62  C   UNL A   1      37.668  31.110  30.217  1.00  0.00     0.134 A 
ATOM     63  C   UNL A   1      38.529  30.211  32.262  1.00  0.00     0.134 A 
ATOM     64  F   UNL A   1      37.786  31.402  28.913  1.00  0.00    -0.206 F 
ATOM     65  C   UNL A   1      36.507  31.517  30.878  1.00  0.00     0.040 A 
ATOM     66  C   UNL A   1      37.363  30.592  32.929  1.00  0.00     0.040 A 
ATOM     67  F   UNL A   1      39.486  29.598  32.974  1.00  0.00    -0.206 F 
ATOM     68  C   UNL A   1      36.351  31.255  32.237  1.00  0.00     0.006 A 
ENDBRANCH  47  61
BRANCH  48  69
ATOM     69  C   UNL A   1      46.964  27.319  26.017  1.00  0.00     0.057 A 
ATOM     70  C   UNL A   1      47.994  26.629  26.664  1.00  0.00     0.134 A 
ATOM     71  C   UNL A   1      47.086  27.508  24.635  1.00  0.00     0.134 A 
ATOM     72  F   UNL A   1      47.942  26.425  27.989  1.00  0.00    -0.206 F 
ATOM     73  C   UNL A   1      49.105  26.150  25.967  1.00  0.00     0.040 A 
ATOM     74  C   UNL A   1      48.177  27.012  23.919  1.00  0.00     0.040 A 
ATOM     75  F   UNL A   1      46.127  28.149  23.950  1.00  0.00    -0.206 F 
ATOM     76  C   UNL A   1      49.194  26.333  24.588  1.00  0.00     0.006 A 
ENDBRANCH  48  69
BRANCH  60  77
ATOM     77  C   UNL A   1      45.142  33.259  29.164  1.00  0.00     0.057 A 
ATOM     78  C   UNL A   1      45.967  33.481  30.274  1.00  0.00     0.134 A 
ATOM     79  C   UNL A   1      45.040  34.277  28.209  1.00  0.00     0.134 A 
ATOM     80  F   UNL A   1      46.088  32.546  31.228  1.00  0.00    -0.206 F 
ATOM     81  C   UNL A   1      46.652  34.684  30.436  1.00  0.00     0.040 A 
ATOM     82  C   UNL A   1      45.739  35.475  28.350  1.00  0.00     0.040 A 
ATOM     83  F   UNL A   1      44.268  34.118  27.123  1.00  0.00    -0.206 F 
ATOM     84  C   UNL A   1      46.544  35.683  29.469  1.00  0.00     0.006 A 
ENDBRANCH  60  77
ENDBRANCH  34  35
ENDBRANCH  27  29
ENDBRANCH  26  27
ENDBRANCH  25  26
ENDBRANCH   1  25
TORSDOF 15
ENDMDL
MODEL 2
REMARK VINA RESULT:     -11.4      1.438      3.646
REMARK SMILES CC[C@](C)(NC(=O)c1ccc2ccccc2c1O)C(=O)OCCOC(=O)c1ccc(-c2c3nc(c(-c4c(F)cccc4F)c4ccc([nH]4)c(-c4c(F)cccc4F)c4nc(c(-c5c(F)cccc5F)c5ccc2[nH]5)C=C4)C=C3)cc1
REMARK SMILES IDX 22 1 21 2 19 3 20 4 3 5 4 6 2 7 1 8 5 9 6 10 7 12 8 13 9 14
REMARK SMILES IDX 17 15 10 16 16 17 11 18 15 19 12 20 14 21 13 22 18 23 23 25
REMARK SMILES IDX 24 26 25 27 26 28 27 29 28 30 80 31 29 32 79 33 30 34 31 35
REMARK SMILES IDX 32 36 73 37 33 38 78 39 72 40 74 41 34 42 77 43 71 44 70 45
REMARK SMILES IDX 35 47 61 48 44 49 60 50 45 51 48 52 59 53 75 54 46 55 47 56
REMARK SMILES IDX 58 58 76 59 49 60 36 61 37 62 42 63 38 64 39 65 41 66 43 67
REMARK SMILES IDX 40 68 62 69 63 70 68 71 64 72 65 73 67 74 69 75 66 76 50 77
REMARK SMILES IDX 51 78 56 79 52 80 53 81 55 82 57 83 54 84
REMARK H PARENT 5 11 18 24 74 46 48 57
REMARK Flexibility Score: inf
ROOT
ATOM      1  C   UNL A   1      35.867  20.133  24.997  1.00  0.00     0.274 C 
ENDROOT
BRANCH   1   2
ATOM      2  O   UNL A   1      35.341  21.447  24.699  1.00  0.00    -0.460 OA
BRANCH   2   3
ATOM      3  C   UNL A   1      34.395  21.944  25.519  1.00  0.00     0.331 C 
ATOM      4  O   UNL A   1      34.333  21.680  26.718  1.00  0.00    -0.249 OA
BRANCH   3   5
ATOM      5  C   UNL A   1      33.350  22.873  24.813  1.00  0.00     0.135 C 
ATOM      6  C   UNL A   1      33.150  22.282  23.401  1.00  0.00     0.047 C 
BRANCH   5   7
ATOM      7  C   UNL A   1      34.072  24.265  24.768  1.00  0.00     0.037 C 
ATOM      8  C   UNL A   1      34.035  24.993  23.430  1.00  0.00     0.007 C 
ENDBRANCH   5   7
BRANCH   5   9
ATOM      9  N   UNL A   1      31.992  23.132  25.421  1.00  0.00    -0.336 N 
ATOM     10  C   UNL A   1      31.740  24.071  26.408  1.00  0.00     0.255 C 
ATOM     11  H   UNL A   1      31.234  22.597  25.092  1.00  0.00     0.165 HD
ATOM     12  O   UNL A   1      31.742  23.724  27.584  1.00  0.00    -0.269 OA
BRANCH  10  13
ATOM     13  C   UNL A   1      31.328  25.441  26.002  1.00  0.00     0.082 A 
ATOM     14  C   UNL A   1      31.818  26.516  26.751  1.00  0.00     0.018 A 
ATOM     15  C   UNL A   1      30.524  25.699  24.883  1.00  0.00     0.136 A 
ATOM     16  C   UNL A   1      31.658  27.825  26.291  1.00  0.00     0.010 A 
ATOM     17  C   UNL A   1      30.407  27.008  24.369  1.00  0.00     0.024 A 
ATOM     18  C   UNL A   1      31.018  28.076  25.067  1.00  0.00    -0.015 A 
ATOM     19  C   UNL A   1      29.800  27.273  23.125  1.00  0.00     0.012 A 
ATOM     20  C   UNL A   1      31.045  29.355  24.487  1.00  0.00     0.009 A 
ATOM     21  C   UNL A   1      29.865  28.541  22.547  1.00  0.00     0.001 A 
ATOM     22  C   UNL A   1      30.496  29.578  23.223  1.00  0.00     0.001 A 
BRANCH  15  23
ATOM     23  O   UNL A   1      29.901  24.682  24.191  1.00  0.00    -0.506 OA
ATOM     24  H   UNL A   1      30.207  24.440  23.340  1.00  0.00     0.293 HD
ENDBRANCH  15  23
ENDBRANCH  10  13
ENDBRANCH   5   9
ENDBRANCH   3   5
ENDBRANCH   2   3
ENDBRANCH   1   2
BRANCH   1  25
ATOM     25  C   UNL A   1      37.384  20.090  24.835  1.00  0.00     0.275 C 
BRANCH  25  26
ATOM     26  O   UNL A   1      37.981  21.248  25.433  1.00  0.00    -0.458 OA
BRANCH  26  27
ATOM     27  C   UNL A   1      39.150  21.029  26.066  1.00  0.00     0.338 C 
ATOM     28  O   UNL A   1      39.782  19.993  26.186  1.00  0.00    -0.246 OA
BRANCH  27  29
ATOM     29  C   UNL A   1      39.657  22.304  26.534  1.00  0.00     0.060 A 
ATOM     30  C   UNL A   1      40.709  22.285  27.447  1.00  0.00     0.016 A 
ATOM     31  C   UNL A   1      39.082  23.492  26.096  1.00  0.00     0.016 A 
ATOM     32  C   UNL A   1      41.209  23.472  27.937  1.00  0.00     0.010 A 
ATOM     33  C   UNL A   1      39.637  24.689  26.527  1.00  0.00     0.010 A 
ATOM     34  C   UNL A   1      40.714  24.676  27.429  1.00  0.00    -0.014 A 
BRANCH  34  35
ATOM     35  C   UNL A   1      41.407  25.924  27.783  1.00  0.00     0.031 A 
ATOM     36  C   UNL A   1      40.709  26.952  28.603  1.00  0.00     0.074 A 
ATOM     37  C   UNL A   1      42.665  26.087  27.333  1.00  0.00     0.049 A 
ATOM     38  N   UNL A   1      41.095  28.162  28.899  1.00  0.00    -0.248 NA
ATOM     39  C   UNL A   1      39.394  26.579  29.150  1.00  0.00     0.031 C 
ATOM     40  C   UNL A   1      43.413  25.101  26.544  1.00  0.00     0.029 A 
ATOM     41  N   UNL A   1      43.540  27.126  27.477  1.00  0.00    -0.354 N 
ATOM     42  C   UNL A   1      40.053  28.716  29.628  1.00  0.00     0.074 A 
ATOM     43  C   UNL A   1      39.019  27.710  29.731  1.00  0.00     0.031 C 
ATOM     44  C   UNL A   1      44.645  25.570  26.306  1.00  0.00     0.029 A 
ATOM     45  C   UNL A   1      44.744  26.915  26.853  1.00  0.00     0.049 A 
ATOM     46  H   UNL A   1      43.327  27.947  27.979  1.00  0.00     0.167 HD
ATOM     47  C   UNL A   1      39.981  29.963  30.147  1.00  0.00     0.037 A 
ATOM     48  C   UNL A   1      45.797  27.738  26.711  1.00  0.00     0.037 A 
ATOM     49  C   UNL A   1      41.045  30.926  30.032  1.00  0.00     0.049 A 
ATOM     50  C   UNL A   1      45.688  29.112  27.302  1.00  0.00     0.074 A 
ATOM     51  C   UNL A   1      41.095  32.224  30.503  1.00  0.00     0.029 A 
ATOM     52  N   UNL A   1      42.258  30.680  29.397  1.00  0.00    -0.354 N 
ATOM     53  N   UNL A   1      44.686  29.645  27.961  1.00  0.00    -0.248 NA
ATOM     54  C   UNL A   1      46.839  30.001  27.122  1.00  0.00     0.031 C 
ATOM     55  C   UNL A   1      42.328  32.773  30.129  1.00  0.00     0.029 A 
ATOM     56  C   UNL A   1      43.061  31.804  29.460  1.00  0.00     0.049 A 
ATOM     57  H   UNL A   1      42.508  29.831  28.968  1.00  0.00     0.167 HD
ATOM     58  C   UNL A   1      45.082  30.934  28.277  1.00  0.00     0.074 A 
ATOM     59  C   UNL A   1      46.430  31.090  27.758  1.00  0.00     0.031 C 
ATOM     60  C   UNL A   1      44.397  31.908  28.925  1.00  0.00     0.037 A 
BRANCH  47  61
ATOM     61  C   UNL A   1      38.702  30.350  30.827  1.00  0.00     0.057 A 
ATOM     62  C   UNL A   1      37.653  30.978  30.143  1.00  0.00     0.134 A 
ATOM     63  C   UNL A   1      38.525  30.109  32.195  1.00  0.00     0.134 A 
ATOM     64  F   UNL A   1      37.767  31.260  28.836  1.00  0.00    -0.206 F 
ATOM     65  C   UNL A   1      36.486  31.374  30.800  1.00  0.00     0.040 A 
ATOM     66  C   UNL A   1      37.354  30.480  32.859  1.00  0.00     0.040 A 
ATOM     67  F   UNL A   1      39.491  29.516  32.913  1.00  0.00    -0.206 F 
ATOM     68  C   UNL A   1      36.333  31.122  32.162  1.00  0.00     0.006 A 
ENDBRANCH  47  61
BRANCH  48  69
ATOM     69  C   UNL A   1      47.000  27.284  25.973  1.00  0.00     0.057 A 
ATOM     70  C   UNL A   1      47.141  27.525  24.602  1.00  0.00     0.134 A 
ATOM     71  C   UNL A   1      48.061  26.642  26.626  1.00  0.00     0.134 A 
ATOM     72  F   UNL A   1      46.157  28.126  23.917  1.00  0.00    -0.206 F 
ATOM     73  C   UNL A   1      48.289  27.140  23.906  1.00  0.00     0.040 A 
ATOM     74  C   UNL A   1      49.225  26.275  25.949  1.00  0.00     0.040 A 
ATOM     75  F   UNL A   1      47.996  26.394  27.942  1.00  0.00    -0.206 F 
ATOM     76  C   UNL A   1      49.339  26.521  24.582  1.00  0.00     0.006 A 
ENDBRANCH  48  69
BRANCH  60  77
ATOM     77  C   UNL A   1      45.115  33.207  29.114  1.00  0.00     0.057 A 
ATOM     78  C   UNL A   1      45.938  33.434  30.224  1.00  0.00     0.134 A 
ATOM     79  C   UNL A   1      45.002  34.226  28.162  1.00  0.00     0.134 A 
ATOM     80  F   UNL A   1      46.070  32.498  31.176  1.00  0.00    -0.206 F 
ATOM     81  C   UNL A   1      46.611  34.643  30.389  1.00  0.00     0.040 A 
ATOM     82  C   UNL A   1      45.689  35.431  28.305  1.00  0.00     0.040 A 
ATOM     83  F   UNL A   1      44.230  34.062  27.077  1.00  0.00    -0.206 F 
ATOM     84  C   UNL A   1      46.493  35.643  29.424  1.00  0.00     0.006 A 
ENDBRANCH  60  77
ENDBRANCH  34  35
ENDBRANCH  27  29
ENDBRANCH  26  27
ENDBRANCH  25  26
ENDBRANCH   1  25
TORSDOF 15
ENDMDL
MODEL 3
REMARK VINA RESULT:     -11.4      4.472      9.327
REMARK SMILES CC[C@](C)(NC(=O)c1ccc2ccccc2c1O)C(=O)OCCOC(=O)c1ccc(-c2c3nc(c(-c4c(F)cccc4F)c4ccc([nH]4)c(-c4c(F)cccc4F)c4nc(c(-c5c(F)cccc5F)c5ccc2[nH]5)C=C4)C=C3)cc1
REMARK SMILES IDX 22 1 21 2 19 3 20 4 3 5 4 6 2 7 1 8 5 9 6 10 7 12 8 13 9 14
REMARK SMILES IDX 17 15 10 16 16 17 11 18 15 19 12 20 14 21 13 22 18 23 23 25
REMARK SMILES IDX 24 26 25 27 26 28 27 29 28 30 80 31 29 32 79 33 30 34 31 35
REMARK SMILES IDX 32 36 73 37 33 38 78 39 72 40 74 41 34 42 77 43 71 44 70 45
REMARK SMILES IDX 35 47 61 48 44 49 60 50 45 51 48 52 59 53 75 54 46 55 47 56
REMARK SMILES IDX 58 58 76 59 49 60 36 61 37 62 42 63 38 64 39 65 41 66 43 67
REMARK SMILES IDX 40 68 62 69 63 70 68 71 64 72 65 73 67 74 69 75 66 76 50 77
REMARK SMILES IDX 51 78 56 79 52 80 53 81 55 82 57 83 54 84
REMARK H PARENT 5 11 18 24 74 46 48 57
REMARK Flexibility Score: inf
ROOT
ATOM      1  C   UNL A   1      31.731  28.375  26.902  1.00  0.00     0.274 C 
ENDROOT
BRANCH   1   2
ATOM      2  O   UNL A   1      31.031  27.328  26.192  1.00  0.00    -0.460 OA
BRANCH   2   3
ATOM      3  C   UNL A   1      31.608  26.112  26.142  1.00  0.00     0.331 C 
ATOM      4  O   UNL A   1      31.407  25.234  26.979  1.00  0.00    -0.249 OA
BRANCH   3   5
ATOM      5  C   UNL A   1      32.586  25.909  24.936  1.00  0.00     0.135 C 
ATOM      6  C   UNL A   1      32.179  24.568  24.288  1.00  0.00     0.047 C 
BRANCH   5   7
ATOM      7  C   UNL A   1      33.995  25.825  25.620  1.00  0.00     0.037 C 
ATOM      8  C   UNL A   1      34.785  24.547  25.368  1.00  0.00     0.007 C 
ENDBRANCH   5   7
BRANCH   5   9
ATOM      9  N   UNL A   1      32.718  26.947  23.847  1.00  0.00    -0.336 N 
ATOM     10  C   UNL A   1      31.968  26.962  22.682  1.00  0.00     0.255 C 
ATOM     11  H   UNL A   1      33.382  27.663  23.975  1.00  0.00     0.165 HD
ATOM     12  O   UNL A   1      32.420  26.440  21.669  1.00  0.00    -0.269 OA
BRANCH  10  13
ATOM     13  C   UNL A   1      30.701  27.741  22.658  1.00  0.00     0.082 A 
ATOM     14  C   UNL A   1      29.543  27.111  23.128  1.00  0.00     0.018 A 
ATOM     15  C   UNL A   1      30.631  29.077  22.240  1.00  0.00     0.136 A 
ATOM     16  C   UNL A   1      28.379  27.853  23.344  1.00  0.00     0.010 A 
ATOM     17  C   UNL A   1      29.485  29.855  22.511  1.00  0.00     0.024 A 
ATOM     18  C   UNL A   1      28.361  29.236  23.108  1.00  0.00    -0.015 A 
ATOM     19  C   UNL A   1      29.463  31.250  22.314  1.00  0.00     0.012 A 
ATOM     20  C   UNL A   1      27.278  30.027  23.527  1.00  0.00     0.009 A 
ATOM     21  C   UNL A   1      28.396  32.025  22.766  1.00  0.00     0.001 A 
ATOM     22  C   UNL A   1      27.309  31.415  23.382  1.00  0.00     0.001 A 
BRANCH  15  23
ATOM     23  O   UNL A   1      31.702  29.703  21.641  1.00  0.00    -0.506 OA
ATOM     24  H   UNL A   1      31.586  30.534  21.226  1.00  0.00     0.293 HD
ENDBRANCH  15  23
ENDBRANCH  10  13
ENDBRANCH   5   9
ENDBRANCH   3   5
ENDBRANCH   2   3
ENDBRANCH   1   2
BRANCH   1  25
ATOM     25  C   UNL A   1      31.778  29.666  26.088  1.00  0.00     0.275 C 
BRANCH  25  26
ATOM     26  O   UNL A   1      33.116  30.181  26.051  1.00  0.00    -0.458 OA
BRANCH  26  27
ATOM     27  C   UNL A   1      33.395  31.119  26.977  1.00  0.00     0.338 C 
ATOM     28  O   UNL A   1      32.713  32.054  27.361  1.00  0.00    -0.246 OA
BRANCH  27  29
ATOM     29  C   UNL A   1      34.668  30.788  27.586  1.00  0.00     0.060 A 
ATOM     30  C   UNL A   1      35.511  31.840  27.933  1.00  0.00     0.016 A 
ATOM     31  C   UNL A   1      35.028  29.459  27.785  1.00  0.00     0.016 A 
ATOM     32  C   UNL A   1      36.741  31.574  28.494  1.00  0.00     0.010 A 
ATOM     33  C   UNL A   1      36.231  29.191  28.424  1.00  0.00     0.010 A 
ATOM     34  C   UNL A   1      37.075  30.251  28.797  1.00  0.00    -0.014 A 
BRANCH  34  35
ATOM     35  C   UNL A   1      38.280  29.997  29.600  1.00  0.00     0.031 A 
ATOM     36  C   UNL A   1      39.386  29.174  29.038  1.00  0.00     0.074 A 
ATOM     37  C   UNL A   1      38.327  30.527  30.837  1.00  0.00     0.049 A 
ATOM     38  N   UNL A   1      40.457  28.726  29.634  1.00  0.00    -0.248 NA
ATOM     39  C   UNL A   1      39.266  28.784  27.624  1.00  0.00     0.031 C 
ATOM     40  C   UNL A   1      37.282  31.366  31.435  1.00  0.00     0.029 A 
ATOM     41  N   UNL A   1      39.285  30.450  31.808  1.00  0.00    -0.354 N 
ATOM     42  C   UNL A   1      41.118  27.963  28.684  1.00  0.00     0.074 A 
ATOM     43  C   UNL A   1      40.330  28.009  27.471  1.00  0.00     0.031 C 
ATOM     44  C   UNL A   1      37.674  31.755  32.656  1.00  0.00     0.029 A 
ATOM     45  C   UNL A   1      38.953  31.129  32.955  1.00  0.00     0.049 A 
ATOM     46  H   UNL A   1      40.129  29.956  31.697  1.00  0.00     0.167 HD
ATOM     47  C   UNL A   1      42.276  27.281  28.833  1.00  0.00     0.037 A 
ATOM     48  C   UNL A   1      39.601  31.203  34.129  1.00  0.00     0.037 A 
ATOM     49  C   UNL A   1      43.035  27.279  30.057  1.00  0.00     0.049 A 
ATOM     50  C   UNL A   1      40.886  30.440  34.263  1.00  0.00     0.074 A 
ATOM     51  C   UNL A   1      44.218  26.624  30.344  1.00  0.00     0.029 A 
ATOM     52  N   UNL A   1      42.677  27.982  31.202  1.00  0.00    -0.354 N 
ATOM     53  N   UNL A   1      41.491  29.689  33.373  1.00  0.00    -0.248 NA
ATOM     54  C   UNL A   1      41.568  30.517  35.557  1.00  0.00     0.031 C 
ATOM     55  C   UNL A   1      44.559  26.908  31.672  1.00  0.00     0.029 A 
ATOM     56  C   UNL A   1      43.611  27.772  32.199  1.00  0.00     0.049 A 
ATOM     57  H   UNL A   1      41.875  28.547  31.289  1.00  0.00     0.167 HD
ATOM     58  C   UNL A   1      42.629  29.203  33.995  1.00  0.00     0.074 A 
ATOM     59  C   UNL A   1      42.640  29.770  35.333  1.00  0.00     0.031 C 
ATOM     60  C   UNL A   1      43.575  28.359  33.516  1.00  0.00     0.037 A 
BRANCH  47  61
ATOM     61  C   UNL A   1      42.744  26.459  27.671  1.00  0.00     0.057 A 
ATOM     62  C   UNL A   1      42.370  25.118  27.505  1.00  0.00     0.134 A 
ATOM     63  C   UNL A   1      43.600  27.011  26.710  1.00  0.00     0.134 A 
ATOM     64  F   UNL A   1      41.571  24.520  28.403  1.00  0.00    -0.206 F 
ATOM     65  C   UNL A   1      42.851  24.351  26.442  1.00  0.00     0.040 A 
ATOM     66  C   UNL A   1      44.070  26.261  25.630  1.00  0.00     0.040 A 
ATOM     67  F   UNL A   1      44.003  28.287  26.809  1.00  0.00    -0.206 F 
ATOM     68  C   UNL A   1      43.701  24.924  25.498  1.00  0.00     0.006 A 
ENDBRANCH  47  61
BRANCH  48  69
ATOM     69  C   UNL A   1      39.031  31.999  35.243  1.00  0.00     0.057 A 
ATOM     70  C   UNL A   1      38.283  31.393  36.257  1.00  0.00     0.134 A 
ATOM     71  C   UNL A   1      39.261  33.377  35.349  1.00  0.00     0.134 A 
ATOM     72  F   UNL A   1      38.019  30.078  36.208  1.00  0.00    -0.206 F 
ATOM     73  C   UNL A   1      37.778  32.126  37.333  1.00  0.00     0.040 A 
ATOM     74  C   UNL A   1      38.785  34.119  36.432  1.00  0.00     0.040 A 
ATOM     75  F   UNL A   1      39.983  34.018  34.419  1.00  0.00    -0.206 F 
ATOM     76  C   UNL A   1      38.037  33.492  37.426  1.00  0.00     0.006 A 
ENDBRANCH  48  69
BRANCH  60  77
ATOM     77  C   UNL A   1      44.696  28.025  34.449  1.00  0.00     0.057 A 
ATOM     78  C   UNL A   1      44.639  26.910  35.294  1.00  0.00     0.134 A 
ATOM     79  C   UNL A   1      45.853  28.812  34.479  1.00  0.00     0.134 A 
ATOM     80  F   UNL A   1      43.547  26.130  35.319  1.00  0.00    -0.206 F 
ATOM     81  C   UNL A   1      45.691  26.600  36.154  1.00  0.00     0.040 A 
ATOM     82  C   UNL A   1      46.921  28.498  35.319  1.00  0.00     0.040 A 
ATOM     83  F   UNL A   1      45.964  29.890  33.689  1.00  0.00    -0.206 F 
ATOM     84  C   UNL A   1      46.839  27.391  36.163  1.00  0.00     0.006 A 
ENDBRANCH  60  77
ENDBRANCH  34  35
ENDBRANCH  27  29
ENDBRANCH  26  27
ENDBRANCH  25  26
ENDBRANCH   1  25
TORSDOF 15
ENDMDL
