MODEL 1
REMARK VINA RESULT:     -10.6      0.000      0.000
REMARK SMILES C[C@H](Oc1ccccc1Cl)C(=O)N1CCCC[C@H]1C(=O)OCCOC(=O)c1ccc(-c2c3nc(c(-c4c(F)cccc4F)c4ccc([nH]4)c(-c4c(F)cccc4F)c4nc(c(-c5c(F)cccc5F)c5ccc2[nH]5)C=C4)C=C3)cc1
REMARK SMILES IDX 22 1 21 2 19 3 20 4 18 5 13 6 14 7 15 8 17 9 16 10 11 11
REMARK SMILES IDX 12 12 2 13 1 14 3 15 4 16 5 17 9 18 6 19 8 20 10 21 7 22
REMARK SMILES IDX 23 23 24 24 25 25 26 26 27 27 28 28 80 29 29 30 79 31 30 32
REMARK SMILES IDX 31 33 32 34 73 35 33 36 78 37 72 38 74 39 34 40 77 41 71 42
REMARK SMILES IDX 70 43 35 45 61 46 44 47 60 48 45 49 48 50 59 51 75 52 46 53
REMARK SMILES IDX 47 54 58 56 76 57 49 58 36 59 37 60 42 61 38 62 39 63 41 64
REMARK SMILES IDX 43 65 40 66 62 67 63 68 68 69 64 70 65 71 67 72 69 73 66 74
REMARK SMILES IDX 50 75 51 76 56 77 52 78 53 79 55 80 57 81 54 82
REMARK H PARENT 74 44 48 55
REMARK Flexibility Score: inf
ROOT
ATOM      1  C   UNL A   1      37.915  21.294  25.189  1.00  0.00     0.274 C 
ENDROOT
BRANCH   1   2
ATOM      2  O   UNL A   1      36.652  21.082  25.857  1.00  0.00    -0.461 OA
BRANCH   2   3
ATOM      3  C   UNL A   1      35.538  21.183  25.079  1.00  0.00     0.328 C 
ATOM      4  O   UNL A   1      34.887  20.214  24.701  1.00  0.00    -0.250 OA
BRANCH   3   5
ATOM      5  C   UNL A   1      35.090  22.650  24.873  1.00  0.00     0.195 C 
ATOM      6  N   UNL A   1      33.764  22.841  24.256  1.00  0.00    -0.326 N 
ATOM      7  C   UNL A   1      32.623  22.492  25.101  1.00  0.00     0.120 C 
ATOM      8  C   UNL A   1      32.650  23.202  26.450  1.00  0.00     0.022 C 
ATOM      9  C   UNL A   1      35.133  23.425  26.211  1.00  0.00     0.037 C 
ATOM     10  C   UNL A   1      33.993  23.021  27.144  1.00  0.00     0.005 C 
BRANCH   6  11
ATOM     11  C   UNL A   1      33.540  23.615  23.115  1.00  0.00     0.264 C 
ATOM     12  O   UNL A   1      33.976  23.261  22.014  1.00  0.00    -0.271 OA
BRANCH  11  13
ATOM     13  C   UNL A   1      33.009  25.066  23.298  1.00  0.00     0.259 C 
ATOM     14  C   UNL A   1      32.391  25.422  21.942  1.00  0.00     0.064 C 
BRANCH  13  15
ATOM     15  O   UNL A   1      33.997  25.926  23.841  1.00  0.00    -0.479 OA
BRANCH  15  16
ATOM     16  C   UNL A   1      33.778  26.945  24.726  1.00  0.00     0.139 A 
ATOM     17  C   UNL A   1      33.491  26.805  26.084  1.00  0.00     0.048 A 
ATOM     18  C   UNL A   1      33.701  28.240  24.174  1.00  0.00     0.083 A 
ATOM     19  C   UNL A   1      33.025  27.890  26.840  1.00  0.00     0.004 A 
ATOM     20  C   UNL A   1      33.247  29.328  24.931  1.00  0.00     0.024 A 
ATOM     21  Cl  UNL A   1      34.105  28.538  22.513  1.00  0.00    -0.080 Cl
ATOM     22  C   UNL A   1      32.880  29.146  26.261  1.00  0.00     0.002 A 
ENDBRANCH  15  16
ENDBRANCH  13  15
ENDBRANCH  11  13
ENDBRANCH   6  11
ENDBRANCH   3   5
ENDBRANCH   2   3
ENDBRANCH   1   2
BRANCH   1  23
ATOM     23  C   UNL A   1      38.761  20.016  25.030  1.00  0.00     0.275 C 
BRANCH  23  24
ATOM     24  O   UNL A   1      39.453  19.630  26.240  1.00  0.00    -0.458 OA
BRANCH  24  25
ATOM     25  C   UNL A   1      40.795  19.694  26.123  1.00  0.00     0.338 C 
ATOM     26  O   UNL A   1      41.487  18.863  25.549  1.00  0.00    -0.246 OA
BRANCH  25  27
ATOM     27  C   UNL A   1      41.389  20.950  26.595  1.00  0.00     0.060 A 
ATOM     28  C   UNL A   1      41.172  21.260  27.941  1.00  0.00     0.016 A 
ATOM     29  C   UNL A   1      41.995  21.879  25.752  1.00  0.00     0.016 A 
ATOM     30  C   UNL A   1      41.565  22.480  28.465  1.00  0.00     0.010 A 
ATOM     31  C   UNL A   1      42.380  23.125  26.277  1.00  0.00     0.010 A 
ATOM     32  C   UNL A   1      42.161  23.431  27.634  1.00  0.00    -0.014 A 
BRANCH  32  33
ATOM     33  C   UNL A   1      42.453  24.767  28.203  1.00  0.00     0.031 A 
ATOM     34  C   UNL A   1      43.868  25.138  28.537  1.00  0.00     0.074 A 
ATOM     35  C   UNL A   1      41.472  25.684  28.299  1.00  0.00     0.049 A 
ATOM     36  N   UNL A   1      44.328  26.228  29.097  1.00  0.00    -0.248 NA
ATOM     37  C   UNL A   1      44.905  24.156  28.184  1.00  0.00     0.031 C 
ATOM     38  C   UNL A   1      40.079  25.477  27.898  1.00  0.00     0.029 A 
ATOM     39  N   UNL A   1      41.505  26.982  28.741  1.00  0.00    -0.354 N 
ATOM     40  C   UNL A   1      45.703  26.056  29.183  1.00  0.00     0.074 A 
ATOM     41  C   UNL A   1      46.004  24.754  28.625  1.00  0.00     0.031 C 
ATOM     42  C   UNL A   1      39.394  26.615  28.099  1.00  0.00     0.029 A 
ATOM     43  C   UNL A   1      40.284  27.610  28.690  1.00  0.00     0.049 A 
ATOM     44  H   UNL A   1      42.324  27.421  29.065  1.00  0.00     0.167 HD
ATOM     45  C   UNL A   1      46.628  26.908  29.683  1.00  0.00     0.037 A 
ATOM     46  C   UNL A   1      39.924  28.841  29.096  1.00  0.00     0.037 A 
ATOM     47  C   UNL A   1      46.326  28.210  30.220  1.00  0.00     0.049 A 
ATOM     48  C   UNL A   1      40.962  29.742  29.707  1.00  0.00     0.074 A 
ATOM     49  C   UNL A   1      47.177  29.118  30.825  1.00  0.00     0.029 A 
ATOM     50  N   UNL A   1      45.070  28.797  30.190  1.00  0.00    -0.354 N 
ATOM     51  N   UNL A   1      42.243  29.531  29.880  1.00  0.00    -0.248 NA
ATOM     52  C   UNL A   1      40.498  31.052  30.188  1.00  0.00     0.031 C 
ATOM     53  C   UNL A   1      46.433  30.251  31.175  1.00  0.00     0.029 A 
ATOM     54  C   UNL A   1      45.126  30.060  30.757  1.00  0.00     0.049 A 
ATOM     55  H   UNL A   1      44.259  28.379  29.821  1.00  0.00     0.167 HD
ATOM     56  C   UNL A   1      42.744  30.686  30.465  1.00  0.00     0.074 A 
ATOM     57  C   UNL A   1      41.631  31.602  30.602  1.00  0.00     0.031 C 
ATOM     58  C   UNL A   1      44.010  30.963  30.861  1.00  0.00     0.037 A 
BRANCH  45  59
ATOM     59  C   UNL A   1      48.052  26.442  29.705  1.00  0.00     0.057 A 
ATOM     60  C   UNL A   1      48.928  26.693  28.643  1.00  0.00     0.134 A 
ATOM     61  C   UNL A   1      48.558  25.752  30.814  1.00  0.00     0.134 A 
ATOM     62  F   UNL A   1      48.500  27.332  27.545  1.00  0.00    -0.206 F 
ATOM     63  C   UNL A   1      50.256  26.260  28.676  1.00  0.00     0.040 A 
ATOM     64  C   UNL A   1      49.888  25.333  30.868  1.00  0.00     0.040 A 
ATOM     65  F   UNL A   1      47.769  25.480  31.865  1.00  0.00    -0.206 F 
ATOM     66  C   UNL A   1      50.741  25.584  29.794  1.00  0.00     0.006 A 
ENDBRANCH  45  59
BRANCH  46  67
ATOM     67  C   UNL A   1      38.514  29.290  28.977  1.00  0.00     0.057 A 
ATOM     68  C   UNL A   1      37.641  29.247  30.071  1.00  0.00     0.134 A 
ATOM     69  C   UNL A   1      37.993  29.731  27.754  1.00  0.00     0.134 A 
ATOM     70  F   UNL A   1      38.075  28.809  31.262  1.00  0.00    -0.206 F 
ATOM     71  C   UNL A   1      36.297  29.602  29.949  1.00  0.00     0.040 A 
ATOM     72  C   UNL A   1      36.659  30.115  27.623  1.00  0.00     0.040 A 
ATOM     73  F   UNL A   1      38.777  29.794  26.667  1.00  0.00    -0.206 F 
ATOM     74  C   UNL A   1      35.804  30.041  28.721  1.00  0.00     0.006 A 
ENDBRANCH  46  67
BRANCH  58  75
ATOM     75  C   UNL A   1      44.258  32.329  31.425  1.00  0.00     0.057 A 
ATOM     76  C   UNL A   1      44.151  32.594  32.796  1.00  0.00     0.134 A 
ATOM     77  C   UNL A   1      44.616  33.391  30.584  1.00  0.00     0.134 A 
ATOM     78  F   UNL A   1      43.798  31.623  33.650  1.00  0.00    -0.206 F 
ATOM     79  C   UNL A   1      44.363  33.876  33.307  1.00  0.00     0.040 A 
ATOM     80  C   UNL A   1      44.851  34.670  31.086  1.00  0.00     0.040 A 
ATOM     81  F   UNL A   1      44.741  33.199  29.261  1.00  0.00    -0.206 F 
ATOM     82  C   UNL A   1      44.717  34.917  32.452  1.00  0.00     0.006 A 
ENDBRANCH  58  75
ENDBRANCH  32  33
ENDBRANCH  25  27
ENDBRANCH  24  25
ENDBRANCH  23  24
ENDBRANCH   1  23
TORSDOF 15
ENDMDL
MODEL 2
REMARK VINA RESULT:     -10.4      2.291      6.240
REMARK SMILES C[C@H](Oc1ccccc1Cl)C(=O)N1CCCC[C@H]1C(=O)OCCOC(=O)c1ccc(-c2c3nc(c(-c4c(F)cccc4F)c4ccc([nH]4)c(-c4c(F)cccc4F)c4nc(c(-c5c(F)cccc5F)c5ccc2[nH]5)C=C4)C=C3)cc1
REMARK SMILES IDX 22 1 21 2 19 3 20 4 18 5 13 6 14 7 15 8 17 9 16 10 11 11
REMARK SMILES IDX 12 12 2 13 1 14 3 15 4 16 5 17 9 18 6 19 8 20 10 21 7 22
REMARK SMILES IDX 23 23 24 24 25 25 26 26 27 27 28 28 80 29 29 30 79 31 30 32
REMARK SMILES IDX 31 33 32 34 73 35 33 36 78 37 72 38 74 39 34 40 77 41 71 42
REMARK SMILES IDX 70 43 35 45 61 46 44 47 60 48 45 49 48 50 59 51 75 52 46 53
REMARK SMILES IDX 47 54 58 56 76 57 49 58 36 59 37 60 42 61 38 62 39 63 41 64
REMARK SMILES IDX 43 65 40 66 62 67 63 68 68 69 64 70 65 71 67 72 69 73 66 74
REMARK SMILES IDX 50 75 51 76 56 77 52 78 53 79 55 80 57 81 54 82
REMARK H PARENT 74 44 48 55
REMARK Flexibility Score: inf
ROOT
ATOM      1  C   UNL A   1      34.927  20.311  25.004  1.00  0.00     0.274 C 
ENDROOT
BRANCH   1   2
ATOM      2  O   UNL A   1      33.969  20.964  25.866  1.00  0.00    -0.461 OA
BRANCH   2   3
ATOM      3  C   UNL A   1      32.941  21.605  25.243  1.00  0.00     0.328 C 
ATOM      4  O   UNL A   1      31.857  21.078  25.014  1.00  0.00    -0.250 OA
BRANCH   3   5
ATOM      5  C   UNL A   1      33.229  23.108  25.016  1.00  0.00     0.195 C 
ATOM      6  N   UNL A   1      32.548  23.732  23.866  1.00  0.00    -0.326 N 
ATOM      7  C   UNL A   1      31.105  23.914  24.015  1.00  0.00     0.120 C 
ATOM      8  C   UNL A   1      30.736  24.676  25.283  1.00  0.00     0.022 C 
ATOM      9  C   UNL A   1      32.902  23.923  26.290  1.00  0.00     0.037 C 
ATOM     10  C   UNL A   1      31.398  24.063  26.510  1.00  0.00     0.005 C 
BRANCH   6  11
ATOM     11  C   UNL A   1      33.210  24.429  22.854  1.00  0.00     0.264 C 
ATOM     12  O   UNL A   1      34.375  24.152  22.550  1.00  0.00    -0.271 OA
BRANCH  11  13
ATOM     13  C   UNL A   1      32.577  25.752  22.331  1.00  0.00     0.259 C 
ATOM     14  C   UNL A   1      32.527  25.579  20.810  1.00  0.00     0.064 C 
BRANCH  13  15
ATOM     15  O   UNL A   1      33.225  26.895  22.864  1.00  0.00    -0.479 OA
BRANCH  15  16
ATOM     16  C   UNL A   1      33.039  27.414  24.115  1.00  0.00     0.139 A 
ATOM     17  C   UNL A   1      33.882  27.234  25.212  1.00  0.00     0.048 A 
ATOM     18  C   UNL A   1      31.812  28.072  24.338  1.00  0.00     0.083 A 
ATOM     19  C   UNL A   1      33.470  27.584  26.506  1.00  0.00     0.004 A 
ATOM     20  C   UNL A   1      31.404  28.433  25.629  1.00  0.00     0.024 A 
ATOM     21  Cl  UNL A   1      30.720  28.410  23.033  1.00  0.00    -0.080 Cl
ATOM     22  C   UNL A   1      32.224  28.161  26.720  1.00  0.00     0.002 A 
ENDBRANCH  15  16
ENDBRANCH  13  15
ENDBRANCH  11  13
ENDBRANCH   6  11
ENDBRANCH   3   5
ENDBRANCH   2   3
ENDBRANCH   1   2
BRANCH   1  23
ATOM     23  C   UNL A   1      36.220  21.119  24.779  1.00  0.00     0.275 C 
BRANCH  23  24
ATOM     24  O   UNL A   1      36.903  21.464  26.006  1.00  0.00    -0.458 OA
BRANCH  24  25
ATOM     25  C   UNL A   1      38.245  21.380  25.903  1.00  0.00     0.338 C 
ATOM     26  O   UNL A   1      38.846  20.531  25.258  1.00  0.00    -0.246 OA
BRANCH  25  27
ATOM     27  C   UNL A   1      38.973  22.510  26.493  1.00  0.00     0.060 A 
ATOM     28  C   UNL A   1      38.531  23.783  26.119  1.00  0.00     0.016 A 
ATOM     29  C   UNL A   1      40.134  22.368  27.249  1.00  0.00     0.016 A 
ATOM     30  C   UNL A   1      39.223  24.921  26.500  1.00  0.00     0.010 A 
ATOM     31  C   UNL A   1      40.848  23.519  27.625  1.00  0.00     0.010 A 
ATOM     32  C   UNL A   1      40.397  24.798  27.246  1.00  0.00    -0.014 A 
BRANCH  32  33
ATOM     33  C   UNL A   1      41.173  26.028  27.529  1.00  0.00     0.031 A 
ATOM     34  C   UNL A   1      40.583  27.094  28.404  1.00  0.00     0.074 A 
ATOM     35  C   UNL A   1      42.447  26.129  27.105  1.00  0.00     0.049 A 
ATOM     36  N   UNL A   1      41.069  28.266  28.724  1.00  0.00    -0.248 NA
ATOM     37  C   UNL A   1      39.275  26.796  29.010  1.00  0.00     0.031 C 
ATOM     38  C   UNL A   1      43.169  25.107  26.344  1.00  0.00     0.029 A 
ATOM     39  N   UNL A   1      43.369  27.130  27.280  1.00  0.00    -0.354 N 
ATOM     40  C   UNL A   1      40.120  28.855  29.549  1.00  0.00     0.074 A 
ATOM     41  C   UNL A   1      39.026  27.915  29.676  1.00  0.00     0.031 C 
ATOM     42  C   UNL A   1      44.426  25.529  26.130  1.00  0.00     0.029 A 
ATOM     43  C   UNL A   1      44.582  26.867  26.691  1.00  0.00     0.049 A 
ATOM     44  H   UNL A   1      43.178  27.957  27.779  1.00  0.00     0.167 HD
ATOM     45  C   UNL A   1      40.161  30.070  30.145  1.00  0.00     0.037 A 
ATOM     46  C   UNL A   1      45.684  27.633  26.598  1.00  0.00     0.037 A 
ATOM     47  C   UNL A   1      41.260  30.993  30.030  1.00  0.00     0.049 A 
ATOM     48  C   UNL A   1      45.677  29.005  27.216  1.00  0.00     0.074 A 
ATOM     49  C   UNL A   1      41.366  32.281  30.526  1.00  0.00     0.029 A 
ATOM     50  N   UNL A   1      42.457  30.710  29.390  1.00  0.00    -0.354 N 
ATOM     51  N   UNL A   1      44.734  29.595  27.908  1.00  0.00    -0.248 NA
ATOM     52  C   UNL A   1      46.887  29.820  27.030  1.00  0.00     0.031 C 
ATOM     53  C   UNL A   1      42.625  32.784  30.174  1.00  0.00     0.029 A 
ATOM     54  C   UNL A   1      43.312  31.796  29.487  1.00  0.00     0.049 A 
ATOM     55  H   UNL A   1      42.668  29.865  28.934  1.00  0.00     0.167 HD
ATOM     56  C   UNL A   1      45.243  30.838  28.261  1.00  0.00     0.074 A 
ATOM     57  C   UNL A   1      46.585  30.909  27.721  1.00  0.00     0.031 C 
ATOM     58  C   UNL A   1      44.652  31.835  28.963  1.00  0.00     0.037 A 
BRANCH  45  59
ATOM     59  C   UNL A   1      38.963  30.483  30.946  1.00  0.00     0.057 A 
ATOM     60  C   UNL A   1      37.891  31.173  30.370  1.00  0.00     0.134 A 
ATOM     61  C   UNL A   1      38.874  30.165  32.308  1.00  0.00     0.134 A 
ATOM     62  F   UNL A   1      37.924  31.523  29.076  1.00  0.00    -0.206 F 
ATOM     63  C   UNL A   1      36.776  31.547  31.124  1.00  0.00     0.040 A 
ATOM     64  C   UNL A   1      37.756  30.514  33.066  1.00  0.00     0.040 A 
ATOM     65  F   UNL A   1      39.869  29.503  32.919  1.00  0.00    -0.206 F 
ATOM     66  C   UNL A   1      36.704  31.211  32.475  1.00  0.00     0.006 A 
ENDBRANCH  45  59
BRANCH  46  67
ATOM     67  C   UNL A   1      46.879  27.146  25.864  1.00  0.00     0.057 A 
ATOM     68  C   UNL A   1      47.862  26.379  26.500  1.00  0.00     0.134 A 
ATOM     69  C   UNL A   1      47.089  27.475  24.519  1.00  0.00     0.134 A 
ATOM     70  F   UNL A   1      47.730  26.054  27.794  1.00  0.00    -0.206 F 
ATOM     71  C   UNL A   1      49.020  25.976  25.835  1.00  0.00     0.040 A 
ATOM     72  C   UNL A   1      48.229  27.057  23.833  1.00  0.00     0.040 A 
ATOM     73  F   UNL A   1      46.186  28.210  23.852  1.00  0.00    -0.206 F 
ATOM     74  C   UNL A   1      49.204  26.314  24.494  1.00  0.00     0.006 A 
ENDBRANCH  46  67
BRANCH  58  75
ATOM     75  C   UNL A   1      45.478  33.057  29.229  1.00  0.00     0.057 A 
ATOM     76  C   UNL A   1      46.305  33.161  30.354  1.00  0.00     0.134 A 
ATOM     77  C   UNL A   1      45.450  34.140  28.340  1.00  0.00     0.134 A 
ATOM     78  F   UNL A   1      46.364  32.163  31.248  1.00  0.00    -0.206 F 
ATOM     79  C   UNL A   1      47.054  34.313  30.602  1.00  0.00     0.040 A 
ATOM     80  C   UNL A   1      46.210  35.286  28.567  1.00  0.00     0.040 A 
ATOM     81  F   UNL A   1      44.682  34.099  27.240  1.00  0.00    -0.206 F 
ATOM     82  C   UNL A   1      47.010  35.378  29.705  1.00  0.00     0.006 A 
ENDBRANCH  58  75
ENDBRANCH  32  33
ENDBRANCH  25  27
ENDBRANCH  24  25
ENDBRANCH  23  24
ENDBRANCH   1  23
TORSDOF 15
ENDMDL
MODEL 3
REMARK VINA RESULT:     -10.3      3.425      8.613
REMARK SMILES C[C@H](Oc1ccccc1Cl)C(=O)N1CCCC[C@H]1C(=O)OCCOC(=O)c1ccc(-c2c3nc(c(-c4c(F)cccc4F)c4ccc([nH]4)c(-c4c(F)cccc4F)c4nc(c(-c5c(F)cccc5F)c5ccc2[nH]5)C=C4)C=C3)cc1
REMARK SMILES IDX 22 1 21 2 19 3 20 4 18 5 13 6 14 7 15 8 17 9 16 10 11 11
REMARK SMILES IDX 12 12 2 13 1 14 3 15 4 16 5 17 9 18 6 19 8 20 10 21 7 22
REMARK SMILES IDX 23 23 24 24 25 25 26 26 27 27 28 28 80 29 29 30 79 31 30 32
REMARK SMILES IDX 31 33 32 34 73 35 33 36 78 37 72 38 74 39 34 40 77 41 71 42
REMARK SMILES IDX 70 43 35 45 61 46 44 47 60 48 45 49 48 50 59 51 75 52 46 53
REMARK SMILES IDX 47 54 58 56 76 57 49 58 36 59 37 60 42 61 38 62 39 63 41 64
REMARK SMILES IDX 43 65 40 66 62 67 63 68 68 69 64 70 65 71 67 72 69 73 66 74
REMARK SMILES IDX 50 75 51 76 56 77 52 78 53 79 55 80 57 81 54 82
REMARK H PARENT 74 44 48 55
REMARK Flexibility Score: inf
ROOT
ATOM      1  C   UNL A   1      32.609  30.540  27.036  1.00  0.00     0.274 C 
ENDROOT
BRANCH   1   2
ATOM      2  O   UNL A   1      31.792  29.567  26.348  1.00  0.00    -0.461 OA
BRANCH   2   3
ATOM      3  C   UNL A   1      31.674  28.351  26.951  1.00  0.00     0.328 C 
ATOM      4  O   UNL A   1      31.172  28.192  28.059  1.00  0.00    -0.250 OA
BRANCH   3   5
ATOM      5  C   UNL A   1      32.079  27.186  26.018  1.00  0.00     0.195 C 
ATOM      6  N   UNL A   1      31.320  25.931  26.182  1.00  0.00    -0.326 N 
ATOM      7  C   UNL A   1      29.935  25.972  25.717  1.00  0.00     0.120 C 
ATOM      8  C   UNL A   1      29.812  26.441  24.271  1.00  0.00     0.022 C 
ATOM      9  C   UNL A   1      32.005  27.623  24.536  1.00  0.00     0.037 C 
ATOM     10  C   UNL A   1      30.563  27.747  24.047  1.00  0.00     0.005 C 
BRANCH   6  11
ATOM     11  C   UNL A   1      31.911  24.688  26.417  1.00  0.00     0.264 C 
ATOM     12  O   UNL A   1      31.552  23.986  27.369  1.00  0.00    -0.271 OA
BRANCH  11  13
ATOM     13  C   UNL A   1      33.226  24.339  25.661  1.00  0.00     0.259 C 
ATOM     14  C   UNL A   1      32.766  23.950  24.252  1.00  0.00     0.064 C 
BRANCH  13  15
ATOM     15  O   UNL A   1      34.029  23.426  26.390  1.00  0.00    -0.479 OA
BRANCH  15  16
ATOM     16  C   UNL A   1      35.180  22.837  25.947  1.00  0.00     0.139 A 
ATOM     17  C   UNL A   1      36.371  23.493  25.637  1.00  0.00     0.048 A 
ATOM     18  C   UNL A   1      35.097  21.461  25.650  1.00  0.00     0.083 A 
ATOM     19  C   UNL A   1      37.399  22.837  24.944  1.00  0.00     0.004 A 
ATOM     20  C   UNL A   1      36.129  20.800  24.969  1.00  0.00     0.024 A 
ATOM     21  Cl  UNL A   1      33.690  20.533  26.058  1.00  0.00    -0.080 Cl
ATOM     22  C   UNL A   1      37.271  21.499  24.589  1.00  0.00     0.002 A 
ENDBRANCH  15  16
ENDBRANCH  13  15
ENDBRANCH  11  13
ENDBRANCH   6  11
ENDBRANCH   3   5
ENDBRANCH   2   3
ENDBRANCH   1   2
BRANCH   1  23
ATOM     23  C   UNL A   1      31.913  31.897  27.257  1.00  0.00     0.275 C 
BRANCH  23  24
ATOM     24  O   UNL A   1      32.731  33.030  26.883  1.00  0.00    -0.458 OA
BRANCH  24  25
ATOM     25  C   UNL A   1      33.053  33.817  27.929  1.00  0.00     0.338 C 
ATOM     26  O   UNL A   1      32.342  34.706  28.381  1.00  0.00    -0.246 OA
BRANCH  25  27
ATOM     27  C   UNL A   1      34.279  33.423  28.633  1.00  0.00     0.060 A 
ATOM     28  C   UNL A   1      35.471  33.580  27.919  1.00  0.00     0.016 A 
ATOM     29  C   UNL A   1      34.284  32.779  29.869  1.00  0.00     0.016 A 
ATOM     30  C   UNL A   1      36.674  33.116  28.425  1.00  0.00     0.010 A 
ATOM     31  C   UNL A   1      35.500  32.293  30.378  1.00  0.00     0.010 A 
ATOM     32  C   UNL A   1      36.698  32.455  29.655  1.00  0.00    -0.014 A 
BRANCH  32  33
ATOM     33  C   UNL A   1      37.981  31.867  30.103  1.00  0.00     0.031 A 
ATOM     34  C   UNL A   1      38.730  32.497  31.240  1.00  0.00     0.074 A 
ATOM     35  C   UNL A   1      38.405  30.703  29.575  1.00  0.00     0.049 A 
ATOM     36  N   UNL A   1      39.895  32.176  31.743  1.00  0.00    -0.248 NA
ATOM     37  C   UNL A   1      38.076  33.634  31.907  1.00  0.00     0.031 C 
ATOM     38  C   UNL A   1      37.703  29.936  28.544  1.00  0.00     0.029 A 
ATOM     39  N   UNL A   1      39.517  29.949  29.855  1.00  0.00    -0.354 N 
ATOM     40  C   UNL A   1      40.124  33.082  32.770  1.00  0.00     0.074 A 
ATOM     41  C   UNL A   1      38.981  33.970  32.816  1.00  0.00     0.031 C 
ATOM     42  C   UNL A   1      38.395  28.813  28.289  1.00  0.00     0.029 A 
ATOM     43  C   UNL A   1      39.610  28.807  29.098  1.00  0.00     0.049 A 
ATOM     44  H   UNL A   1      40.184  30.203  30.533  1.00  0.00     0.167 HD
ATOM     45  C   UNL A   1      41.192  33.162  33.599  1.00  0.00     0.037 A 
ATOM     46  C   UNL A   1      40.580  27.876  29.048  1.00  0.00     0.037 A 
ATOM     47  C   UNL A   1      42.316  32.263  33.563  1.00  0.00     0.049 A 
ATOM     48  C   UNL A   1      41.785  28.027  29.936  1.00  0.00     0.074 A 
ATOM     49  C   UNL A   1      43.485  32.307  34.302  1.00  0.00     0.029 A 
ATOM     50  N   UNL A   1      42.396  31.141  32.752  1.00  0.00    -0.354 N 
ATOM     51  N   UNL A   1      42.041  28.946  30.834  1.00  0.00    -0.248 NA
ATOM     52  C   UNL A   1      42.840  27.012  29.796  1.00  0.00     0.031 C 
ATOM     53  C   UNL A   1      44.281  31.216  33.929  1.00  0.00     0.029 A 
ATOM     54  C   UNL A   1      43.590  30.477  32.982  1.00  0.00     0.049 A 
ATOM     55  H   UNL A   1      41.707  30.858  32.109  1.00  0.00     0.167 HD
ATOM     56  C   UNL A   1      43.272  28.609  31.382  1.00  0.00     0.074 A 
ATOM     57  C   UNL A   1      43.702  27.391  30.728  1.00  0.00     0.031 C 
ATOM     58  C   UNL A   1      43.986  29.254  32.336  1.00  0.00     0.037 A 
BRANCH  45  59
ATOM     59  C   UNL A   1      41.207  34.283  34.593  1.00  0.00     0.057 A 
ATOM     60  C   UNL A   1      41.740  35.539  34.282  1.00  0.00     0.134 A 
ATOM     61  C   UNL A   1      40.660  34.110  35.871  1.00  0.00     0.134 A 
ATOM     62  F   UNL A   1      42.295  35.764  33.082  1.00  0.00    -0.206 F 
ATOM     63  C   UNL A   1      41.743  36.581  35.213  1.00  0.00     0.040 A 
ATOM     64  C   UNL A   1      40.638  35.148  36.803  1.00  0.00     0.040 A 
ATOM     65  F   UNL A   1      40.133  32.929  36.231  1.00  0.00    -0.206 F 
ATOM     66  C   UNL A   1      41.184  36.388  36.475  1.00  0.00     0.006 A 
ENDBRANCH  45  59
BRANCH  46  67
ATOM     67  C   UNL A   1      40.480  26.735  28.105  1.00  0.00     0.057 A 
ATOM     68  C   UNL A   1      41.124  26.759  26.862  1.00  0.00     0.134 A 
ATOM     69  C   UNL A   1      39.699  25.611  28.404  1.00  0.00     0.134 A 
ATOM     70  F   UNL A   1      41.865  27.818  26.508  1.00  0.00    -0.206 F 
ATOM     71  C   UNL A   1      40.978  25.720  25.942  1.00  0.00     0.040 A 
ATOM     72  C   UNL A   1      39.565  24.553  27.505  1.00  0.00     0.040 A 
ATOM     73  F   UNL A   1      39.053  25.528  29.577  1.00  0.00    -0.206 F 
ATOM     74  C   UNL A   1      40.198  24.610  26.265  1.00  0.00     0.006 A 
ENDBRANCH  46  67
BRANCH  58  75
ATOM     75  C   UNL A   1      45.276  28.617  32.761  1.00  0.00     0.057 A 
ATOM     76  C   UNL A   1      45.337  27.709  33.825  1.00  0.00     0.134 A 
ATOM     77  C   UNL A   1      46.468  28.913  32.089  1.00  0.00     0.134 A 
ATOM     78  F   UNL A   1      44.231  27.397  34.516  1.00  0.00    -0.206 F 
ATOM     79  C   UNL A   1      46.547  27.139  34.225  1.00  0.00     0.040 A 
ATOM     80  C   UNL A   1      47.679  28.333  32.466  1.00  0.00     0.040 A 
ATOM     81  F   UNL A   1      46.474  29.770  31.056  1.00  0.00    -0.206 F 
ATOM     82  C   UNL A   1      47.721  27.448  33.542  1.00  0.00     0.006 A 
ENDBRANCH  58  75
ENDBRANCH  32  33
ENDBRANCH  25  27
ENDBRANCH  24  25
ENDBRANCH  23  24
ENDBRANCH   1  23
TORSDOF 15
ENDMDL
