MODEL 1
REMARK VINA RESULT:     -12.0      0.000      0.000
REMARK SMILES O=C(OCCOC(=O)[C@H]1CC2(CC[NH+](C(=O)C3CC3)CC2)CN1C(=O)CCn1cccn1)c1ccc(-c2c3nc(c(-c4c(F)cccc4F)c4ccc([nH]4)c(-c4c(F)cccc4F)c4nc(c(-c5c(F)cccc5F)c5ccc2[nH]5)C=C4)C=C3)cc1
REMARK SMILES IDX 5 1 4 2 3 3 2 4 1 5 33 6 34 7 86 8 35 9 85 10 36 11 37 12
REMARK SMILES IDX 38 13 79 14 39 15 84 16 78 17 80 18 40 19 83 20 77 21 76 22
REMARK SMILES IDX 41 24 67 25 50 26 66 27 51 28 54 29 65 30 81 31 52 32 53 33
REMARK SMILES IDX 64 35 82 36 55 37 42 38 43 39 48 40 44 41 45 42 47 43 49 44
REMARK SMILES IDX 46 45 68 46 69 47 74 48 70 49 71 50 73 51 75 52 72 53 56 54
REMARK SMILES IDX 57 55 62 56 58 57 59 58 61 59 63 60 60 61 6 62 7 63 8 64
REMARK SMILES IDX 9 65 10 66 23 67 11 68 22 69 12 70 21 71 13 72 20 73 14 74
REMARK SMILES IDX 24 76 25 77 26 78 27 79 28 80 29 81 32 82 30 83 31 84 15 85
REMARK SMILES IDX 16 86 17 87 18 88 19 89
REMARK H PARENT 80 23 54 34 14 75
REMARK Flexibility Score: inf
ROOT
ATOM      1  C   UNL A   1      33.869  28.571  27.264  1.00  0.00     0.274 C 
ENDROOT
BRANCH   1   2
ATOM      2  C   UNL A   1      34.794  29.781  27.535  1.00  0.00     0.275 C 
BRANCH   2   3
ATOM      3  O   UNL A   1      36.163  29.414  27.494  1.00  0.00    -0.458 OA
BRANCH   3   4
ATOM      4  C   UNL A   1      36.792  29.328  28.694  1.00  0.00     0.338 C 
ATOM      5  O   UNL A   1      36.381  29.647  29.785  1.00  0.00    -0.246 OA
BRANCH   4   6
ATOM      6  C   UNL A   1      38.187  28.939  28.394  1.00  0.00     0.060 A 
ATOM      7  C   UNL A   1      38.857  28.034  29.220  1.00  0.00     0.016 A 
ATOM      8  C   UNL A   1      38.792  29.430  27.231  1.00  0.00     0.016 A 
ATOM      9  C   UNL A   1      40.165  27.719  28.942  1.00  0.00     0.010 A 
ATOM     10  C   UNL A   1      40.081  29.048  26.907  1.00  0.00     0.010 A 
ATOM     11  C   UNL A   1      40.784  28.260  27.804  1.00  0.00    -0.014 A 
BRANCH  11  12
ATOM     12  C   UNL A   1      42.194  27.966  27.630  1.00  0.00     0.031 A 
ATOM     13  C   UNL A   1      42.458  26.685  26.928  1.00  0.00     0.074 A 
ATOM     14  C   UNL A   1      43.163  28.711  28.194  1.00  0.00     0.049 A 
ATOM     15  N   UNL A   1      42.708  25.548  27.487  1.00  0.00    -0.248 NA
ATOM     16  C   UNL A   1      42.195  26.597  25.488  1.00  0.00     0.031 C 
ATOM     17  C   UNL A   1      43.115  30.059  28.765  1.00  0.00     0.029 A 
ATOM     18  N   UNL A   1      44.462  28.352  28.374  1.00  0.00    -0.354 N 
ATOM     19  C   UNL A   1      42.814  24.620  26.459  1.00  0.00     0.074 A 
ATOM     20  C   UNL A   1      42.348  25.287  25.271  1.00  0.00     0.031 C 
ATOM     21  C   UNL A   1      44.374  30.486  29.025  1.00  0.00     0.029 A 
ATOM     22  C   UNL A   1      45.287  29.378  28.816  1.00  0.00     0.049 A 
ATOM     23  H   UNL A   1      44.790  27.440  28.206  1.00  0.00     0.167 HD
ATOM     24  C   UNL A   1      43.471  23.445  26.660  1.00  0.00     0.037 A 
ATOM     25  C   UNL A   1      46.631  29.295  28.985  1.00  0.00     0.037 A 
ATOM     26  C   UNL A   1      43.594  23.160  28.069  1.00  0.00     0.049 A 
ATOM     27  C   UNL A   1      46.950  27.856  29.190  1.00  0.00     0.074 A 
ATOM     28  C   UNL A   1      42.696  22.894  29.084  1.00  0.00     0.029 A 
ATOM     29  N   UNL A   1      44.765  23.523  28.690  1.00  0.00    -0.354 N 
ATOM     30  N   UNL A   1      46.579  27.193  30.252  1.00  0.00    -0.248 NA
ATOM     31  C   UNL A   1      47.207  27.047  28.006  1.00  0.00     0.031 C 
ATOM     32  C   UNL A   1      43.209  23.589  30.218  1.00  0.00     0.029 A 
ATOM     33  C   UNL A   1      44.430  24.161  29.857  1.00  0.00     0.049 A 
ATOM     34  H   UNL A   1      45.677  23.356  28.359  1.00  0.00     0.167 HD
ATOM     35  C   UNL A   1      46.146  25.964  29.772  1.00  0.00     0.074 A 
ATOM     36  C   UNL A   1      46.603  25.915  28.383  1.00  0.00     0.031 C 
ATOM     37  C   UNL A   1      45.214  25.225  30.442  1.00  0.00     0.037 A 
BRANCH  24  38
ATOM     38  C   UNL A   1      44.350  22.780  25.632  1.00  0.00     0.057 A 
ATOM     39  C   UNL A   1      44.219  21.395  25.414  1.00  0.00     0.134 A 
ATOM     40  C   UNL A   1      45.519  23.360  25.102  1.00  0.00     0.134 A 
ATOM     41  F   UNL A   1      43.143  20.726  25.859  1.00  0.00    -0.206 F 
ATOM     42  C   UNL A   1      45.229  20.629  24.821  1.00  0.00     0.040 A 
ATOM     43  C   UNL A   1      46.515  22.612  24.471  1.00  0.00     0.040 A 
ATOM     44  F   UNL A   1      45.814  24.656  25.252  1.00  0.00    -0.206 F 
ATOM     45  C   UNL A   1      46.391  21.236  24.363  1.00  0.00     0.006 A 
ENDBRANCH  24  38
BRANCH  25  46
ATOM     46  C   UNL A   1      47.639  30.284  28.537  1.00  0.00     0.057 A 
ATOM     47  C   UNL A   1      47.590  30.846  27.254  1.00  0.00     0.134 A 
ATOM     48  C   UNL A   1      48.504  30.911  29.453  1.00  0.00     0.134 A 
ATOM     49  F   UNL A   1      46.762  30.348  26.326  1.00  0.00    -0.206 F 
ATOM     50  C   UNL A   1      48.344  31.978  26.907  1.00  0.00     0.040 A 
ATOM     51  C   UNL A   1      49.259  32.039  29.120  1.00  0.00     0.040 A 
ATOM     52  F   UNL A   1      48.574  30.502  30.728  1.00  0.00    -0.206 F 
ATOM     53  C   UNL A   1      49.173  32.586  27.846  1.00  0.00     0.006 A 
ENDBRANCH  25  46
BRANCH  37  54
ATOM     54  C   UNL A   1      44.807  25.669  31.819  1.00  0.00     0.057 A 
ATOM     55  C   UNL A   1      45.501  25.335  32.993  1.00  0.00     0.134 A 
ATOM     56  C   UNL A   1      43.793  26.626  31.934  1.00  0.00     0.134 A 
ATOM     57  F   UNL A   1      46.545  24.497  32.964  1.00  0.00    -0.206 F 
ATOM     58  C   UNL A   1      45.184  25.917  34.226  1.00  0.00     0.040 A 
ATOM     59  C   UNL A   1      43.486  27.234  33.152  1.00  0.00     0.040 A 
ATOM     60  F   UNL A   1      43.125  27.034  30.843  1.00  0.00    -0.206 F 
ATOM     61  C   UNL A   1      44.179  26.877  34.306  1.00  0.00     0.006 A 
ENDBRANCH  37  54
ENDBRANCH  11  12
ENDBRANCH   4   6
ENDBRANCH   3   4
ENDBRANCH   2   3
ENDBRANCH   1   2
BRANCH   1  62
ATOM     62  O   UNL A   1      34.035  27.838  26.015  1.00  0.00    -0.461 OA
BRANCH  62  63
ATOM     63  C   UNL A   1      33.292  26.702  25.984  1.00  0.00     0.328 C 
ATOM     64  O   UNL A   1      32.167  26.690  26.440  1.00  0.00    -0.250 OA
BRANCH  63  65
ATOM     65  C   UNL A   1      33.913  25.494  25.292  1.00  0.00     0.195 C 
ATOM     66  C   UNL A   1      33.329  24.096  25.544  1.00  0.00     0.046 C 
ATOM     67  N   UNL A   1      34.068  25.462  23.815  1.00  0.00    -0.328 N 
ATOM     68  C   UNL A   1      34.003  23.177  24.454  1.00  0.00     0.001 C 
ATOM     69  C   UNL A   1      34.756  24.191  23.554  1.00  0.00     0.128 C 
ATOM     70  C   UNL A   1      32.983  22.419  23.577  1.00  0.00     0.071 C 
ATOM     71  C   UNL A   1      34.938  22.122  25.081  1.00  0.00     0.071 C 
ATOM     72  C   UNL A   1      32.234  21.321  24.321  1.00  0.00     0.270 C 
ATOM     73  C   UNL A   1      34.158  21.022  25.820  1.00  0.00     0.270 C 
ATOM     74  N   UNL A   1      33.148  20.387  24.965  1.00  0.00    -0.272 N 
ATOM     75  H   UNL A   1      33.052  21.165  25.562  1.00  0.00     0.356 HD
BRANCH  67  76
ATOM     76  C   UNL A   1      33.236  25.947  22.800  1.00  0.00     0.225 C 
ATOM     77  O   UNL A   1      33.664  26.844  22.055  1.00  0.00    -0.275 OA
BRANCH  76  78
ATOM     78  C   UNL A   1      31.740  25.630  22.654  1.00  0.00     0.124 C 
BRANCH  78  79
ATOM     79  C   UNL A   1      30.582  26.266  23.454  1.00  0.00     0.154 C 
BRANCH  79  80
ATOM     80  N   UNL A   1      29.921  27.466  22.995  1.00  0.00    -0.272 N 
ATOM     81  C   UNL A   1      28.655  27.883  23.290  1.00  0.00     0.108 A 
ATOM     82  N   UNL A   1      30.532  28.284  22.103  1.00  0.00    -0.182 NA
ATOM     83  C   UNL A   1      28.540  29.146  22.751  1.00  0.00     0.042 A 
ATOM     84  C   UNL A   1      29.737  29.351  22.047  1.00  0.00     0.135 A 
ENDBRANCH  79  80
ENDBRANCH  78  79
ENDBRANCH  76  78
ENDBRANCH  67  76
BRANCH  74  85
ATOM     85  C   UNL A   1      33.074  18.988  24.984  1.00  0.00     0.315 C 
ATOM     86  O   UNL A   1      32.312  18.417  25.765  1.00  0.00    -0.231 OA
BRANCH  85  87
ATOM     87  C   UNL A   1      33.892  18.069  24.129  1.00  0.00     0.119 C 
ATOM     88  C   UNL A   1      33.777  16.598  23.858  1.00  0.00     0.019 C 
ATOM     89  C   UNL A   1      33.382  17.587  22.792  1.00  0.00     0.019 C 
ENDBRANCH  85  87
ENDBRANCH  74  85
ENDBRANCH  63  65
ENDBRANCH  62  63
ENDBRANCH   1  62
TORSDOF 17
ENDMDL
MODEL 2
REMARK VINA RESULT:     -11.9      2.205      6.198
REMARK SMILES O=C(OCCOC(=O)[C@H]1CC2(CC[NH+](C(=O)C3CC3)CC2)CN1C(=O)CCn1cccn1)c1ccc(-c2c3nc(c(-c4c(F)cccc4F)c4ccc([nH]4)c(-c4c(F)cccc4F)c4nc(c(-c5c(F)cccc5F)c5ccc2[nH]5)C=C4)C=C3)cc1
REMARK SMILES IDX 5 1 4 2 3 3 2 4 1 5 33 6 34 7 86 8 35 9 85 10 36 11 37 12
REMARK SMILES IDX 38 13 79 14 39 15 84 16 78 17 80 18 40 19 83 20 77 21 76 22
REMARK SMILES IDX 41 24 67 25 50 26 66 27 51 28 54 29 65 30 81 31 52 32 53 33
REMARK SMILES IDX 64 35 82 36 55 37 42 38 43 39 48 40 44 41 45 42 47 43 49 44
REMARK SMILES IDX 46 45 68 46 69 47 74 48 70 49 71 50 73 51 75 52 72 53 56 54
REMARK SMILES IDX 57 55 62 56 58 57 59 58 61 59 63 60 60 61 6 62 7 63 8 64
REMARK SMILES IDX 9 65 10 66 23 67 11 68 22 69 12 70 21 71 13 72 20 73 14 74
REMARK SMILES IDX 24 76 25 77 26 78 27 79 28 80 29 81 32 82 30 83 31 84 15 85
REMARK SMILES IDX 16 86 17 87 18 88 19 89
REMARK H PARENT 80 23 54 34 14 75
REMARK Flexibility Score: inf
ROOT
ATOM      1  C   UNL A   1      32.908  30.039  26.595  1.00  0.00     0.274 C 
ENDROOT
BRANCH   1   2
ATOM      2  C   UNL A   1      33.255  31.372  27.300  1.00  0.00     0.275 C 
BRANCH   2   3
ATOM      3  O   UNL A   1      34.304  31.211  28.241  1.00  0.00    -0.458 OA
BRANCH   3   4
ATOM      4  C   UNL A   1      35.398  31.991  28.050  1.00  0.00     0.338 C 
ATOM      5  O   UNL A   1      35.455  33.120  27.626  1.00  0.00    -0.246 OA
BRANCH   4   6
ATOM      6  C   UNL A   1      36.567  31.113  28.284  1.00  0.00     0.060 A 
ATOM      7  C   UNL A   1      36.588  29.818  27.763  1.00  0.00     0.016 A 
ATOM      8  C   UNL A   1      37.675  31.630  28.966  1.00  0.00     0.016 A 
ATOM      9  C   UNL A   1      37.667  29.010  28.028  1.00  0.00     0.010 A 
ATOM     10  C   UNL A   1      38.796  30.843  29.161  1.00  0.00     0.010 A 
ATOM     11  C   UNL A   1      38.752  29.516  28.761  1.00  0.00    -0.014 A 
BRANCH  11  12
ATOM     12  C   UNL A   1      39.808  28.578  29.089  1.00  0.00     0.031 A 
ATOM     13  C   UNL A   1      40.058  28.440  30.545  1.00  0.00     0.074 A 
ATOM     14  C   UNL A   1      40.588  28.010  28.149  1.00  0.00     0.049 A 
ATOM     15  N   UNL A   1      40.961  29.065  31.226  1.00  0.00    -0.248 NA
ATOM     16  C   UNL A   1      39.078  27.725  31.370  1.00  0.00     0.031 C 
ATOM     17  C   UNL A   1      40.402  27.895  26.702  1.00  0.00     0.029 A 
ATOM     18  N   UNL A   1      41.786  27.398  28.350  1.00  0.00    -0.354 N 
ATOM     19  C   UNL A   1      40.784  28.690  32.551  1.00  0.00     0.074 A 
ATOM     20  C   UNL A   1      39.530  27.983  32.600  1.00  0.00     0.031 C 
ATOM     21  C   UNL A   1      41.338  27.061  26.190  1.00  0.00     0.029 A 
ATOM     22  C   UNL A   1      42.291  26.741  27.237  1.00  0.00     0.049 A 
ATOM     23  H   UNL A   1      42.256  27.419  29.215  1.00  0.00     0.167 HD
ATOM     24  C   UNL A   1      41.801  28.828  33.445  1.00  0.00     0.037 A 
ATOM     25  C   UNL A   1      43.418  25.986  27.207  1.00  0.00     0.037 A 
ATOM     26  C   UNL A   1      42.790  29.759  32.957  1.00  0.00     0.049 A 
ATOM     27  C   UNL A   1      44.278  26.453  28.328  1.00  0.00     0.074 A 
ATOM     28  C   UNL A   1      42.787  31.110  32.668  1.00  0.00     0.029 A 
ATOM     29  N   UNL A   1      43.887  29.239  32.313  1.00  0.00    -0.354 N 
ATOM     30  N   UNL A   1      44.835  27.635  28.348  1.00  0.00    -0.248 NA
ATOM     31  C   UNL A   1      44.084  25.831  29.631  1.00  0.00     0.031 C 
ATOM     32  C   UNL A   1      43.568  31.230  31.481  1.00  0.00     0.029 A 
ATOM     33  C   UNL A   1      44.073  29.968  31.166  1.00  0.00     0.049 A 
ATOM     34  H   UNL A   1      44.439  28.483  32.619  1.00  0.00     0.167 HD
ATOM     35  C   UNL A   1      44.672  28.083  29.652  1.00  0.00     0.074 A 
ATOM     36  C   UNL A   1      44.244  26.907  30.409  1.00  0.00     0.031 C 
ATOM     37  C   UNL A   1      44.615  29.415  29.946  1.00  0.00     0.037 A 
BRANCH  24  38
ATOM     38  C   UNL A   1      42.108  27.837  34.538  1.00  0.00     0.057 A 
ATOM     39  C   UNL A   1      42.653  26.585  34.192  1.00  0.00     0.134 A 
ATOM     40  C   UNL A   1      41.595  27.924  35.846  1.00  0.00     0.134 A 
ATOM     41  F   UNL A   1      43.186  26.377  32.978  1.00  0.00    -0.206 F 
ATOM     42  C   UNL A   1      42.582  25.476  35.042  1.00  0.00     0.040 A 
ATOM     43  C   UNL A   1      41.557  26.834  36.718  1.00  0.00     0.040 A 
ATOM     44  F   UNL A   1      41.010  29.030  36.321  1.00  0.00    -0.206 F 
ATOM     45  C   UNL A   1      42.015  25.594  36.304  1.00  0.00     0.006 A 
ENDBRANCH  24  38
BRANCH  25  46
ATOM     46  C   UNL A   1      43.569  24.651  26.583  1.00  0.00     0.057 A 
ATOM     47  C   UNL A   1      42.806  23.555  27.010  1.00  0.00     0.134 A 
ATOM     48  C   UNL A   1      44.259  24.486  25.368  1.00  0.00     0.134 A 
ATOM     49  F   UNL A   1      42.076  23.632  28.132  1.00  0.00    -0.206 F 
ATOM     50  C   UNL A   1      42.719  22.371  26.262  1.00  0.00     0.040 A 
ATOM     51  C   UNL A   1      44.180  23.312  24.613  1.00  0.00     0.040 A 
ATOM     52  F   UNL A   1      44.960  25.495  24.829  1.00  0.00    -0.206 F 
ATOM     53  C   UNL A   1      43.398  22.252  25.052  1.00  0.00     0.006 A 
ENDBRANCH  25  46
BRANCH  37  54
ATOM     54  C   UNL A   1      44.935  30.400  28.856  1.00  0.00     0.057 A 
ATOM     55  C   UNL A   1      46.236  30.780  28.493  1.00  0.00     0.134 A 
ATOM     56  C   UNL A   1      43.895  30.825  28.022  1.00  0.00     0.134 A 
ATOM     57  F   UNL A   1      47.301  30.346  29.181  1.00  0.00    -0.206 F 
ATOM     58  C   UNL A   1      46.485  31.564  27.360  1.00  0.00     0.040 A 
ATOM     59  C   UNL A   1      44.133  31.582  26.873  1.00  0.00     0.040 A 
ATOM     60  F   UNL A   1      42.631  30.452  28.277  1.00  0.00    -0.206 F 
ATOM     61  C   UNL A   1      45.432  31.958  26.541  1.00  0.00     0.006 A 
ENDBRANCH  37  54
ENDBRANCH  11  12
ENDBRANCH   4   6
ENDBRANCH   3   4
ENDBRANCH   2   3
ENDBRANCH   1   2
BRANCH   1  62
ATOM     62  O   UNL A   1      33.304  28.793  27.238  1.00  0.00    -0.461 OA
BRANCH  62  63
ATOM     63  C   UNL A   1      32.418  27.790  27.004  1.00  0.00     0.328 C 
ATOM     64  O   UNL A   1      31.404  27.700  27.665  1.00  0.00    -0.250 OA
BRANCH  63  65
ATOM     65  C   UNL A   1      32.730  26.855  25.842  1.00  0.00     0.195 C 
ATOM     66  C   UNL A   1      33.086  25.388  26.127  1.00  0.00     0.046 C 
ATOM     67  N   UNL A   1      31.769  26.688  24.722  1.00  0.00    -0.328 N 
ATOM     68  C   UNL A   1      33.036  24.681  24.719  1.00  0.00     0.001 C 
ATOM     69  C   UNL A   1      32.454  25.781  23.793  1.00  0.00     0.128 C 
ATOM     70  C   UNL A   1      32.086  23.465  24.678  1.00  0.00     0.071 C 
ATOM     71  C   UNL A   1      34.427  24.189  24.266  1.00  0.00     0.071 C 
ATOM     72  C   UNL A   1      32.589  22.270  25.478  1.00  0.00     0.270 C 
ATOM     73  C   UNL A   1      34.908  22.979  25.083  1.00  0.00     0.270 C 
ATOM     74  N   UNL A   1      33.934  21.881  25.077  1.00  0.00    -0.272 N 
ATOM     75  H   UNL A   1      34.020  22.627  25.715  1.00  0.00     0.356 HD
BRANCH  67  76
ATOM     76  C   UNL A   1      30.370  26.653  24.719  1.00  0.00     0.225 C 
ATOM     77  O   UNL A   1      29.789  25.927  25.542  1.00  0.00    -0.275 OA
BRANCH  76  78
ATOM     78  C   UNL A   1      29.472  27.264  23.633  1.00  0.00     0.124 C 
BRANCH  78  79
ATOM     79  C   UNL A   1      29.885  28.318  22.582  1.00  0.00     0.154 C 
BRANCH  79  80
ATOM     80  N   UNL A   1      29.076  29.490  22.336  1.00  0.00    -0.272 N 
ATOM     81  C   UNL A   1      27.980  29.905  23.035  1.00  0.00     0.108 A 
ATOM     82  N   UNL A   1      29.322  30.276  21.259  1.00  0.00    -0.182 NA
ATOM     83  C   UNL A   1      27.654  31.143  22.524  1.00  0.00     0.042 A 
ATOM     84  C   UNL A   1      28.530  31.330  21.443  1.00  0.00     0.135 A 
ENDBRANCH  79  80
ENDBRANCH  78  79
ENDBRANCH  76  78
ENDBRANCH  67  76
BRANCH  74  85
ATOM     85  C   UNL A   1      34.421  20.588  24.846  1.00  0.00     0.315 C 
ATOM     86  O   UNL A   1      35.618  20.339  25.001  1.00  0.00    -0.231 OA
BRANCH  85  87
ATOM     87  C   UNL A   1      33.600  19.427  24.375  1.00  0.00     0.119 C 
ATOM     88  C   UNL A   1      33.881  17.953  24.356  1.00  0.00     0.019 C 
ATOM     89  C   UNL A   1      32.904  18.515  25.356  1.00  0.00     0.019 C 
ENDBRANCH  85  87
ENDBRANCH  74  85
ENDBRANCH  63  65
ENDBRANCH  62  63
ENDBRANCH   1  62
TORSDOF 17
ENDMDL
MODEL 3
REMARK VINA RESULT:     -11.8      3.376      8.153
REMARK SMILES O=C(OCCOC(=O)[C@H]1CC2(CC[NH+](C(=O)C3CC3)CC2)CN1C(=O)CCn1cccn1)c1ccc(-c2c3nc(c(-c4c(F)cccc4F)c4ccc([nH]4)c(-c4c(F)cccc4F)c4nc(c(-c5c(F)cccc5F)c5ccc2[nH]5)C=C4)C=C3)cc1
REMARK SMILES IDX 5 1 4 2 3 3 2 4 1 5 33 6 34 7 86 8 35 9 85 10 36 11 37 12
REMARK SMILES IDX 38 13 79 14 39 15 84 16 78 17 80 18 40 19 83 20 77 21 76 22
REMARK SMILES IDX 41 24 67 25 50 26 66 27 51 28 54 29 65 30 81 31 52 32 53 33
REMARK SMILES IDX 64 35 82 36 55 37 42 38 43 39 48 40 44 41 45 42 47 43 49 44
REMARK SMILES IDX 46 45 68 46 69 47 74 48 70 49 71 50 73 51 75 52 72 53 56 54
REMARK SMILES IDX 57 55 62 56 58 57 59 58 61 59 63 60 60 61 6 62 7 63 8 64
REMARK SMILES IDX 9 65 10 66 23 67 11 68 22 69 12 70 21 71 13 72 20 73 14 74
REMARK SMILES IDX 24 76 25 77 26 78 27 79 28 80 29 81 32 82 30 83 31 84 15 85
REMARK SMILES IDX 16 86 17 87 18 88 19 89
REMARK H PARENT 80 23 54 34 14 75
REMARK Flexibility Score: inf
ROOT
ATOM      1  C   UNL A   1      37.727  21.759  24.957  1.00  0.00     0.274 C 
ENDROOT
BRANCH   1   2
ATOM      2  C   UNL A   1      38.980  21.316  25.750  1.00  0.00     0.275 C 
BRANCH   2   3
ATOM      3  O   UNL A   1      39.261  22.197  26.824  1.00  0.00    -0.458 OA
BRANCH   3   4
ATOM      4  C   UNL A   1      40.554  22.592  26.946  1.00  0.00     0.338 C 
ATOM      5  O   UNL A   1      41.557  21.926  26.854  1.00  0.00    -0.246 OA
BRANCH   4   6
ATOM      6  C   UNL A   1      40.507  23.995  27.415  1.00  0.00     0.060 A 
ATOM      7  C   UNL A   1      39.419  24.808  27.091  1.00  0.00     0.016 A 
ATOM      8  C   UNL A   1      41.529  24.464  28.249  1.00  0.00     0.016 A 
ATOM      9  C   UNL A   1      39.418  26.118  27.506  1.00  0.00     0.010 A 
ATOM     10  C   UNL A   1      41.486  25.759  28.734  1.00  0.00     0.010 A 
ATOM     11  C   UNL A   1      40.474  26.598  28.295  1.00  0.00    -0.014 A 
BRANCH  11  12
ATOM     12  C   UNL A   1      40.458  28.014  28.609  1.00  0.00     0.031 A 
ATOM     13  C   UNL A   1      41.610  28.766  28.051  1.00  0.00     0.074 A 
ATOM     14  C   UNL A   1      39.564  28.557  29.457  1.00  0.00     0.049 A 
ATOM     15  N   UNL A   1      42.703  29.057  28.676  1.00  0.00    -0.248 NA
ATOM     16  C   UNL A   1      41.662  29.020  26.608  1.00  0.00     0.031 C 
ATOM     17  C   UNL A   1      38.294  28.032  29.963  1.00  0.00     0.029 A 
ATOM     18  N   UNL A   1      39.656  29.767  30.069  1.00  0.00    -0.354 N 
ATOM     19  C   UNL A   1      43.524  29.694  27.755  1.00  0.00     0.074 A 
ATOM     20  C   UNL A   1      42.895  29.516  26.471  1.00  0.00     0.031 C 
ATOM     21  C   UNL A   1      37.632  29.010  30.626  1.00  0.00     0.029 A 
ATOM     22  C   UNL A   1      38.512  30.158  30.750  1.00  0.00     0.049 A 
ATOM     23  H   UNL A   1      40.469  30.322  30.031  1.00  0.00     0.167 HD
ATOM     24  C   UNL A   1      44.547  30.486  28.179  1.00  0.00     0.037 A 
ATOM     25  C   UNL A   1      38.325  31.353  31.362  1.00  0.00     0.037 A 
ATOM     26  C   UNL A   1      44.887  30.193  29.551  1.00  0.00     0.049 A 
ATOM     27  C   UNL A   1      39.676  31.890  31.680  1.00  0.00     0.074 A 
ATOM     28  C   UNL A   1      45.396  29.090  30.207  1.00  0.00     0.029 A 
ATOM     29  N   UNL A   1      44.328  30.985  30.526  1.00  0.00    -0.354 N 
ATOM     30  N   UNL A   1      40.465  31.340  32.564  1.00  0.00    -0.248 NA
ATOM     31  C   UNL A   1      40.339  32.693  30.662  1.00  0.00     0.031 C 
ATOM     32  C   UNL A   1      44.681  29.036  31.439  1.00  0.00     0.029 A 
ATOM     33  C   UNL A   1      43.846  30.153  31.504  1.00  0.00     0.049 A 
ATOM     34  H   UNL A   1      44.281  31.968  30.523  1.00  0.00     0.167 HD
ATOM     35  C   UNL A   1      41.725  31.367  31.980  1.00  0.00     0.074 A 
ATOM     36  C   UNL A   1      41.592  32.258  30.827  1.00  0.00     0.031 C 
ATOM     37  C   UNL A   1      42.681  30.449  32.305  1.00  0.00     0.037 A 
BRANCH  24  38
ATOM     38  C   UNL A   1      44.950  31.777  27.515  1.00  0.00     0.057 A 
ATOM     39  C   UNL A   1      46.192  31.846  26.855  1.00  0.00     0.134 A 
ATOM     40  C   UNL A   1      44.342  33.020  27.776  1.00  0.00     0.134 A 
ATOM     41  F   UNL A   1      46.868  30.731  26.537  1.00  0.00    -0.206 F 
ATOM     42  C   UNL A   1      46.831  33.062  26.585  1.00  0.00     0.040 A 
ATOM     43  C   UNL A   1      44.952  34.239  27.473  1.00  0.00     0.040 A 
ATOM     44  F   UNL A   1      43.179  33.132  28.427  1.00  0.00    -0.206 F 
ATOM     45  C   UNL A   1      46.218  34.265  26.911  1.00  0.00     0.006 A 
ENDBRANCH  24  38
BRANCH  25  46
ATOM     46  C   UNL A   1      37.122  32.214  31.268  1.00  0.00     0.057 A 
ATOM     47  C   UNL A   1      36.733  32.795  30.054  1.00  0.00     0.134 A 
ATOM     48  C   UNL A   1      36.170  32.254  32.304  1.00  0.00     0.134 A 
ATOM     49  F   UNL A   1      37.552  32.764  28.994  1.00  0.00    -0.206 F 
ATOM     50  C   UNL A   1      35.464  33.366  29.873  1.00  0.00     0.040 A 
ATOM     51  C   UNL A   1      34.903  32.820  32.138  1.00  0.00     0.040 A 
ATOM     52  F   UNL A   1      36.408  31.665  33.485  1.00  0.00    -0.206 F 
ATOM     53  C   UNL A   1      34.539  33.369  30.914  1.00  0.00     0.006 A 
ENDBRANCH  25  46
BRANCH  37  54
ATOM     54  C   UNL A   1      42.418  29.524  33.460  1.00  0.00     0.057 A 
ATOM     55  C   UNL A   1      41.784  28.277  33.343  1.00  0.00     0.134 A 
ATOM     56  C   UNL A   1      43.002  29.824  34.695  1.00  0.00     0.134 A 
ATOM     57  F   UNL A   1      41.275  27.866  32.174  1.00  0.00    -0.206 F 
ATOM     58  C   UNL A   1      41.721  27.380  34.417  1.00  0.00     0.040 A 
ATOM     59  C   UNL A   1      42.971  28.926  35.764  1.00  0.00     0.040 A 
ATOM     60  F   UNL A   1      43.672  30.974  34.862  1.00  0.00    -0.206 F 
ATOM     61  C   UNL A   1      42.324  27.701  35.629  1.00  0.00     0.006 A 
ENDBRANCH  37  54
ENDBRANCH  11  12
ENDBRANCH   4   6
ENDBRANCH   3   4
ENDBRANCH   2   3
ENDBRANCH   1   2
BRANCH   1  62
ATOM     62  O   UNL A   1      37.289  23.144  25.074  1.00  0.00    -0.461 OA
BRANCH  62  63
ATOM     63  C   UNL A   1      36.216  23.411  24.285  1.00  0.00     0.328 C 
ATOM     64  O   UNL A   1      36.252  23.170  23.097  1.00  0.00    -0.250 OA
BRANCH  63  65
ATOM     65  C   UNL A   1      34.970  23.949  24.980  1.00  0.00     0.195 C 
ATOM     66  C   UNL A   1      33.891  24.662  24.152  1.00  0.00     0.046 C 
ATOM     67  N   UNL A   1      34.126  23.061  25.819  1.00  0.00    -0.328 N 
ATOM     68  C   UNL A   1      32.658  24.792  25.125  1.00  0.00     0.001 C 
ATOM     69  C   UNL A   1      33.090  23.952  26.356  1.00  0.00     0.128 C 
ATOM     70  C   UNL A   1      31.361  24.177  24.554  1.00  0.00     0.071 C 
ATOM     71  C   UNL A   1      32.349  26.261  25.479  1.00  0.00     0.071 C 
ATOM     72  C   UNL A   1      30.773  24.964  23.390  1.00  0.00     0.270 C 
ATOM     73  C   UNL A   1      31.751  27.030  24.290  1.00  0.00     0.270 C 
ATOM     74  N   UNL A   1      30.567  26.364  23.735  1.00  0.00    -0.272 N 
ATOM     75  H   UNL A   1      31.512  26.260  23.478  1.00  0.00     0.356 HD
BRANCH  67  76
ATOM     76  C   UNL A   1      33.776  21.715  25.658  1.00  0.00     0.225 C 
ATOM     77  O   UNL A   1      33.897  20.947  26.626  1.00  0.00    -0.275 OA
BRANCH  76  78
ATOM     78  C   UNL A   1      33.462  21.037  24.316  1.00  0.00     0.124 C 
BRANCH  78  79
ATOM     79  C   UNL A   1      32.512  19.841  24.089  1.00  0.00     0.154 C 
BRANCH  79  80
ATOM     80  N   UNL A   1      32.903  18.494  24.437  1.00  0.00    -0.272 N 
ATOM     81  C   UNL A   1      33.982  17.797  23.976  1.00  0.00     0.108 A 
ATOM     82  N   UNL A   1      32.118  17.742  25.247  1.00  0.00    -0.182 NA
ATOM     83  C   UNL A   1      34.018  16.630  24.709  1.00  0.00     0.042 A 
ATOM     84  C   UNL A   1      32.854  16.660  25.493  1.00  0.00     0.135 A 
ENDBRANCH  79  80
ENDBRANCH  78  79
ENDBRANCH  76  78
ENDBRANCH  67  76
BRANCH  74  85
ATOM     85  C   UNL A   1      29.448  27.161  23.459  1.00  0.00     0.315 C 
ATOM     86  O   UNL A   1      28.329  26.809  23.834  1.00  0.00    -0.231 OA
BRANCH  85  87
ATOM     87  C   UNL A   1      29.471  28.446  22.690  1.00  0.00     0.119 C 
ATOM     88  C   UNL A   1      28.431  29.511  22.502  1.00  0.00     0.019 C 
ATOM     89  C   UNL A   1      29.617  29.774  23.393  1.00  0.00     0.019 C 
ENDBRANCH  85  87
ENDBRANCH  74  85
ENDBRANCH  63  65
ENDBRANCH  62  63
ENDBRANCH   1  62
TORSDOF 17
ENDMDL
