MODEL 1
REMARK VINA RESULT:     -11.4      0.000      0.000
REMARK SMILES COC(=O)c1cccc(NC(=O)[C@@H]2[C@@H]3CC[C@@H](C3)[C@@H]2C(=O)OCCOC(=O)c2ccc(-c3c4nc(c(-c5c(F)cccc5F)c5ccc([nH]5)c(-c5c(F)cccc5F)c5nc(c(-c6c(F)cccc6F)c6ccc3[nH]6)C=C5)C=C4)cc2)c1
REMARK SMILES IDX 23 1 22 2 20 3 21 4 19 5 13 6 14 7 15 8 18 9 17 10 16 11
REMARK SMILES IDX 11 12 10 13 12 15 9 16 5 17 6 18 82 19 7 20 8 21 3 22 4 23
REMARK SMILES IDX 2 24 1 25 24 26 25 27 26 28 27 29 28 30 29 31 81 32 30 33
REMARK SMILES IDX 80 34 31 35 32 36 33 37 74 38 34 39 79 40 73 41 75 42 35 43
REMARK SMILES IDX 78 44 72 45 71 46 36 48 62 49 45 50 61 51 46 52 49 53 60 54
REMARK SMILES IDX 76 55 47 56 48 57 59 59 77 60 50 61 37 62 38 63 43 64 39 65
REMARK SMILES IDX 40 66 42 67 44 68 41 69 63 70 64 71 69 72 65 73 66 74 68 75
REMARK SMILES IDX 70 76 67 77 51 78 52 79 57 80 53 81 54 82 56 83 58 84 55 85
REMARK H PARENT 10 14 75 47 49 58
REMARK Flexibility Score: inf
ROOT
ATOM      1  C   UNL A   1      31.732  28.189  26.684  1.00  0.00     0.274 C 
ENDROOT
BRANCH   1   2
ATOM      2  O   UNL A   1      32.828  27.354  26.261  1.00  0.00    -0.462 OA
BRANCH   2   3
ATOM      3  C   UNL A   1      32.581  26.032  26.150  1.00  0.00     0.310 C 
ATOM      4  O   UNL A   1      31.812  25.405  26.872  1.00  0.00    -0.252 OA
BRANCH   3   5
ATOM      5  C   UNL A   1      33.360  25.347  25.042  1.00  0.00     0.115 C 
ATOM      6  C   UNL A   1      32.565  24.428  24.092  1.00  0.00     0.096 C 
ATOM      7  C   UNL A   1      33.461  23.159  24.044  1.00  0.00     0.003 C 
ATOM      8  C   UNL A   1      33.523  22.380  25.368  1.00  0.00     0.005 C 
ATOM      9  C   UNL A   1      34.856  23.810  24.046  1.00  0.00     0.009 C 
ATOM     10  C   UNL A   1      34.618  24.514  25.391  1.00  0.00     0.004 C 
ATOM     11  C   UNL A   1      34.336  23.298  26.282  1.00  0.00     0.005 C 
BRANCH   6  12
ATOM     12  C   UNL A   1      31.096  24.273  24.433  1.00  0.00     0.228 C 
ATOM     13  N   UNL A   1      30.183  25.266  24.220  1.00  0.00    -0.326 N 
ATOM     14  H   UNL A   1      29.291  25.027  24.559  1.00  0.00     0.169 HD
ATOM     15  O   UNL A   1      30.653  23.233  24.927  1.00  0.00    -0.274 OA
BRANCH  13  16
ATOM     16  C   UNL A   1      30.196  26.550  23.636  1.00  0.00     0.042 A 
ATOM     17  C   UNL A   1      28.853  28.517  23.079  1.00  0.00     0.062 A 
ATOM     18  C   UNL A   1      29.925  29.065  22.376  1.00  0.00     0.016 A 
ATOM     19  C   UNL A   1      28.990  27.269  23.709  1.00  0.00     0.041 A 
ATOM     20  C   UNL A   1      31.138  28.391  22.346  1.00  0.00     0.003 A 
ATOM     21  C   UNL A   1      31.272  27.149  22.981  1.00  0.00     0.026 A 
BRANCH  17  22
ATOM     22  C   UNL A   1      27.584  29.278  23.105  1.00  0.00     0.337 C 
ATOM     23  O   UNL A   1      26.528  28.810  23.501  1.00  0.00    -0.246 OA
BRANCH  22  24
ATOM     24  O   UNL A   1      27.768  30.505  22.560  1.00  0.00    -0.465 OA
ATOM     25  C   UNL A   1      27.654  31.574  23.501  1.00  0.00     0.282 C 
ENDBRANCH  22  24
ENDBRANCH  17  22
ENDBRANCH  13  16
ENDBRANCH   6  12
ENDBRANCH   3   5
ENDBRANCH   2   3
ENDBRANCH   1   2
BRANCH   1  26
ATOM     26  C   UNL A   1      31.700  29.512  25.913  1.00  0.00     0.275 C 
BRANCH  26  27
ATOM     27  O   UNL A   1      33.000  30.131  25.865  1.00  0.00    -0.458 OA
BRANCH  27  28
ATOM     28  C   UNL A   1      33.238  31.039  26.839  1.00  0.00     0.338 C 
ATOM     29  O   UNL A   1      32.480  31.900  27.251  1.00  0.00    -0.246 OA
BRANCH  28  30
ATOM     30  C   UNL A   1      34.536  30.765  27.473  1.00  0.00     0.060 A 
ATOM     31  C   UNL A   1      34.759  29.481  27.974  1.00  0.00     0.016 A 
ATOM     32  C   UNL A   1      35.480  31.775  27.664  1.00  0.00     0.016 A 
ATOM     33  C   UNL A   1      35.917  29.197  28.686  1.00  0.00     0.010 A 
ATOM     34  C   UNL A   1      36.648  31.489  28.379  1.00  0.00     0.010 A 
ATOM     35  C   UNL A   1      36.863  30.204  28.908  1.00  0.00    -0.014 A 
BRANCH  35  36
ATOM     36  C   UNL A   1      38.039  29.908  29.756  1.00  0.00     0.031 A 
ATOM     37  C   UNL A   1      39.130  29.022  29.232  1.00  0.00     0.074 A 
ATOM     38  C   UNL A   1      38.149  30.479  30.969  1.00  0.00     0.049 A 
ATOM     39  N   UNL A   1      40.229  28.627  29.822  1.00  0.00    -0.248 NA
ATOM     40  C   UNL A   1      38.964  28.516  27.861  1.00  0.00     0.031 C 
ATOM     41  C   UNL A   1      37.173  31.392  31.563  1.00  0.00     0.029 A 
ATOM     42  N   UNL A   1      39.134  30.375  31.917  1.00  0.00    -0.354 N 
ATOM     43  C   UNL A   1      40.880  27.815  28.902  1.00  0.00     0.074 A 
ATOM     44  C   UNL A   1      40.045  27.759  27.721  1.00  0.00     0.031 C 
ATOM     45  C   UNL A   1      37.610  31.767  32.777  1.00  0.00     0.029 A 
ATOM     46  C   UNL A   1      38.876  31.096  33.056  1.00  0.00     0.049 A 
ATOM     47  H   UNL A   1      39.948  29.835  31.791  1.00  0.00     0.167 HD
ATOM     48  C   UNL A   1      42.067  27.177  29.032  1.00  0.00     0.037 A 
ATOM     49  C   UNL A   1      39.577  31.187  34.201  1.00  0.00     0.037 A 
ATOM     50  C   UNL A   1      42.901  27.242  30.203  1.00  0.00     0.049 A 
ATOM     51  C   UNL A   1      40.870  30.433  34.336  1.00  0.00     0.074 A 
ATOM     52  C   UNL A   1      44.123  26.634  30.429  1.00  0.00     0.029 A 
ATOM     53  N   UNL A   1      42.594  27.961  31.349  1.00  0.00    -0.354 N 
ATOM     54  N   UNL A   1      41.475  29.666  33.461  1.00  0.00    -0.248 NA
ATOM     55  C   UNL A   1      41.579  30.560  35.617  1.00  0.00     0.031 C 
ATOM     56  C   UNL A   1      44.541  26.960  31.725  1.00  0.00     0.029 A 
ATOM     57  C   UNL A   1      43.596  27.801  32.291  1.00  0.00     0.049 A 
ATOM     58  H   UNL A   1      41.782  28.505  31.475  1.00  0.00     0.167 HD
ATOM     59  C   UNL A   1      42.642  29.234  34.076  1.00  0.00     0.074 A 
ATOM     60  C   UNL A   1      42.668  29.837  35.393  1.00  0.00     0.031 C 
ATOM     61  C   UNL A   1      43.606  28.413  33.594  1.00  0.00     0.037 A 
BRANCH  48  62
ATOM     62  C   UNL A   1      42.521  26.333  27.880  1.00  0.00     0.057 A 
ATOM     63  C   UNL A   1      42.192  24.975  27.783  1.00  0.00     0.134 A 
ATOM     64  C   UNL A   1      43.281  26.891  26.844  1.00  0.00     0.134 A 
ATOM     65  F   UNL A   1      41.480  24.378  28.751  1.00  0.00    -0.206 F 
ATOM     66  C   UNL A   1      42.616  24.197  26.704  1.00  0.00     0.040 A 
ATOM     67  C   UNL A   1      43.694  26.129  25.750  1.00  0.00     0.040 A 
ATOM     68  F   UNL A   1      43.629  28.186  26.877  1.00  0.00    -0.206 F 
ATOM     69  C   UNL A   1      43.366  24.776  25.681  1.00  0.00     0.006 A 
ENDBRANCH  48  62
BRANCH  49  70
ATOM     70  C   UNL A   1      39.064  32.018  35.317  1.00  0.00     0.057 A 
ATOM     71  C   UNL A   1      39.366  33.382  35.402  1.00  0.00     0.134 A 
ATOM     72  C   UNL A   1      38.266  31.466  36.326  1.00  0.00     0.134 A 
ATOM     73  F   UNL A   1      40.143  33.959  34.477  1.00  0.00    -0.206 F 
ATOM     74  C   UNL A   1      38.904  34.165  36.461  1.00  0.00     0.040 A 
ATOM     75  C   UNL A   1      37.778  32.243  37.378  1.00  0.00     0.040 A 
ATOM     76  F   UNL A   1      37.942  30.166  36.298  1.00  0.00    -0.206 F 
ATOM     77  C   UNL A   1      38.102  33.596  37.450  1.00  0.00     0.006 A 
ENDBRANCH  49  70
BRANCH  61  78
ATOM     78  C   UNL A   1      44.780  28.145  34.487  1.00  0.00     0.057 A 
ATOM     79  C   UNL A   1      45.915  28.965  34.477  1.00  0.00     0.134 A 
ATOM     80  C   UNL A   1      44.765  27.067  35.381  1.00  0.00     0.134 A 
ATOM     81  F   UNL A   1      45.997  30.004  33.632  1.00  0.00    -0.206 F 
ATOM     82  C   UNL A   1      47.005  28.710  35.312  1.00  0.00     0.040 A 
ATOM     83  C   UNL A   1      45.838  26.815  36.236  1.00  0.00     0.040 A 
ATOM     84  F   UNL A   1      43.704  26.248  35.443  1.00  0.00    -0.206 F 
ATOM     85  C   UNL A   1      46.966  27.634  36.198  1.00  0.00     0.006 A 
ENDBRANCH  61  78
ENDBRANCH  35  36
ENDBRANCH  28  30
ENDBRANCH  27  28
ENDBRANCH  26  27
ENDBRANCH   1  26
TORSDOF 15
ENDMDL
MODEL 2
REMARK VINA RESULT:     -11.3      3.823      6.859
REMARK SMILES COC(=O)c1cccc(NC(=O)[C@@H]2[C@@H]3CC[C@@H](C3)[C@@H]2C(=O)OCCOC(=O)c2ccc(-c3c4nc(c(-c5c(F)cccc5F)c5ccc([nH]5)c(-c5c(F)cccc5F)c5nc(c(-c6c(F)cccc6F)c6ccc3[nH]6)C=C5)C=C4)cc2)c1
REMARK SMILES IDX 23 1 22 2 20 3 21 4 19 5 13 6 14 7 15 8 18 9 17 10 16 11
REMARK SMILES IDX 11 12 10 13 12 15 9 16 5 17 6 18 82 19 7 20 8 21 3 22 4 23
REMARK SMILES IDX 2 24 1 25 24 26 25 27 26 28 27 29 28 30 29 31 81 32 30 33
REMARK SMILES IDX 80 34 31 35 32 36 33 37 74 38 34 39 79 40 73 41 75 42 35 43
REMARK SMILES IDX 78 44 72 45 71 46 36 48 62 49 45 50 61 51 46 52 49 53 60 54
REMARK SMILES IDX 76 55 47 56 48 57 59 59 77 60 50 61 37 62 38 63 43 64 39 65
REMARK SMILES IDX 40 66 42 67 44 68 41 69 63 70 64 71 69 72 65 73 66 74 68 75
REMARK SMILES IDX 70 76 67 77 51 78 52 79 57 80 53 81 54 82 56 83 58 84 55 85
REMARK H PARENT 10 14 75 47 49 58
REMARK Flexibility Score: inf
ROOT
ATOM      1  C   UNL A   1      35.351  24.595  25.299  1.00  0.00     0.274 C 
ENDROOT
BRANCH   1   2
ATOM      2  O   UNL A   1      34.520  24.801  24.141  1.00  0.00    -0.462 OA
BRANCH   2   3
ATOM      3  C   UNL A   1      33.862  25.977  24.062  1.00  0.00     0.310 C 
ATOM      4  O   UNL A   1      33.455  26.478  23.018  1.00  0.00    -0.252 OA
BRANCH   3   5
ATOM      5  C   UNL A   1      33.669  26.670  25.399  1.00  0.00     0.115 C 
ATOM      6  C   UNL A   1      32.337  26.418  26.133  1.00  0.00     0.096 C 
ATOM      7  C   UNL A   1      31.913  27.857  26.537  1.00  0.00     0.003 C 
ATOM      8  C   UNL A   1      31.532  28.759  25.352  1.00  0.00     0.005 C 
ATOM      9  C   UNL A   1      33.284  28.453  26.903  1.00  0.00     0.009 C 
ATOM     10  C   UNL A   1      33.861  28.204  25.501  1.00  0.00     0.004 C 
ATOM     11  C   UNL A   1      32.870  29.015  24.657  1.00  0.00     0.005 C 
BRANCH   6  12
ATOM     12  C   UNL A   1      31.348  25.547  25.382  1.00  0.00     0.228 C 
ATOM     13  N   UNL A   1      31.406  24.183  25.404  1.00  0.00    -0.326 N 
ATOM     14  H   UNL A   1      30.735  23.776  24.811  1.00  0.00     0.169 HD
ATOM     15  O   UNL A   1      30.438  26.037  24.708  1.00  0.00    -0.274 OA
BRANCH  13  16
ATOM     16  C   UNL A   1      32.186  23.209  26.061  1.00  0.00     0.042 A 
ATOM     17  C   UNL A   1      33.116  20.951  25.921  1.00  0.00     0.062 A 
ATOM     18  C   UNL A   1      33.565  21.042  27.238  1.00  0.00     0.016 A 
ATOM     19  C   UNL A   1      32.435  22.031  25.335  1.00  0.00     0.041 A 
ATOM     20  C   UNL A   1      33.375  22.221  27.945  1.00  0.00     0.003 A 
ATOM     21  C   UNL A   1      32.700  23.298  27.354  1.00  0.00     0.026 A 
BRANCH  17  22
ATOM     22  C   UNL A   1      33.357  19.684  25.196  1.00  0.00     0.337 C 
ATOM     23  O   UNL A   1      34.380  19.451  24.573  1.00  0.00    -0.246 OA
BRANCH  22  24
ATOM     24  O   UNL A   1      32.260  18.892  25.269  1.00  0.00    -0.465 OA
ATOM     25  C   UNL A   1      32.530  17.511  25.021  1.00  0.00     0.282 C 
ENDBRANCH  22  24
ENDBRANCH  17  22
ENDBRANCH  13  16
ENDBRANCH   6  12
ENDBRANCH   3   5
ENDBRANCH   2   3
ENDBRANCH   1   2
BRANCH   1  26
ATOM     26  C   UNL A   1      36.463  23.578  25.022  1.00  0.00     0.275 C 
BRANCH  26  27
ATOM     27  O   UNL A   1      37.046  23.082  26.243  1.00  0.00    -0.458 OA
BRANCH  27  28
ATOM     28  C   UNL A   1      38.387  22.902  26.204  1.00  0.00     0.338 C 
ATOM     29  O   UNL A   1      38.994  21.955  25.735  1.00  0.00    -0.246 OA
BRANCH  28  30
ATOM     30  C   UNL A   1      39.069  24.109  26.696  1.00  0.00     0.060 A 
ATOM     31  C   UNL A   1      38.852  24.484  28.024  1.00  0.00     0.016 A 
ATOM     32  C   UNL A   1      39.827  24.914  25.846  1.00  0.00     0.016 A 
ATOM     33  C   UNL A   1      39.374  25.676  28.510  1.00  0.00     0.010 A 
ATOM     34  C   UNL A   1      40.355  26.114  26.335  1.00  0.00     0.010 A 
ATOM     35  C   UNL A   1      40.116  26.508  27.664  1.00  0.00    -0.014 A 
BRANCH  35  36
ATOM     36  C   UNL A   1      40.575  27.820  28.171  1.00  0.00     0.031 A 
ATOM     37  C   UNL A   1      42.040  28.142  28.183  1.00  0.00     0.074 A 
ATOM     38  C   UNL A   1      39.673  28.736  28.568  1.00  0.00     0.049 A 
ATOM     39  N   UNL A   1      42.646  29.223  28.604  1.00  0.00    -0.248 NA
ATOM     40  C   UNL A   1      42.944  27.111  27.648  1.00  0.00     0.031 C 
ATOM     41  C   UNL A   1      38.222  28.551  28.558  1.00  0.00     0.029 A 
ATOM     42  N   UNL A   1      39.849  30.006  29.053  1.00  0.00    -0.354 N 
ATOM     43  C   UNL A   1      44.001  28.999  28.398  1.00  0.00     0.074 A 
ATOM     44  C   UNL A   1      44.131  27.673  27.832  1.00  0.00     0.031 C 
ATOM     45  C   UNL A   1      37.638  29.670  29.015  1.00  0.00     0.029 A 
ATOM     46  C   UNL A   1      38.673  30.634  29.379  1.00  0.00     0.049 A 
ATOM     47  H   UNL A   1      40.733  30.426  29.157  1.00  0.00     0.167 HD
ATOM     48  C   UNL A   1      45.041  29.827  28.656  1.00  0.00     0.037 A 
ATOM     49  C   UNL A   1      38.459  31.845  29.928  1.00  0.00     0.037 A 
ATOM     50  C   UNL A   1      44.908  31.149  29.210  1.00  0.00     0.049 A 
ATOM     51  C   UNL A   1      39.634  32.726  30.246  1.00  0.00     0.074 A 
ATOM     52  C   UNL A   1      45.902  32.066  29.504  1.00  0.00     0.029 A 
ATOM     53  N   UNL A   1      43.703  31.741  29.554  1.00  0.00    -0.354 N 
ATOM     54  N   UNL A   1      40.911  32.504  30.050  1.00  0.00    -0.248 NA
ATOM     55  C   UNL A   1      39.337  34.028  30.860  1.00  0.00     0.031 C 
ATOM     56  C   UNL A   1      45.299  33.202  30.056  1.00  0.00     0.029 A 
ATOM     57  C   UNL A   1      43.927  33.006  30.070  1.00  0.00     0.049 A 
ATOM     58  H   UNL A   1      42.817  31.324  29.447  1.00  0.00     0.167 HD
ATOM     59  C   UNL A   1      41.568  33.643  30.497  1.00  0.00     0.074 A 
ATOM     60  C   UNL A   1      40.547  34.560  30.961  1.00  0.00     0.031 C 
ATOM     61  C   UNL A   1      42.898  33.906  30.522  1.00  0.00     0.037 A 
BRANCH  48  62
ATOM     62  C   UNL A   1      46.417  29.312  28.362  1.00  0.00     0.057 A 
ATOM     63  C   UNL A   1      47.008  29.459  27.100  1.00  0.00     0.134 A 
ATOM     64  C   UNL A   1      47.169  28.680  29.360  1.00  0.00     0.134 A 
ATOM     65  F   UNL A   1      46.333  30.042  26.097  1.00  0.00    -0.206 F 
ATOM     66  C   UNL A   1      48.293  28.980  26.837  1.00  0.00     0.040 A 
ATOM     67  C   UNL A   1      48.462  28.214  29.115  1.00  0.00     0.040 A 
ATOM     68  F   UNL A   1      46.660  28.509  30.589  1.00  0.00    -0.206 F 
ATOM     69  C   UNL A   1      49.025  28.359  27.848  1.00  0.00     0.006 A 
ENDBRANCH  48  62
BRANCH  49  70
ATOM     70  C   UNL A   1      37.076  32.290  30.221  1.00  0.00     0.057 A 
ATOM     71  C   UNL A   1      36.337  33.023  29.285  1.00  0.00     0.134 A 
ATOM     72  C   UNL A   1      36.463  31.998  31.445  1.00  0.00     0.134 A 
ATOM     73  F   UNL A   1      36.881  33.350  28.105  1.00  0.00    -0.206 F 
ATOM     74  C   UNL A   1      35.042  33.463  29.563  1.00  0.00     0.040 A 
ATOM     75  C   UNL A   1      35.160  32.412  31.726  1.00  0.00     0.040 A 
ATOM     76  F   UNL A   1      37.119  31.297  32.381  1.00  0.00    -0.206 F 
ATOM     77  C   UNL A   1      34.448  33.152  30.785  1.00  0.00     0.006 A 
ENDBRANCH  49  70
BRANCH  61  78
ATOM     78  C   UNL A   1      43.316  35.248  31.041  1.00  0.00     0.057 A 
ATOM     79  C   UNL A   1      43.545  35.473  32.404  1.00  0.00     0.134 A 
ATOM     80  C   UNL A   1      43.512  36.322  30.163  1.00  0.00     0.134 A 
ATOM     81  F   UNL A   1      43.360  34.488  33.296  1.00  0.00    -0.206 F 
ATOM     82  C   UNL A   1      43.936  36.726  32.879  1.00  0.00     0.040 A 
ATOM     83  C   UNL A   1      43.923  37.573  30.624  1.00  0.00     0.040 A 
ATOM     84  F   UNL A   1      43.314  36.170  28.845  1.00  0.00    -0.206 F 
ATOM     85  C   UNL A   1      44.130  37.780  31.987  1.00  0.00     0.006 A 
ENDBRANCH  61  78
ENDBRANCH  35  36
ENDBRANCH  28  30
ENDBRANCH  27  28
ENDBRANCH  26  27
ENDBRANCH   1  26
TORSDOF 15
ENDMDL
MODEL 3
REMARK VINA RESULT:     -11.2      3.808      5.981
REMARK SMILES COC(=O)c1cccc(NC(=O)[C@@H]2[C@@H]3CC[C@@H](C3)[C@@H]2C(=O)OCCOC(=O)c2ccc(-c3c4nc(c(-c5c(F)cccc5F)c5ccc([nH]5)c(-c5c(F)cccc5F)c5nc(c(-c6c(F)cccc6F)c6ccc3[nH]6)C=C5)C=C4)cc2)c1
REMARK SMILES IDX 23 1 22 2 20 3 21 4 19 5 13 6 14 7 15 8 18 9 17 10 16 11
REMARK SMILES IDX 11 12 10 13 12 15 9 16 5 17 6 18 82 19 7 20 8 21 3 22 4 23
REMARK SMILES IDX 2 24 1 25 24 26 25 27 26 28 27 29 28 30 29 31 81 32 30 33
REMARK SMILES IDX 80 34 31 35 32 36 33 37 74 38 34 39 79 40 73 41 75 42 35 43
REMARK SMILES IDX 78 44 72 45 71 46 36 48 62 49 45 50 61 51 46 52 49 53 60 54
REMARK SMILES IDX 76 55 47 56 48 57 59 59 77 60 50 61 37 62 38 63 43 64 39 65
REMARK SMILES IDX 40 66 42 67 44 68 41 69 63 70 64 71 69 72 65 73 66 74 68 75
REMARK SMILES IDX 70 76 67 77 51 78 52 79 57 80 53 81 54 82 56 83 58 84 55 85
REMARK H PARENT 10 14 75 47 49 58
REMARK Flexibility Score: inf
ROOT
ATOM      1  C   UNL A   1      36.323  23.583  26.105  1.00  0.00     0.274 C 
ENDROOT
BRANCH   1   2
ATOM      2  O   UNL A   1      34.902  23.396  25.954  1.00  0.00    -0.462 OA
BRANCH   2   3
ATOM      3  C   UNL A   1      34.211  24.402  25.378  1.00  0.00     0.310 C 
ATOM      4  O   UNL A   1      34.415  25.594  25.588  1.00  0.00    -0.252 OA
BRANCH   3   5
ATOM      5  C   UNL A   1      33.115  23.942  24.435  1.00  0.00     0.115 C 
ATOM      6  C   UNL A   1      31.672  23.955  24.978  1.00  0.00     0.096 C 
ATOM      7  C   UNL A   1      31.151  22.555  24.549  1.00  0.00     0.003 C 
ATOM      8  C   UNL A   1      31.824  21.381  25.278  1.00  0.00     0.005 C 
ATOM      9  C   UNL A   1      31.813  22.431  23.165  1.00  0.00     0.009 C 
ATOM     10  C   UNL A   1      33.233  22.563  23.739  1.00  0.00     0.004 C 
ATOM     11  C   UNL A   1      33.242  21.373  24.705  1.00  0.00     0.005 C 
BRANCH   6  12
ATOM     12  C   UNL A   1      31.539  24.372  26.430  1.00  0.00     0.228 C 
ATOM     13  N   UNL A   1      31.420  25.678  26.811  1.00  0.00    -0.326 N 
ATOM     14  H   UNL A   1      31.413  25.776  27.791  1.00  0.00     0.169 HD
ATOM     15  O   UNL A   1      31.536  23.542  27.343  1.00  0.00    -0.274 OA
BRANCH  13  16
ATOM     16  C   UNL A   1      31.306  26.922  26.157  1.00  0.00     0.042 A 
ATOM     17  C   UNL A   1      30.465  28.079  24.173  1.00  0.00     0.062 A 
ATOM     18  C   UNL A   1      31.097  29.255  24.576  1.00  0.00     0.016 A 
ATOM     19  C   UNL A   1      30.565  26.921  24.962  1.00  0.00     0.041 A 
ATOM     20  C   UNL A   1      31.782  29.283  25.783  1.00  0.00     0.003 A 
ATOM     21  C   UNL A   1      31.876  28.127  26.569  1.00  0.00     0.026 A 
BRANCH  17  22
ATOM     22  C   UNL A   1      29.726  28.097  22.891  1.00  0.00     0.337 C 
ATOM     23  O   UNL A   1      30.272  28.168  21.802  1.00  0.00    -0.246 OA
BRANCH  22  24
ATOM     24  O   UNL A   1      28.392  28.104  23.125  1.00  0.00    -0.465 OA
ATOM     25  C   UNL A   1      27.779  29.380  22.929  1.00  0.00     0.282 C 
ENDBRANCH  22  24
ENDBRANCH  17  22
ENDBRANCH  13  16
ENDBRANCH   6  12
ENDBRANCH   3   5
ENDBRANCH   2   3
ENDBRANCH   1   2
BRANCH   1  26
ATOM     26  C   UNL A   1      37.101  22.315  25.740  1.00  0.00     0.275 C 
BRANCH  26  27
ATOM     27  O   UNL A   1      38.473  22.609  25.408  1.00  0.00    -0.458 OA
BRANCH  27  28
ATOM     28  C   UNL A   1      39.329  22.595  26.455  1.00  0.00     0.338 C 
ATOM     29  O   UNL A   1      39.949  21.642  26.893  1.00  0.00    -0.246 OA
BRANCH  28  30
ATOM     30  C   UNL A   1      39.544  23.966  26.944  1.00  0.00     0.060 A 
ATOM     31  C   UNL A   1      40.078  24.899  26.054  1.00  0.00     0.016 A 
ATOM     32  C   UNL A   1      39.321  24.305  28.279  1.00  0.00     0.016 A 
ATOM     33  C   UNL A   1      40.411  26.175  26.491  1.00  0.00     0.010 A 
ATOM     34  C   UNL A   1      39.655  25.590  28.720  1.00  0.00     0.010 A 
ATOM     35  C   UNL A   1      40.218  26.524  27.832  1.00  0.00    -0.014 A 
BRANCH  35  36
ATOM     36  C   UNL A   1      40.675  27.851  28.300  1.00  0.00     0.031 A 
ATOM     37  C   UNL A   1      42.136  28.189  28.270  1.00  0.00     0.074 A 
ATOM     38  C   UNL A   1      39.773  28.766  28.700  1.00  0.00     0.049 A 
ATOM     39  N   UNL A   1      42.740  29.285  28.653  1.00  0.00    -0.248 NA
ATOM     40  C   UNL A   1      43.038  27.157  27.734  1.00  0.00     0.031 C 
ATOM     41  C   UNL A   1      38.324  28.565  28.729  1.00  0.00     0.029 A 
ATOM     42  N   UNL A   1      39.946  30.048  29.155  1.00  0.00    -0.354 N 
ATOM     43  C   UNL A   1      44.092  29.071  28.419  1.00  0.00     0.074 A 
ATOM     44  C   UNL A   1      44.223  27.735  27.877  1.00  0.00     0.031 C 
ATOM     45  C   UNL A   1      37.738  29.688  29.178  1.00  0.00     0.029 A 
ATOM     46  C   UNL A   1      38.771  30.670  29.497  1.00  0.00     0.049 A 
ATOM     47  H   UNL A   1      40.827  30.479  29.228  1.00  0.00     0.167 HD
ATOM     48  C   UNL A   1      45.128  29.916  28.634  1.00  0.00     0.037 A 
ATOM     49  C   UNL A   1      38.558  31.889  30.025  1.00  0.00     0.037 A 
ATOM     50  C   UNL A   1      44.995  31.247  29.164  1.00  0.00     0.049 A 
ATOM     51  C   UNL A   1      39.730  32.789  30.296  1.00  0.00     0.074 A 
ATOM     52  C   UNL A   1      45.985  32.181  29.415  1.00  0.00     0.029 A 
ATOM     53  N   UNL A   1      43.791  31.834  29.525  1.00  0.00    -0.354 N 
ATOM     54  N   UNL A   1      41.004  32.577  30.074  1.00  0.00    -0.248 NA
ATOM     55  C   UNL A   1      39.433  34.101  30.891  1.00  0.00     0.031 C 
ATOM     56  C   UNL A   1      45.383  33.322  29.958  1.00  0.00     0.029 A 
ATOM     57  C   UNL A   1      44.014  33.112  30.010  1.00  0.00     0.049 A 
ATOM     58  H   UNL A   1      42.908  31.405  29.449  1.00  0.00     0.167 HD
ATOM     59  C   UNL A   1      41.659  33.731  30.481  1.00  0.00     0.074 A 
ATOM     60  C   UNL A   1      40.639  34.647  30.951  1.00  0.00     0.031 C 
ATOM     61  C   UNL A   1      42.986  34.009  30.468  1.00  0.00     0.037 A 
BRANCH  48  62
ATOM     62  C   UNL A   1      46.502  29.410  28.317  1.00  0.00     0.057 A 
ATOM     63  C   UNL A   1      47.089  29.599  27.060  1.00  0.00     0.134 A 
ATOM     64  C   UNL A   1      47.257  28.743  29.290  1.00  0.00     0.134 A 
ATOM     65  F   UNL A   1      46.411  30.216  26.080  1.00  0.00    -0.206 F 
ATOM     66  C   UNL A   1      48.372  29.127  26.775  1.00  0.00     0.040 A 
ATOM     67  C   UNL A   1      48.549  28.284  29.024  1.00  0.00     0.040 A 
ATOM     68  F   UNL A   1      46.754  28.530  30.515  1.00  0.00    -0.206 F 
ATOM     69  C   UNL A   1      49.107  28.471  27.761  1.00  0.00     0.006 A 
ENDBRANCH  48  62
BRANCH  49  70
ATOM     70  C   UNL A   1      37.177  32.325  30.343  1.00  0.00     0.057 A 
ATOM     71  C   UNL A   1      36.599  32.052  31.588  1.00  0.00     0.134 A 
ATOM     72  C   UNL A   1      36.401  33.020  29.407  1.00  0.00     0.134 A 
ATOM     73  F   UNL A   1      37.287  31.371  32.515  1.00  0.00    -0.206 F 
ATOM     74  C   UNL A   1      35.293  32.441  31.886  1.00  0.00     0.040 A 
ATOM     75  C   UNL A   1      35.101  33.435  29.701  1.00  0.00     0.040 A 
ATOM     76  F   UNL A   1      36.899  33.313  28.198  1.00  0.00    -0.206 F 
ATOM     77  C   UNL A   1      34.542  33.140  30.943  1.00  0.00     0.006 A 
ENDBRANCH  49  70
BRANCH  61  78
ATOM     78  C   UNL A   1      43.401  35.367  30.949  1.00  0.00     0.057 A 
ATOM     79  C   UNL A   1      43.576  36.439  30.066  1.00  0.00     0.134 A 
ATOM     80  C   UNL A   1      43.607  35.608  32.313  1.00  0.00     0.134 A 
ATOM     81  F   UNL A   1      43.409  36.268  28.746  1.00  0.00    -0.206 F 
ATOM     82  C   UNL A   1      43.963  37.701  30.522  1.00  0.00     0.040 A 
ATOM     83  C   UNL A   1      43.971  36.870  32.783  1.00  0.00     0.040 A 
ATOM     84  F   UNL A   1      43.449  34.623  33.211  1.00  0.00    -0.206 F 
ATOM     85  C   UNL A   1      44.157  37.920  31.885  1.00  0.00     0.006 A 
ENDBRANCH  61  78
ENDBRANCH  35  36
ENDBRANCH  28  30
ENDBRANCH  27  28
ENDBRANCH  26  27
ENDBRANCH   1  26
TORSDOF 15
ENDMDL
