MODEL 1
REMARK VINA RESULT:     -10.8      0.000      0.000
REMARK SMILES CCCC[C@H](C(=O)OCCOC(=O)c1ccc(-c2c3nc(c(-c4c(F)cccc4F)c4ccc([nH]4)c(-c4c(F)cccc4F)c4nc(c(-c5c(F)cccc5F)c5ccc2[nH]5)C=C4)C=C3)cc1)[C@H](O)c1ccc(C(F)(F)F)cc1
REMARK SMILES IDX 9 1 8 2 6 3 7 4 5 5 4 6 3 7 2 8 1 9 68 10 70 11 71 12 79 13
REMARK SMILES IDX 72 14 78 15 73 16 74 17 75 18 76 19 77 20 69 21 10 23 11 24
REMARK SMILES IDX 12 25 13 26 14 27 15 28 67 29 16 30 66 31 17 32 18 33 19 34
REMARK SMILES IDX 60 35 20 36 65 37 59 38 61 39 21 40 64 41 58 42 57 43 22 45
REMARK SMILES IDX 48 46 31 47 47 48 32 49 35 50 46 51 62 52 33 53 34 54 45 56
REMARK SMILES IDX 63 57 36 58 23 59 24 60 29 61 25 62 26 63 28 64 30 65 27 66
REMARK SMILES IDX 49 67 50 68 55 69 51 70 52 71 54 72 56 73 53 74 37 75 38 76
REMARK SMILES IDX 43 77 39 78 40 79 42 80 44 81 41 82
REMARK H PARENT 69 22 61 44 35 55
REMARK Flexibility Score: inf
ROOT
ATOM      1  C   UNL A   1      36.277  23.160  23.621  1.00  0.00     0.274 C 
ENDROOT
BRANCH   1   2
ATOM      2  O   UNL A   1      35.350  23.040  22.521  1.00  0.00    -0.462 OA
BRANCH   2   3
ATOM      3  C   UNL A   1      34.111  23.547  22.759  1.00  0.00     0.312 C 
ATOM      4  O   UNL A   1      33.510  24.301  22.004  1.00  0.00    -0.252 OA
BRANCH   3   5
ATOM      5  C   UNL A   1      33.561  23.120  24.106  1.00  0.00     0.132 C 
BRANCH   5   6
ATOM      6  C   UNL A   1      33.151  24.402  24.879  1.00  0.00     0.018 C 
BRANCH   6   7
ATOM      7  C   UNL A   1      33.590  24.445  26.353  1.00  0.00     0.001 C 
BRANCH   7   8
ATOM      8  C   UNL A   1      34.355  23.247  26.914  1.00  0.00    -0.003 C 
ATOM      9  C   UNL A   1      33.507  22.299  27.748  1.00  0.00     0.004 C 
ENDBRANCH   7   8
ENDBRANCH   6   7
ENDBRANCH   5   6
BRANCH   5  10
ATOM     10  C   UNL A   1      32.386  22.149  23.825  1.00  0.00     0.158 C 
BRANCH  10  11
ATOM     11  C   UNL A   1      32.808  20.690  23.829  1.00  0.00    -0.019 A 
ATOM     12  C   UNL A   1      33.854  20.249  24.654  1.00  0.00     0.007 A 
ATOM     13  C   UNL A   1      32.148  19.747  23.032  1.00  0.00     0.007 A 
ATOM     14  C   UNL A   1      34.230  18.904  24.680  1.00  0.00     0.013 A 
ATOM     15  C   UNL A   1      32.522  18.399  23.054  1.00  0.00     0.013 A 
ATOM     16  C   UNL A   1      33.574  17.964  23.872  1.00  0.00     0.056 A 
BRANCH  16  17
ATOM     17  C   UNL A   1      33.965  16.508  23.921  1.00  0.00     0.416 C 
ATOM     18  F   UNL A   1      34.387  16.029  22.717  1.00  0.00    -0.166 F 
ATOM     19  F   UNL A   1      34.983  16.272  24.794  1.00  0.00    -0.166 F 
ATOM     20  F   UNL A   1      32.947  15.689  24.307  1.00  0.00    -0.166 F 
ENDBRANCH  16  17
ENDBRANCH  10  11
BRANCH  10  21
ATOM     21  O   UNL A   1      31.337  22.269  24.790  1.00  0.00    -0.388 OA
ATOM     22  H   UNL A   1      30.928  21.400  24.931  1.00  0.00     0.211 HD
ENDBRANCH  10  21
ENDBRANCH   5  10
ENDBRANCH   3   5
ENDBRANCH   2   3
ENDBRANCH   1   2
BRANCH   1  23
ATOM     23  C   UNL A   1      37.009  21.850  23.900  1.00  0.00     0.275 C 
BRANCH  23  24
ATOM     24  O   UNL A   1      37.139  21.655  25.318  1.00  0.00    -0.458 OA
BRANCH  24  25
ATOM     25  C   UNL A   1      38.379  21.358  25.760  1.00  0.00     0.338 C 
ATOM     26  O   UNL A   1      38.967  20.295  25.608  1.00  0.00    -0.246 OA
BRANCH  25  27
ATOM     27  C   UNL A   1      39.009  22.537  26.406  1.00  0.00     0.060 A 
ATOM     28  C   UNL A   1      38.550  23.835  26.175  1.00  0.00     0.016 A 
ATOM     29  C   UNL A   1      40.170  22.352  27.159  1.00  0.00     0.016 A 
ATOM     30  C   UNL A   1      39.299  24.939  26.586  1.00  0.00     0.010 A 
ATOM     31  C   UNL A   1      40.867  23.457  27.657  1.00  0.00     0.010 A 
ATOM     32  C   UNL A   1      40.464  24.765  27.341  1.00  0.00    -0.014 A 
BRANCH  32  33
ATOM     33  C   UNL A   1      41.292  25.929  27.766  1.00  0.00     0.031 A 
ATOM     34  C   UNL A   1      40.691  26.995  28.645  1.00  0.00     0.074 A 
ATOM     35  C   UNL A   1      42.572  26.056  27.364  1.00  0.00     0.049 A 
ATOM     36  N   UNL A   1      41.127  28.202  28.902  1.00  0.00    -0.248 NA
ATOM     37  C   UNL A   1      39.419  26.663  29.307  1.00  0.00     0.031 C 
ATOM     38  C   UNL A   1      43.316  25.085  26.560  1.00  0.00     0.029 A 
ATOM     39  N   UNL A   1      43.477  27.067  27.580  1.00  0.00    -0.354 N 
ATOM     40  C   UNL A   1      40.149  28.799  29.688  1.00  0.00     0.074 A 
ATOM     41  C   UNL A   1      39.103  27.815  29.880  1.00  0.00     0.031 C 
ATOM     42  C   UNL A   1      44.567  25.531  26.376  1.00  0.00     0.029 A 
ATOM     43  C   UNL A   1      44.688  26.859  26.968  1.00  0.00     0.049 A 
ATOM     44  H   UNL A   1      43.275  27.864  28.120  1.00  0.00     0.167 HD
ATOM     45  C   UNL A   1      40.122  30.055  30.193  1.00  0.00     0.037 A 
ATOM     46  C   UNL A   1      45.763  27.663  26.850  1.00  0.00     0.037 A 
ATOM     47  C   UNL A   1      41.194  31.007  30.063  1.00  0.00     0.049 A 
ATOM     48  C   UNL A   1      45.714  29.049  27.422  1.00  0.00     0.074 A 
ATOM     49  C   UNL A   1      41.261  32.307  30.538  1.00  0.00     0.029 A 
ATOM     50  N   UNL A   1      42.403  30.749  29.436  1.00  0.00    -0.354 N 
ATOM     51  N   UNL A   1      44.743  29.641  28.072  1.00  0.00    -0.248 NA
ATOM     52  C   UNL A   1      46.903  29.888  27.220  1.00  0.00     0.031 C 
ATOM     53  C   UNL A   1      42.506  32.839  30.185  1.00  0.00     0.029 A 
ATOM     54  C   UNL A   1      43.225  31.862  29.516  1.00  0.00     0.049 A 
ATOM     55  H   UNL A   1      42.642  29.901  28.997  1.00  0.00     0.167 HD
ATOM     56  C   UNL A   1      45.202  30.919  28.359  1.00  0.00     0.074 A 
ATOM     57  C   UNL A   1      46.549  31.008  27.833  1.00  0.00     0.031 C 
ATOM     58  C   UNL A   1      44.562  31.931  28.992  1.00  0.00     0.037 A 
BRANCH  45  59
ATOM     59  C   UNL A   1      38.876  30.488  30.906  1.00  0.00     0.057 A 
ATOM     60  C   UNL A   1      37.808  31.100  30.241  1.00  0.00     0.134 A 
ATOM     61  C   UNL A   1      38.733  30.253  32.281  1.00  0.00     0.134 A 
ATOM     62  F   UNL A   1      37.889  31.366  28.929  1.00  0.00    -0.206 F 
ATOM     63  C   UNL A   1      36.648  31.478  30.920  1.00  0.00     0.040 A 
ATOM     64  C   UNL A   1      37.570  30.607  32.966  1.00  0.00     0.040 A 
ATOM     65  F   UNL A   1      39.719  29.666  32.977  1.00  0.00    -0.206 F 
ATOM     66  C   UNL A   1      36.525  31.227  32.286  1.00  0.00     0.006 A 
ENDBRANCH  45  59
BRANCH  46  67
ATOM     67  C   UNL A   1      46.962  27.188  26.117  1.00  0.00     0.057 A 
ATOM     68  C   UNL A   1      47.093  27.398  24.741  1.00  0.00     0.134 A 
ATOM     69  C   UNL A   1      48.003  26.520  26.773  1.00  0.00     0.134 A 
ATOM     70  F   UNL A   1      46.115  28.010  24.055  1.00  0.00    -0.206 F 
ATOM     71  C   UNL A   1      48.216  26.959  24.040  1.00  0.00     0.040 A 
ATOM     72  C   UNL A   1      49.143  26.097  26.089  1.00  0.00     0.040 A 
ATOM     73  F   UNL A   1      47.935  26.290  28.092  1.00  0.00    -0.206 F 
ATOM     74  C   UNL A   1      49.249  26.313  24.717  1.00  0.00     0.006 A 
ENDBRANCH  46  67
BRANCH  58  75
ATOM     75  C   UNL A   1      45.327  33.207  29.170  1.00  0.00     0.057 A 
ATOM     76  C   UNL A   1      46.144  33.424  30.286  1.00  0.00     0.134 A 
ATOM     77  C   UNL A   1      45.253  34.223  28.211  1.00  0.00     0.134 A 
ATOM     78  F   UNL A   1      46.244  32.493  31.247  1.00  0.00    -0.206 F 
ATOM     79  C   UNL A   1      46.841  34.621  30.454  1.00  0.00     0.040 A 
ATOM     80  C   UNL A   1      45.960  35.416  28.359  1.00  0.00     0.040 A 
ATOM     81  F   UNL A   1      44.490  34.073  27.117  1.00  0.00    -0.206 F 
ATOM     82  C   UNL A   1      46.753  35.619  29.487  1.00  0.00     0.006 A 
ENDBRANCH  58  75
ENDBRANCH  32  33
ENDBRANCH  25  27
ENDBRANCH  24  25
ENDBRANCH  23  24
ENDBRANCH   1  23
TORSDOF 18
ENDMDL
MODEL 2
REMARK VINA RESULT:     -10.7      2.998      4.111
REMARK SMILES CCCC[C@H](C(=O)OCCOC(=O)c1ccc(-c2c3nc(c(-c4c(F)cccc4F)c4ccc([nH]4)c(-c4c(F)cccc4F)c4nc(c(-c5c(F)cccc5F)c5ccc2[nH]5)C=C4)C=C3)cc1)[C@H](O)c1ccc(C(F)(F)F)cc1
REMARK SMILES IDX 9 1 8 2 6 3 7 4 5 5 4 6 3 7 2 8 1 9 68 10 70 11 71 12 79 13
REMARK SMILES IDX 72 14 78 15 73 16 74 17 75 18 76 19 77 20 69 21 10 23 11 24
REMARK SMILES IDX 12 25 13 26 14 27 15 28 67 29 16 30 66 31 17 32 18 33 19 34
REMARK SMILES IDX 60 35 20 36 65 37 59 38 61 39 21 40 64 41 58 42 57 43 22 45
REMARK SMILES IDX 48 46 31 47 47 48 32 49 35 50 46 51 62 52 33 53 34 54 45 56
REMARK SMILES IDX 63 57 36 58 23 59 24 60 29 61 25 62 26 63 28 64 30 65 27 66
REMARK SMILES IDX 49 67 50 68 55 69 51 70 52 71 54 72 56 73 53 74 37 75 38 76
REMARK SMILES IDX 43 77 39 78 40 79 42 80 44 81 41 82
REMARK H PARENT 69 22 61 44 35 55
REMARK Flexibility Score: inf
ROOT
ATOM      1  C   UNL A   1      34.823  20.295  25.061  1.00  0.00     0.274 C 
ENDROOT
BRANCH   1   2
ATOM      2  O   UNL A   1      34.179  21.569  25.277  1.00  0.00    -0.462 OA
BRANCH   2   3
ATOM      3  C   UNL A   1      33.163  21.850  24.418  1.00  0.00     0.312 C 
ATOM      4  O   UNL A   1      32.565  21.015  23.751  1.00  0.00    -0.252 OA
BRANCH   3   5
ATOM      5  C   UNL A   1      32.880  23.336  24.324  1.00  0.00     0.132 C 
BRANCH   5   6
ATOM      6  C   UNL A   1      34.240  24.070  24.171  1.00  0.00     0.018 C 
BRANCH   6   7
ATOM      7  C   UNL A   1      34.570  25.074  25.289  1.00  0.00     0.001 C 
BRANCH   7   8
ATOM      8  C   UNL A   1      33.467  26.024  25.756  1.00  0.00    -0.003 C 
ATOM      9  C   UNL A   1      33.545  27.417  25.151  1.00  0.00     0.004 C 
ENDBRANCH   7   8
ENDBRANCH   6   7
ENDBRANCH   5   6
BRANCH   5  10
ATOM     10  C   UNL A   1      31.917  23.537  23.127  1.00  0.00     0.158 C 
BRANCH  10  11
ATOM     11  C   UNL A   1      31.331  24.936  23.066  1.00  0.00    -0.019 A 
ATOM     12  C   UNL A   1      31.805  25.872  22.134  1.00  0.00     0.007 A 
ATOM     13  C   UNL A   1      30.286  25.318  23.917  1.00  0.00     0.007 A 
ATOM     14  C   UNL A   1      31.252  27.153  22.057  1.00  0.00     0.013 A 
ATOM     15  C   UNL A   1      29.731  26.600  23.844  1.00  0.00     0.013 A 
ATOM     16  C   UNL A   1      30.214  27.535  22.919  1.00  0.00     0.056 A 
BRANCH  16  17
ATOM     17  C   UNL A   1      29.602  28.909  22.815  1.00  0.00     0.416 C 
ATOM     18  F   UNL A   1      28.240  28.885  22.781  1.00  0.00    -0.166 F 
ATOM     19  F   UNL A   1      29.934  29.708  23.867  1.00  0.00    -0.166 F 
ATOM     20  F   UNL A   1      29.987  29.587  21.698  1.00  0.00    -0.166 F 
ENDBRANCH  16  17
ENDBRANCH  10  11
BRANCH  10  21
ATOM     21  O   UNL A   1      32.556  23.311  21.869  1.00  0.00    -0.388 OA
ATOM     22  H   UNL A   1      32.077  23.787  21.173  1.00  0.00     0.211 HD
ENDBRANCH  10  21
ENDBRANCH   5  10
ENDBRANCH   3   5
ENDBRANCH   2   3
ENDBRANCH   1   2
BRANCH   1  23
ATOM     23  C   UNL A   1      36.293  20.452  24.681  1.00  0.00     0.275 C 
BRANCH  23  24
ATOM     24  O   UNL A   1      36.938  21.360  25.589  1.00  0.00    -0.458 OA
BRANCH  24  25
ATOM     25  C   UNL A   1      38.268  21.187  25.748  1.00  0.00     0.338 C 
ATOM     26  O   UNL A   1      38.922  20.221  25.378  1.00  0.00    -0.246 OA
BRANCH  25  27
ATOM     27  C   UNL A   1      38.887  22.381  26.374  1.00  0.00     0.060 A 
ATOM     28  C   UNL A   1      38.437  23.675  26.098  1.00  0.00     0.016 A 
ATOM     29  C   UNL A   1      40.031  22.215  27.157  1.00  0.00     0.016 A 
ATOM     30  C   UNL A   1      39.181  24.787  26.494  1.00  0.00     0.010 A 
ATOM     31  C   UNL A   1      40.720  23.332  27.640  1.00  0.00     0.010 A 
ATOM     32  C   UNL A   1      40.329  24.632  27.279  1.00  0.00    -0.014 A 
BRANCH  32  33
ATOM     33  C   UNL A   1      41.151  25.804  27.689  1.00  0.00     0.031 A 
ATOM     34  C   UNL A   1      40.547  26.874  28.560  1.00  0.00     0.074 A 
ATOM     35  C   UNL A   1      42.428  25.935  27.280  1.00  0.00     0.049 A 
ATOM     36  N   UNL A   1      40.976  28.087  28.804  1.00  0.00    -0.248 NA
ATOM     37  C   UNL A   1      39.280  26.540  29.232  1.00  0.00     0.031 C 
ATOM     38  C   UNL A   1      43.175  24.962  26.481  1.00  0.00     0.029 A 
ATOM     39  N   UNL A   1      43.328  26.955  27.482  1.00  0.00    -0.354 N 
ATOM     40  C   UNL A   1      39.998  28.685  29.590  1.00  0.00     0.074 A 
ATOM     41  C   UNL A   1      38.960  27.696  29.796  1.00  0.00     0.031 C 
ATOM     42  C   UNL A   1      44.422  25.415  26.287  1.00  0.00     0.029 A 
ATOM     43  C   UNL A   1      44.537  26.748  26.866  1.00  0.00     0.049 A 
ATOM     44  H   UNL A   1      43.123  27.756  28.016  1.00  0.00     0.167 HD
ATOM     45  C   UNL A   1      39.966  29.945  30.083  1.00  0.00     0.037 A 
ATOM     46  C   UNL A   1      45.606  27.558  26.736  1.00  0.00     0.037 A 
ATOM     47  C   UNL A   1      41.031  30.903  29.939  1.00  0.00     0.049 A 
ATOM     48  C   UNL A   1      45.551  28.949  27.295  1.00  0.00     0.074 A 
ATOM     49  C   UNL A   1      41.091  32.207  30.402  1.00  0.00     0.029 A 
ATOM     50  N   UNL A   1      42.238  30.647  29.309  1.00  0.00    -0.354 N 
ATOM     51  N   UNL A   1      44.579  29.541  27.944  1.00  0.00    -0.248 NA
ATOM     52  C   UNL A   1      46.734  29.795  27.080  1.00  0.00     0.031 C 
ATOM     53  C   UNL A   1      42.331  32.744  30.038  1.00  0.00     0.029 A 
ATOM     54  C   UNL A   1      43.053  31.766  29.375  1.00  0.00     0.049 A 
ATOM     55  H   UNL A   1      42.481  29.796  28.877  1.00  0.00     0.167 HD
ATOM     56  C   UNL A   1      45.031  30.824  28.217  1.00  0.00     0.074 A 
ATOM     57  C   UNL A   1      46.375  30.918  27.684  1.00  0.00     0.031 C 
ATOM     58  C   UNL A   1      44.387  31.839  28.844  1.00  0.00     0.037 A 
BRANCH  45  59
ATOM     59  C   UNL A   1      38.720  30.376  30.798  1.00  0.00     0.057 A 
ATOM     60  C   UNL A   1      38.554  30.207  32.177  1.00  0.00     0.134 A 
ATOM     61  C   UNL A   1      37.684  31.004  30.093  1.00  0.00     0.134 A 
ATOM     62  F   UNL A   1      39.501  29.600  32.906  1.00  0.00    -0.206 F 
ATOM     63  C   UNL A   1      37.394  30.633  32.828  1.00  0.00     0.040 A 
ATOM     64  C   UNL A   1      36.530  31.453  30.736  1.00  0.00     0.040 A 
ATOM     65  F   UNL A   1      37.783  31.200  28.770  1.00  0.00    -0.206 F 
ATOM     66  C   UNL A   1      36.380  31.263  32.107  1.00  0.00     0.006 A 
ENDBRANCH  45  59
BRANCH  46  67
ATOM     67  C   UNL A   1      46.805  27.084  26.002  1.00  0.00     0.057 A 
ATOM     68  C   UNL A   1      46.955  27.334  24.634  1.00  0.00     0.134 A 
ATOM     69  C   UNL A   1      47.827  26.379  26.649  1.00  0.00     0.134 A 
ATOM     70  F   UNL A   1      45.996  27.984  23.957  1.00  0.00    -0.206 F 
ATOM     71  C   UNL A   1      48.078  26.896  23.932  1.00  0.00     0.040 A 
ATOM     72  C   UNL A   1      48.967  25.956  25.964  1.00  0.00     0.040 A 
ATOM     73  F   UNL A   1      47.739  26.110  27.959  1.00  0.00    -0.206 F 
ATOM     74  C   UNL A   1      49.092  26.211  24.600  1.00  0.00     0.006 A 
ENDBRANCH  46  67
BRANCH  58  75
ATOM     75  C   UNL A   1      45.145  33.121  29.007  1.00  0.00     0.057 A 
ATOM     76  C   UNL A   1      45.986  33.343  30.104  1.00  0.00     0.134 A 
ATOM     77  C   UNL A   1      45.040  34.138  28.051  1.00  0.00     0.134 A 
ATOM     78  F   UNL A   1      46.116  32.412  31.061  1.00  0.00    -0.206 F 
ATOM     79  C   UNL A   1      46.676  34.546  30.259  1.00  0.00     0.040 A 
ATOM     80  C   UNL A   1      45.739  35.337  28.185  1.00  0.00     0.040 A 
ATOM     81  F   UNL A   1      44.254  33.982  26.975  1.00  0.00    -0.206 F 
ATOM     82  C   UNL A   1      46.556  35.545  29.295  1.00  0.00     0.006 A 
ENDBRANCH  58  75
ENDBRANCH  32  33
ENDBRANCH  25  27
ENDBRANCH  24  25
ENDBRANCH  23  24
ENDBRANCH   1  23
TORSDOF 18
ENDMDL
MODEL 3
REMARK VINA RESULT:     -10.7      3.886      8.228
REMARK SMILES CCCC[C@H](C(=O)OCCOC(=O)c1ccc(-c2c3nc(c(-c4c(F)cccc4F)c4ccc([nH]4)c(-c4c(F)cccc4F)c4nc(c(-c5c(F)cccc5F)c5ccc2[nH]5)C=C4)C=C3)cc1)[C@H](O)c1ccc(C(F)(F)F)cc1
REMARK SMILES IDX 9 1 8 2 6 3 7 4 5 5 4 6 3 7 2 8 1 9 68 10 70 11 71 12 79 13
REMARK SMILES IDX 72 14 78 15 73 16 74 17 75 18 76 19 77 20 69 21 10 23 11 24
REMARK SMILES IDX 12 25 13 26 14 27 15 28 67 29 16 30 66 31 17 32 18 33 19 34
REMARK SMILES IDX 60 35 20 36 65 37 59 38 61 39 21 40 64 41 58 42 57 43 22 45
REMARK SMILES IDX 48 46 31 47 47 48 32 49 35 50 46 51 62 52 33 53 34 54 45 56
REMARK SMILES IDX 63 57 36 58 23 59 24 60 29 61 25 62 26 63 28 64 30 65 27 66
REMARK SMILES IDX 49 67 50 68 55 69 51 70 52 71 54 72 56 73 53 74 37 75 38 76
REMARK SMILES IDX 43 77 39 78 40 79 42 80 44 81 41 82
REMARK H PARENT 69 22 61 44 35 55
REMARK Flexibility Score: inf
ROOT
ATOM      1  C   UNL A   1      32.822  29.252  24.448  1.00  0.00     0.274 C 
ENDROOT
BRANCH   1   2
ATOM      2  O   UNL A   1      32.329  28.256  23.527  1.00  0.00    -0.462 OA
BRANCH   2   3
ATOM      3  C   UNL A   1      33.285  27.452  22.988  1.00  0.00     0.312 C 
ATOM      4  O   UNL A   1      33.945  27.726  21.994  1.00  0.00    -0.252 OA
BRANCH   3   5
ATOM      5  C   UNL A   1      33.413  26.133  23.725  1.00  0.00     0.132 C 
BRANCH   5   6
ATOM      6  C   UNL A   1      32.050  25.836  24.405  1.00  0.00     0.018 C 
BRANCH   6   7
ATOM      7  C   UNL A   1      32.106  25.656  25.932  1.00  0.00     0.001 C 
BRANCH   7   8
ATOM      8  C   UNL A   1      31.963  24.243  26.499  1.00  0.00    -0.003 C 
ATOM      9  C   UNL A   1      30.775  23.468  25.950  1.00  0.00     0.004 C 
ENDBRANCH   7   8
ENDBRANCH   6   7
ENDBRANCH   5   6
BRANCH   5  10
ATOM     10  C   UNL A   1      33.841  25.073  22.679  1.00  0.00     0.158 C 
BRANCH  10  11
ATOM     11  C   UNL A   1      33.701  23.649  23.187  1.00  0.00    -0.019 A 
ATOM     12  C   UNL A   1      34.599  23.134  24.134  1.00  0.00     0.007 A 
ATOM     13  C   UNL A   1      32.658  22.825  22.745  1.00  0.00     0.007 A 
ATOM     14  C   UNL A   1      34.460  21.833  24.623  1.00  0.00     0.013 A 
ATOM     15  C   UNL A   1      32.517  21.521  23.231  1.00  0.00     0.013 A 
ATOM     16  C   UNL A   1      33.421  21.007  24.169  1.00  0.00     0.056 A 
BRANCH  16  17
ATOM     17  C   UNL A   1      33.259  19.612  24.719  1.00  0.00     0.416 C 
ATOM     18  F   UNL A   1      32.174  18.962  24.209  1.00  0.00    -0.166 F 
ATOM     19  F   UNL A   1      34.331  18.817  24.447  1.00  0.00    -0.166 F 
ATOM     20  F   UNL A   1      33.105  19.580  26.072  1.00  0.00    -0.166 F 
ENDBRANCH  16  17
ENDBRANCH  10  11
BRANCH  10  21
ATOM     21  O   UNL A   1      33.071  25.150  21.477  1.00  0.00    -0.388 OA
ATOM     22  H   UNL A   1      33.313  25.953  20.990  1.00  0.00     0.211 HD
ENDBRANCH  10  21
ENDBRANCH   5  10
ENDBRANCH   3   5
ENDBRANCH   2   3
ENDBRANCH   1   2
BRANCH   1  23
ATOM     23  C   UNL A   1      31.716  29.799  25.347  1.00  0.00     0.275 C 
BRANCH  23  24
ATOM     24  O   UNL A   1      32.200  29.927  26.694  1.00  0.00    -0.458 OA
BRANCH  24  25
ATOM     25  C   UNL A   1      32.806  31.095  26.993  1.00  0.00     0.338 C 
ATOM     26  O   UNL A   1      32.299  32.208  26.944  1.00  0.00    -0.246 OA
BRANCH  25  27
ATOM     27  C   UNL A   1      34.187  30.866  27.486  1.00  0.00     0.060 A 
ATOM     28  C   UNL A   1      34.671  29.582  27.750  1.00  0.00     0.016 A 
ATOM     29  C   UNL A   1      34.976  31.969  27.817  1.00  0.00     0.016 A 
ATOM     30  C   UNL A   1      35.870  29.401  28.441  1.00  0.00     0.010 A 
ATOM     31  C   UNL A   1      36.225  31.784  28.419  1.00  0.00     0.010 A 
ATOM     32  C   UNL A   1      36.669  30.500  28.778  1.00  0.00    -0.014 A 
BRANCH  32  33
ATOM     33  C   UNL A   1      37.938  30.330  29.540  1.00  0.00     0.031 A 
ATOM     34  C   UNL A   1      39.071  29.538  28.940  1.00  0.00     0.074 A 
ATOM     35  C   UNL A   1      38.088  30.861  30.768  1.00  0.00     0.049 A 
ATOM     36  N   UNL A   1      40.133  29.039  29.520  1.00  0.00    -0.248 NA
ATOM     37  C   UNL A   1      38.985  29.253  27.498  1.00  0.00     0.031 C 
ATOM     38  C   UNL A   1      37.110  31.699  31.464  1.00  0.00     0.029 A 
ATOM     39  N   UNL A   1      39.132  30.768  31.657  1.00  0.00    -0.354 N 
ATOM     40  C   UNL A   1      40.800  28.319  28.536  1.00  0.00     0.074 A 
ATOM     41  C   UNL A   1      40.030  28.458  27.316  1.00  0.00     0.031 C 
ATOM     42  C   UNL A   1      37.609  32.067  32.652  1.00  0.00     0.029 A 
ATOM     43  C   UNL A   1      38.901  31.418  32.844  1.00  0.00     0.049 A 
ATOM     44  H   UNL A   1      39.965  30.281  31.461  1.00  0.00     0.167 HD
ATOM     45  C   UNL A   1      41.941  27.599  28.644  1.00  0.00     0.037 A 
ATOM     46  C   UNL A   1      39.621  31.450  33.982  1.00  0.00     0.037 A 
ATOM     47  C   UNL A   1      42.743  27.521  29.836  1.00  0.00     0.049 A 
ATOM     48  C   UNL A   1      40.887  30.649  34.079  1.00  0.00     0.074 A 
ATOM     49  C   UNL A   1      43.917  26.815  30.046  1.00  0.00     0.029 A 
ATOM     50  N   UNL A   1      42.470  28.198  31.014  1.00  0.00    -0.354 N 
ATOM     51  N   UNL A   1      41.452  29.886  33.177  1.00  0.00    -0.248 NA
ATOM     52  C   UNL A   1      41.600  30.695  35.363  1.00  0.00     0.031 C 
ATOM     53  C   UNL A   1      44.345  27.056  31.357  1.00  0.00     0.029 A 
ATOM     54  C   UNL A   1      43.454  27.933  31.952  1.00  0.00     0.049 A 
ATOM     55  H   UNL A   1      41.690  28.781  31.162  1.00  0.00     0.167 HD
ATOM     56  C   UNL A   1      42.587  29.363  33.780  1.00  0.00     0.074 A 
ATOM     57  C   UNL A   1      42.642  29.915  35.119  1.00  0.00     0.031 C 
ATOM     58  C   UNL A   1      43.496  28.494  33.276  1.00  0.00     0.037 A 
BRANCH  45  59
ATOM     59  C   UNL A   1      42.376  26.807  27.447  1.00  0.00     0.057 A 
ATOM     60  C   UNL A   1      43.197  27.347  26.451  1.00  0.00     0.134 A 
ATOM     61  C   UNL A   1      41.989  25.466  27.311  1.00  0.00     0.134 A 
ATOM     62  F   UNL A   1      43.588  28.628  26.515  1.00  0.00    -0.206 F 
ATOM     63  C   UNL A   1      43.606  26.587  25.353  1.00  0.00     0.040 A 
ATOM     64  C   UNL A   1      42.410  24.690  26.230  1.00  0.00     0.040 A 
ATOM     65  F   UNL A   1      41.206  24.886  28.233  1.00  0.00    -0.206 F 
ATOM     66  C   UNL A   1      43.217  25.253  25.244  1.00  0.00     0.006 A 
ENDBRANCH  45  59
BRANCH  46  67
ATOM     67  C   UNL A   1      39.132  32.237  35.141  1.00  0.00     0.057 A 
ATOM     68  C   UNL A   1      39.414  33.602  35.254  1.00  0.00     0.134 A 
ATOM     69  C   UNL A   1      38.369  31.645  36.156  1.00  0.00     0.134 A 
ATOM     70  F   UNL A   1      40.161  34.216  34.325  1.00  0.00    -0.206 F 
ATOM     71  C   UNL A   1      38.957  34.353  36.338  1.00  0.00     0.040 A 
ATOM     72  C   UNL A   1      37.886  32.390  37.232  1.00  0.00     0.040 A 
ATOM     73  F   UNL A   1      38.066  30.341  36.102  1.00  0.00    -0.206 F 
ATOM     74  C   UNL A   1      38.184  33.748  37.327  1.00  0.00     0.006 A 
ENDBRANCH  46  67
BRANCH  58  75
ATOM     75  C   UNL A   1      44.638  28.116  34.170  1.00  0.00     0.057 A 
ATOM     76  C   UNL A   1      44.578  26.992  35.002  1.00  0.00     0.134 A 
ATOM     77  C   UNL A   1      45.810  28.880  34.189  1.00  0.00     0.134 A 
ATOM     78  F   UNL A   1      43.475  26.230  35.038  1.00  0.00    -0.206 F 
ATOM     79  C   UNL A   1      45.638  26.655  35.844  1.00  0.00     0.040 A 
ATOM     80  C   UNL A   1      46.883  28.542  35.013  1.00  0.00     0.040 A 
ATOM     81  F   UNL A   1      45.929  29.966  33.411  1.00  0.00    -0.206 F 
ATOM     82  C   UNL A   1      46.797  27.430  35.848  1.00  0.00     0.006 A 
ENDBRANCH  58  75
ENDBRANCH  32  33
ENDBRANCH  25  27
ENDBRANCH  24  25
ENDBRANCH  23  24
ENDBRANCH   1  23
TORSDOF 18
ENDMDL
