MODEL 1
REMARK VINA RESULT:     -10.0      0.000      0.000
REMARK SMILES CCCCCNc1cncc(C(=O)OCCOC(=O)c2ccc(-c3c4nc(c(-c5c(F)cccc5F)c5ccc([nH]5)c(-c5c(F)cccc5F)c5nc(c(-c6c(F)cccc6F)c6ccc3[nH]6)C=C5)C=C4)cc2)n1
REMARK SMILES IDX 14 1 12 2 13 3 11 4 7 5 8 6 74 7 9 8 10 9 6 10 5 12 4 13
REMARK SMILES IDX 3 14 2 15 1 16 15 17 16 18 17 19 18 20 19 21 20 22 21 23
REMARK SMILES IDX 73 24 22 25 72 26 23 27 24 28 25 29 66 30 26 31 71 32 65 33
REMARK SMILES IDX 67 34 27 35 70 36 64 37 63 38 28 40 54 41 37 42 53 43 38 44
REMARK SMILES IDX 41 45 52 46 68 47 39 48 40 49 51 51 69 52 42 53 29 54 30 55
REMARK SMILES IDX 35 56 31 57 32 58 34 59 36 60 33 61 55 62 56 63 61 64 57 65
REMARK SMILES IDX 58 66 60 67 62 68 59 69 43 70 44 71 49 72 45 73 46 74 48 75
REMARK SMILES IDX 50 76 47 77
REMARK H PARENT 6 11 67 39 41 50
REMARK Flexibility Score: inf
ROOT
ATOM      1  O   UNL A   1      33.801  34.973  33.278  1.00  0.00    -0.457 OA
ENDROOT
BRANCH   1   2
ATOM      2  C   UNL A   1      33.379  36.198  32.859  1.00  0.00     0.358 C 
ATOM      3  O   UNL A   1      33.181  37.171  33.556  1.00  0.00    -0.244 OA
BRANCH   2   4
ATOM      4  C   UNL A   1      33.283  36.234  31.379  1.00  0.00     0.169 A 
ATOM      5  C   UNL A   1      33.157  35.154  29.359  1.00  0.00     0.145 A 
ATOM      6  C   UNL A   1      33.209  36.397  28.723  1.00  0.00     0.157 A 
ATOM      7  N   UNL A   1      33.199  35.063  30.703  1.00  0.00    -0.221 NA
ATOM      8  N   UNL A   1      33.275  37.577  29.388  1.00  0.00    -0.258 NA
ATOM      9  C   UNL A   1      33.293  37.463  30.735  1.00  0.00     0.147 A 
BRANCH   5  10
ATOM     10  N   UNL A   1      33.061  33.950  28.719  1.00  0.00    -0.369 N 
ATOM     11  H   UNL A   1      32.164  33.604  28.510  1.00  0.00     0.162 HD
BRANCH  10  12
ATOM     12  C   UNL A   1      34.207  33.159  28.336  1.00  0.00     0.114 C 
BRANCH  12  13
ATOM     13  C   UNL A   1      33.802  31.688  28.222  1.00  0.00     0.021 C 
BRANCH  13  14
ATOM     14  C   UNL A   1      34.742  30.812  27.384  1.00  0.00     0.002 C 
BRANCH  14  15
ATOM     15  C   UNL A   1      34.634  29.308  27.633  1.00  0.00    -0.003 C 
ATOM     16  C   UNL A   1      34.353  28.511  26.370  1.00  0.00     0.004 C 
ENDBRANCH  14  15
ENDBRANCH  13  14
ENDBRANCH  12  13
ENDBRANCH  10  12
ENDBRANCH   5  10
ENDBRANCH   2   4
ENDBRANCH   1   2
BRANCH   1  17
ATOM     17  C   UNL A   1      35.073  34.935  33.955  1.00  0.00     0.275 C 
BRANCH  17  18
ATOM     18  C   UNL A   1      35.579  33.501  34.102  1.00  0.00     0.275 C 
BRANCH  18  19
ATOM     19  O   UNL A   1      36.363  33.138  32.950  1.00  0.00    -0.458 OA
BRANCH  19  20
ATOM     20  C   UNL A   1      35.781  32.274  32.090  1.00  0.00     0.338 C 
ATOM     21  O   UNL A   1      34.592  32.160  31.833  1.00  0.00    -0.246 OA
BRANCH  20  22
ATOM     22  C   UNL A   1      36.811  31.467  31.419  1.00  0.00     0.060 A 
ATOM     23  C   UNL A   1      37.712  30.746  32.195  1.00  0.00     0.016 A 
ATOM     24  C   UNL A   1      36.996  31.559  30.041  1.00  0.00     0.016 A 
ATOM     25  C   UNL A   1      38.863  30.211  31.624  1.00  0.00     0.010 A 
ATOM     26  C   UNL A   1      38.100  30.931  29.451  1.00  0.00     0.010 A 
ATOM     27  C   UNL A   1      39.075  30.292  30.240  1.00  0.00    -0.014 A 
BRANCH  27  28
ATOM     28  C   UNL A   1      40.344  29.784  29.640  1.00  0.00     0.031 A 
ATOM     29  C   UNL A   1      41.550  30.686  29.543  1.00  0.00     0.074 A 
ATOM     30  C   UNL A   1      40.450  28.507  29.218  1.00  0.00     0.049 A 
ATOM     31  N   UNL A   1      42.677  30.500  28.903  1.00  0.00    -0.248 NA
ATOM     32  C   UNL A   1      41.469  31.976  30.247  1.00  0.00     0.031 C 
ATOM     33  C   UNL A   1      39.398  27.494  29.299  1.00  0.00     0.029 A 
ATOM     34  N   UNL A   1      41.508  27.838  28.652  1.00  0.00    -0.354 N 
ATOM     35  C   UNL A   1      43.405  31.673  29.065  1.00  0.00     0.074 A 
ATOM     36  C   UNL A   1      42.594  32.564  29.868  1.00  0.00     0.031 C 
ATOM     37  C   UNL A   1      39.880  26.321  28.862  1.00  0.00     0.029 A 
ATOM     38  C   UNL A   1      41.242  26.518  28.377  1.00  0.00     0.049 A 
ATOM     39  H   UNL A   1      42.375  28.263  28.461  1.00  0.00     0.167 HD
ATOM     40  C   UNL A   1      44.636  31.981  28.591  1.00  0.00     0.037 A 
ATOM     41  C   UNL A   1      41.991  25.577  27.772  1.00  0.00     0.037 A 
ATOM     42  C   UNL A   1      45.478  31.070  27.858  1.00  0.00     0.049 A 
ATOM     43  C   UNL A   1      43.346  25.942  27.241  1.00  0.00     0.074 A 
ATOM     44  C   UNL A   1      46.742  31.289  27.337  1.00  0.00     0.029 A 
ATOM     45  N   UNL A   1      45.151  29.754  27.571  1.00  0.00    -0.354 N 
ATOM     46  N   UNL A   1      43.983  27.084  27.317  1.00  0.00    -0.248 NA
ATOM     47  C   UNL A   1      44.075  24.893  26.513  1.00  0.00     0.031 C 
ATOM     48  C   UNL A   1      47.170  30.111  26.712  1.00  0.00     0.029 A 
ATOM     49  C   UNL A   1      46.186  29.149  26.877  1.00  0.00     0.049 A 
ATOM     50  H   UNL A   1      44.306  29.314  27.822  1.00  0.00     0.167 HD
ATOM     51  C   UNL A   1      45.189  26.892  26.655  1.00  0.00     0.074 A 
ATOM     52  C   UNL A   1      45.203  25.516  26.201  1.00  0.00     0.031 C 
ATOM     53  C   UNL A   1      46.189  27.778  26.436  1.00  0.00     0.037 A 
BRANCH  40  54
ATOM     54  C   UNL A   1      45.133  33.380  28.817  1.00  0.00     0.057 A 
ATOM     55  C   UNL A   1      44.862  34.425  27.926  1.00  0.00     0.134 A 
ATOM     56  C   UNL A   1      45.884  33.685  29.961  1.00  0.00     0.134 A 
ATOM     57  F   UNL A   1      44.162  34.197  26.805  1.00  0.00    -0.206 F 
ATOM     58  C   UNL A   1      45.343  35.717  28.150  1.00  0.00     0.040 A 
ATOM     59  C   UNL A   1      46.348  34.978  30.209  1.00  0.00     0.040 A 
ATOM     60  F   UNL A   1      46.173  32.731  30.860  1.00  0.00    -0.206 F 
ATOM     61  C   UNL A   1      46.083  35.998  29.297  1.00  0.00     0.006 A 
ENDBRANCH  40  54
BRANCH  41  62
ATOM     62  C   UNL A   1      41.456  24.202  27.606  1.00  0.00     0.057 A 
ATOM     63  C   UNL A   1      41.916  23.150  28.405  1.00  0.00     0.134 A 
ATOM     64  C   UNL A   1      40.467  23.911  26.658  1.00  0.00     0.134 A 
ATOM     65  F   UNL A   1      42.881  23.361  29.311  1.00  0.00    -0.206 F 
ATOM     66  C   UNL A   1      41.411  21.855  28.268  1.00  0.00     0.040 A 
ATOM     67  C   UNL A   1      39.936  22.628  26.528  1.00  0.00     0.040 A 
ATOM     68  F   UNL A   1      39.987  24.877  25.861  1.00  0.00    -0.206 F 
ATOM     69  C   UNL A   1      40.410  21.594  27.333  1.00  0.00     0.006 A 
ENDBRANCH  41  62
BRANCH  53  70
ATOM     70  C   UNL A   1      47.394  27.275  25.700  1.00  0.00     0.057 A 
ATOM     71  C   UNL A   1      47.529  27.429  24.316  1.00  0.00     0.134 A 
ATOM     72  C   UNL A   1      48.438  26.647  26.389  1.00  0.00     0.134 A 
ATOM     73  F   UNL A   1      46.555  28.009  23.598  1.00  0.00    -0.206 F 
ATOM     74  C   UNL A   1      48.652  26.954  23.636  1.00  0.00     0.040 A 
ATOM     75  C   UNL A   1      49.576  26.186  25.724  1.00  0.00     0.040 A 
ATOM     76  F   UNL A   1      48.372  26.473  27.718  1.00  0.00    -0.206 F 
ATOM     77  C   UNL A   1      49.681  26.334  24.342  1.00  0.00     0.006 A 
ENDBRANCH  53  70
ENDBRANCH  27  28
ENDBRANCH  20  22
ENDBRANCH  19  20
ENDBRANCH  18  19
ENDBRANCH  17  18
ENDBRANCH   1  17
TORSDOF 16
ENDMDL
MODEL 2
REMARK VINA RESULT:      -9.9      3.842      5.308
REMARK SMILES CCCCCNc1cncc(C(=O)OCCOC(=O)c2ccc(-c3c4nc(c(-c5c(F)cccc5F)c5ccc([nH]5)c(-c5c(F)cccc5F)c5nc(c(-c6c(F)cccc6F)c6ccc3[nH]6)C=C5)C=C4)cc2)n1
REMARK SMILES IDX 14 1 12 2 13 3 11 4 7 5 8 6 74 7 9 8 10 9 6 10 5 12 4 13
REMARK SMILES IDX 3 14 2 15 1 16 15 17 16 18 17 19 18 20 19 21 20 22 21 23
REMARK SMILES IDX 73 24 22 25 72 26 23 27 24 28 25 29 66 30 26 31 71 32 65 33
REMARK SMILES IDX 67 34 27 35 70 36 64 37 63 38 28 40 54 41 37 42 53 43 38 44
REMARK SMILES IDX 41 45 52 46 68 47 39 48 40 49 51 51 69 52 42 53 29 54 30 55
REMARK SMILES IDX 35 56 31 57 32 58 34 59 36 60 33 61 55 62 56 63 61 64 57 65
REMARK SMILES IDX 58 66 60 67 62 68 59 69 43 70 44 71 49 72 45 73 46 74 48 75
REMARK SMILES IDX 50 76 47 77
REMARK H PARENT 6 11 67 39 41 50
REMARK Flexibility Score: inf
ROOT
ATOM      1  O   UNL A   1      32.525  34.998  29.333  1.00  0.00    -0.457 OA
ENDROOT
BRANCH   1   2
ATOM      2  C   UNL A   1      32.936  36.277  29.562  1.00  0.00     0.358 C 
ATOM      3  O   UNL A   1      32.900  37.199  28.774  1.00  0.00    -0.244 OA
BRANCH   2   4
ATOM      4  C   UNL A   1      33.354  36.440  30.975  1.00  0.00     0.169 A 
ATOM      5  C   UNL A   1      34.066  35.545  32.964  1.00  0.00     0.145 A 
ATOM      6  C   UNL A   1      33.998  36.820  33.530  1.00  0.00     0.157 A 
ATOM      7  N   UNL A   1      33.738  35.343  31.673  1.00  0.00    -0.221 NA
ATOM      8  N   UNL A   1      33.634  37.929  32.840  1.00  0.00    -0.258 NA
ATOM      9  C   UNL A   1      33.330  37.707  31.541  1.00  0.00     0.147 A 
BRANCH   5  10
ATOM     10  N   UNL A   1      34.458  34.414  33.625  1.00  0.00    -0.369 N 
ATOM     11  H   UNL A   1      34.786  34.503  34.548  1.00  0.00     0.162 HD
BRANCH  10  12
ATOM     12  C   UNL A   1      34.415  33.095  33.037  1.00  0.00     0.114 C 
BRANCH  12  13
ATOM     13  C   UNL A   1      35.837  32.549  32.896  1.00  0.00     0.021 C 
BRANCH  13  14
ATOM     14  C   UNL A   1      36.538  32.876  31.571  1.00  0.00     0.002 C 
BRANCH  14  15
ATOM     15  C   UNL A   1      37.626  33.947  31.651  1.00  0.00    -0.003 C 
ATOM     16  C   UNL A   1      38.109  34.205  33.069  1.00  0.00     0.004 C 
ENDBRANCH  14  15
ENDBRANCH  13  14
ENDBRANCH  12  13
ENDBRANCH  10  12
ENDBRANCH   5  10
ENDBRANCH   2   4
ENDBRANCH   1   2
BRANCH   1  17
ATOM     17  C   UNL A   1      33.169  34.308  28.244  1.00  0.00     0.275 C 
BRANCH  17  18
ATOM     18  C   UNL A   1      34.038  33.159  28.754  1.00  0.00     0.275 C 
BRANCH  18  19
ATOM     19  O   UNL A   1      34.714  32.528  27.650  1.00  0.00    -0.458 OA
BRANCH  19  20
ATOM     20  C   UNL A   1      34.793  31.181  27.699  1.00  0.00     0.338 C 
ATOM     21  O   UNL A   1      34.057  30.368  27.162  1.00  0.00    -0.246 OA
BRANCH  20  22
ATOM     22  C   UNL A   1      35.971  30.778  28.481  1.00  0.00     0.060 A 
ATOM     23  C   UNL A   1      37.199  31.368  28.200  1.00  0.00     0.016 A 
ATOM     24  C   UNL A   1      35.901  29.701  29.362  1.00  0.00     0.016 A 
ATOM     25  C   UNL A   1      38.375  30.820  28.703  1.00  0.00     0.010 A 
ATOM     26  C   UNL A   1      37.076  29.216  29.952  1.00  0.00     0.010 A 
ATOM     27  C   UNL A   1      38.334  29.736  29.591  1.00  0.00    -0.014 A 
BRANCH  27  28
ATOM     28  C   UNL A   1      39.597  29.103  30.071  1.00  0.00     0.031 A 
ATOM     29  C   UNL A   1      40.240  29.573  31.353  1.00  0.00     0.074 A 
ATOM     30  C   UNL A   1      40.160  28.077  29.399  1.00  0.00     0.049 A 
ATOM     31  N   UNL A   1      41.418  29.283  31.847  1.00  0.00    -0.248 NA
ATOM     32  C   UNL A   1      39.460  30.506  32.180  1.00  0.00     0.031 C 
ATOM     33  C   UNL A   1      39.629  27.467  28.179  1.00  0.00     0.029 A 
ATOM     34  N   UNL A   1      41.297  27.353  29.661  1.00  0.00    -0.354 N 
ATOM     35  C   UNL A   1      41.548  30.051  32.998  1.00  0.00     0.074 A 
ATOM     36  C   UNL A   1      40.327  30.818  33.132  1.00  0.00     0.031 C 
ATOM     37  C   UNL A   1      40.401  26.425  27.836  1.00  0.00     0.029 A 
ATOM     38  C   UNL A   1      41.535  26.352  28.751  1.00  0.00     0.049 A 
ATOM     39  H   UNL A   1      41.886  27.533  30.429  1.00  0.00     0.167 HD
ATOM     40  C   UNL A   1      42.587  30.113  33.864  1.00  0.00     0.037 A 
ATOM     41  C   UNL A   1      42.565  25.492  28.637  1.00  0.00     0.037 A 
ATOM     42  C   UNL A   1      43.770  29.295  33.778  1.00  0.00     0.049 A 
ATOM     43  C   UNL A   1      43.714  25.586  29.598  1.00  0.00     0.074 A 
ATOM     44  C   UNL A   1      44.878  29.284  34.609  1.00  0.00     0.029 A 
ATOM     45  N   UNL A   1      43.984  28.321  32.815  1.00  0.00    -0.354 N 
ATOM     46  N   UNL A   1      43.868  26.384  30.626  1.00  0.00    -0.248 NA
ATOM     47  C   UNL A   1      44.847  24.679  29.366  1.00  0.00     0.031 C 
ATOM     48  C   UNL A   1      45.773  28.318  34.135  1.00  0.00     0.029 A 
ATOM     49  C   UNL A   1      45.207  27.703  33.029  1.00  0.00     0.049 A 
ATOM     50  H   UNL A   1      43.361  28.100  32.086  1.00  0.00     0.167 HD
ATOM     51  C   UNL A   1      45.108  26.072  31.168  1.00  0.00     0.074 A 
ATOM     52  C   UNL A   1      45.656  24.997  30.366  1.00  0.00     0.031 C 
ATOM     53  C   UNL A   1      45.738  26.632  32.227  1.00  0.00     0.037 A 
BRANCH  40  54
ATOM     54  C   UNL A   1      42.508  31.130  34.966  1.00  0.00     0.057 A 
ATOM     55  C   UNL A   1      42.912  32.459  34.789  1.00  0.00     0.134 A 
ATOM     56  C   UNL A   1      41.999  30.772  36.222  1.00  0.00     0.134 A 
ATOM     57  F   UNL A   1      43.421  32.864  33.616  1.00  0.00    -0.206 F 
ATOM     58  C   UNL A   1      42.840  33.388  35.830  1.00  0.00     0.040 A 
ATOM     59  C   UNL A   1      41.898  31.697  37.262  1.00  0.00     0.040 A 
ATOM     60  F   UNL A   1      41.587  29.517  36.456  1.00  0.00    -0.206 F 
ATOM     61  C   UNL A   1      42.327  33.009  37.069  1.00  0.00     0.006 A 
ENDBRANCH  40  54
BRANCH  41  62
ATOM     62  C   UNL A   1      42.571  24.487  27.545  1.00  0.00     0.057 A 
ATOM     63  C   UNL A   1      42.069  23.197  27.750  1.00  0.00     0.134 A 
ATOM     64  C   UNL A   1      43.064  24.793  26.270  1.00  0.00     0.134 A 
ATOM     65  F   UNL A   1      41.608  22.836  28.957  1.00  0.00    -0.206 F 
ATOM     66  C   UNL A   1      42.056  22.247  26.727  1.00  0.00     0.040 A 
ATOM     67  C   UNL A   1      43.033  23.862  25.232  1.00  0.00     0.040 A 
ATOM     68  F   UNL A   1      43.560  26.011  26.011  1.00  0.00    -0.206 F 
ATOM     69  C   UNL A   1      42.531  22.583  25.460  1.00  0.00     0.006 A 
ENDBRANCH  41  62
BRANCH  53  70
ATOM     70  C   UNL A   1      47.076  26.069  32.598  1.00  0.00     0.057 A 
ATOM     71  C   UNL A   1      47.210  25.053  33.551  1.00  0.00     0.134 A 
ATOM     72  C   UNL A   1      48.241  26.537  31.979  1.00  0.00     0.134 A 
ATOM     73  F   UNL A   1      46.131  24.573  34.189  1.00  0.00    -0.206 F 
ATOM     74  C   UNL A   1      48.461  24.536  33.893  1.00  0.00     0.040 A 
ATOM     75  C   UNL A   1      49.496  26.014  32.298  1.00  0.00     0.040 A 
ATOM     76  F   UNL A   1      48.180  27.507  31.053  1.00  0.00    -0.206 F 
ATOM     77  C   UNL A   1      49.607  25.015  33.263  1.00  0.00     0.006 A 
ENDBRANCH  53  70
ENDBRANCH  27  28
ENDBRANCH  20  22
ENDBRANCH  19  20
ENDBRANCH  18  19
ENDBRANCH  17  18
ENDBRANCH   1  17
TORSDOF 16
ENDMDL
MODEL 3
REMARK VINA RESULT:      -9.9      5.898     12.409
REMARK SMILES CCCCCNc1cncc(C(=O)OCCOC(=O)c2ccc(-c3c4nc(c(-c5c(F)cccc5F)c5ccc([nH]5)c(-c5c(F)cccc5F)c5nc(c(-c6c(F)cccc6F)c6ccc3[nH]6)C=C5)C=C4)cc2)n1
REMARK SMILES IDX 14 1 12 2 13 3 11 4 7 5 8 6 74 7 9 8 10 9 6 10 5 12 4 13
REMARK SMILES IDX 3 14 2 15 1 16 15 17 16 18 17 19 18 20 19 21 20 22 21 23
REMARK SMILES IDX 73 24 22 25 72 26 23 27 24 28 25 29 66 30 26 31 71 32 65 33
REMARK SMILES IDX 67 34 27 35 70 36 64 37 63 38 28 40 54 41 37 42 53 43 38 44
REMARK SMILES IDX 41 45 52 46 68 47 39 48 40 49 51 51 69 52 42 53 29 54 30 55
REMARK SMILES IDX 35 56 31 57 32 58 34 59 36 60 33 61 55 62 56 63 61 64 57 65
REMARK SMILES IDX 58 66 60 67 62 68 59 69 43 70 44 71 49 72 45 73 46 74 48 75
REMARK SMILES IDX 50 76 47 77
REMARK H PARENT 6 11 67 39 41 50
REMARK Flexibility Score: inf
ROOT
ATOM      1  O   UNL A   1      46.082  21.101  25.250  1.00  0.00    -0.457 OA
ENDROOT
BRANCH   1   2
ATOM      2  C   UNL A   1      45.057  20.610  24.499  1.00  0.00     0.358 C 
ATOM      3  O   UNL A   1      44.920  20.729  23.299  1.00  0.00    -0.244 OA
BRANCH   2   4
ATOM      4  C   UNL A   1      44.146  19.793  25.337  1.00  0.00     0.169 A 
ATOM      5  C   UNL A   1      42.225  19.576  26.572  1.00  0.00     0.145 A 
ATOM      6  C   UNL A   1      42.623  18.281  26.911  1.00  0.00     0.157 A 
ATOM      7  N   UNL A   1      42.993  20.350  25.780  1.00  0.00    -0.221 NA
ATOM      8  N   UNL A   1      43.764  17.705  26.461  1.00  0.00    -0.258 NA
ATOM      9  C   UNL A   1      44.508  18.491  25.651  1.00  0.00     0.147 A 
BRANCH   5  10
ATOM     10  N   UNL A   1      41.067  20.174  26.984  1.00  0.00    -0.369 N 
ATOM     11  H   UNL A   1      40.941  20.333  27.947  1.00  0.00     0.162 HD
BRANCH  10  12
ATOM     12  C   UNL A   1      40.018  20.584  26.080  1.00  0.00     0.114 C 
BRANCH  12  13
ATOM     13  C   UNL A   1      39.628  22.035  26.367  1.00  0.00     0.021 C 
BRANCH  13  14
ATOM     14  C   UNL A   1      38.230  22.445  25.888  1.00  0.00     0.002 C 
BRANCH  14  15
ATOM     15  C   UNL A   1      37.592  21.518  24.853  1.00  0.00    -0.003 C 
ATOM     16  C   UNL A   1      36.720  22.253  23.848  1.00  0.00     0.004 C 
ENDBRANCH  14  15
ENDBRANCH  13  14
ENDBRANCH  12  13
ENDBRANCH  10  12
ENDBRANCH   5  10
ENDBRANCH   2   4
ENDBRANCH   1   2
BRANCH   1  17
ATOM     17  C   UNL A   1      45.946  22.463  25.700  1.00  0.00     0.275 C 
BRANCH  17  18
ATOM     18  C   UNL A   1      45.793  23.422  24.520  1.00  0.00     0.275 C 
BRANCH  18  19
ATOM     19  O   UNL A   1      44.880  24.482  24.866  1.00  0.00    -0.458 OA
BRANCH  19  20
ATOM     20  C   UNL A   1      43.575  24.139  24.925  1.00  0.00     0.338 C 
ATOM     21  O   UNL A   1      43.018  23.212  24.359  1.00  0.00    -0.246 OA
BRANCH  20  22
ATOM     22  C   UNL A   1      42.865  25.037  25.848  1.00  0.00     0.060 A 
ATOM     23  C   UNL A   1      43.139  26.400  25.805  1.00  0.00     0.016 A 
ATOM     24  C   UNL A   1      42.067  24.519  26.866  1.00  0.00     0.016 A 
ATOM     25  C   UNL A   1      42.717  27.236  26.834  1.00  0.00     0.010 A 
ATOM     26  C   UNL A   1      41.555  25.380  27.846  1.00  0.00     0.010 A 
ATOM     27  C   UNL A   1      41.915  26.741  27.872  1.00  0.00    -0.014 A 
BRANCH  27  28
ATOM     28  C   UNL A   1      41.526  27.621  29.013  1.00  0.00     0.031 A 
ATOM     29  C   UNL A   1      42.355  27.635  30.274  1.00  0.00     0.074 A 
ATOM     30  C   UNL A   1      40.464  28.447  28.922  1.00  0.00     0.049 A 
ATOM     31  N   UNL A   1      42.094  28.186  31.433  1.00  0.00    -0.248 NA
ATOM     32  C   UNL A   1      43.640  26.921  30.229  1.00  0.00     0.031 C 
ATOM     33  C   UNL A   1      39.600  28.597  27.751  1.00  0.00     0.029 A 
ATOM     34  N   UNL A   1      39.941  29.334  29.831  1.00  0.00    -0.354 N 
ATOM     35  C   UNL A   1      43.142  27.824  32.272  1.00  0.00     0.074 A 
ATOM     36  C   UNL A   1      44.045  27.008  31.488  1.00  0.00     0.031 C 
ATOM     37  C   UNL A   1      38.698  29.561  27.988  1.00  0.00     0.029 A 
ATOM     38  C   UNL A   1      38.854  30.030  29.361  1.00  0.00     0.049 A 
ATOM     39  H   UNL A   1      40.310  29.460  30.736  1.00  0.00     0.167 HD
ATOM     40  C   UNL A   1      43.335  28.140  33.575  1.00  0.00     0.037 A 
ATOM     41  C   UNL A   1      38.047  30.919  29.970  1.00  0.00     0.037 A 
ATOM     42  C   UNL A   1      42.480  29.014  34.336  1.00  0.00     0.049 A 
ATOM     43  C   UNL A   1      38.269  31.246  31.418  1.00  0.00     0.074 A 
ATOM     44  C   UNL A   1      42.593  29.396  35.662  1.00  0.00     0.029 A 
ATOM     45  N   UNL A   1      41.367  29.666  33.827  1.00  0.00    -0.354 N 
ATOM     46  N   UNL A   1      39.208  30.820  32.226  1.00  0.00    -0.248 NA
ATOM     47  C   UNL A   1      37.300  32.155  32.047  1.00  0.00     0.031 C 
ATOM     48  C   UNL A   1      41.535  30.262  35.962  1.00  0.00     0.029 A 
ATOM     49  C   UNL A   1      40.783  30.446  34.813  1.00  0.00     0.049 A 
ATOM     50  H   UNL A   1      41.039  29.586  32.902  1.00  0.00     0.167 HD
ATOM     51  C   UNL A   1      38.950  31.413  33.455  1.00  0.00     0.074 A 
ATOM     52  C   UNL A   1      37.777  32.245  33.281  1.00  0.00     0.031 C 
ATOM     53  C   UNL A   1      39.619  31.273  34.624  1.00  0.00     0.037 A 
BRANCH  40  54
ATOM     54  C   UNL A   1      44.502  27.504  34.273  1.00  0.00     0.057 A 
ATOM     55  C   UNL A   1      44.415  26.248  34.885  1.00  0.00     0.134 A 
ATOM     56  C   UNL A   1      45.740  28.160  34.317  1.00  0.00     0.134 A 
ATOM     57  F   UNL A   1      43.255  25.574  34.891  1.00  0.00    -0.206 F 
ATOM     58  C   UNL A   1      45.510  25.678  35.539  1.00  0.00     0.040 A 
ATOM     59  C   UNL A   1      46.849  27.589  34.946  1.00  0.00     0.040 A 
ATOM     60  F   UNL A   1      45.894  29.363  33.744  1.00  0.00    -0.206 F 
ATOM     61  C   UNL A   1      46.732  26.346  35.566  1.00  0.00     0.006 A 
ENDBRANCH  40  54
BRANCH  41  62
ATOM     62  C   UNL A   1      36.928  31.538  29.216  1.00  0.00     0.057 A 
ATOM     63  C   UNL A   1      37.005  32.863  28.772  1.00  0.00     0.134 A 
ATOM     64  C   UNL A   1      35.765  30.821  28.911  1.00  0.00     0.134 A 
ATOM     65  F   UNL A   1      38.082  33.609  29.057  1.00  0.00    -0.206 F 
ATOM     66  C   UNL A   1      35.966  33.453  28.050  1.00  0.00     0.040 A 
ATOM     67  C   UNL A   1      34.730  31.390  28.168  1.00  0.00     0.040 A 
ATOM     68  F   UNL A   1      35.630  29.548  29.310  1.00  0.00    -0.206 F 
ATOM     69  C   UNL A   1      34.828  32.711  27.738  1.00  0.00     0.006 A 
ENDBRANCH  41  62
BRANCH  53  70
ATOM     70  C   UNL A   1      39.116  32.062  35.794  1.00  0.00     0.057 A 
ATOM     71  C   UNL A   1      38.250  31.504  36.741  1.00  0.00     0.134 A 
ATOM     72  C   UNL A   1      39.518  33.389  35.984  1.00  0.00     0.134 A 
ATOM     73  F   UNL A   1      37.817  30.240  36.606  1.00  0.00    -0.206 F 
ATOM     74  C   UNL A   1      37.782  32.246  37.827  1.00  0.00     0.040 A 
ATOM     75  C   UNL A   1      39.073  34.136  37.077  1.00  0.00     0.040 A 
ATOM     76  F   UNL A   1      40.351  33.981  35.114  1.00  0.00    -0.206 F 
ATOM     77  C   UNL A   1      38.197  33.565  37.998  1.00  0.00     0.006 A 
ENDBRANCH  53  70
ENDBRANCH  27  28
ENDBRANCH  20  22
ENDBRANCH  19  20
ENDBRANCH  18  19
ENDBRANCH  17  18
ENDBRANCH   1  17
TORSDOF 16
ENDMDL
