MODEL 1
REMARK VINA RESULT:     -10.4      0.000      0.000
REMARK SMILES C[C@@H]1CN(C(=O)N2CC(CC(=O)OCCOC(=O)c3ccc(-c4c5nc(c(-c6c(F)cccc6F)c6ccc([nH]6)c(-c6c(F)cccc6F)c6nc(c(-c7c(F)cccc7F)c7ccc4[nH]7)C=C6)C=C5)cc3)C2)C[C@H]1C
REMARK SMILES IDX 15 1 14 2 13 3 11 4 12 5 10 6 9 7 1 8 2 9 3 10 75 11 4 12
REMARK SMILES IDX 74 13 76 14 5 15 6 16 7 17 8 18 73 19 16 20 17 21 18 22
REMARK SMILES IDX 19 23 20 24 72 25 21 26 71 27 22 28 23 29 24 30 65 31 25 32
REMARK SMILES IDX 70 33 64 34 66 35 26 36 69 37 63 38 62 39 27 41 53 42 36 43
REMARK SMILES IDX 52 44 37 45 40 46 51 47 67 48 38 49 39 50 50 52 68 53 41 54
REMARK SMILES IDX 28 55 29 56 34 57 30 58 31 59 33 60 35 61 32 62 54 63 55 64
REMARK SMILES IDX 60 65 56 66 57 67 59 68 61 69 58 70 42 71 43 72 48 73 44 74
REMARK SMILES IDX 45 75 47 76 49 77 46 78
REMARK H PARENT 66 40 40 51
REMARK Flexibility Score: inf
ROOT
ATOM      1  C   UNL A   1      42.881  18.099  26.167  1.00  0.00     0.275 C 
ENDROOT
BRANCH   1   2
ATOM      2  C   UNL A   1      44.411  18.089  26.177  1.00  0.00     0.274 C 
BRANCH   2   3
ATOM      3  O   UNL A   1      44.944  18.426  24.881  1.00  0.00    -0.462 OA
BRANCH   3   4
ATOM      4  C   UNL A   1      46.020  19.256  24.872  1.00  0.00     0.306 C 
ATOM      5  O   UNL A   1      47.080  19.042  25.446  1.00  0.00    -0.252 OA
BRANCH   4   6
ATOM      6  C   UNL A   1      45.761  20.521  24.095  1.00  0.00     0.130 C 
BRANCH   6   7
ATOM      7  C   UNL A   1      45.058  21.627  24.870  1.00  0.00     0.039 C 
ATOM      8  C   UNL A   1      48.770  27.357  24.114  1.00  0.00     0.010 C 
ATOM      9  C   UNL A   1      47.716  27.067  25.173  1.00  0.00     0.010 C 
ATOM     10  C   UNL A   1      47.106  25.669  25.018  1.00  0.00     0.125 C 
ATOM     11  C   UNL A   1      46.494  28.000  25.082  1.00  0.00     0.010 C 
ATOM     12  N   UNL A   1      45.702  25.819  25.370  1.00  0.00    -0.324 N 
ATOM     13  C   UNL A   1      45.406  27.181  25.772  1.00  0.00     0.125 C 
ATOM     14  C   UNL A   1      46.714  29.359  25.725  1.00  0.00     0.010 C 
ATOM     15  C   UNL A   1      44.700  24.942  25.017  1.00  0.00     0.320 C 
ATOM     16  O   UNL A   1      43.516  25.275  24.974  1.00  0.00    -0.248 OA
ATOM     17  N   UNL A   1      45.106  23.686  24.653  1.00  0.00    -0.324 N 
ATOM     18  C   UNL A   1      44.309  22.655  24.017  1.00  0.00     0.127 C 
ATOM     19  C   UNL A   1      45.954  22.760  25.390  1.00  0.00     0.127 C 
ENDBRANCH   6   7
ENDBRANCH   4   6
ENDBRANCH   3   4
ENDBRANCH   2   3
ENDBRANCH   1   2
BRANCH   1  20
ATOM     20  O   UNL A   1      42.369  19.246  25.462  1.00  0.00    -0.458 OA
BRANCH  20  21
ATOM     21  C   UNL A   1      41.169  19.695  25.894  1.00  0.00     0.338 C 
ATOM     22  O   UNL A   1      40.098  19.118  25.841  1.00  0.00    -0.246 OA
BRANCH  21  23
ATOM     23  C   UNL A   1      41.342  20.990  26.570  1.00  0.00     0.060 A 
ATOM     24  C   UNL A   1      41.282  22.154  25.800  1.00  0.00     0.016 A 
ATOM     25  C   UNL A   1      41.656  21.052  27.929  1.00  0.00     0.016 A 
ATOM     26  C   UNL A   1      41.544  23.390  26.386  1.00  0.00     0.010 A 
ATOM     27  C   UNL A   1      41.915  22.294  28.517  1.00  0.00     0.010 A 
ATOM     28  C   UNL A   1      41.876  23.469  27.746  1.00  0.00    -0.014 A 
BRANCH  28  29
ATOM     29  C   UNL A   1      42.214  24.785  28.339  1.00  0.00     0.031 A 
ATOM     30  C   UNL A   1      43.621  25.081  28.772  1.00  0.00     0.074 A 
ATOM     31  C   UNL A   1      41.261  25.728  28.457  1.00  0.00     0.049 A 
ATOM     32  N   UNL A   1      44.110  26.173  29.304  1.00  0.00    -0.248 NA
ATOM     33  C   UNL A   1      44.608  24.008  28.583  1.00  0.00     0.031 C 
ATOM     34  C   UNL A   1      39.862  25.567  28.060  1.00  0.00     0.029 A 
ATOM     35  N   UNL A   1      41.328  27.008  28.942  1.00  0.00    -0.354 N 
ATOM     36  C   UNL A   1      45.458  25.918  29.520  1.00  0.00     0.074 A 
ATOM     37  C   UNL A   1      45.705  24.559  29.084  1.00  0.00     0.031 C 
ATOM     38  C   UNL A   1      39.204  26.711  28.309  1.00  0.00     0.029 A 
ATOM     39  C   UNL A   1      40.128  27.673  28.905  1.00  0.00     0.049 A 
ATOM     40  H   UNL A   1      42.159  27.413  29.283  1.00  0.00     0.167 HD
ATOM     41  C   UNL A   1      46.404  26.744  30.027  1.00  0.00     0.037 A 
ATOM     42  C   UNL A   1      39.807  28.916  29.311  1.00  0.00     0.037 A 
ATOM     43  C   UNL A   1      46.165  28.099  30.452  1.00  0.00     0.049 A 
ATOM     44  C   UNL A   1      40.872  29.804  29.891  1.00  0.00     0.074 A 
ATOM     45  C   UNL A   1      47.067  29.015  30.966  1.00  0.00     0.029 A 
ATOM     46  N   UNL A   1      44.932  28.732  30.413  1.00  0.00    -0.354 N 
ATOM     47  N   UNL A   1      42.146  29.556  30.074  1.00  0.00    -0.248 NA
ATOM     48  C   UNL A   1      40.454  31.148  30.314  1.00  0.00     0.031 C 
ATOM     49  C   UNL A   1      46.372  30.194  31.265  1.00  0.00     0.029 A 
ATOM     50  C   UNL A   1      45.046  30.023  30.905  1.00  0.00     0.049 A 
ATOM     51  H   UNL A   1      44.098  28.325  30.083  1.00  0.00     0.167 HD
ATOM     52  C   UNL A   1      42.685  30.716  30.616  1.00  0.00     0.074 A 
ATOM     53  C   UNL A   1      41.603  31.673  30.716  1.00  0.00     0.031 C 
ATOM     54  C   UNL A   1      43.961  30.964  30.999  1.00  0.00     0.037 A 
BRANCH  41  55
ATOM     55  C   UNL A   1      47.793  26.196  30.163  1.00  0.00     0.057 A 
ATOM     56  C   UNL A   1      48.707  26.231  29.102  1.00  0.00     0.134 A 
ATOM     57  C   UNL A   1      48.232  25.657  31.378  1.00  0.00     0.134 A 
ATOM     58  F   UNL A   1      48.343  26.724  27.909  1.00  0.00    -0.206 F 
ATOM     59  C   UNL A   1      50.004  25.733  29.241  1.00  0.00     0.040 A 
ATOM     60  C   UNL A   1      49.534  25.174  31.535  1.00  0.00     0.040 A 
ATOM     61  F   UNL A   1      47.407  25.597  32.435  1.00  0.00    -0.206 F 
ATOM     62  C   UNL A   1      50.421  25.208  30.462  1.00  0.00     0.006 A 
ENDBRANCH  41  55
BRANCH  42  63
ATOM     63  C   UNL A   1      38.412  29.399  29.177  1.00  0.00     0.057 A 
ATOM     64  C   UNL A   1      37.551  29.434  30.278  1.00  0.00     0.134 A 
ATOM     65  C   UNL A   1      37.908  29.827  27.945  1.00  0.00     0.134 A 
ATOM     66  F   UNL A   1      37.973  29.015  31.480  1.00  0.00    -0.206 F 
ATOM     67  C   UNL A   1      36.229  29.866  30.156  1.00  0.00     0.040 A 
ATOM     68  C   UNL A   1      36.595  30.282  27.812  1.00  0.00     0.040 A 
ATOM     69  F   UNL A   1      38.687  29.817  26.853  1.00  0.00    -0.206 F 
ATOM     70  C   UNL A   1      35.751  30.298  28.920  1.00  0.00     0.006 A 
ENDBRANCH  42  63
BRANCH  54  71
ATOM     71  C   UNL A   1      44.254  32.333  31.535  1.00  0.00     0.057 A 
ATOM     72  C   UNL A   1      44.629  33.389  30.694  1.00  0.00     0.134 A 
ATOM     73  C   UNL A   1      44.150  32.601  32.905  1.00  0.00     0.134 A 
ATOM     74  F   UNL A   1      44.760  33.192  29.374  1.00  0.00    -0.206 F 
ATOM     75  C   UNL A   1      44.917  34.657  31.202  1.00  0.00     0.040 A 
ATOM     76  C   UNL A   1      44.414  33.870  33.422  1.00  0.00     0.040 A 
ATOM     77  F   UNL A   1      43.791  31.634  33.763  1.00  0.00    -0.206 F 
ATOM     78  C   UNL A   1      44.805  34.901  32.570  1.00  0.00     0.006 A 
ENDBRANCH  54  71
ENDBRANCH  28  29
ENDBRANCH  21  23
ENDBRANCH  20  21
ENDBRANCH   1  20
TORSDOF 12
ENDMDL
MODEL 2
REMARK VINA RESULT:     -10.4      4.246      6.598
REMARK SMILES C[C@@H]1CN(C(=O)N2CC(CC(=O)OCCOC(=O)c3ccc(-c4c5nc(c(-c6c(F)cccc6F)c6ccc([nH]6)c(-c6c(F)cccc6F)c6nc(c(-c7c(F)cccc7F)c7ccc4[nH]7)C=C6)C=C5)cc3)C2)C[C@H]1C
REMARK SMILES IDX 15 1 14 2 13 3 11 4 12 5 10 6 9 7 1 8 2 9 3 10 75 11 4 12
REMARK SMILES IDX 74 13 76 14 5 15 6 16 7 17 8 18 73 19 16 20 17 21 18 22
REMARK SMILES IDX 19 23 20 24 72 25 21 26 71 27 22 28 23 29 24 30 65 31 25 32
REMARK SMILES IDX 70 33 64 34 66 35 26 36 69 37 63 38 62 39 27 41 53 42 36 43
REMARK SMILES IDX 52 44 37 45 40 46 51 47 67 48 38 49 39 50 50 52 68 53 41 54
REMARK SMILES IDX 28 55 29 56 34 57 30 58 31 59 33 60 35 61 32 62 54 63 55 64
REMARK SMILES IDX 60 65 56 66 57 67 59 68 61 69 58 70 42 71 43 72 48 73 44 74
REMARK SMILES IDX 45 75 47 76 49 77 46 78
REMARK H PARENT 66 40 40 51
REMARK Flexibility Score: inf
ROOT
ATOM      1  C   UNL A   1      44.183  21.797  25.045  1.00  0.00     0.275 C 
ENDROOT
BRANCH   1   2
ATOM      2  C   UNL A   1      43.634  20.498  25.640  1.00  0.00     0.274 C 
BRANCH   2   3
ATOM      3  O   UNL A   1      42.196  20.530  25.727  1.00  0.00    -0.462 OA
BRANCH   3   4
ATOM      4  C   UNL A   1      41.663  20.260  26.947  1.00  0.00     0.306 C 
ATOM      5  O   UNL A   1      42.001  19.336  27.676  1.00  0.00    -0.252 OA
BRANCH   4   6
ATOM      6  C   UNL A   1      40.556  21.216  27.312  1.00  0.00     0.130 C 
BRANCH   6   7
ATOM      7  C   UNL A   1      39.884  21.910  26.135  1.00  0.00     0.039 C 
ATOM      8  C   UNL A   1      33.395  19.673  25.849  1.00  0.00     0.010 C 
ATOM      9  C   UNL A   1      34.188  20.363  24.748  1.00  0.00     0.010 C 
ATOM     10  C   UNL A   1      35.615  20.710  25.190  1.00  0.00     0.125 C 
ATOM     11  C   UNL A   1      33.601  21.727  24.343  1.00  0.00     0.010 C 
ATOM     12  N   UNL A   1      35.914  21.988  24.563  1.00  0.00    -0.324 N 
ATOM     13  C   UNL A   1      34.809  22.436  23.736  1.00  0.00     0.125 C 
ATOM     14  C   UNL A   1      32.427  21.626  23.384  1.00  0.00     0.010 C 
ATOM     15  C   UNL A   1      36.904  22.857  24.969  1.00  0.00     0.320 C 
ATOM     16  O   UNL A   1      36.879  24.057  24.701  1.00  0.00    -0.248 OA
ATOM     17  N   UNL A   1      37.890  22.316  25.750  1.00  0.00    -0.324 N 
ATOM     18  C   UNL A   1      38.903  23.028  26.503  1.00  0.00     0.127 C 
ATOM     19  C   UNL A   1      38.721  21.153  25.479  1.00  0.00     0.127 C 
ENDBRANCH   6   7
ENDBRANCH   4   6
ENDBRANCH   3   4
ENDBRANCH   2   3
ENDBRANCH   1   2
BRANCH   1  20
ATOM     20  O   UNL A   1      43.305  22.907  25.312  1.00  0.00    -0.458 OA
BRANCH  20  21
ATOM     21  C   UNL A   1      43.897  24.123  25.291  1.00  0.00     0.338 C 
ATOM     22  O   UNL A   1      44.744  24.522  24.512  1.00  0.00    -0.246 OA
BRANCH  21  23
ATOM     23  C   UNL A   1      43.283  24.989  26.309  1.00  0.00     0.060 A 
ATOM     24  C   UNL A   1      43.802  26.273  26.488  1.00  0.00     0.016 A 
ATOM     25  C   UNL A   1      42.274  24.506  27.145  1.00  0.00     0.016 A 
ATOM     26  C   UNL A   1      43.316  27.082  27.513  1.00  0.00     0.010 A 
ATOM     27  C   UNL A   1      41.785  25.321  28.171  1.00  0.00     0.010 A 
ATOM     28  C   UNL A   1      42.314  26.608  28.371  1.00  0.00    -0.014 A 
BRANCH  28  29
ATOM     29  C   UNL A   1      41.853  27.459  29.495  1.00  0.00     0.031 A 
ATOM     30  C   UNL A   1      42.575  27.428  30.811  1.00  0.00     0.074 A 
ATOM     31  C   UNL A   1      40.806  28.284  29.320  1.00  0.00     0.049 A 
ATOM     32  N   UNL A   1      42.327  28.102  31.906  1.00  0.00    -0.248 NA
ATOM     33  C   UNL A   1      43.728  26.520  30.911  1.00  0.00     0.031 C 
ATOM     34  C   UNL A   1      40.031  28.415  28.086  1.00  0.00     0.029 A 
ATOM     35  N   UNL A   1      40.215  29.171  30.184  1.00  0.00    -0.354 N 
ATOM     36  C   UNL A   1      43.285  27.696  32.827  1.00  0.00     0.074 A 
ATOM     37  C   UNL A   1      44.104  26.699  32.169  1.00  0.00     0.031 C 
ATOM     38  C   UNL A   1      39.072  29.337  28.269  1.00  0.00     0.029 A 
ATOM     39  C   UNL A   1      39.150  29.842  29.638  1.00  0.00     0.049 A 
ATOM     40  H   UNL A   1      40.527  29.314  31.107  1.00  0.00     0.167 HD
ATOM     41  C   UNL A   1      43.469  28.123  34.099  1.00  0.00     0.037 A 
ATOM     42  C   UNL A   1      38.325  30.756  30.182  1.00  0.00     0.037 A 
ATOM     43  C   UNL A   1      42.663  29.121  34.752  1.00  0.00     0.049 A 
ATOM     44  C   UNL A   1      38.538  31.194  31.603  1.00  0.00     0.074 A 
ATOM     45  C   UNL A   1      42.785  29.625  36.036  1.00  0.00     0.029 A 
ATOM     46  N   UNL A   1      41.583  29.766  34.170  1.00  0.00    -0.354 N 
ATOM     47  N   UNL A   1      39.458  30.815  32.456  1.00  0.00    -0.248 NA
ATOM     48  C   UNL A   1      37.601  32.195  32.133  1.00  0.00     0.031 C 
ATOM     49  C   UNL A   1      41.759  30.556  36.241  1.00  0.00     0.029 A 
ATOM     50  C   UNL A   1      41.022  30.657  35.073  1.00  0.00     0.049 A 
ATOM     51  H   UNL A   1      41.263  29.617  33.252  1.00  0.00     0.167 HD
ATOM     52  C   UNL A   1      39.222  31.540  33.616  1.00  0.00     0.074 A 
ATOM     53  C   UNL A   1      38.084  32.396  33.352  1.00  0.00     0.031 C 
ATOM     54  C   UNL A   1      39.888  31.501  34.796  1.00  0.00     0.037 A 
BRANCH  41  55
ATOM     55  C   UNL A   1      44.586  27.495  34.878  1.00  0.00     0.057 A 
ATOM     56  C   UNL A   1      45.875  28.044  34.891  1.00  0.00     0.134 A 
ATOM     57  C   UNL A   1      44.363  26.349  35.650  1.00  0.00     0.134 A 
ATOM     58  F   UNL A   1      46.156  29.134  34.163  1.00  0.00    -0.206 F 
ATOM     59  C   UNL A   1      46.907  27.463  35.632  1.00  0.00     0.040 A 
ATOM     60  C   UNL A   1      45.381  25.771  36.411  1.00  0.00     0.040 A 
ATOM     61  F   UNL A   1      43.149  25.776  35.684  1.00  0.00    -0.206 F 
ATOM     62  C   UNL A   1      46.659  26.327  36.399  1.00  0.00     0.006 A 
ENDBRANCH  41  55
BRANCH  42  63
ATOM     63  C   UNL A   1      37.219  31.325  29.374  1.00  0.00     0.057 A 
ATOM     64  C   UNL A   1      37.309  32.611  28.832  1.00  0.00     0.134 A 
ATOM     65  C   UNL A   1      36.047  30.601  29.135  1.00  0.00     0.134 A 
ATOM     66  F   UNL A   1      38.400  33.361  29.048  1.00  0.00    -0.206 F 
ATOM     67  C   UNL A   1      36.264  33.163  28.089  1.00  0.00     0.040 A 
ATOM     68  C   UNL A   1      35.003  31.132  28.376  1.00  0.00     0.040 A 
ATOM     69  F   UNL A   1      35.903  29.362  29.628  1.00  0.00    -0.206 F 
ATOM     70  C   UNL A   1      35.109  32.420  27.855  1.00  0.00     0.006 A 
ENDBRANCH  42  63
BRANCH  54  71
ATOM     71  C   UNL A   1      39.414  32.426  35.875  1.00  0.00     0.057 A 
ATOM     72  C   UNL A   1      39.920  33.726  36.006  1.00  0.00     0.134 A 
ATOM     73  C   UNL A   1      38.432  32.019  36.786  1.00  0.00     0.134 A 
ATOM     74  F   UNL A   1      40.873  34.171  35.173  1.00  0.00    -0.206 F 
ATOM     75  C   UNL A   1      39.486  34.578  37.024  1.00  0.00     0.040 A 
ATOM     76  C   UNL A   1      37.974  32.869  37.794  1.00  0.00     0.040 A 
ATOM     77  F   UNL A   1      37.902  30.788  36.711  1.00  0.00    -0.206 F 
ATOM     78  C   UNL A   1      38.507  34.151  37.919  1.00  0.00     0.006 A 
ENDBRANCH  54  71
ENDBRANCH  28  29
ENDBRANCH  21  23
ENDBRANCH  20  21
ENDBRANCH   1  20
TORSDOF 12
ENDMDL
MODEL 3
REMARK VINA RESULT:     -10.2      0.557      6.529
REMARK SMILES C[C@@H]1CN(C(=O)N2CC(CC(=O)OCCOC(=O)c3ccc(-c4c5nc(c(-c6c(F)cccc6F)c6ccc([nH]6)c(-c6c(F)cccc6F)c6nc(c(-c7c(F)cccc7F)c7ccc4[nH]7)C=C6)C=C5)cc3)C2)C[C@H]1C
REMARK SMILES IDX 15 1 14 2 13 3 11 4 12 5 10 6 9 7 1 8 2 9 3 10 75 11 4 12
REMARK SMILES IDX 74 13 76 14 5 15 6 16 7 17 8 18 73 19 16 20 17 21 18 22
REMARK SMILES IDX 19 23 20 24 72 25 21 26 71 27 22 28 23 29 24 30 65 31 25 32
REMARK SMILES IDX 70 33 64 34 66 35 26 36 69 37 63 38 62 39 27 41 53 42 36 43
REMARK SMILES IDX 52 44 37 45 40 46 51 47 67 48 38 49 39 50 50 52 68 53 41 54
REMARK SMILES IDX 28 55 29 56 34 57 30 58 31 59 33 60 35 61 32 62 54 63 55 64
REMARK SMILES IDX 60 65 56 66 57 67 59 68 61 69 58 70 42 71 43 72 48 73 44 74
REMARK SMILES IDX 45 75 47 76 49 77 46 78
REMARK H PARENT 66 40 40 51
REMARK Flexibility Score: inf
ROOT
ATOM      1  C   UNL A   1      42.488  18.177  26.285  1.00  0.00     0.275 C 
ENDROOT
BRANCH   1   2
ATOM      2  C   UNL A   1      44.017  18.113  26.256  1.00  0.00     0.274 C 
BRANCH   2   3
ATOM      3  O   UNL A   1      44.545  18.771  25.088  1.00  0.00    -0.462 OA
BRANCH   3   4
ATOM      4  C   UNL A   1      45.894  18.926  25.045  1.00  0.00     0.306 C 
ATOM      5  O   UNL A   1      46.712  18.077  25.376  1.00  0.00    -0.252 OA
BRANCH   4   6
ATOM      6  C   UNL A   1      46.298  20.298  24.572  1.00  0.00     0.130 C 
BRANCH   6   7
ATOM      7  C   UNL A   1      45.433  21.442  25.084  1.00  0.00     0.039 C 
ATOM      8  C   UNL A   1      49.365  27.072  25.287  1.00  0.00     0.010 C 
ATOM      9  C   UNL A   1      48.043  26.837  26.003  1.00  0.00     0.010 C 
ATOM     10  C   UNL A   1      47.464  25.447  25.714  1.00  0.00     0.125 C 
ATOM     11  C   UNL A   1      46.926  27.789  25.541  1.00  0.00     0.010 C 
ATOM     12  N   UNL A   1      46.023  25.635  25.643  1.00  0.00    -0.324 N 
ATOM     13  C   UNL A   1      45.662  27.014  25.908  1.00  0.00     0.125 C 
ATOM     14  C   UNL A   1      46.989  29.164  26.185  1.00  0.00     0.010 C 
ATOM     15  C   UNL A   1      45.141  24.766  25.038  1.00  0.00     0.320 C 
ATOM     16  O   UNL A   1      44.030  25.122  24.646  1.00  0.00    -0.248 OA
ATOM     17  N   UNL A   1      45.599  23.492  24.838  1.00  0.00    -0.324 N 
ATOM     18  C   UNL A   1      44.990  22.457  24.025  1.00  0.00     0.127 C 
ATOM     19  C   UNL A   1      46.173  22.574  25.811  1.00  0.00     0.127 C 
ENDBRANCH   6   7
ENDBRANCH   4   6
ENDBRANCH   3   4
ENDBRANCH   2   3
ENDBRANCH   1   2
BRANCH   1  20
ATOM     20  O   UNL A   1      41.993  19.252  25.465  1.00  0.00    -0.458 OA
BRANCH  20  21
ATOM     21  C   UNL A   1      40.963  19.950  25.995  1.00  0.00     0.338 C 
ATOM     22  O   UNL A   1      39.801  19.597  26.093  1.00  0.00    -0.246 OA
BRANCH  21  23
ATOM     23  C   UNL A   1      41.461  21.209  26.567  1.00  0.00     0.060 A 
ATOM     24  C   UNL A   1      41.528  21.326  27.957  1.00  0.00     0.016 A 
ATOM     25  C   UNL A   1      41.765  22.297  25.746  1.00  0.00     0.016 A 
ATOM     26  C   UNL A   1      41.895  22.540  28.535  1.00  0.00     0.010 A 
ATOM     27  C   UNL A   1      42.137  23.513  26.328  1.00  0.00     0.010 A 
ATOM     28  C   UNL A   1      42.190  23.646  27.727  1.00  0.00    -0.014 A 
BRANCH  28  29
ATOM     29  C   UNL A   1      42.517  24.946  28.360  1.00  0.00     0.031 A 
ATOM     30  C   UNL A   1      41.454  25.994  28.529  1.00  0.00     0.074 A 
ATOM     31  C   UNL A   1      43.763  25.172  28.814  1.00  0.00     0.049 A 
ATOM     32  N   UNL A   1      41.546  27.186  29.063  1.00  0.00    -0.248 NA
ATOM     33  C   UNL A   1      40.112  25.658  28.032  1.00  0.00     0.031 C 
ATOM     34  C   UNL A   1      44.878  24.229  28.722  1.00  0.00     0.029 A 
ATOM     35  N   UNL A   1      44.298  26.264  29.447  1.00  0.00    -0.354 N 
ATOM     36  C   UNL A   1      40.279  27.746  28.961  1.00  0.00     0.074 A 
ATOM     37  C   UNL A   1      39.442  26.772  28.291  1.00  0.00     0.031 C 
ATOM     38  C   UNL A   1      45.964  24.781  29.287  1.00  0.00     0.029 A 
ATOM     39  C   UNL A   1      45.627  26.123  29.757  1.00  0.00     0.049 A 
ATOM     40  H   UNL A   1      43.778  27.073  29.659  1.00  0.00     0.167 HD
ATOM     41  C   UNL A   1      39.852  28.956  29.393  1.00  0.00     0.037 A 
ATOM     42  C   UNL A   1      46.480  26.980  30.349  1.00  0.00     0.037 A 
ATOM     43  C   UNL A   1      40.679  29.922  30.068  1.00  0.00     0.049 A 
ATOM     44  C   UNL A   1      45.984  28.326  30.799  1.00  0.00     0.074 A 
ATOM     45  C   UNL A   1      40.328  31.170  30.555  1.00  0.00     0.029 A 
ATOM     46  N   UNL A   1      42.025  29.748  30.351  1.00  0.00    -0.354 N 
ATOM     47  N   UNL A   1      44.780  28.836  30.711  1.00  0.00    -0.248 NA
ATOM     48  C   UNL A   1      46.968  29.212  31.437  1.00  0.00     0.031 C 
ATOM     49  C   UNL A   1      41.470  31.763  31.107  1.00  0.00     0.029 A 
ATOM     50  C   UNL A   1      42.522  30.870  30.995  1.00  0.00     0.049 A 
ATOM     51  H   UNL A   1      42.550  28.945  30.129  1.00  0.00     0.167 HD
ATOM     52  C   UNL A   1      44.856  30.092  31.296  1.00  0.00     0.074 A 
ATOM     53  C   UNL A   1      46.220  30.261  31.752  1.00  0.00     0.031 C 
ATOM     54  C   UNL A   1      43.882  31.024  31.442  1.00  0.00     0.037 A 
BRANCH  41  55
ATOM     55  C   UNL A   1      38.418  29.310  29.134  1.00  0.00     0.057 A 
ATOM     56  C   UNL A   1      37.455  29.277  30.151  1.00  0.00     0.134 A 
ATOM     57  C   UNL A   1      38.002  29.722  27.862  1.00  0.00     0.134 A 
ATOM     58  F   UNL A   1      37.788  28.880  31.388  1.00  0.00    -0.206 F 
ATOM     59  C   UNL A   1      36.125  29.624  29.907  1.00  0.00     0.040 A 
ATOM     60  C   UNL A   1      36.679  30.091  27.610  1.00  0.00     0.040 A 
ATOM     61  F   UNL A   1      38.876  29.780  26.845  1.00  0.00    -0.206 F 
ATOM     62  C   UNL A   1      35.736  30.038  28.635  1.00  0.00     0.006 A 
ENDBRANCH  41  55
BRANCH  42  63
ATOM     63  C   UNL A   1      47.894  26.588  30.558  1.00  0.00     0.057 A 
ATOM     64  C   UNL A   1      48.902  27.037  29.699  1.00  0.00     0.134 A 
ATOM     65  C   UNL A   1      48.267  25.750  31.613  1.00  0.00     0.134 A 
ATOM     66  F   UNL A   1      48.601  27.824  28.656  1.00  0.00    -0.206 F 
ATOM     67  C   UNL A   1      50.233  26.654  29.875  1.00  0.00     0.040 A 
ATOM     68  C   UNL A   1      49.597  25.376  31.814  1.00  0.00     0.040 A 
ATOM     69  F   UNL A   1      47.344  25.288  32.470  1.00  0.00    -0.206 F 
ATOM     70  C   UNL A   1      50.583  25.826  30.939  1.00  0.00     0.006 A 
ENDBRANCH  42  63
BRANCH  54  71
ATOM     71  C   UNL A   1      44.259  32.294  32.143  1.00  0.00     0.057 A 
ATOM     72  C   UNL A   1      44.150  32.428  33.534  1.00  0.00     0.134 A 
ATOM     73  C   UNL A   1      44.745  33.392  31.423  1.00  0.00     0.134 A 
ATOM     74  F   UNL A   1      43.678  31.417  34.278  1.00  0.00    -0.206 F 
ATOM     75  C   UNL A   1      44.486  33.619  34.180  1.00  0.00     0.040 A 
ATOM     76  C   UNL A   1      45.105  34.581  32.059  1.00  0.00     0.040 A 
ATOM     77  F   UNL A   1      44.878  33.327  30.089  1.00  0.00    -0.206 F 
ATOM     78  C   UNL A   1      44.969  34.699  33.442  1.00  0.00     0.006 A 
ENDBRANCH  54  71
ENDBRANCH  28  29
ENDBRANCH  21  23
ENDBRANCH  20  21
ENDBRANCH   1  20
TORSDOF 12
ENDMDL
