MODEL 1
REMARK VINA RESULT:     -14.7      0.000      0.000
REMARK SMILES O=C(OCCOC(=O)c1ccc(-c2c3nc(c(-c4c(F)cccc4F)c4ccc([nH]4)c(-c4c(F)cccc4F)c4nc(c(-c5c(F)cccc5F)c5ccc2[nH]5)C=C4)C=C3)cc1)C1=Cc2cc(Cl)cc(-c3ccc(O)cc3)c2O[C@@H]1C(F)(F)F
REMARK SMILES IDX 4 1 3 2 2 3 1 4 63 5 64 6 80 7 65 8 79 9 66 10 78 11 67 12
REMARK SMILES IDX 70 13 68 14 69 15 81 16 82 17 83 18 84 19 71 20 72 21 77 22
REMARK SMILES IDX 73 23 76 24 74 25 75 26 5 28 6 29 7 30 8 31 9 32 10 33 62 34
REMARK SMILES IDX 11 35 61 36 12 37 13 38 14 39 55 40 15 41 60 42 54 43 56 44
REMARK SMILES IDX 16 45 59 46 53 47 52 48 17 50 43 51 26 52 42 53 27 54 30 55
REMARK SMILES IDX 41 56 57 57 28 58 29 59 40 61 58 62 31 63 18 64 19 65 24 66
REMARK SMILES IDX 20 67 21 68 23 69 25 70 22 71 44 72 45 73 50 74 46 75 47 76
REMARK SMILES IDX 49 77 51 78 48 79 32 80 33 81 38 82 34 83 35 84 37 85 39 86
REMARK SMILES IDX 36 87
REMARK H PARENT 75 27 56 49 30 60
REMARK Flexibility Score: inf
ROOT
ATOM      1  C   UNL A   1      31.678  27.847  26.152  1.00  0.00     0.275 C 
ENDROOT
BRANCH   1   2
ATOM      2  O   UNL A   1      32.821  26.770  26.135  1.00  0.00    -0.459 OA
BRANCH   2   3
ATOM      3  C   UNL A   1      32.368  25.513  26.128  1.00  0.00     0.338 C 
ATOM      4  O   UNL A   1      31.903  24.834  27.006  1.00  0.00    -0.246 OA
BRANCH   3   5
ATOM      5  C   UNL A   1      32.924  25.192  24.842  1.00  0.00     0.087 C 
ATOM      6  C   UNL A   1      34.381  24.972  24.953  1.00  0.00     0.027 C 
ATOM      7  C   UNL A   1      31.631  23.842  24.351  1.00  0.00     0.316 C 
ATOM      8  C   UNL A   1      35.151  23.342  24.781  1.00  0.00     0.019 A 
ATOM      9  O   UNL A   1      32.429  22.095  24.195  1.00  0.00    -0.475 OA
ATOM     10  C   UNL A   1      36.469  23.251  25.144  1.00  0.00     0.032 A 
ATOM     11  C   UNL A   1      34.215  21.888  24.508  1.00  0.00     0.135 A 
ATOM     12  C   UNL A   1      36.950  21.948  25.275  1.00  0.00     0.042 A 
ATOM     13  C   UNL A   1      34.777  20.645  24.701  1.00  0.00     0.026 A 
ATOM     14  Cl  UNL A   1      38.585  21.762  25.818  1.00  0.00    -0.084 Cl
ATOM     15  C   UNL A   1      36.165  20.747  25.067  1.00  0.00     0.033 A 
BRANCH   7  16
ATOM     16  C   UNL A   1      30.731  24.706  23.399  1.00  0.00     0.430 C 
ATOM     17  F   UNL A   1      31.427  25.234  22.385  1.00  0.00    -0.167 F 
ATOM     18  F   UNL A   1      29.834  23.868  22.793  1.00  0.00    -0.167 F 
ATOM     19  F   UNL A   1      29.934  25.622  23.976  1.00  0.00    -0.167 F 
ENDBRANCH   7  16
BRANCH  13  20
ATOM     20  C   UNL A   1      34.190  19.314  24.739  1.00  0.00    -0.014 A 
ATOM     21  C   UNL A   1      32.991  19.125  25.460  1.00  0.00     0.012 A 
ATOM     22  C   UNL A   1      34.906  18.182  24.334  1.00  0.00     0.012 A 
ATOM     23  C   UNL A   1      32.537  17.848  25.788  1.00  0.00     0.047 A 
ATOM     24  C   UNL A   1      34.450  16.897  24.660  1.00  0.00     0.047 A 
ATOM     25  C   UNL A   1      33.274  16.743  25.391  1.00  0.00     0.115 A 
BRANCH  25  26
ATOM     26  O   UNL A   1      32.818  15.514  25.764  1.00  0.00    -0.508 OA
ATOM     27  H   UNL A   1      31.941  15.417  26.080  1.00  0.00     0.293 HD
ENDBRANCH  25  26
ENDBRANCH  13  20
ENDBRANCH   3   5
ENDBRANCH   2   3
ENDBRANCH   1   2
BRANCH   1  28
ATOM     28  C   UNL A   1      31.943  29.986  26.027  1.00  0.00     0.275 C 
BRANCH  28  29
ATOM     29  O   UNL A   1      32.583  30.996  27.221  1.00  0.00    -0.458 OA
BRANCH  29  30
ATOM     30  C   UNL A   1      33.388  32.079  27.432  1.00  0.00     0.338 C 
ATOM     31  O   UNL A   1      33.099  33.239  27.648  1.00  0.00    -0.246 OA
BRANCH  30  32
ATOM     32  C   UNL A   1      34.746  31.491  27.665  1.00  0.00     0.060 A 
ATOM     33  C   UNL A   1      35.824  32.351  27.929  1.00  0.00     0.016 A 
ATOM     34  C   UNL A   1      34.843  30.137  27.996  1.00  0.00     0.016 A 
ATOM     35  C   UNL A   1      36.899  31.900  28.719  1.00  0.00     0.010 A 
ATOM     36  C   UNL A   1      35.923  29.688  28.763  1.00  0.00     0.010 A 
ATOM     37  C   UNL A   1      36.928  30.577  29.185  1.00  0.00    -0.014 A 
BRANCH  37  38
ATOM     38  C   UNL A   1      38.131  30.032  29.870  1.00  0.00     0.031 A 
ATOM     39  C   UNL A   1      38.367  30.543  31.261  1.00  0.00     0.074 A 
ATOM     40  C   UNL A   1      39.019  29.193  29.297  1.00  0.00     0.049 A 
ATOM     41  N   UNL A   1      39.342  30.298  32.094  1.00  0.00    -0.248 NA
ATOM     42  C   UNL A   1      37.362  31.497  31.762  1.00  0.00     0.031 C 
ATOM     43  C   UNL A   1      38.932  28.630  27.949  1.00  0.00     0.029 A 
ATOM     44  N   UNL A   1      40.198  28.675  29.791  1.00  0.00    -0.354 N 
ATOM     45  C   UNL A   1      39.058  31.060  33.217  1.00  0.00     0.074 A 
ATOM     46  C   UNL A   1      37.871  31.831  32.933  1.00  0.00     0.031 C 
ATOM     47  C   UNL A   1      40.009  27.849  27.726  1.00  0.00     0.029 A 
ATOM     48  C   UNL A   1      40.872  27.861  28.907  1.00  0.00     0.049 A 
ATOM     49  H   UNL A   1      40.529  28.870  30.697  1.00  0.00     0.167 HD
ATOM     50  C   UNL A   1      39.708  31.103  34.402  1.00  0.00     0.037 A 
ATOM     51  C   UNL A   1      42.044  27.203  29.051  1.00  0.00     0.037 A 
ATOM     52  C   UNL A   1      40.908  30.372  34.678  1.00  0.00     0.049 A 
ATOM     53  C   UNL A   1      42.796  27.317  30.362  1.00  0.00     0.074 A 
ATOM     54  C   UNL A   1      41.652  30.342  35.842  1.00  0.00     0.029 A 
ATOM     55  N   UNL A   1      41.550  29.553  33.761  1.00  0.00    -0.354 N 
ATOM     56  N   UNL A   1      42.472  27.969  31.453  1.00  0.00    -0.248 NA
ATOM     57  C   UNL A   1      44.074  26.592  30.463  1.00  0.00     0.031 C 
ATOM     58  C   UNL A   1      42.773  29.534  35.614  1.00  0.00     0.029 A 
ATOM     59  C   UNL A   1      42.693  29.023  34.327  1.00  0.00     0.049 A 
ATOM     60  H   UNL A   1      41.237  29.375  32.845  1.00  0.00     0.167 HD
ATOM     61  C   UNL A   1      43.471  27.691  32.381  1.00  0.00     0.074 A 
ATOM     62  C   UNL A   1      44.415  26.810  31.725  1.00  0.00     0.031 C 
ATOM     63  C   UNL A   1      43.597  28.119  33.662  1.00  0.00     0.037 A 
BRANCH  50  64
ATOM     64  C   UNL A   1      39.112  31.997  35.444  1.00  0.00     0.057 A 
ATOM     65  C   UNL A   1      39.456  33.356  35.524  1.00  0.00     0.134 A 
ATOM     66  C   UNL A   1      38.279  31.479  36.440  1.00  0.00     0.134 A 
ATOM     67  F   UNL A   1      40.284  33.901  34.619  1.00  0.00    -0.206 F 
ATOM     68  C   UNL A   1      39.035  34.151  36.589  1.00  0.00     0.040 A 
ATOM     69  C   UNL A   1      37.825  32.274  37.492  1.00  0.00     0.040 A 
ATOM     70  F   UNL A   1      37.923  30.186  36.427  1.00  0.00    -0.206 F 
ATOM     71  C   UNL A   1      38.217  33.609  37.578  1.00  0.00     0.006 A 
ENDBRANCH  50  64
BRANCH  51  72
ATOM     72  C   UNL A   1      42.597  26.340  27.966  1.00  0.00     0.057 A 
ATOM     73  C   UNL A   1      43.443  26.873  26.982  1.00  0.00     0.134 A 
ATOM     74  C   UNL A   1      42.225  24.998  27.823  1.00  0.00     0.134 A 
ATOM     75  F   UNL A   1      43.809  28.162  27.036  1.00  0.00    -0.206 F 
ATOM     76  C   UNL A   1      43.872  26.119  25.887  1.00  0.00     0.040 A 
ATOM     77  C   UNL A   1      42.667  24.224  26.744  1.00  0.00     0.040 A 
ATOM     78  F   UNL A   1      41.407  24.422  28.716  1.00  0.00    -0.206 F 
ATOM     79  C   UNL A   1      43.484  24.787  25.766  1.00  0.00     0.006 A 
ENDBRANCH  51  72
BRANCH  63  80
ATOM     80  C   UNL A   1      44.751  27.592  34.466  1.00  0.00     0.057 A 
ATOM     81  C   UNL A   1      45.977  28.261  34.540  1.00  0.00     0.134 A 
ATOM     82  C   UNL A   1      44.596  26.436  35.244  1.00  0.00     0.134 A 
ATOM     83  F   UNL A   1      46.193  29.370  33.814  1.00  0.00    -0.206 F 
ATOM     84  C   UNL A   1      47.016  27.791  35.346  1.00  0.00     0.040 A 
ATOM     85  C   UNL A   1      45.617  25.972  36.075  1.00  0.00     0.040 A 
ATOM     86  F   UNL A   1      43.441  25.754  35.230  1.00  0.00    -0.206 F 
ATOM     87  C   UNL A   1      46.834  26.650  36.124  1.00  0.00     0.006 A 
ENDBRANCH  63  80
ENDBRANCH  37  38
ENDBRANCH  30  32
ENDBRANCH  29  30
ENDBRANCH  28  29
ENDBRANCH   1  28
TORSDOF 14
ENDMDL
MODEL 2
REMARK VINA RESULT:     -14.7      3.059      4.174
REMARK SMILES O=C(OCCOC(=O)c1ccc(-c2c3nc(c(-c4c(F)cccc4F)c4ccc([nH]4)c(-c4c(F)cccc4F)c4nc(c(-c5c(F)cccc5F)c5ccc2[nH]5)C=C4)C=C3)cc1)C1=Cc2cc(Cl)cc(-c3ccc(O)cc3)c2O[C@@H]1C(F)(F)F
REMARK SMILES IDX 4 1 3 2 2 3 1 4 63 5 64 6 80 7 65 8 79 9 66 10 78 11 67 12
REMARK SMILES IDX 70 13 68 14 69 15 81 16 82 17 83 18 84 19 71 20 72 21 77 22
REMARK SMILES IDX 73 23 76 24 74 25 75 26 5 28 6 29 7 30 8 31 9 32 10 33 62 34
REMARK SMILES IDX 11 35 61 36 12 37 13 38 14 39 55 40 15 41 60 42 54 43 56 44
REMARK SMILES IDX 16 45 59 46 53 47 52 48 17 50 43 51 26 52 42 53 27 54 30 55
REMARK SMILES IDX 41 56 57 57 28 58 29 59 40 61 58 62 31 63 18 64 19 65 24 66
REMARK SMILES IDX 20 67 21 68 23 69 25 70 22 71 44 72 45 73 50 74 46 75 47 76
REMARK SMILES IDX 49 77 51 78 48 79 32 80 33 81 38 82 34 83 35 84 37 85 39 86
REMARK SMILES IDX 36 87
REMARK H PARENT 75 27 56 49 30 60
REMARK Flexibility Score: inf
ROOT
ATOM      1  C   UNL A   1      32.170  28.003  27.121  1.00  0.00     0.275 C 
ENDROOT
BRANCH   1   2
ATOM      2  O   UNL A   1      32.950  26.880  26.349  1.00  0.00    -0.459 OA
BRANCH   2   3
ATOM      3  C   UNL A   1      32.250  25.752  26.198  1.00  0.00     0.338 C 
ATOM      4  O   UNL A   1      31.587  25.121  26.981  1.00  0.00    -0.246 OA
BRANCH   3   5
ATOM      5  C   UNL A   1      32.825  25.421  24.923  1.00  0.00     0.087 C 
ATOM      6  C   UNL A   1      34.290  25.276  25.043  1.00  0.00     0.027 C 
ATOM      7  C   UNL A   1      31.600  23.997  24.469  1.00  0.00     0.316 C 
ATOM      8  C   UNL A   1      35.138  23.681  24.919  1.00  0.00     0.019 A 
ATOM      9  O   UNL A   1      32.483  22.287  24.366  1.00  0.00    -0.475 OA
ATOM     10  C   UNL A   1      36.458  23.665  25.287  1.00  0.00     0.032 A 
ATOM     11  C   UNL A   1      34.276  22.176  24.687  1.00  0.00     0.135 A 
ATOM     12  C   UNL A   1      37.001  22.392  25.457  1.00  0.00     0.042 A 
ATOM     13  C   UNL A   1      34.896  20.968  24.917  1.00  0.00     0.026 A 
ATOM     14  Cl  UNL A   1      38.642  22.301  26.008  1.00  0.00    -0.084 Cl
ATOM     15  C   UNL A   1      36.277  21.148  25.283  1.00  0.00     0.033 A 
BRANCH   7  16
ATOM     16  C   UNL A   1      30.662  24.788  23.491  1.00  0.00     0.430 C 
ATOM     17  F   UNL A   1      31.344  25.376  22.500  1.00  0.00    -0.167 F 
ATOM     18  F   UNL A   1      29.856  23.882  22.856  1.00  0.00    -0.167 F 
ATOM     19  F   UNL A   1      29.775  25.633  24.045  1.00  0.00    -0.167 F 
ENDBRANCH   7  16
BRANCH  13  20
ATOM     20  C   UNL A   1      34.375  19.612  24.992  1.00  0.00    -0.014 A 
ATOM     21  C   UNL A   1      35.206  18.545  24.584  1.00  0.00     0.012 A 
ATOM     22  C   UNL A   1      33.013  19.356  25.181  1.00  0.00     0.012 A 
ATOM     23  C   UNL A   1      34.688  17.273  24.347  1.00  0.00     0.047 A 
ATOM     24  C   UNL A   1      32.490  18.076  24.947  1.00  0.00     0.047 A 
ATOM     25  C   UNL A   1      33.331  17.050  24.524  1.00  0.00     0.115 A 
BRANCH  25  26
ATOM     26  O   UNL A   1      32.856  15.803  24.245  1.00  0.00    -0.508 OA
ATOM     27  H   UNL A   1      31.942  15.676  24.083  1.00  0.00     0.293 HD
ENDBRANCH  25  26
ENDBRANCH  13  20
ENDBRANCH   3   5
ENDBRANCH   2   3
ENDBRANCH   1   2
BRANCH   1  28
ATOM     28  C   UNL A   1      32.642  30.110  27.121  1.00  0.00     0.275 C 
BRANCH  28  29
ATOM     29  O   UNL A   1      34.109  30.817  27.575  1.00  0.00    -0.458 OA
BRANCH  29  30
ATOM     30  C   UNL A   1      34.860  31.201  28.649  1.00  0.00     0.338 C 
ATOM     31  O   UNL A   1      34.597  31.966  29.555  1.00  0.00    -0.246 OA
BRANCH  30  32
ATOM     32  C   UNL A   1      35.998  30.227  28.671  1.00  0.00     0.060 A 
ATOM     33  C   UNL A   1      36.796  30.087  27.524  1.00  0.00     0.016 A 
ATOM     34  C   UNL A   1      36.476  29.779  29.905  1.00  0.00     0.016 A 
ATOM     35  C   UNL A   1      38.145  29.706  27.655  1.00  0.00     0.010 A 
ATOM     36  C   UNL A   1      37.811  29.381  30.028  1.00  0.00     0.010 A 
ATOM     37  C   UNL A   1      38.674  29.400  28.918  1.00  0.00    -0.014 A 
BRANCH  37  38
ATOM     38  C   UNL A   1      40.041  28.830  29.058  1.00  0.00     0.031 A 
ATOM     39  C   UNL A   1      41.066  29.752  29.651  1.00  0.00     0.074 A 
ATOM     40  C   UNL A   1      40.402  27.602  28.630  1.00  0.00     0.049 A 
ATOM     41  N   UNL A   1      42.342  29.570  29.858  1.00  0.00    -0.248 NA
ATOM     42  C   UNL A   1      40.571  31.086  30.031  1.00  0.00     0.031 C 
ATOM     43  C   UNL A   1      39.521  26.607  28.018  1.00  0.00     0.029 A 
ATOM     44  N   UNL A   1      41.636  26.986  28.635  1.00  0.00    -0.354 N 
ATOM     45  C   UNL A   1      42.794  30.763  30.402  1.00  0.00     0.074 A 
ATOM     46  C   UNL A   1      41.682  31.684  30.419  1.00  0.00     0.031 C 
ATOM     47  C   UNL A   1      40.243  25.510  27.708  1.00  0.00     0.029 A 
ATOM     48  C   UNL A   1      41.639  25.722  28.087  1.00  0.00     0.049 A 
ATOM     49  H   UNL A   1      42.444  27.413  29.000  1.00  0.00     0.167 HD
ATOM     50  C   UNL A   1      44.022  31.070  30.876  1.00  0.00     0.037 A 
ATOM     51  C   UNL A   1      42.657  24.849  27.923  1.00  0.00     0.037 A 
ATOM     52  C   UNL A   1      45.141  30.178  30.827  1.00  0.00     0.049 A 
ATOM     53  C   UNL A   1      44.044  25.236  28.396  1.00  0.00     0.074 A 
ATOM     54  C   UNL A   1      46.431  30.384  31.274  1.00  0.00     0.029 A 
ATOM     55  N   UNL A   1      45.099  28.906  30.274  1.00  0.00    -0.354 N 
ATOM     56  N   UNL A   1      44.442  26.334  28.994  1.00  0.00    -0.248 NA
ATOM     57  C   UNL A   1      45.120  24.254  28.182  1.00  0.00     0.031 C 
ATOM     58  C   UNL A   1      47.184  29.249  30.953  1.00  0.00     0.029 A 
ATOM     59  C   UNL A   1      46.347  28.319  30.354  1.00  0.00     0.049 A 
ATOM     60  H   UNL A   1      44.299  28.485  29.884  1.00  0.00     0.167 HD
ATOM     61  C   UNL A   1      45.794  26.153  29.273  1.00  0.00     0.074 A 
ATOM     62  C   UNL A   1      46.149  24.839  28.779  1.00  0.00     0.031 C 
ATOM     63  C   UNL A   1      46.664  26.994  29.886  1.00  0.00     0.037 A 
BRANCH  50  64
ATOM     64  C   UNL A   1      44.177  32.442  31.455  1.00  0.00     0.057 A 
ATOM     65  C   UNL A   1      43.903  32.700  32.807  1.00  0.00     0.134 A 
ATOM     66  C   UNL A   1      44.491  33.532  30.637  1.00  0.00     0.134 A 
ATOM     67  F   UNL A   1      43.556  31.700  33.633  1.00  0.00    -0.206 F 
ATOM     68  C   UNL A   1      43.883  34.000  33.311  1.00  0.00     0.040 A 
ATOM     69  C   UNL A   1      44.506  34.834  31.138  1.00  0.00     0.040 A 
ATOM     70  F   UNL A   1      44.751  33.354  29.334  1.00  0.00    -0.206 F 
ATOM     71  C   UNL A   1      44.185  35.072  32.474  1.00  0.00     0.006 A 
ENDBRANCH  50  64
BRANCH  51  72
ATOM     72  C   UNL A   1      42.443  23.500  27.320  1.00  0.00     0.057 A 
ATOM     73  C   UNL A   1      42.088  22.402  28.120  1.00  0.00     0.134 A 
ATOM     74  C   UNL A   1      42.678  23.247  25.964  1.00  0.00     0.134 A 
ATOM     75  F   UNL A   1      41.885  22.566  29.435  1.00  0.00    -0.206 F 
ATOM     76  C   UNL A   1      42.005  21.106  27.602  1.00  0.00     0.040 A 
ATOM     77  C   UNL A   1      42.576  21.958  25.428  1.00  0.00     0.040 A 
ATOM     78  F   UNL A   1      43.036  24.243  25.141  1.00  0.00    -0.206 F 
ATOM     79  C   UNL A   1      42.249  20.882  26.250  1.00  0.00     0.006 A 
ENDBRANCH  51  72
BRANCH  63  80
ATOM     80  C   UNL A   1      48.062  26.502  30.126  1.00  0.00     0.057 A 
ATOM     81  C   UNL A   1      48.422  25.812  31.289  1.00  0.00     0.134 A 
ATOM     82  C   UNL A   1      49.041  26.652  29.134  1.00  0.00     0.134 A 
ATOM     83  F   UNL A   1      47.534  25.640  32.281  1.00  0.00    -0.206 F 
ATOM     84  C   UNL A   1      49.710  25.303  31.465  1.00  0.00     0.040 A 
ATOM     85  C   UNL A   1      50.323  26.123  29.285  1.00  0.00     0.040 A 
ATOM     86  F   UNL A   1      48.758  27.291  27.988  1.00  0.00    -0.206 F 
ATOM     87  C   UNL A   1      50.662  25.449  30.458  1.00  0.00     0.006 A 
ENDBRANCH  63  80
ENDBRANCH  37  38
ENDBRANCH  30  32
ENDBRANCH  29  30
ENDBRANCH  28  29
ENDBRANCH   1  28
TORSDOF 14
ENDMDL
MODEL 3
REMARK VINA RESULT:     -14.6      4.130      9.559
REMARK SMILES O=C(OCCOC(=O)c1ccc(-c2c3nc(c(-c4c(F)cccc4F)c4ccc([nH]4)c(-c4c(F)cccc4F)c4nc(c(-c5c(F)cccc5F)c5ccc2[nH]5)C=C4)C=C3)cc1)C1=Cc2cc(Cl)cc(-c3ccc(O)cc3)c2O[C@@H]1C(F)(F)F
REMARK SMILES IDX 4 1 3 2 2 3 1 4 63 5 64 6 80 7 65 8 79 9 66 10 78 11 67 12
REMARK SMILES IDX 70 13 68 14 69 15 81 16 82 17 83 18 84 19 71 20 72 21 77 22
REMARK SMILES IDX 73 23 76 24 74 25 75 26 5 28 6 29 7 30 8 31 9 32 10 33 62 34
REMARK SMILES IDX 11 35 61 36 12 37 13 38 14 39 55 40 15 41 60 42 54 43 56 44
REMARK SMILES IDX 16 45 59 46 53 47 52 48 17 50 43 51 26 52 42 53 27 54 30 55
REMARK SMILES IDX 41 56 57 57 28 58 29 59 40 61 58 62 31 63 18 64 19 65 24 66
REMARK SMILES IDX 20 67 21 68 23 69 25 70 22 71 44 72 45 73 50 74 46 75 47 76
REMARK SMILES IDX 49 77 51 78 48 79 32 80 33 81 38 82 34 83 35 84 37 85 39 86
REMARK SMILES IDX 36 87
REMARK H PARENT 75 27 56 49 30 60
REMARK Flexibility Score: inf
ROOT
ATOM      1  C   UNL A   1      35.274  22.657  23.886  1.00  0.00     0.275 C 
ENDROOT
BRANCH   1   2
ATOM      2  O   UNL A   1      35.054  24.173  24.228  1.00  0.00    -0.459 OA
BRANCH   2   3
ATOM      3  C   UNL A   1      34.104  24.755  23.489  1.00  0.00     0.338 C 
ATOM      4  O   UNL A   1      34.145  25.240  22.387  1.00  0.00    -0.246 OA
BRANCH   3   5
ATOM      5  C   UNL A   1      33.165  24.875  24.570  1.00  0.00     0.087 C 
ATOM      6  C   UNL A   1      33.621  25.897  25.535  1.00  0.00     0.027 C 
ATOM      7  C   UNL A   1      31.568  25.002  23.488  1.00  0.00     0.316 C 
ATOM      8  C   UNL A   1      32.806  27.502  25.733  1.00  0.00     0.019 A 
ATOM      9  O   UNL A   1      30.708  26.717  23.664  1.00  0.00    -0.475 OA
ATOM     10  C   UNL A   1      33.475  28.434  26.483  1.00  0.00     0.032 A 
ATOM     11  C   UNL A   1      31.433  27.982  24.761  1.00  0.00     0.135 A 
ATOM     12  C   UNL A   1      32.975  29.732  26.382  1.00  0.00     0.042 A 
ATOM     13  C   UNL A   1      31.040  29.302  24.702  1.00  0.00     0.026 A 
ATOM     14  Cl  UNL A   1      33.829  30.975  27.237  1.00  0.00    -0.084 Cl
ATOM     15  C   UNL A   1      31.849  30.128  25.560  1.00  0.00     0.033 A 
BRANCH   7  16
ATOM     16  C   UNL A   1      31.065  23.523  23.628  1.00  0.00     0.430 C 
ATOM     17  F   UNL A   1      30.656  23.241  24.871  1.00  0.00    -0.167 F 
ATOM     18  F   UNL A   1      29.938  23.387  22.863  1.00  0.00    -0.167 F 
ATOM     19  F   UNL A   1      31.865  22.556  23.145  1.00  0.00    -0.167 F 
ENDBRANCH   7  16
BRANCH  13  20
ATOM     20  C   UNL A   1      30.087  29.990  23.846  1.00  0.00    -0.014 A 
ATOM     21  C   UNL A   1      29.991  29.600  22.492  1.00  0.00     0.012 A 
ATOM     22  C   UNL A   1      29.479  31.188  24.235  1.00  0.00     0.012 A 
ATOM     23  C   UNL A   1      29.332  30.394  21.554  1.00  0.00     0.047 A 
ATOM     24  C   UNL A   1      28.813  31.987  23.294  1.00  0.00     0.047 A 
ATOM     25  C   UNL A   1      28.754  31.586  21.962  1.00  0.00     0.115 A 
BRANCH  25  26
ATOM     26  O   UNL A   1      28.153  32.353  21.009  1.00  0.00    -0.508 OA
ATOM     27  H   UNL A   1      28.585  33.119  20.684  1.00  0.00     0.293 HD
ENDBRANCH  25  26
ENDBRANCH  13  20
ENDBRANCH   3   5
ENDBRANCH   2   3
ENDBRANCH   1   2
BRANCH   1  28
ATOM     28  C   UNL A   1      36.574  21.290  24.936  1.00  0.00     0.275 C 
BRANCH  28  29
ATOM     29  O   UNL A   1      38.236  21.468  25.186  1.00  0.00    -0.458 OA
BRANCH  29  30
ATOM     30  C   UNL A   1      39.260  21.166  26.037  1.00  0.00     0.338 C 
ATOM     31  O   UNL A   1      39.992  20.197  26.069  1.00  0.00    -0.246 OA
BRANCH  30  32
ATOM     32  C   UNL A   1      39.527  22.449  26.764  1.00  0.00     0.060 A 
ATOM     33  C   UNL A   1      40.628  22.522  27.633  1.00  0.00     0.016 A 
ATOM     34  C   UNL A   1      38.941  23.624  26.289  1.00  0.00     0.016 A 
ATOM     35  C   UNL A   1      41.269  23.758  27.844  1.00  0.00     0.010 A 
ATOM     36  C   UNL A   1      39.569  24.853  26.518  1.00  0.00     0.010 A 
ATOM     37  C   UNL A   1      40.771  24.924  27.244  1.00  0.00    -0.014 A 
BRANCH  37  38
ATOM     38  C   UNL A   1      41.326  26.261  27.590  1.00  0.00     0.031 A 
ATOM     39  C   UNL A   1      42.741  26.503  27.156  1.00  0.00     0.074 A 
ATOM     40  C   UNL A   1      40.668  27.195  28.308  1.00  0.00     0.049 A 
ATOM     41  N   UNL A   1      43.515  27.538  27.346  1.00  0.00    -0.248 NA
ATOM     42  C   UNL A   1      43.378  25.392  26.427  1.00  0.00     0.031 C 
ATOM     43  C   UNL A   1      39.299  27.092  28.814  1.00  0.00     0.029 A 
ATOM     44  N   UNL A   1      41.087  28.431  28.753  1.00  0.00    -0.354 N 
ATOM     45  C   UNL A   1      44.721  27.202  26.751  1.00  0.00     0.074 A 
ATOM     46  C   UNL A   1      44.606  25.847  26.266  1.00  0.00     0.031 C 
ATOM     47  C   UNL A   1      38.995  28.214  29.498  1.00  0.00     0.029 A 
ATOM     48  C   UNL A   1      40.146  29.115  29.492  1.00  0.00     0.049 A 
ATOM     49  H   UNL A   1      41.981  28.794  28.560  1.00  0.00     0.167 HD
ATOM     50  C   UNL A   1      45.830  27.958  26.591  1.00  0.00     0.037 A 
ATOM     51  C   UNL A   1      40.219  30.329  30.082  1.00  0.00     0.037 A 
ATOM     52  C   UNL A   1      45.968  29.288  27.104  1.00  0.00     0.049 A 
ATOM     53  C   UNL A   1      41.496  31.135  29.953  1.00  0.00     0.074 A 
ATOM     54  C   UNL A   1      47.046  30.146  27.004  1.00  0.00     0.029 A 
ATOM     55  N   UNL A   1      44.989  29.946  27.835  1.00  0.00    -0.354 N 
ATOM     56  N   UNL A   1      42.601  30.846  29.309  1.00  0.00    -0.248 NA
ATOM     57  C   UNL A   1      41.527  32.445  30.625  1.00  0.00     0.031 C 
ATOM     58  C   UNL A   1      46.735  31.311  27.714  1.00  0.00     0.029 A 
ATOM     59  C   UNL A   1      45.445  31.195  28.209  1.00  0.00     0.049 A 
ATOM     60  H   UNL A   1      44.103  29.577  28.055  1.00  0.00     0.167 HD
ATOM     61  C   UNL A   1      43.433  31.952  29.453  1.00  0.00     0.074 A 
ATOM     62  C   UNL A   1      42.706  32.921  30.246  1.00  0.00     0.031 C 
ATOM     63  C   UNL A   1      44.684  32.155  28.969  1.00  0.00     0.037 A 
BRANCH  50  64
ATOM     64  C   UNL A   1      46.960  27.315  25.849  1.00  0.00     0.057 A 
ATOM     65  C   UNL A   1      47.946  26.574  26.519  1.00  0.00     0.134 A 
ATOM     66  C   UNL A   1      47.129  27.529  24.478  1.00  0.00     0.134 A 
ATOM     67  F   UNL A   1      47.860  26.370  27.843  1.00  0.00    -0.206 F 
ATOM     68  C   UNL A   1      49.086  26.115  25.859  1.00  0.00     0.040 A 
ATOM     69  C   UNL A   1      48.248  27.047  23.801  1.00  0.00     0.040 A 
ATOM     70  F   UNL A   1      46.228  28.239  23.782  1.00  0.00    -0.206 F 
ATOM     71  C   UNL A   1      49.239  26.353  24.495  1.00  0.00     0.006 A 
ENDBRANCH  50  64
BRANCH  51  72
ATOM     72  C   UNL A   1      39.062  30.909  30.826  1.00  0.00     0.057 A 
ATOM     73  C   UNL A   1      38.878  30.643  32.192  1.00  0.00     0.134 A 
ATOM     74  C   UNL A   1      38.066  31.655  30.186  1.00  0.00     0.134 A 
ATOM     75  F   UNL A   1      39.773  29.901  32.859  1.00  0.00    -0.206 F 
ATOM     76  C   UNL A   1      37.738  31.068  32.881  1.00  0.00     0.040 A 
ATOM     77  C   UNL A   1      36.932  32.108  30.869  1.00  0.00     0.040 A 
ATOM     78  F   UNL A   1      38.166  31.937  28.878  1.00  0.00    -0.206 F 
ATOM     79  C   UNL A   1      36.761  31.805  32.218  1.00  0.00     0.006 A 
ENDBRANCH  51  72
BRANCH  63  80
ATOM     80  C   UNL A   1      45.323  33.491  29.217  1.00  0.00     0.057 A 
ATOM     81  C   UNL A   1      46.153  33.728  30.319  1.00  0.00     0.134 A 
ATOM     82  C   UNL A   1      45.168  34.528  28.289  1.00  0.00     0.134 A 
ATOM     83  F   UNL A   1      46.338  32.779  31.250  1.00  0.00    -0.206 F 
ATOM     84  C   UNL A   1      46.792  34.957  30.498  1.00  0.00     0.040 A 
ATOM     85  C   UNL A   1      45.824  35.750  28.440  1.00  0.00     0.040 A 
ATOM     86  F   UNL A   1      44.398  34.361  27.203  1.00  0.00    -0.206 F 
ATOM     87  C   UNL A   1      46.636  35.968  29.552  1.00  0.00     0.006 A 
ENDBRANCH  63  80
ENDBRANCH  37  38
ENDBRANCH  30  32
ENDBRANCH  29  30
ENDBRANCH  28  29
ENDBRANCH   1  28
TORSDOF 14
ENDMDL
