MODEL 1
REMARK VINA RESULT:     -11.5      0.000      0.000
REMARK SMILES C[C@H](c1cnccn1)[N@@H+]1[C@@H](C(=O)OCCOC(=O)c2ccc(-c3c4nc(c(-c5c(F)cccc5F)c5ccc([nH]5)c(-c5c(F)cccc5F)c5nc(c(-c6c(F)cccc6F)c6ccc3[nH]6)C=C5)C=C4)cc2)CC[C@H]2CCCC[C@H]21
REMARK SMILES IDX 14 1 13 2 11 3 12 4 10 5 9 6 80 7 73 9 75 10 79 11 74 12
REMARK SMILES IDX 76 13 78 14 77 15 2 16 1 17 3 18 4 19 8 20 5 21 7 22 6 23
REMARK SMILES IDX 15 24 16 25 17 26 18 27 19 28 20 29 72 30 21 31 71 32 22 33
REMARK SMILES IDX 23 34 24 35 65 36 25 37 70 38 64 39 66 40 26 41 69 42 63 43
REMARK SMILES IDX 62 44 27 46 53 47 36 48 52 49 37 50 40 51 51 52 67 53 38 54
REMARK SMILES IDX 39 55 50 57 68 58 41 59 28 60 29 61 34 62 30 63 31 64 33 65
REMARK SMILES IDX 35 66 32 67 54 68 55 69 60 70 56 71 57 72 59 73 61 74 58 75
REMARK SMILES IDX 42 76 43 77 48 78 44 79 45 80 47 81 49 82 46 83
REMARK H PARENT 9 8 66 45 40 56
REMARK Flexibility Score: inf
ROOT
ATOM      1  C   UNL A   1      31.666  30.883  26.229  1.00  0.00     0.274 C 
ENDROOT
BRANCH   1   2
ATOM      2  O   UNL A   1      31.607  29.804  27.185  1.00  0.00    -0.458 OA
BRANCH   2   3
ATOM      3  C   UNL A   1      31.667  28.545  26.671  1.00  0.00     0.365 C 
ATOM      4  O   UNL A   1      31.362  27.529  27.290  1.00  0.00    -0.245 OA
BRANCH   3   5
ATOM      5  C   UNL A   1      32.171  28.497  25.223  1.00  0.00     0.295 C 
ATOM      6  N   UNL A   1      31.388  27.582  24.282  1.00  0.00    -0.313 N 
ATOM      7  C   UNL A   1      32.006  27.725  22.905  1.00  0.00     0.188 C 
ATOM      8  H   UNL A   1      31.439  26.594  24.528  1.00  0.00     0.349 HD
ATOM      9  C   UNL A   1      33.682  28.229  25.256  1.00  0.00     0.078 C 
ATOM     10  C   UNL A   1      33.554  27.472  22.899  1.00  0.00     0.048 C 
ATOM     11  C   UNL A   1      31.510  26.773  21.789  1.00  0.00     0.065 C 
ATOM     12  C   UNL A   1      34.278  28.387  23.877  1.00  0.00     0.016 C 
ATOM     13  C   UNL A   1      33.932  25.993  23.156  1.00  0.00     0.010 C 
ATOM     14  C   UNL A   1      31.686  25.313  22.176  1.00  0.00     0.006 C 
ATOM     15  C   UNL A   1      33.162  24.978  22.316  1.00  0.00     0.001 C 
BRANCH   6  16
ATOM     16  C   UNL A   1      29.909  27.956  24.373  1.00  0.00     0.233 C 
ATOM     17  C   UNL A   1      29.005  26.717  24.150  1.00  0.00     0.083 C 
BRANCH  16  18
ATOM     18  C   UNL A   1      29.358  29.057  23.463  1.00  0.00     0.116 A 
ATOM     19  C   UNL A   1      28.530  28.780  22.370  1.00  0.00     0.141 A 
ATOM     20  N   UNL A   1      29.670  30.345  23.783  1.00  0.00    -0.252 NA
ATOM     21  N   UNL A   1      27.999  29.740  21.574  1.00  0.00    -0.261 NA
ATOM     22  C   UNL A   1      29.138  31.302  22.987  1.00  0.00     0.131 A 
ATOM     23  C   UNL A   1      28.321  31.007  21.909  1.00  0.00     0.131 A 
ENDBRANCH  16  18
ENDBRANCH   6  16
ENDBRANCH   3   5
ENDBRANCH   2   3
ENDBRANCH   1   2
BRANCH   1  24
ATOM     24  C   UNL A   1      31.481  32.262  26.873  1.00  0.00     0.275 C 
BRANCH  24  25
ATOM     25  O   UNL A   1      32.665  33.072  26.746  1.00  0.00    -0.458 OA
BRANCH  25  26
ATOM     26  C   UNL A   1      33.149  33.562  27.909  1.00  0.00     0.338 C 
ATOM     27  O   UNL A   1      32.570  34.307  28.689  1.00  0.00    -0.246 OA
BRANCH  26  28
ATOM     28  C   UNL A   1      34.442  32.940  28.236  1.00  0.00     0.060 A 
ATOM     29  C   UNL A   1      34.422  31.610  28.672  1.00  0.00     0.016 A 
ATOM     30  C   UNL A   1      35.640  33.654  28.214  1.00  0.00     0.016 A 
ATOM     31  C   UNL A   1      35.585  30.990  29.103  1.00  0.00     0.010 A 
ATOM     32  C   UNL A   1      36.812  33.036  28.671  1.00  0.00     0.010 A 
ATOM     33  C   UNL A   1      36.781  31.711  29.139  1.00  0.00    -0.014 A 
BRANCH  33  34
ATOM     34  C   UNL A   1      37.942  31.094  29.819  1.00  0.00     0.031 A 
ATOM     35  C   UNL A   1      38.168  31.387  31.275  1.00  0.00     0.074 A 
ATOM     36  C   UNL A   1      38.714  30.201  29.176  1.00  0.00     0.049 A 
ATOM     37  N   UNL A   1      39.101  30.937  32.076  1.00  0.00    -0.248 NA
ATOM     38  C   UNL A   1      37.210  32.301  31.916  1.00  0.00     0.031 C 
ATOM     39  C   UNL A   1      38.542  29.782  27.786  1.00  0.00     0.029 A 
ATOM     40  N   UNL A   1      39.788  29.473  29.619  1.00  0.00    -0.354 N 
ATOM     41  C   UNL A   1      38.847  31.520  33.310  1.00  0.00     0.074 A 
ATOM     42  C   UNL A   1      37.686  32.369  33.151  1.00  0.00     0.031 C 
ATOM     43  C   UNL A   1      39.479  28.865  27.490  1.00  0.00     0.029 A 
ATOM     44  C   UNL A   1      40.329  28.656  28.659  1.00  0.00     0.049 A 
ATOM     45  H   UNL A   1      40.136  29.531  30.538  1.00  0.00     0.167 HD
ATOM     46  C   UNL A   1      39.520  31.359  34.473  1.00  0.00     0.037 A 
ATOM     47  C   UNL A   1      41.400  27.842  28.719  1.00  0.00     0.037 A 
ATOM     48  C   UNL A   1      40.670  30.510  34.634  1.00  0.00     0.049 A 
ATOM     49  C   UNL A   1      42.165  27.725  30.008  1.00  0.00     0.074 A 
ATOM     50  C   UNL A   1      41.432  30.291  35.768  1.00  0.00     0.029 A 
ATOM     51  N   UNL A   1      41.222  29.735  33.625  1.00  0.00    -0.354 N 
ATOM     52  N   UNL A   1      41.931  28.296  31.165  1.00  0.00    -0.248 NA
ATOM     53  C   UNL A   1      43.346  26.849  30.000  1.00  0.00     0.031 C 
ATOM     54  C   UNL A   1      42.465  29.407  35.436  1.00  0.00     0.029 A 
ATOM     55  C   UNL A   1      42.323  29.047  34.105  1.00  0.00     0.049 A 
ATOM     56  H   UNL A   1      40.880  29.682  32.703  1.00  0.00     0.167 HD
ATOM     57  C   UNL A   1      42.922  27.838  32.024  1.00  0.00     0.074 A 
ATOM     58  C   UNL A   1      43.749  26.926  31.260  1.00  0.00     0.031 C 
ATOM     59  C   UNL A   1      43.131  28.143  33.329  1.00  0.00     0.037 A 
BRANCH  46  60
ATOM     60  C   UNL A   1      39.043  32.151  35.653  1.00  0.00     0.057 A 
ATOM     61  C   UNL A   1      38.204  31.594  36.627  1.00  0.00     0.134 A 
ATOM     62  C   UNL A   1      39.432  33.485  35.816  1.00  0.00     0.134 A 
ATOM     63  F   UNL A   1      37.780  30.327  36.515  1.00  0.00    -0.206 F 
ATOM     64  C   UNL A   1      37.753  32.346  37.713  1.00  0.00     0.040 A 
ATOM     65  C   UNL A   1      39.004  34.240  36.909  1.00  0.00     0.040 A 
ATOM     66  F   UNL A   1      40.232  34.077  34.917  1.00  0.00    -0.206 F 
ATOM     67  C   UNL A   1      38.157  33.672  37.859  1.00  0.00     0.006 A 
ENDBRANCH  46  60
BRANCH  47  68
ATOM     68  C   UNL A   1      41.824  27.083  27.517  1.00  0.00     0.057 A 
ATOM     69  C   UNL A   1      42.635  27.664  26.538  1.00  0.00     0.134 A 
ATOM     70  C   UNL A   1      41.406  25.762  27.310  1.00  0.00     0.134 A 
ATOM     71  F   UNL A   1      43.046  28.935  26.668  1.00  0.00    -0.206 F 
ATOM     72  C   UNL A   1      43.004  26.966  25.387  1.00  0.00     0.040 A 
ATOM     73  C   UNL A   1      41.785  25.045  26.176  1.00  0.00     0.040 A 
ATOM     74  F   UNL A   1      40.623  25.151  28.212  1.00  0.00    -0.206 F 
ATOM     75  C   UNL A   1      42.583  25.650  25.207  1.00  0.00     0.006 A 
ENDBRANCH  47  68
BRANCH  59  76
ATOM     76  C   UNL A   1      44.283  27.470  34.010  1.00  0.00     0.057 A 
ATOM     77  C   UNL A   1      44.147  26.216  34.619  1.00  0.00     0.134 A 
ATOM     78  C   UNL A   1      45.548  28.069  34.035  1.00  0.00     0.134 A 
ATOM     79  F   UNL A   1      42.957  25.595  34.638  1.00  0.00    -0.206 F 
ATOM     80  C   UNL A   1      45.224  25.593  35.251  1.00  0.00     0.040 A 
ATOM     81  C   UNL A   1      46.637  27.446  34.645  1.00  0.00     0.040 A 
ATOM     82  F   UNL A   1      45.745  29.267  33.463  1.00  0.00    -0.206 F 
ATOM     83  C   UNL A   1      46.475  26.207  35.260  1.00  0.00     0.006 A 
ENDBRANCH  59  76
ENDBRANCH  33  34
ENDBRANCH  26  28
ENDBRANCH  25  26
ENDBRANCH  24  25
ENDBRANCH   1  24
TORSDOF 13
ENDMDL
MODEL 2
REMARK VINA RESULT:     -11.2      0.418      6.210
REMARK SMILES C[C@H](c1cnccn1)[N@@H+]1[C@@H](C(=O)OCCOC(=O)c2ccc(-c3c4nc(c(-c5c(F)cccc5F)c5ccc([nH]5)c(-c5c(F)cccc5F)c5nc(c(-c6c(F)cccc6F)c6ccc3[nH]6)C=C5)C=C4)cc2)CC[C@H]2CCCC[C@H]21
REMARK SMILES IDX 14 1 13 2 11 3 12 4 10 5 9 6 80 7 73 9 75 10 79 11 74 12
REMARK SMILES IDX 76 13 78 14 77 15 2 16 1 17 3 18 4 19 8 20 5 21 7 22 6 23
REMARK SMILES IDX 15 24 16 25 17 26 18 27 19 28 20 29 72 30 21 31 71 32 22 33
REMARK SMILES IDX 23 34 24 35 65 36 25 37 70 38 64 39 66 40 26 41 69 42 63 43
REMARK SMILES IDX 62 44 27 46 53 47 36 48 52 49 37 50 40 51 51 52 67 53 38 54
REMARK SMILES IDX 39 55 50 57 68 58 41 59 28 60 29 61 34 62 30 63 31 64 33 65
REMARK SMILES IDX 35 66 32 67 54 68 55 69 60 70 56 71 57 72 59 73 61 74 58 75
REMARK SMILES IDX 42 76 43 77 48 78 44 79 45 80 47 81 49 82 46 83
REMARK H PARENT 9 8 66 45 40 56
REMARK Flexibility Score: inf
ROOT
ATOM      1  C   UNL A   1      31.506  31.157  26.161  1.00  0.00     0.274 C 
ENDROOT
BRANCH   1   2
ATOM      2  O   UNL A   1      31.944  30.048  26.972  1.00  0.00    -0.458 OA
BRANCH   2   3
ATOM      3  C   UNL A   1      31.748  28.808  26.446  1.00  0.00     0.365 C 
ATOM      4  O   UNL A   1      31.259  27.864  27.062  1.00  0.00    -0.245 OA
BRANCH   3   5
ATOM      5  C   UNL A   1      32.211  28.680  24.989  1.00  0.00     0.295 C 
ATOM      6  N   UNL A   1      31.402  27.715  24.123  1.00  0.00    -0.313 N 
ATOM      7  C   UNL A   1      31.981  27.781  22.723  1.00  0.00     0.188 C 
ATOM      8  H   UNL A   1      31.460  26.742  24.422  1.00  0.00     0.349 HD
ATOM      9  C   UNL A   1      33.722  28.413  24.995  1.00  0.00     0.078 C 
ATOM     10  C   UNL A   1      33.528  27.527  22.688  1.00  0.00     0.048 C 
ATOM     11  C   UNL A   1      31.454  26.770  21.676  1.00  0.00     0.065 C 
ATOM     12  C   UNL A   1      34.279  28.493  23.592  1.00  0.00     0.016 C 
ATOM     13  C   UNL A   1      33.914  26.064  23.015  1.00  0.00     0.010 C 
ATOM     14  C   UNL A   1      31.641  25.333  22.137  1.00  0.00     0.006 C 
ATOM     15  C   UNL A   1      33.121  25.005  22.254  1.00  0.00     0.001 C 
BRANCH   6  16
ATOM     16  C   UNL A   1      29.926  28.095  24.235  1.00  0.00     0.233 C 
ATOM     17  C   UNL A   1      29.013  26.865  23.996  1.00  0.00     0.083 C 
BRANCH  16  18
ATOM     18  C   UNL A   1      29.373  29.217  23.352  1.00  0.00     0.116 A 
ATOM     19  C   UNL A   1      28.725  28.964  22.138  1.00  0.00     0.141 A 
ATOM     20  N   UNL A   1      29.495  30.494  23.815  1.00  0.00    -0.252 NA
ATOM     21  N   UNL A   1      28.192  29.938  21.359  1.00  0.00    -0.261 NA
ATOM     22  C   UNL A   1      28.963  31.464  23.036  1.00  0.00     0.131 A 
ATOM     23  C   UNL A   1      28.326  31.192  21.837  1.00  0.00     0.131 A 
ENDBRANCH  16  18
ENDBRANCH   6  16
ENDBRANCH   3   5
ENDBRANCH   2   3
ENDBRANCH   1   2
BRANCH   1  24
ATOM     24  C   UNL A   1      31.446  32.479  26.937  1.00  0.00     0.275 C 
BRANCH  24  25
ATOM     25  O   UNL A   1      32.661  33.239  26.788  1.00  0.00    -0.458 OA
BRANCH  25  26
ATOM     26  C   UNL A   1      33.112  33.821  27.921  1.00  0.00     0.338 C 
ATOM     27  O   UNL A   1      32.529  34.658  28.599  1.00  0.00    -0.246 OA
BRANCH  26  28
ATOM     28  C   UNL A   1      34.366  33.190  28.365  1.00  0.00     0.060 A 
ATOM     29  C   UNL A   1      34.309  31.841  28.734  1.00  0.00     0.016 A 
ATOM     30  C   UNL A   1      35.552  33.910  28.514  1.00  0.00     0.016 A 
ATOM     31  C   UNL A   1      35.420  31.206  29.265  1.00  0.00     0.010 A 
ATOM     32  C   UNL A   1      36.670  33.275  29.072  1.00  0.00     0.010 A 
ATOM     33  C   UNL A   1      36.598  31.929  29.472  1.00  0.00    -0.014 A 
BRANCH  33  34
ATOM     34  C   UNL A   1      37.679  31.286  30.251  1.00  0.00     0.031 A 
ATOM     35  C   UNL A   1      38.601  30.325  29.557  1.00  0.00     0.074 A 
ATOM     36  C   UNL A   1      37.901  31.641  31.529  1.00  0.00     0.049 A 
ATOM     37  N   UNL A   1      39.628  29.670  30.035  1.00  0.00    -0.248 NA
ATOM     38  C   UNL A   1      38.336  30.077  28.131  1.00  0.00     0.031 C 
ATOM     39  C   UNL A   1      37.119  32.619  32.282  1.00  0.00     0.029 A 
ATOM     40  N   UNL A   1      38.866  31.227  32.410  1.00  0.00    -0.354 N 
ATOM     41  C   UNL A   1      40.124  28.926  28.972  1.00  0.00     0.074 A 
ATOM     42  C   UNL A   1      39.278  29.196  27.830  1.00  0.00     0.031 C 
ATOM     43  C   UNL A   1      37.639  32.733  33.516  1.00  0.00     0.029 A 
ATOM     44  C   UNL A   1      38.770  31.818  33.645  1.00  0.00     0.049 A 
ATOM     45  H   UNL A   1      39.562  30.570  32.179  1.00  0.00     0.167 HD
ATOM     46  C   UNL A   1      41.193  28.095  28.951  1.00  0.00     0.037 A 
ATOM     47  C   UNL A   1      39.506  31.627  34.756  1.00  0.00     0.037 A 
ATOM     48  C   UNL A   1      42.039  27.833  30.084  1.00  0.00     0.049 A 
ATOM     49  C   UNL A   1      40.653  30.655  34.721  1.00  0.00     0.074 A 
ATOM     50  C   UNL A   1      43.137  26.995  30.168  1.00  0.00     0.029 A 
ATOM     51  N   UNL A   1      41.880  28.411  31.334  1.00  0.00    -0.354 N 
ATOM     52  N   UNL A   1      41.103  29.940  33.718  1.00  0.00    -0.248 NA
ATOM     53  C   UNL A   1      41.396  30.463  35.976  1.00  0.00     0.031 C 
ATOM     54  C   UNL A   1      43.623  27.042  31.480  1.00  0.00     0.029 A 
ATOM     55  C   UNL A   1      42.851  27.939  32.201  1.00  0.00     0.049 A 
ATOM     56  H   UNL A   1      41.180  29.062  31.570  1.00  0.00     0.167 HD
ATOM     57  C   UNL A   1      42.187  29.228  34.214  1.00  0.00     0.074 A 
ATOM     58  C   UNL A   1      42.340  29.611  35.602  1.00  0.00     0.031 C 
ATOM     59  C   UNL A   1      42.986  28.335  33.578  1.00  0.00     0.037 A 
BRANCH  46  60
ATOM     60  C   UNL A   1      41.478  27.385  27.662  1.00  0.00     0.057 A 
ATOM     61  C   UNL A   1      40.956  26.115  27.388  1.00  0.00     0.134 A 
ATOM     62  C   UNL A   1      42.280  27.983  26.684  1.00  0.00     0.134 A 
ATOM     63  F   UNL A   1      40.197  25.481  28.294  1.00  0.00    -0.206 F 
ATOM     64  C   UNL A   1      41.240  25.455  26.191  1.00  0.00     0.040 A 
ATOM     65  C   UNL A   1      42.554  27.343  25.476  1.00  0.00     0.040 A 
ATOM     66  F   UNL A   1      42.812  29.198  26.888  1.00  0.00    -0.206 F 
ATOM     67  C   UNL A   1      42.038  26.072  25.228  1.00  0.00     0.006 A 
ENDBRANCH  46  60
BRANCH  47  68
ATOM     68  C   UNL A   1      39.175  32.361  36.002  1.00  0.00     0.057 A 
ATOM     69  C   UNL A   1      38.292  31.828  36.947  1.00  0.00     0.134 A 
ATOM     70  C   UNL A   1      39.718  33.624  36.265  1.00  0.00     0.134 A 
ATOM     71  F   UNL A   1      37.719  30.633  36.738  1.00  0.00    -0.206 F 
ATOM     72  C   UNL A   1      37.947  32.532  38.102  1.00  0.00     0.040 A 
ATOM     73  C   UNL A   1      39.401  34.329  37.425  1.00  0.00     0.040 A 
ATOM     74  F   UNL A   1      40.569  34.190  35.395  1.00  0.00    -0.206 F 
ATOM     75  C   UNL A   1      38.507  33.785  38.345  1.00  0.00     0.006 A 
ENDBRANCH  47  68
BRANCH  59  76
ATOM     76  C   UNL A   1      44.104  27.733  34.375  1.00  0.00     0.057 A 
ATOM     77  C   UNL A   1      43.946  26.528  35.072  1.00  0.00     0.134 A 
ATOM     78  C   UNL A   1      45.358  28.353  34.427  1.00  0.00     0.134 A 
ATOM     79  F   UNL A   1      42.764  25.893  35.071  1.00  0.00    -0.206 F 
ATOM     80  C   UNL A   1      44.991  25.973  35.812  1.00  0.00     0.040 A 
ATOM     81  C   UNL A   1      46.416  27.796  35.146  1.00  0.00     0.040 A 
ATOM     82  F   UNL A   1      45.575  29.506  33.776  1.00  0.00    -0.206 F 
ATOM     83  C   UNL A   1      46.232  26.606  35.846  1.00  0.00     0.006 A 
ENDBRANCH  59  76
ENDBRANCH  33  34
ENDBRANCH  26  28
ENDBRANCH  25  26
ENDBRANCH  24  25
ENDBRANCH   1  24
TORSDOF 13
ENDMDL
MODEL 3
REMARK VINA RESULT:     -11.1      5.289      8.978
REMARK SMILES C[C@H](c1cnccn1)[N@@H+]1[C@@H](C(=O)OCCOC(=O)c2ccc(-c3c4nc(c(-c5c(F)cccc5F)c5ccc([nH]5)c(-c5c(F)cccc5F)c5nc(c(-c6c(F)cccc6F)c6ccc3[nH]6)C=C5)C=C4)cc2)CC[C@H]2CCCC[C@H]21
REMARK SMILES IDX 14 1 13 2 11 3 12 4 10 5 9 6 80 7 73 9 75 10 79 11 74 12
REMARK SMILES IDX 76 13 78 14 77 15 2 16 1 17 3 18 4 19 8 20 5 21 7 22 6 23
REMARK SMILES IDX 15 24 16 25 17 26 18 27 19 28 20 29 72 30 21 31 71 32 22 33
REMARK SMILES IDX 23 34 24 35 65 36 25 37 70 38 64 39 66 40 26 41 69 42 63 43
REMARK SMILES IDX 62 44 27 46 53 47 36 48 52 49 37 50 40 51 51 52 67 53 38 54
REMARK SMILES IDX 39 55 50 57 68 58 41 59 28 60 29 61 34 62 30 63 31 64 33 65
REMARK SMILES IDX 35 66 32 67 54 68 55 69 60 70 56 71 57 72 59 73 61 74 58 75
REMARK SMILES IDX 42 76 43 77 48 78 44 79 45 80 47 81 49 82 46 83
REMARK H PARENT 9 8 66 45 40 56
REMARK Flexibility Score: inf
ROOT
ATOM      1  C   UNL A   1      38.445  20.605  25.042  1.00  0.00     0.274 C 
ENDROOT
BRANCH   1   2
ATOM      2  O   UNL A   1      37.029  20.337  24.977  1.00  0.00    -0.458 OA
BRANCH   2   3
ATOM      3  C   UNL A   1      36.231  21.401  24.685  1.00  0.00     0.365 C 
ATOM      4  O   UNL A   1      36.447  22.200  23.778  1.00  0.00    -0.245 OA
BRANCH   3   5
ATOM      5  C   UNL A   1      35.015  21.528  25.612  1.00  0.00     0.295 C 
ATOM      6  N   UNL A   1      33.661  21.631  24.913  1.00  0.00    -0.313 N 
ATOM      7  C   UNL A   1      32.602  21.688  25.997  1.00  0.00     0.188 C 
ATOM      8  H   UNL A   1      33.550  22.472  24.346  1.00  0.00     0.349 HD
ATOM      9  C   UNL A   1      35.300  22.656  26.613  1.00  0.00     0.078 C 
ATOM     10  C   UNL A   1      32.865  22.822  27.049  1.00  0.00     0.048 C 
ATOM     11  C   UNL A   1      31.142  21.968  25.566  1.00  0.00     0.065 C 
ATOM     12  C   UNL A   1      34.240  22.688  27.689  1.00  0.00     0.016 C 
ATOM     13  C   UNL A   1      32.668  24.246  26.475  1.00  0.00     0.010 C 
ATOM     14  C   UNL A   1      31.022  23.274  24.797  1.00  0.00     0.006 C 
ATOM     15  C   UNL A   1      31.372  24.449  25.695  1.00  0.00     0.001 C 
BRANCH   6  16
ATOM     16  C   UNL A   1      33.533  20.457  23.942  1.00  0.00     0.233 C 
ATOM     17  C   UNL A   1      32.279  20.609  23.043  1.00  0.00     0.083 C 
BRANCH  16  18
ATOM     18  C   UNL A   1      33.494  19.030  24.494  1.00  0.00     0.116 A 
ATOM     19  C   UNL A   1      34.561  18.138  24.338  1.00  0.00     0.141 A 
ATOM     20  N   UNL A   1      32.384  18.662  25.195  1.00  0.00    -0.252 NA
ATOM     21  N   UNL A   1      34.565  16.883  24.851  1.00  0.00    -0.261 NA
ATOM     22  C   UNL A   1      32.392  17.408  25.707  1.00  0.00     0.131 A 
ATOM     23  C   UNL A   1      33.457  16.540  25.540  1.00  0.00     0.131 A 
ENDBRANCH  16  18
ENDBRANCH   6  16
ENDBRANCH   3   5
ENDBRANCH   2   3
ENDBRANCH   1   2
BRANCH   1  24
ATOM     24  C   UNL A   1      39.228  19.508  25.773  1.00  0.00     0.275 C 
BRANCH  24  25
ATOM     25  O   UNL A   1      40.548  19.338  25.222  1.00  0.00    -0.458 OA
BRANCH  25  26
ATOM     26  C   UNL A   1      41.557  19.440  26.114  1.00  0.00     0.338 C 
ATOM     27  O   UNL A   1      42.396  18.587  26.375  1.00  0.00    -0.246 OA
BRANCH  26  28
ATOM     28  C   UNL A   1      41.645  20.811  26.644  1.00  0.00     0.060 A 
ATOM     29  C   UNL A   1      42.028  21.819  25.752  1.00  0.00     0.016 A 
ATOM     30  C   UNL A   1      41.457  21.102  27.995  1.00  0.00     0.016 A 
ATOM     31  C   UNL A   1      42.239  23.115  26.198  1.00  0.00     0.010 A 
ATOM     32  C   UNL A   1      41.692  22.406  28.452  1.00  0.00     0.010 A 
ATOM     33  C   UNL A   1      42.108  23.409  27.557  1.00  0.00    -0.014 A 
BRANCH  33  34
ATOM     34  C   UNL A   1      42.567  24.735  28.028  1.00  0.00     0.031 A 
ATOM     35  C   UNL A   1      41.548  25.811  28.270  1.00  0.00     0.074 A 
ATOM     36  C   UNL A   1      43.859  24.938  28.339  1.00  0.00     0.049 A 
ATOM     37  N   UNL A   1      41.720  27.033  28.706  1.00  0.00    -0.248 NA
ATOM     38  C   UNL A   1      40.146  25.460  27.993  1.00  0.00     0.031 C 
ATOM     39  C   UNL A   1      44.923  23.943  28.218  1.00  0.00     0.029 A 
ATOM     40  N   UNL A   1      44.487  26.048  28.841  1.00  0.00    -0.354 N 
ATOM     41  C   UNL A   1      40.451  27.597  28.746  1.00  0.00     0.074 A 
ATOM     42  C   UNL A   1      39.522  26.594  28.275  1.00  0.00     0.031 C 
ATOM     43  C   UNL A   1      46.077  24.490  28.637  1.00  0.00     0.029 A 
ATOM     44  C   UNL A   1      45.836  25.876  29.029  1.00  0.00     0.049 A 
ATOM     45  H   UNL A   1      44.016  26.888  29.045  1.00  0.00     0.167 HD
ATOM     46  C   UNL A   1      40.095  28.841  29.145  1.00  0.00     0.037 A 
ATOM     47  C   UNL A   1      46.768  26.747  29.458  1.00  0.00     0.037 A 
ATOM     48  C   UNL A   1      41.017  29.836  29.621  1.00  0.00     0.049 A 
ATOM     49  C   UNL A   1      46.353  28.141  29.840  1.00  0.00     0.074 A 
ATOM     50  C   UNL A   1      40.756  31.131  30.033  1.00  0.00     0.029 A 
ATOM     51  N   UNL A   1      42.384  29.642  29.751  1.00  0.00    -0.354 N 
ATOM     52  N   UNL A   1      45.154  28.674  29.855  1.00  0.00    -0.248 NA
ATOM     53  C   UNL A   1      47.422  29.057  30.265  1.00  0.00     0.031 C 
ATOM     54  C   UNL A   1      41.971  31.732  30.383  1.00  0.00     0.029 A 
ATOM     55  C   UNL A   1      42.983  30.798  30.224  1.00  0.00     0.049 A 
ATOM     56  H   UNL A   1      42.858  28.806  29.538  1.00  0.00     0.167 HD
ATOM     57  C   UNL A   1      45.322  29.977  30.305  1.00  0.00     0.074 A 
ATOM     58  C   UNL A   1      46.736  30.149  30.570  1.00  0.00     0.031 C 
ATOM     59  C   UNL A   1      44.391  30.947  30.482  1.00  0.00     0.037 A 
BRANCH  46  60
ATOM     60  C   UNL A   1      38.642  29.198  29.045  1.00  0.00     0.057 A 
ATOM     61  C   UNL A   1      37.787  29.136  30.152  1.00  0.00     0.134 A 
ATOM     62  C   UNL A   1      38.096  29.614  27.825  1.00  0.00     0.134 A 
ATOM     63  F   UNL A   1      38.247  28.725  31.344  1.00  0.00    -0.206 F 
ATOM     64  C   UNL A   1      36.433  29.455  30.044  1.00  0.00     0.040 A 
ATOM     65  C   UNL A   1      36.749  29.956  27.710  1.00  0.00     0.040 A 
ATOM     66  F   UNL A   1      38.862  29.693  26.727  1.00  0.00    -0.206 F 
ATOM     67  C   UNL A   1      35.911  29.873  28.821  1.00  0.00     0.006 A 
ENDBRANCH  46  60
BRANCH  47  68
ATOM     68  C   UNL A   1      48.191  26.334  29.536  1.00  0.00     0.057 A 
ATOM     69  C   UNL A   1      48.722  25.769  30.700  1.00  0.00     0.134 A 
ATOM     70  C   UNL A   1      49.058  26.519  28.453  1.00  0.00     0.134 A 
ATOM     71  F   UNL A   1      47.945  25.591  31.779  1.00  0.00    -0.206 F 
ATOM     72  C   UNL A   1      50.069  25.414  30.790  1.00  0.00     0.040 A 
ATOM     73  C   UNL A   1      50.401  26.149  28.521  1.00  0.00     0.040 A 
ATOM     74  F   UNL A   1      48.609  27.061  27.310  1.00  0.00    -0.206 F 
ATOM     75  C   UNL A   1      50.911  25.600  29.696  1.00  0.00     0.006 A 
ENDBRANCH  47  68
BRANCH  59  76
ATOM     76  C   UNL A   1      44.873  32.266  31.006  1.00  0.00     0.057 A 
ATOM     77  C   UNL A   1      45.266  33.300  30.146  1.00  0.00     0.134 A 
ATOM     78  C   UNL A   1      44.921  32.514  32.382  1.00  0.00     0.134 A 
ATOM     79  F   UNL A   1      45.253  33.120  28.816  1.00  0.00    -0.206 F 
ATOM     80  C   UNL A   1      45.713  34.526  30.639  1.00  0.00     0.040 A 
ATOM     81  C   UNL A   1      45.346  33.744  32.887  1.00  0.00     0.040 A 
ATOM     82  F   UNL A   1      44.551  31.567  33.258  1.00  0.00    -0.206 F 
ATOM     83  C   UNL A   1      45.749  34.752  32.014  1.00  0.00     0.006 A 
ENDBRANCH  59  76
ENDBRANCH  33  34
ENDBRANCH  26  28
ENDBRANCH  25  26
ENDBRANCH  24  25
ENDBRANCH   1  24
TORSDOF 13
ENDMDL
