MODEL 1
REMARK VINA RESULT:     -12.9      0.000      0.000
REMARK SMILES Cc1ccc(C)c(N2C(=O)S[C@H](CC(=O)Nc3ccc(C(=O)OCCOC(=O)c4ccc(-c5c6nc(c(-c7c(F)cccc7F)c7ccc([nH]7)c(-c7c(F)cccc7F)c7nc(c(-c8c(F)cccc8F)c8ccc5[nH]8)C=C7)C=C6)cc4)c(O)c3)C2=O)c1
REMARK SMILES IDX 24 1 23 2 21 3 22 4 20 5 17 6 18 7 85 8 19 9 83 10 16 11
REMARK SMILES IDX 14 12 15 13 13 15 12 16 8 17 9 18 86 19 10 20 11 21 87 22
REMARK SMILES IDX 7 23 1 24 2 25 3 26 88 27 4 28 5 29 6 30 84 31 25 33 26 34
REMARK SMILES IDX 27 35 28 36 29 37 30 38 82 39 31 40 81 41 32 42 33 43 34 44
REMARK SMILES IDX 75 45 35 46 80 47 74 48 76 49 36 50 79 51 73 52 72 53 37 55
REMARK SMILES IDX 63 56 46 57 62 58 47 59 50 60 61 61 77 62 48 63 49 64 60 66
REMARK SMILES IDX 78 67 51 68 38 69 39 70 44 71 40 72 41 73 43 74 45 75 42 76
REMARK SMILES IDX 64 77 65 78 70 79 66 80 67 81 69 82 71 83 68 84 52 85 53 86
REMARK SMILES IDX 58 87 54 88 55 89 57 90 59 91 56 92
REMARK H PARENT 16 14 84 32 76 54 50 65
REMARK Flexibility Score: inf
ROOT
ATOM      1  C   UNL A   1      41.570  20.797  26.880  1.00  0.00     0.275 C 
ENDROOT
BRANCH   1   2
ATOM      2  O   UNL A   1      40.189  20.529  26.646  1.00  0.00    -0.458 OA
BRANCH   2   3
ATOM      3  C   UNL A   1      39.523  21.562  26.081  1.00  0.00     0.342 C 
ATOM      4  O   UNL A   1      39.839  22.739  26.077  1.00  0.00    -0.246 OA
BRANCH   3   5
ATOM      5  C   UNL A   1      38.216  21.088  25.635  1.00  0.00     0.101 A 
ATOM      6  C   UNL A   1      35.690  20.095  25.034  1.00  0.00     0.044 A 
ATOM      7  C   UNL A   1      36.839  19.394  24.669  1.00  0.00     0.027 A 
ATOM      8  C   UNL A   1      35.814  21.379  25.559  1.00  0.00     0.073 A 
ATOM      9  C   UNL A   1      38.101  19.855  25.009  1.00  0.00     0.022 A 
ATOM     10  C   UNL A   1      37.085  21.879  25.845  1.00  0.00     0.132 A 
BRANCH   6  11
ATOM     11  N   UNL A   1      34.425  19.523  24.841  1.00  0.00    -0.326 N 
ATOM     12  C   UNL A   1      33.203  20.159  24.914  1.00  0.00     0.226 C 
ATOM     13  O   UNL A   1      32.173  19.505  25.075  1.00  0.00    -0.275 OA
ATOM     14  H   UNL A   1      34.406  18.562  24.631  1.00  0.00     0.169 HD
BRANCH  12  15
ATOM     15  C   UNL A   1      33.145  21.642  24.569  1.00  0.00     0.125 C 
BRANCH  15  16
ATOM     16  C   UNL A   1      31.749  22.233  24.422  1.00  0.00     0.156 C 
ATOM     17  N   UNL A   1      31.763  24.590  24.886  1.00  0.00    -0.240 N 
ATOM     18  C   UNL A   1      31.291  24.157  26.107  1.00  0.00     0.293 C 
ATOM     19  C   UNL A   1      31.892  23.647  23.883  1.00  0.00     0.248 C 
ATOM     20  O   UNL A   1      31.111  24.770  27.130  1.00  0.00    -0.261 OA
ATOM     21  S   UNL A   1      30.862  22.452  25.988  1.00  0.00    -0.050 SA
ATOM     22  O   UNL A   1      32.123  23.870  22.697  1.00  0.00    -0.273 OA
BRANCH  17  23
ATOM     23  C   UNL A   1      31.798  25.973  24.593  1.00  0.00     0.056 A 
ATOM     24  C   UNL A   1      29.505  28.651  23.110  1.00  0.00     0.044 C 
ATOM     25  C   UNL A   1      30.689  27.967  23.731  1.00  0.00    -0.049 A 
ATOM     26  C   UNL A   1      31.855  28.700  23.971  1.00  0.00     0.004 A 
ATOM     27  C   UNL A   1      30.661  26.604  24.065  1.00  0.00     0.030 A 
ATOM     28  C   UNL A   1      32.982  28.081  24.510  1.00  0.00     0.006 A 
ATOM     29  C   UNL A   1      32.975  26.713  24.818  1.00  0.00    -0.027 A 
ATOM     30  C   UNL A   1      34.230  26.117  25.392  1.00  0.00     0.046 C 
ENDBRANCH  17  23
ENDBRANCH  15  16
ENDBRANCH  12  15
ENDBRANCH   6  11
BRANCH  10  31
ATOM     31  O   UNL A   1      37.165  23.148  26.352  1.00  0.00    -0.507 OA
ATOM     32  H   UNL A   1      37.772  23.340  27.039  1.00  0.00     0.293 HD
ENDBRANCH  10  31
ENDBRANCH   3   5
ENDBRANCH   2   3
ENDBRANCH   1   2
BRANCH   1  33
ATOM     33  C   UNL A   1      42.448  19.636  26.399  1.00  0.00     0.275 C 
BRANCH  33  34
ATOM     34  O   UNL A   1      43.037  19.687  25.066  1.00  0.00    -0.458 OA
BRANCH  34  35
ATOM     35  C   UNL A   1      44.309  20.081  24.794  1.00  0.00     0.338 C 
ATOM     36  O   UNL A   1      45.145  19.313  24.344  1.00  0.00    -0.246 OA
BRANCH  35  37
ATOM     37  C   UNL A   1      44.608  21.510  25.034  1.00  0.00     0.060 A 
ATOM     38  C   UNL A   1      43.857  22.490  24.372  1.00  0.00     0.016 A 
ATOM     39  C   UNL A   1      45.456  21.862  26.073  1.00  0.00     0.016 A 
ATOM     40  C   UNL A   1      43.776  23.777  24.906  1.00  0.00     0.010 A 
ATOM     41  C   UNL A   1      45.269  23.090  26.673  1.00  0.00     0.010 A 
ATOM     42  C   UNL A   1      44.436  24.063  26.105  1.00  0.00    -0.014 A 
BRANCH  42  43
ATOM     43  C   UNL A   1      44.244  25.346  26.790  1.00  0.00     0.031 A 
ATOM     44  C   UNL A   1      45.211  26.474  26.550  1.00  0.00     0.074 A 
ATOM     45  C   UNL A   1      43.123  25.627  27.488  1.00  0.00     0.049 A 
ATOM     46  N   UNL A   1      46.020  27.028  27.399  1.00  0.00    -0.248 NA
ATOM     47  C   UNL A   1      45.275  27.074  25.212  1.00  0.00     0.031 C 
ATOM     48  C   UNL A   1      41.911  24.820  27.682  1.00  0.00     0.029 A 
ATOM     49  N   UNL A   1      42.822  26.784  28.135  1.00  0.00    -0.354 N 
ATOM     50  C   UNL A   1      46.601  28.129  26.757  1.00  0.00     0.074 A 
ATOM     51  C   UNL A   1      46.175  28.048  25.383  1.00  0.00     0.031 C 
ATOM     52  C   UNL A   1      40.929  25.589  28.195  1.00  0.00     0.029 A 
ATOM     53  C   UNL A   1      41.516  26.857  28.573  1.00  0.00     0.049 A 
ATOM     54  H   UNL A   1      43.477  27.504  28.280  1.00  0.00     0.167 HD
ATOM     55  C   UNL A   1      47.278  29.108  27.435  1.00  0.00     0.037 A 
ATOM     56  C   UNL A   1      40.938  27.863  29.259  1.00  0.00     0.037 A 
ATOM     57  C   UNL A   1      47.584  28.698  28.779  1.00  0.00     0.049 A 
ATOM     58  C   UNL A   1      42.019  28.591  29.960  1.00  0.00     0.074 A 
ATOM     59  C   UNL A   1      48.343  27.697  29.351  1.00  0.00     0.029 A 
ATOM     60  N   UNL A   1      46.808  29.184  29.800  1.00  0.00    -0.354 N 
ATOM     61  N   UNL A   1      42.744  28.065  30.910  1.00  0.00    -0.248 NA
ATOM     62  C   UNL A   1      42.590  29.759  29.312  1.00  0.00     0.031 C 
ATOM     63  C   UNL A   1      47.592  27.286  30.493  1.00  0.00     0.029 A 
ATOM     64  C   UNL A   1      46.457  28.099  30.558  1.00  0.00     0.049 A 
ATOM     65  H   UNL A   1      46.554  30.123  29.956  1.00  0.00     0.167 HD
ATOM     66  C   UNL A   1      44.021  28.571  30.709  1.00  0.00     0.074 A 
ATOM     67  C   UNL A   1      43.839  29.682  29.776  1.00  0.00     0.031 C 
ATOM     68  C   UNL A   1      45.137  27.889  31.108  1.00  0.00     0.037 A 
BRANCH  55  69
ATOM     69  C   UNL A   1      47.461  30.550  27.011  1.00  0.00     0.057 A 
ATOM     70  C   UNL A   1      48.736  31.151  27.099  1.00  0.00     0.134 A 
ATOM     71  C   UNL A   1      46.402  31.448  26.784  1.00  0.00     0.134 A 
ATOM     72  F   UNL A   1      49.834  30.412  27.322  1.00  0.00    -0.206 F 
ATOM     73  C   UNL A   1      48.930  32.539  27.038  1.00  0.00     0.040 A 
ATOM     74  C   UNL A   1      46.590  32.833  26.673  1.00  0.00     0.040 A 
ATOM     75  F   UNL A   1      45.127  31.046  26.756  1.00  0.00    -0.206 F 
ATOM     76  C   UNL A   1      47.853  33.387  26.831  1.00  0.00     0.006 A 
ENDBRANCH  55  69
BRANCH  56  77
ATOM     77  C   UNL A   1      39.558  28.340  29.095  1.00  0.00     0.057 A 
ATOM     78  C   UNL A   1      38.640  28.315  30.146  1.00  0.00     0.134 A 
ATOM     79  C   UNL A   1      39.175  29.048  27.939  1.00  0.00     0.134 A 
ATOM     80  F   UNL A   1      38.939  27.691  31.293  1.00  0.00    -0.206 F 
ATOM     81  C   UNL A   1      37.407  28.973  30.059  1.00  0.00     0.040 A 
ATOM     82  C   UNL A   1      37.948  29.706  27.839  1.00  0.00     0.040 A 
ATOM     83  F   UNL A   1      40.016  29.183  26.901  1.00  0.00    -0.206 F 
ATOM     84  C   UNL A   1      37.063  29.679  28.908  1.00  0.00     0.006 A 
ENDBRANCH  56  77
BRANCH  68  85
ATOM     85  C   UNL A   1      44.961  26.655  31.953  1.00  0.00     0.057 A 
ATOM     86  C   UNL A   1      44.722  26.690  33.334  1.00  0.00     0.134 A 
ATOM     87  C   UNL A   1      44.824  25.411  31.327  1.00  0.00     0.134 A 
ATOM     88  F   UNL A   1      44.724  27.844  34.006  1.00  0.00    -0.206 F 
ATOM     89  C   UNL A   1      44.397  25.543  34.064  1.00  0.00     0.040 A 
ATOM     90  C   UNL A   1      44.471  24.260  32.039  1.00  0.00     0.040 A 
ATOM     91  F   UNL A   1      44.970  25.304  29.997  1.00  0.00    -0.206 F 
ATOM     92  C   UNL A   1      44.262  24.323  33.414  1.00  0.00     0.006 A 
ENDBRANCH  68  85
ENDBRANCH  42  43
ENDBRANCH  35  37
ENDBRANCH  34  35
ENDBRANCH  33  34
ENDBRANCH   1  33
TORSDOF 16
ENDMDL
MODEL 2
REMARK VINA RESULT:     -12.9      2.625      7.587
REMARK SMILES Cc1ccc(C)c(N2C(=O)S[C@H](CC(=O)Nc3ccc(C(=O)OCCOC(=O)c4ccc(-c5c6nc(c(-c7c(F)cccc7F)c7ccc([nH]7)c(-c7c(F)cccc7F)c7nc(c(-c8c(F)cccc8F)c8ccc5[nH]8)C=C7)C=C6)cc4)c(O)c3)C2=O)c1
REMARK SMILES IDX 24 1 23 2 21 3 22 4 20 5 17 6 18 7 85 8 19 9 83 10 16 11
REMARK SMILES IDX 14 12 15 13 13 15 12 16 8 17 9 18 86 19 10 20 11 21 87 22
REMARK SMILES IDX 7 23 1 24 2 25 3 26 88 27 4 28 5 29 6 30 84 31 25 33 26 34
REMARK SMILES IDX 27 35 28 36 29 37 30 38 82 39 31 40 81 41 32 42 33 43 34 44
REMARK SMILES IDX 75 45 35 46 80 47 74 48 76 49 36 50 79 51 73 52 72 53 37 55
REMARK SMILES IDX 63 56 46 57 62 58 47 59 50 60 61 61 77 62 48 63 49 64 60 66
REMARK SMILES IDX 78 67 51 68 38 69 39 70 44 71 40 72 41 73 43 74 45 75 42 76
REMARK SMILES IDX 64 77 65 78 70 79 66 80 67 81 69 82 71 83 68 84 52 85 53 86
REMARK SMILES IDX 58 87 54 88 55 89 57 90 59 91 56 92
REMARK H PARENT 16 14 84 32 76 54 50 65
REMARK Flexibility Score: inf
ROOT
ATOM      1  C   UNL A   1      34.471  29.463  26.299  1.00  0.00     0.275 C 
ENDROOT
BRANCH   1   2
ATOM      2  O   UNL A   1      33.265  29.784  25.608  1.00  0.00    -0.458 OA
BRANCH   2   3
ATOM      3  C   UNL A   1      32.991  28.951  24.579  1.00  0.00     0.342 C 
ATOM      4  O   UNL A   1      33.086  29.184  23.386  1.00  0.00    -0.246 OA
BRANCH   3   5
ATOM      5  C   UNL A   1      32.344  27.753  25.106  1.00  0.00     0.101 A 
ATOM      6  C   UNL A   1      30.918  25.515  25.932  1.00  0.00     0.044 A 
ATOM      7  C   UNL A   1      30.865  26.703  26.659  1.00  0.00     0.027 A 
ATOM      8  C   UNL A   1      31.819  25.401  24.876  1.00  0.00     0.073 A 
ATOM      9  C   UNL A   1      31.531  27.841  26.228  1.00  0.00     0.022 A 
ATOM     10  C   UNL A   1      32.544  26.524  24.475  1.00  0.00     0.132 A 
BRANCH   6  11
ATOM     11  N   UNL A   1      30.095  24.436  26.285  1.00  0.00    -0.326 N 
ATOM     12  C   UNL A   1      30.474  23.122  26.463  1.00  0.00     0.226 C 
ATOM     13  O   UNL A   1      29.634  22.224  26.422  1.00  0.00    -0.275 OA
ATOM     14  H   UNL A   1      29.141  24.638  26.421  1.00  0.00     0.169 HD
BRANCH  12  15
ATOM     15  C   UNL A   1      31.899  22.843  26.925  1.00  0.00     0.125 C 
BRANCH  15  16
ATOM     16  C   UNL A   1      32.645  21.762  26.154  1.00  0.00     0.156 C 
ATOM     17  N   UNL A   1      34.892  22.455  25.662  1.00  0.00    -0.240 N 
ATOM     18  C   UNL A   1      34.331  22.737  24.434  1.00  0.00     0.293 C 
ATOM     19  C   UNL A   1      34.102  21.797  26.586  1.00  0.00     0.248 C 
ATOM     20  O   UNL A   1      34.798  23.310  23.483  1.00  0.00    -0.261 OA
ATOM     21  S   UNL A   1      32.716  22.035  24.363  1.00  0.00    -0.050 SA
ATOM     22  O   UNL A   1      34.476  21.311  27.652  1.00  0.00    -0.273 OA
BRANCH  17  23
ATOM     23  C   UNL A   1      36.292  22.548  25.836  1.00  0.00     0.056 A 
ATOM     24  C   UNL A   1      38.866  25.092  27.071  1.00  0.00     0.044 C 
ATOM     25  C   UNL A   1      38.241  23.837  26.536  1.00  0.00    -0.049 A 
ATOM     26  C   UNL A   1      39.062  22.771  26.158  1.00  0.00     0.004 A 
ATOM     27  C   UNL A   1      36.850  23.711  26.391  1.00  0.00     0.030 A 
ATOM     28  C   UNL A   1      38.510  21.608  25.621  1.00  0.00     0.006 A 
ATOM     29  C   UNL A   1      37.125  21.483  25.443  1.00  0.00    -0.027 A 
ATOM     30  C   UNL A   1      36.606  20.201  24.854  1.00  0.00     0.046 C 
ENDBRANCH  17  23
ENDBRANCH  15  16
ENDBRANCH  12  15
ENDBRANCH   6  11
BRANCH  10  31
ATOM     31  O   UNL A   1      33.426  26.370  23.440  1.00  0.00    -0.507 OA
ATOM     32  H   UNL A   1      34.095  25.717  23.487  1.00  0.00     0.293 HD
ENDBRANCH  10  31
ENDBRANCH   3   5
ENDBRANCH   2   3
ENDBRANCH   1   2
BRANCH   1  33
ATOM     33  C   UNL A   1      34.517  30.139  27.674  1.00  0.00     0.275 C 
BRANCH  33  34
ATOM     34  O   UNL A   1      35.755  30.770  28.121  1.00  0.00    -0.458 OA
BRANCH  34  35
ATOM     35  C   UNL A   1      36.543  30.305  29.125  1.00  0.00     0.338 C 
ATOM     36  O   UNL A   1      36.343  30.590  30.295  1.00  0.00    -0.246 OA
BRANCH  35  37
ATOM     37  C   UNL A   1      37.635  29.392  28.719  1.00  0.00     0.060 A 
ATOM     38  C   UNL A   1      38.249  29.567  27.472  1.00  0.00     0.016 A 
ATOM     39  C   UNL A   1      38.191  28.537  29.658  1.00  0.00     0.016 A 
ATOM     40  C   UNL A   1      39.537  29.073  27.260  1.00  0.00     0.010 A 
ATOM     41  C   UNL A   1      39.509  28.167  29.497  1.00  0.00     0.010 A 
ATOM     42  C   UNL A   1      40.201  28.423  28.305  1.00  0.00    -0.014 A 
BRANCH  42  43
ATOM     43  C   UNL A   1      41.612  28.037  28.184  1.00  0.00     0.031 A 
ATOM     44  C   UNL A   1      41.983  26.784  27.440  1.00  0.00     0.074 A 
ATOM     45  C   UNL A   1      42.615  28.861  28.554  1.00  0.00     0.049 A 
ATOM     46  N   UNL A   1      42.536  25.708  27.909  1.00  0.00    -0.248 NA
ATOM     47  C   UNL A   1      41.731  26.722  25.995  1.00  0.00     0.031 C 
ATOM     48  C   UNL A   1      42.560  30.234  29.074  1.00  0.00     0.029 A 
ATOM     49  N   UNL A   1      43.951  28.627  28.463  1.00  0.00    -0.354 N 
ATOM     50  C   UNL A   1      42.828  24.883  26.816  1.00  0.00     0.074 A 
ATOM     51  C   UNL A   1      42.221  25.521  25.675  1.00  0.00     0.031 C 
ATOM     52  C   UNL A   1      43.790  30.786  29.034  1.00  0.00     0.029 A 
ATOM     53  C   UNL A   1      44.733  29.736  28.711  1.00  0.00     0.049 A 
ATOM     54  H   UNL A   1      44.327  27.745  28.240  1.00  0.00     0.167 HD
ATOM     55  C   UNL A   1      43.668  23.806  26.906  1.00  0.00     0.037 A 
ATOM     56  C   UNL A   1      46.079  29.804  28.717  1.00  0.00     0.037 A 
ATOM     57  C   UNL A   1      43.928  23.458  28.277  1.00  0.00     0.049 A 
ATOM     58  C   UNL A   1      46.584  28.440  28.985  1.00  0.00     0.074 A 
ATOM     59  C   UNL A   1      43.164  23.023  29.342  1.00  0.00     0.029 A 
ATOM     60  N   UNL A   1      45.124  23.841  28.830  1.00  0.00    -0.354 N 
ATOM     61  N   UNL A   1      46.391  27.809  30.113  1.00  0.00    -0.248 NA
ATOM     62  C   UNL A   1      46.928  27.601  27.851  1.00  0.00     0.031 C 
ATOM     63  C   UNL A   1      43.723  23.682  30.478  1.00  0.00     0.029 A 
ATOM     64  C   UNL A   1      44.814  24.429  30.027  1.00  0.00     0.049 A 
ATOM     65  H   UNL A   1      46.022  23.717  28.445  1.00  0.00     0.167 HD
ATOM     66  C   UNL A   1      46.187  26.484  29.752  1.00  0.00     0.074 A 
ATOM     67  C   UNL A   1      46.629  26.404  28.361  1.00  0.00     0.031 C 
ATOM     68  C   UNL A   1      45.442  25.635  30.521  1.00  0.00     0.037 A 
BRANCH  55  69
ATOM     69  C   UNL A   1      44.486  23.192  25.790  1.00  0.00     0.057 A 
ATOM     70  C   UNL A   1      44.400  21.805  25.537  1.00  0.00     0.134 A 
ATOM     71  C   UNL A   1      45.550  23.844  25.139  1.00  0.00     0.134 A 
ATOM     72  F   UNL A   1      43.439  21.058  26.101  1.00  0.00    -0.206 F 
ATOM     73  C   UNL A   1      45.340  21.113  24.759  1.00  0.00     0.040 A 
ATOM     74  C   UNL A   1      46.466  23.170  24.319  1.00  0.00     0.040 A 
ATOM     75  F   UNL A   1      45.814  25.140  25.338  1.00  0.00    -0.206 F 
ATOM     76  C   UNL A   1      46.382  21.795  24.150  1.00  0.00     0.006 A 
ENDBRANCH  55  69
BRANCH  56  77
ATOM     77  C   UNL A   1      46.888  30.933  28.238  1.00  0.00     0.057 A 
ATOM     78  C   UNL A   1      46.686  31.505  26.982  1.00  0.00     0.134 A 
ATOM     79  C   UNL A   1      47.745  31.626  29.116  1.00  0.00     0.134 A 
ATOM     80  F   UNL A   1      45.860  30.927  26.098  1.00  0.00    -0.206 F 
ATOM     81  C   UNL A   1      47.293  32.714  26.619  1.00  0.00     0.040 A 
ATOM     82  C   UNL A   1      48.357  32.831  28.767  1.00  0.00     0.040 A 
ATOM     83  F   UNL A   1      47.950  31.189  30.369  1.00  0.00    -0.206 F 
ATOM     84  C   UNL A   1      48.122  33.384  27.516  1.00  0.00     0.006 A 
ENDBRANCH  56  77
BRANCH  68  85
ATOM     85  C   UNL A   1      44.997  26.102  31.883  1.00  0.00     0.057 A 
ATOM     86  C   UNL A   1      43.810  26.812  32.107  1.00  0.00     0.134 A 
ATOM     87  C   UNL A   1      45.677  25.648  33.017  1.00  0.00     0.134 A 
ATOM     88  F   UNL A   1      43.033  27.197  31.091  1.00  0.00    -0.206 F 
ATOM     89  C   UNL A   1      43.337  27.088  33.393  1.00  0.00     0.040 A 
ATOM     90  C   UNL A   1      45.202  25.891  34.310  1.00  0.00     0.040 A 
ATOM     91  F   UNL A   1      46.787  24.903  32.888  1.00  0.00    -0.206 F 
ATOM     92  C   UNL A   1      44.031  26.619  34.502  1.00  0.00     0.006 A 
ENDBRANCH  68  85
ENDBRANCH  42  43
ENDBRANCH  35  37
ENDBRANCH  34  35
ENDBRANCH  33  34
ENDBRANCH   1  33
TORSDOF 16
ENDMDL
MODEL 3
REMARK VINA RESULT:     -12.7      5.810     10.941
REMARK SMILES Cc1ccc(C)c(N2C(=O)S[C@H](CC(=O)Nc3ccc(C(=O)OCCOC(=O)c4ccc(-c5c6nc(c(-c7c(F)cccc7F)c7ccc([nH]7)c(-c7c(F)cccc7F)c7nc(c(-c8c(F)cccc8F)c8ccc5[nH]8)C=C7)C=C6)cc4)c(O)c3)C2=O)c1
REMARK SMILES IDX 24 1 23 2 21 3 22 4 20 5 17 6 18 7 85 8 19 9 83 10 16 11
REMARK SMILES IDX 14 12 15 13 13 15 12 16 8 17 9 18 86 19 10 20 11 21 87 22
REMARK SMILES IDX 7 23 1 24 2 25 3 26 88 27 4 28 5 29 6 30 84 31 25 33 26 34
REMARK SMILES IDX 27 35 28 36 29 37 30 38 82 39 31 40 81 41 32 42 33 43 34 44
REMARK SMILES IDX 75 45 35 46 80 47 74 48 76 49 36 50 79 51 73 52 72 53 37 55
REMARK SMILES IDX 63 56 46 57 62 58 47 59 50 60 61 61 77 62 48 63 49 64 60 66
REMARK SMILES IDX 78 67 51 68 38 69 39 70 44 71 40 72 41 73 43 74 45 75 42 76
REMARK SMILES IDX 64 77 65 78 70 79 66 80 67 81 69 82 71 83 68 84 52 85 53 86
REMARK SMILES IDX 58 87 54 88 55 89 57 90 59 91 56 92
REMARK H PARENT 16 14 84 32 76 54 50 65
REMARK Flexibility Score: inf
ROOT
ATOM      1  C   UNL A   1      35.000  33.474  27.978  1.00  0.00     0.275 C 
ENDROOT
BRANCH   1   2
ATOM      2  O   UNL A   1      34.919  34.669  28.753  1.00  0.00    -0.458 OA
BRANCH   2   3
ATOM      3  C   UNL A   1      33.740  34.818  29.399  1.00  0.00     0.342 C 
ATOM      4  O   UNL A   1      32.683  35.214  28.940  1.00  0.00    -0.246 OA
BRANCH   3   5
ATOM      5  C   UNL A   1      33.964  34.627  30.829  1.00  0.00     0.101 A 
ATOM      6  C   UNL A   1      34.648  34.324  33.507  1.00  0.00     0.044 A 
ATOM      7  C   UNL A   1      34.484  33.212  32.681  1.00  0.00     0.027 A 
ATOM      8  C   UNL A   1      34.307  35.586  33.026  1.00  0.00     0.073 A 
ATOM      9  C   UNL A   1      34.194  33.355  31.332  1.00  0.00     0.022 A 
ATOM     10  C   UNL A   1      33.950  35.731  31.685  1.00  0.00     0.132 A 
BRANCH   6  11
ATOM     11  N   UNL A   1      35.117  34.164  34.818  1.00  0.00    -0.326 N 
ATOM     12  C   UNL A   1      36.388  33.803  35.211  1.00  0.00     0.226 C 
ATOM     13  O   UNL A   1      36.585  33.359  36.341  1.00  0.00    -0.275 OA
ATOM     14  H   UNL A   1      34.466  34.328  35.539  1.00  0.00     0.169 HD
BRANCH  12  15
ATOM     15  C   UNL A   1      37.552  34.174  34.300  1.00  0.00     0.125 C 
BRANCH  15  16
ATOM     16  C   UNL A   1      38.841  33.392  34.521  1.00  0.00     0.156 C 
ATOM     17  N   UNL A   1      40.148  33.307  32.507  1.00  0.00    -0.240 N 
ATOM     18  C   UNL A   1      39.577  32.055  32.418  1.00  0.00     0.293 C 
ATOM     19  C   UNL A   1      39.927  34.026  33.668  1.00  0.00     0.248 C 
ATOM     20  O   UNL A   1      39.604  31.254  31.518  1.00  0.00    -0.261 OA
ATOM     21  S   UNL A   1      38.781  31.674  33.943  1.00  0.00    -0.050 SA
ATOM     22  O   UNL A   1      40.489  35.067  33.999  1.00  0.00    -0.273 OA
BRANCH  17  23
ATOM     23  C   UNL A   1      41.163  33.686  31.599  1.00  0.00     0.056 A 
ATOM     24  C   UNL A   1      44.978  33.574  31.350  1.00  0.00     0.044 C 
ATOM     25  C   UNL A   1      43.531  33.809  31.026  1.00  0.00    -0.049 A 
ATOM     26  C   UNL A   1      43.193  34.458  29.835  1.00  0.00     0.004 A 
ATOM     27  C   UNL A   1      42.506  33.406  31.897  1.00  0.00     0.030 A 
ATOM     28  C   UNL A   1      41.859  34.724  29.528  1.00  0.00     0.006 A 
ATOM     29  C   UNL A   1      40.829  34.354  30.405  1.00  0.00    -0.027 A 
ATOM     30  C   UNL A   1      39.417  34.680  30.006  1.00  0.00     0.046 C 
ENDBRANCH  17  23
ENDBRANCH  15  16
ENDBRANCH  12  15
ENDBRANCH   6  11
BRANCH  10  31
ATOM     31  O   UNL A   1      33.614  36.985  31.252  1.00  0.00    -0.507 OA
ATOM     32  H   UNL A   1      34.283  37.621  31.093  1.00  0.00     0.293 HD
ENDBRANCH  10  31
ENDBRANCH   3   5
ENDBRANCH   2   3
ENDBRANCH   1   2
BRANCH   1  33
ATOM     33  C   UNL A   1      36.189  32.611  28.416  1.00  0.00     0.275 C 
BRANCH  33  34
ATOM     34  O   UNL A   1      36.049  31.159  28.442  1.00  0.00    -0.458 OA
BRANCH  34  35
ATOM     35  C   UNL A   1      36.567  30.347  29.401  1.00  0.00     0.338 C 
ATOM     36  O   UNL A   1      36.144  30.341  30.546  1.00  0.00    -0.246 OA
BRANCH  35  37
ATOM     37  C   UNL A   1      37.647  29.435  28.961  1.00  0.00     0.060 A 
ATOM     38  C   UNL A   1      38.244  29.630  27.708  1.00  0.00     0.016 A 
ATOM     39  C   UNL A   1      38.211  28.559  29.875  1.00  0.00     0.016 A 
ATOM     40  C   UNL A   1      39.525  29.132  27.468  1.00  0.00     0.010 A 
ATOM     41  C   UNL A   1      39.524  28.184  29.687  1.00  0.00     0.010 A 
ATOM     42  C   UNL A   1      40.199  28.459  28.489  1.00  0.00    -0.014 A 
BRANCH  42  43
ATOM     43  C   UNL A   1      41.606  28.066  28.340  1.00  0.00     0.031 A 
ATOM     44  C   UNL A   1      41.958  26.823  27.569  1.00  0.00     0.074 A 
ATOM     45  C   UNL A   1      42.620  28.877  28.708  1.00  0.00     0.049 A 
ATOM     46  N   UNL A   1      42.511  25.736  28.012  1.00  0.00    -0.248 NA
ATOM     47  C   UNL A   1      41.682  26.787  26.128  1.00  0.00     0.031 C 
ATOM     48  C   UNL A   1      42.582  30.242  29.251  1.00  0.00     0.029 A 
ATOM     49  N   UNL A   1      43.953  28.637  28.591  1.00  0.00    -0.354 N 
ATOM     50  C   UNL A   1      42.780  24.928  26.900  1.00  0.00     0.074 A 
ATOM     51  C   UNL A   1      42.160  25.588  25.780  1.00  0.00     0.031 C 
ATOM     52  C   UNL A   1      43.815  30.786  29.202  1.00  0.00     0.029 A 
ATOM     53  C   UNL A   1      44.746  29.737  28.846  1.00  0.00     0.049 A 
ATOM     54  H   UNL A   1      44.320  27.756  28.348  1.00  0.00     0.167 HD
ATOM     55  C   UNL A   1      43.615  23.844  26.959  1.00  0.00     0.037 A 
ATOM     56  C   UNL A   1      46.092  29.796  28.831  1.00  0.00     0.037 A 
ATOM     57  C   UNL A   1      43.894  23.471  28.320  1.00  0.00     0.049 A 
ATOM     58  C   UNL A   1      46.593  28.424  29.069  1.00  0.00     0.074 A 
ATOM     59  C   UNL A   1      43.144  23.024  29.389  1.00  0.00     0.029 A 
ATOM     60  N   UNL A   1      45.101  23.838  28.860  1.00  0.00    -0.354 N 
ATOM     61  N   UNL A   1      46.414  27.775  30.189  1.00  0.00    -0.248 NA
ATOM     62  C   UNL A   1      46.913  27.603  27.915  1.00  0.00     0.031 C 
ATOM     63  C   UNL A   1      43.725  23.660  30.527  1.00  0.00     0.029 A 
ATOM     64  C   UNL A   1      44.814  24.408  30.072  1.00  0.00     0.049 A 
ATOM     65  H   UNL A   1      45.992  23.715  28.458  1.00  0.00     0.167 HD
ATOM     66  C   UNL A   1      46.196  26.459  29.809  1.00  0.00     0.074 A 
ATOM     67  C   UNL A   1      46.615  26.399  28.410  1.00  0.00     0.031 C 
ATOM     68  C   UNL A   1      45.457  25.601  30.576  1.00  0.00     0.037 A 
BRANCH  55  69
ATOM     69  C   UNL A   1      44.411  23.244  25.819  1.00  0.00     0.057 A 
ATOM     70  C   UNL A   1      44.340  21.856  25.568  1.00  0.00     0.134 A 
ATOM     71  C   UNL A   1      45.446  23.913  25.141  1.00  0.00     0.134 A 
ATOM     72  F   UNL A   1      43.406  21.094  26.157  1.00  0.00    -0.206 F 
ATOM     73  C   UNL A   1      45.268  21.180  24.763  1.00  0.00     0.040 A 
ATOM     74  C   UNL A   1      46.350  23.255  24.295  1.00  0.00     0.040 A 
ATOM     75  F   UNL A   1      45.696  25.213  25.334  1.00  0.00    -0.206 F 
ATOM     76  C   UNL A   1      46.283  21.879  24.127  1.00  0.00     0.006 A 
ENDBRANCH  55  69
BRANCH  56  77
ATOM     77  C   UNL A   1      46.901  30.928  28.359  1.00  0.00     0.057 A 
ATOM     78  C   UNL A   1      46.872  31.352  27.030  1.00  0.00     0.134 A 
ATOM     79  C   UNL A   1      47.562  31.770  29.275  1.00  0.00     0.134 A 
ATOM     80  F   UNL A   1      46.235  30.625  26.101  1.00  0.00    -0.206 F 
ATOM     81  C   UNL A   1      47.458  32.559  26.631  1.00  0.00     0.040 A 
ATOM     82  C   UNL A   1      48.152  32.975  28.891  1.00  0.00     0.040 A 
ATOM     83  F   UNL A   1      47.587  31.481  30.586  1.00  0.00    -0.206 F 
ATOM     84  C   UNL A   1      48.091  33.379  27.564  1.00  0.00     0.006 A 
ENDBRANCH  56  77
BRANCH  68  85
ATOM     85  C   UNL A   1      45.037  26.048  31.951  1.00  0.00     0.057 A 
ATOM     86  C   UNL A   1      43.836  26.723  32.212  1.00  0.00     0.134 A 
ATOM     87  C   UNL A   1      45.760  25.607  33.065  1.00  0.00     0.134 A 
ATOM     88  F   UNL A   1      43.022  27.091  31.220  1.00  0.00    -0.206 F 
ATOM     89  C   UNL A   1      43.391  26.978  33.513  1.00  0.00     0.040 A 
ATOM     90  C   UNL A   1      45.313  25.829  34.371  1.00  0.00     0.040 A 
ATOM     91  F   UNL A   1      46.886  24.895  32.900  1.00  0.00    -0.206 F 
ATOM     92  C   UNL A   1      44.128  26.523  34.599  1.00  0.00     0.006 A 
ENDBRANCH  68  85
ENDBRANCH  42  43
ENDBRANCH  35  37
ENDBRANCH  34  35
ENDBRANCH  33  34
ENDBRANCH   1  33
TORSDOF 16
ENDMDL
