MODEL 1
REMARK VINA RESULT:     -12.7      0.000      0.000
REMARK SMILES O=C(OCCOC(=O)[C@@H]1[C@@H](C(=O)N2CC[NH+](C/C=C/c3ccccc3)CC2)[C@@H]2C=C[C@H]1C2)c1ccc(-c2c3nc(c(-c4c(F)cccc4F)c4ccc([nH]4)c(-c4c(F)cccc4F)c4nc(c(-c5c(F)cccc5F)c5ccc2[nH]5)C=C4)C=C3)cc1
REMARK SMILES IDX 5 1 4 2 3 3 2 4 1 5 33 6 34 7 86 8 35 9 85 10 36 11 37 12
REMARK SMILES IDX 38 13 79 14 39 15 84 16 78 17 80 18 40 19 83 20 77 21 76 22
REMARK SMILES IDX 41 24 67 25 50 26 66 27 51 28 54 29 65 30 81 31 52 32 53 33
REMARK SMILES IDX 64 35 82 36 55 37 42 38 43 39 48 40 44 41 45 42 47 43 49 44
REMARK SMILES IDX 46 45 68 46 69 47 74 48 70 49 71 50 73 51 75 52 72 53 56 54
REMARK SMILES IDX 57 55 62 56 58 57 59 58 61 59 63 60 60 61 6 62 7 63 8 64
REMARK SMILES IDX 9 65 10 66 31 67 28 68 30 69 32 70 29 71 11 72 12 73 13 74
REMARK SMILES IDX 14 75 27 76 15 77 26 78 16 79 17 81 18 82 19 83 20 84 21 85
REMARK SMILES IDX 25 86 22 87 24 88 23 89
REMARK H PARENT 80 23 54 34 16 80
REMARK Flexibility Score: inf
ROOT
ATOM      1  C   UNL A   1      32.421  30.615  26.879  1.00  0.00     0.274 C 
ENDROOT
BRANCH   1   2
ATOM      2  C   UNL A   1      31.580  31.904  26.892  1.00  0.00     0.275 C 
BRANCH   2   3
ATOM      3  O   UNL A   1      32.330  33.123  26.938  1.00  0.00    -0.458 OA
BRANCH   3   4
ATOM      4  C   UNL A   1      32.963  33.708  27.975  1.00  0.00     0.338 C 
ATOM      5  O   UNL A   1      32.424  34.677  28.509  1.00  0.00    -0.246 OA
BRANCH   4   6
ATOM      6  C   UNL A   1      34.318  33.297  28.480  1.00  0.00     0.060 A 
ATOM      7  C   UNL A   1      35.566  33.796  28.089  1.00  0.00     0.016 A 
ATOM      8  C   UNL A   1      34.319  32.315  29.474  1.00  0.00     0.016 A 
ATOM      9  C   UNL A   1      36.768  33.382  28.687  1.00  0.00     0.010 A 
ATOM     10  C   UNL A   1      35.511  31.936  30.101  1.00  0.00     0.010 A 
ATOM     11  C   UNL A   1      36.764  32.476  29.737  1.00  0.00    -0.014 A 
BRANCH  11  12
ATOM     12  C   UNL A   1      38.016  32.031  30.439  1.00  0.00     0.031 A 
ATOM     13  C   UNL A   1      38.677  30.784  29.903  1.00  0.00     0.074 A 
ATOM     14  C   UNL A   1      38.486  32.593  31.584  1.00  0.00     0.049 A 
ATOM     15  N   UNL A   1      39.481  29.943  30.494  1.00  0.00    -0.248 NA
ATOM     16  C   UNL A   1      38.302  30.392  28.528  1.00  0.00     0.031 C 
ATOM     17  C   UNL A   1      37.970  33.793  32.257  1.00  0.00     0.029 A 
ATOM     18  N   UNL A   1      39.435  32.128  32.477  1.00  0.00    -0.354 N 
ATOM     19  C   UNL A   1      39.686  28.940  29.555  1.00  0.00     0.074 A 
ATOM     20  C   UNL A   1      38.739  29.146  28.487  1.00  0.00     0.031 C 
ATOM     21  C   UNL A   1      38.463  33.858  33.510  1.00  0.00     0.029 A 
ATOM     22  C   UNL A   1      39.358  32.732  33.725  1.00  0.00     0.049 A 
ATOM     23  H   UNL A   1      40.099  31.437  32.251  1.00  0.00     0.167 HD
ATOM     24  C   UNL A   1      40.693  28.040  29.482  1.00  0.00     0.037 A 
ATOM     25  C   UNL A   1      39.882  32.357  34.914  1.00  0.00     0.037 A 
ATOM     26  C   UNL A   1      41.702  27.922  30.489  1.00  0.00     0.049 A 
ATOM     27  C   UNL A   1      40.855  31.219  34.927  1.00  0.00     0.074 A 
ATOM     28  C   UNL A   1      42.878  27.200  30.469  1.00  0.00     0.029 A 
ATOM     29  N   UNL A   1      41.642  28.576  31.709  1.00  0.00    -0.354 N 
ATOM     30  N   UNL A   1      41.150  30.370  33.976  1.00  0.00    -0.248 NA
ATOM     31  C   UNL A   1      41.633  31.049  36.162  1.00  0.00     0.031 C 
ATOM     32  C   UNL A   1      43.518  27.393  31.699  1.00  0.00     0.029 A 
ATOM     33  C   UNL A   1      42.750  28.256  32.466  1.00  0.00     0.049 A 
ATOM     34  H   UNL A   1      40.917  29.179  31.993  1.00  0.00     0.167 HD
ATOM     35  C   UNL A   1      42.229  29.643  34.453  1.00  0.00     0.074 A 
ATOM     36  C   UNL A   1      42.473  30.088  35.809  1.00  0.00     0.031 C 
ATOM     37  C   UNL A   1      42.994  28.739  33.797  1.00  0.00     0.037 A 
BRANCH  24  38
ATOM     38  C   UNL A   1      40.817  27.266  28.203  1.00  0.00     0.057 A 
ATOM     39  C   UNL A   1      41.585  27.762  27.133  1.00  0.00     0.134 A 
ATOM     40  C   UNL A   1      40.165  26.045  28.013  1.00  0.00     0.134 A 
ATOM     41  F   UNL A   1      42.236  28.931  27.247  1.00  0.00    -0.206 F 
ATOM     42  C   UNL A   1      41.644  27.109  25.905  1.00  0.00     0.040 A 
ATOM     43  C   UNL A   1      40.251  25.360  26.799  1.00  0.00     0.040 A 
ATOM     44  F   UNL A   1      39.427  25.504  28.994  1.00  0.00    -0.206 F 
ATOM     45  C   UNL A   1      40.977  25.900  25.736  1.00  0.00     0.006 A 
ENDBRANCH  24  38
BRANCH  25  46
ATOM     46  C   UNL A   1      39.528  32.999  36.213  1.00  0.00     0.057 A 
ATOM     47  C   UNL A   1      38.500  32.525  37.031  1.00  0.00     0.134 A 
ATOM     48  C   UNL A   1      40.110  34.222  36.583  1.00  0.00     0.134 A 
ATOM     49  F   UNL A   1      37.811  31.431  36.678  1.00  0.00    -0.206 F 
ATOM     50  C   UNL A   1      38.105  33.213  38.186  1.00  0.00     0.040 A 
ATOM     51  C   UNL A   1      39.771  34.890  37.761  1.00  0.00     0.040 A 
ATOM     52  F   UNL A   1      40.955  34.842  35.749  1.00  0.00    -0.206 F 
ATOM     53  C   UNL A   1      38.759  34.386  38.567  1.00  0.00     0.006 A 
ENDBRANCH  25  46
BRANCH  37  54
ATOM     54  C   UNL A   1      44.248  28.299  34.477  1.00  0.00     0.057 A 
ATOM     55  C   UNL A   1      45.445  29.012  34.379  1.00  0.00     0.134 A 
ATOM     56  C   UNL A   1      44.235  27.139  35.264  1.00  0.00     0.134 A 
ATOM     57  F   UNL A   1      45.522  30.111  33.615  1.00  0.00    -0.206 F 
ATOM     58  C   UNL A   1      46.598  28.575  35.032  1.00  0.00     0.040 A 
ATOM     59  C   UNL A   1      45.369  26.712  35.946  1.00  0.00     0.040 A 
ATOM     60  F   UNL A   1      43.113  26.414  35.390  1.00  0.00    -0.206 F 
ATOM     61  C   UNL A   1      46.558  27.429  35.825  1.00  0.00     0.006 A 
ENDBRANCH  37  54
ENDBRANCH  11  12
ENDBRANCH   4   6
ENDBRANCH   3   4
ENDBRANCH   2   3
ENDBRANCH   1   2
BRANCH   1  62
ATOM     62  O   UNL A   1      31.773  29.458  26.305  1.00  0.00    -0.462 OA
BRANCH  62  63
ATOM     63  C   UNL A   1      32.358  29.039  25.144  1.00  0.00     0.310 C 
ATOM     64  O   UNL A   1      33.254  29.690  24.602  1.00  0.00    -0.252 OA
BRANCH  63  65
ATOM     65  C   UNL A   1      31.736  27.758  24.584  1.00  0.00     0.119 C 
ATOM     66  C   UNL A   1      32.207  27.382  23.132  1.00  0.00     0.100 C 
ATOM     67  C   UNL A   1      30.192  27.966  24.386  1.00  0.00     0.027 C 
ATOM     68  C   UNL A   1      30.888  27.435  22.328  1.00  0.00     0.025 C 
ATOM     69  C   UNL A   1      29.932  29.161  23.497  1.00  0.00    -0.027 C 
ATOM     70  C   UNL A   1      29.862  26.910  23.342  1.00  0.00     0.017 C 
ATOM     71  C   UNL A   1      30.414  28.865  22.280  1.00  0.00    -0.027 C 
BRANCH  66  72
ATOM     72  C   UNL A   1      32.818  26.000  22.859  1.00  0.00     0.227 C 
ATOM     73  O   UNL A   1      33.069  25.615  21.718  1.00  0.00    -0.275 OA
ATOM     74  N   UNL A   1      33.081  25.217  23.951  1.00  0.00    -0.331 N 
ATOM     75  C   UNL A   1      34.465  25.004  24.254  1.00  0.00     0.181 C 
ATOM     76  C   UNL A   1      32.261  24.094  24.390  1.00  0.00     0.181 C 
ATOM     77  C   UNL A   1      34.668  24.861  25.751  1.00  0.00     0.284 C 
ATOM     78  C   UNL A   1      32.387  23.986  25.927  1.00  0.00     0.284 C 
ATOM     79  N   UNL A   1      33.764  23.933  26.440  1.00  0.00    -0.329 N 
ATOM     80  H   UNL A   1      33.666  24.256  27.404  1.00  0.00     0.348 HD
BRANCH  79  81
ATOM     81  C   UNL A   1      34.339  22.598  26.560  1.00  0.00     0.291 C 
BRANCH  81  82
ATOM     82  C   UNL A   1      34.087  21.630  25.442  1.00  0.00     0.034 C 
ATOM     83  C   UNL A   1      33.762  20.341  25.638  1.00  0.00     0.009 C 
BRANCH  83  84
ATOM     84  C   UNL A   1      33.619  19.344  24.573  1.00  0.00    -0.026 A 
ATOM     85  C   UNL A   1      32.539  19.432  23.689  1.00  0.00     0.008 A 
ATOM     86  C   UNL A   1      34.465  18.231  24.504  1.00  0.00     0.008 A 
ATOM     87  C   UNL A   1      32.309  18.423  22.750  1.00  0.00     0.001 A 
ATOM     88  C   UNL A   1      34.233  17.220  23.570  1.00  0.00     0.001 A 
ATOM     89  C   UNL A   1      33.153  17.315  22.695  1.00  0.00     0.000 A 
ENDBRANCH  83  84
ENDBRANCH  81  82
ENDBRANCH  79  81
ENDBRANCH  66  72
ENDBRANCH  63  65
ENDBRANCH  62  63
ENDBRANCH   1  62
TORSDOF 15
ENDMDL
MODEL 2
REMARK VINA RESULT:     -12.3      4.752      9.994
REMARK SMILES O=C(OCCOC(=O)[C@@H]1[C@@H](C(=O)N2CC[NH+](C/C=C/c3ccccc3)CC2)[C@@H]2C=C[C@H]1C2)c1ccc(-c2c3nc(c(-c4c(F)cccc4F)c4ccc([nH]4)c(-c4c(F)cccc4F)c4nc(c(-c5c(F)cccc5F)c5ccc2[nH]5)C=C4)C=C3)cc1
REMARK SMILES IDX 5 1 4 2 3 3 2 4 1 5 33 6 34 7 86 8 35 9 85 10 36 11 37 12
REMARK SMILES IDX 38 13 79 14 39 15 84 16 78 17 80 18 40 19 83 20 77 21 76 22
REMARK SMILES IDX 41 24 67 25 50 26 66 27 51 28 54 29 65 30 81 31 52 32 53 33
REMARK SMILES IDX 64 35 82 36 55 37 42 38 43 39 48 40 44 41 45 42 47 43 49 44
REMARK SMILES IDX 46 45 68 46 69 47 74 48 70 49 71 50 73 51 75 52 72 53 56 54
REMARK SMILES IDX 57 55 62 56 58 57 59 58 61 59 63 60 60 61 6 62 7 63 8 64
REMARK SMILES IDX 9 65 10 66 31 67 28 68 30 69 32 70 29 71 11 72 12 73 13 74
REMARK SMILES IDX 14 75 27 76 15 77 26 78 16 79 17 81 18 82 19 83 20 84 21 85
REMARK SMILES IDX 25 86 22 87 24 88 23 89
REMARK H PARENT 80 23 54 34 16 80
REMARK Flexibility Score: inf
ROOT
ATOM      1  C   UNL A   1      37.798  21.110  25.097  1.00  0.00     0.274 C 
ENDROOT
BRANCH   1   2
ATOM      2  C   UNL A   1      38.508  19.790  24.748  1.00  0.00     0.275 C 
BRANCH   2   3
ATOM      3  O   UNL A   1      39.413  19.300  25.743  1.00  0.00    -0.458 OA
BRANCH   3   4
ATOM      4  C   UNL A   1      40.710  19.603  25.954  1.00  0.00     0.338 C 
ATOM      5  O   UNL A   1      41.558  18.775  25.624  1.00  0.00    -0.246 OA
BRANCH   4   6
ATOM      6  C   UNL A   1      41.186  20.860  26.627  1.00  0.00     0.060 A 
ATOM      7  C   UNL A   1      41.300  21.105  28.001  1.00  0.00     0.016 A 
ATOM      8  C   UNL A   1      41.581  21.892  25.771  1.00  0.00     0.016 A 
ATOM      9  C   UNL A   1      41.829  22.301  28.515  1.00  0.00     0.010 A 
ATOM     10  C   UNL A   1      42.151  23.064  26.282  1.00  0.00     0.010 A 
ATOM     11  C   UNL A   1      42.308  23.289  27.668  1.00  0.00    -0.014 A 
BRANCH  11  12
ATOM     12  C   UNL A   1      42.921  24.568  28.164  1.00  0.00     0.031 A 
ATOM     13  C   UNL A   1      41.979  25.734  28.348  1.00  0.00     0.074 A 
ATOM     14  C   UNL A   1      44.257  24.763  28.312  1.00  0.00     0.049 A 
ATOM     15  N   UNL A   1      42.226  27.015  28.359  1.00  0.00    -0.248 NA
ATOM     16  C   UNL A   1      40.543  25.398  28.448  1.00  0.00     0.031 C 
ATOM     17  C   UNL A   1      45.320  23.758  28.164  1.00  0.00     0.029 A 
ATOM     18  N   UNL A   1      44.971  25.937  28.480  1.00  0.00    -0.354 N 
ATOM     19  C   UNL A   1      40.975  27.610  28.460  1.00  0.00     0.074 A 
ATOM     20  C   UNL A   1      39.988  26.580  28.250  1.00  0.00     0.031 C 
ATOM     21  C   UNL A   1      46.515  24.374  28.061  1.00  0.00     0.029 A 
ATOM     22  C   UNL A   1      46.318  25.810  28.172  1.00  0.00     0.049 A 
ATOM     23  H   UNL A   1      44.563  26.779  28.789  1.00  0.00     0.167 HD
ATOM     24  C   UNL A   1      40.660  28.856  28.882  1.00  0.00     0.037 A 
ATOM     25  C   UNL A   1      47.253  26.755  27.922  1.00  0.00     0.037 A 
ATOM     26  C   UNL A   1      41.649  29.837  29.207  1.00  0.00     0.049 A 
ATOM     27  C   UNL A   1      46.891  28.186  28.173  1.00  0.00     0.074 A 
ATOM     28  C   UNL A   1      41.495  31.065  29.819  1.00  0.00     0.029 A 
ATOM     29  N   UNL A   1      42.999  29.675  28.946  1.00  0.00    -0.354 N 
ATOM     30  N   UNL A   1      45.720  28.714  28.420  1.00  0.00    -0.248 NA
ATOM     31  C   UNL A   1      48.009  29.140  28.198  1.00  0.00     0.031 C 
ATOM     32  C   UNL A   1      42.758  31.663  29.900  1.00  0.00     0.029 A 
ATOM     33  C   UNL A   1      43.693  30.792  29.362  1.00  0.00     0.049 A 
ATOM     34  H   UNL A   1      43.403  28.881  28.526  1.00  0.00     0.167 HD
ATOM     35  C   UNL A   1      45.973  30.037  28.748  1.00  0.00     0.074 A 
ATOM     36  C   UNL A   1      47.395  30.250  28.577  1.00  0.00     0.031 C 
ATOM     37  C   UNL A   1      45.112  30.969  29.218  1.00  0.00     0.037 A 
BRANCH  24  38
ATOM     38  C   UNL A   1      39.212  29.129  29.164  1.00  0.00     0.057 A 
ATOM     39  C   UNL A   1      38.679  28.927  30.451  1.00  0.00     0.134 A 
ATOM     40  C   UNL A   1      38.336  29.568  28.168  1.00  0.00     0.134 A 
ATOM     41  F   UNL A   1      39.465  28.503  31.454  1.00  0.00    -0.206 F 
ATOM     42  C   UNL A   1      37.322  29.085  30.718  1.00  0.00     0.040 A 
ATOM     43  C   UNL A   1      36.980  29.771  28.435  1.00  0.00     0.040 A 
ATOM     44  F   UNL A   1      38.777  29.795  26.922  1.00  0.00    -0.206 F 
ATOM     45  C   UNL A   1      36.467  29.513  29.707  1.00  0.00     0.006 A 
ENDBRANCH  24  38
BRANCH  25  46
ATOM     46  C   UNL A   1      48.614  26.453  27.390  1.00  0.00     0.057 A 
ATOM     47  C   UNL A   1      48.901  26.437  26.024  1.00  0.00     0.134 A 
ATOM     48  C   UNL A   1      49.627  26.000  28.249  1.00  0.00     0.134 A 
ATOM     49  F   UNL A   1      47.945  26.734  25.133  1.00  0.00    -0.206 F 
ATOM     50  C   UNL A   1      50.153  26.032  25.543  1.00  0.00     0.040 A 
ATOM     51  C   UNL A   1      50.899  25.651  27.793  1.00  0.00     0.040 A 
ATOM     52  F   UNL A   1      49.365  25.794  29.547  1.00  0.00    -0.206 F 
ATOM     53  C   UNL A   1      51.165  25.662  26.430  1.00  0.00     0.006 A 
ENDBRANCH  25  46
BRANCH  37  54
ATOM     54  C   UNL A   1      45.709  32.239  29.728  1.00  0.00     0.057 A 
ATOM     55  C   UNL A   1      45.848  33.377  28.930  1.00  0.00     0.134 A 
ATOM     56  C   UNL A   1      46.133  32.315  31.062  1.00  0.00     0.134 A 
ATOM     57  F   UNL A   1      45.487  33.350  27.638  1.00  0.00    -0.206 F 
ATOM     58  C   UNL A   1      46.406  34.549  29.439  1.00  0.00     0.040 A 
ATOM     59  C   UNL A   1      46.661  33.488  31.590  1.00  0.00     0.040 A 
ATOM     60  F   UNL A   1      46.027  31.250  31.872  1.00  0.00    -0.206 F 
ATOM     61  C   UNL A   1      46.803  34.609  30.775  1.00  0.00     0.006 A 
ENDBRANCH  37  54
ENDBRANCH  11  12
ENDBRANCH   4   6
ENDBRANCH   3   4
ENDBRANCH   2   3
ENDBRANCH   1   2
BRANCH   1  62
ATOM     62  O   UNL A   1      36.684  21.460  24.245  1.00  0.00    -0.462 OA
BRANCH  62  63
ATOM     63  C   UNL A   1      35.486  21.007  24.718  1.00  0.00     0.310 C 
ATOM     64  O   UNL A   1      35.321  19.824  25.025  1.00  0.00    -0.252 OA
BRANCH  63  65
ATOM     65  C   UNL A   1      34.401  22.086  24.745  1.00  0.00     0.119 C 
ATOM     66  C   UNL A   1      34.701  23.339  23.846  1.00  0.00     0.100 C 
ATOM     67  C   UNL A   1      34.327  22.719  26.180  1.00  0.00     0.027 C 
ATOM     68  C   UNL A   1      34.760  24.487  24.880  1.00  0.00     0.025 C 
ATOM     69  C   UNL A   1      35.679  23.261  26.586  1.00  0.00    -0.027 C 
ATOM     70  C   UNL A   1      33.688  24.071  25.896  1.00  0.00     0.017 C 
ATOM     71  C   UNL A   1      35.966  24.277  25.758  1.00  0.00    -0.027 C 
BRANCH  66  72
ATOM     72  C   UNL A   1      33.687  23.777  22.780  1.00  0.00     0.227 C 
ATOM     73  O   UNL A   1      33.794  23.435  21.603  1.00  0.00    -0.275 OA
ATOM     74  N   UNL A   1      32.649  24.563  23.204  1.00  0.00    -0.331 N 
ATOM     75  C   UNL A   1      31.353  23.952  23.194  1.00  0.00     0.181 C 
ATOM     76  C   UNL A   1      32.560  26.005  23.010  1.00  0.00     0.181 C 
ATOM     77  C   UNL A   1      30.495  24.502  24.319  1.00  0.00     0.284 C 
ATOM     78  C   UNL A   1      31.761  26.595  24.194  1.00  0.00     0.284 C 
ATOM     79  N   UNL A   1      30.458  25.964  24.448  1.00  0.00    -0.329 N 
ATOM     80  H   UNL A   1      30.279  26.182  25.428  1.00  0.00     0.348 HD
BRANCH  79  81
ATOM     81  C   UNL A   1      29.327  26.546  23.733  1.00  0.00     0.291 C 
BRANCH  81  82
ATOM     82  C   UNL A   1      29.401  28.003  23.384  1.00  0.00     0.034 C 
ATOM     83  C   UNL A   1      28.340  28.723  22.982  1.00  0.00     0.009 C 
BRANCH  83  84
ATOM     84  C   UNL A   1      28.398  30.115  22.529  1.00  0.00    -0.026 A 
ATOM     85  C   UNL A   1      28.605  31.135  23.463  1.00  0.00     0.008 A 
ATOM     86  C   UNL A   1      28.119  30.458  21.200  1.00  0.00     0.008 A 
ATOM     87  C   UNL A   1      28.535  32.476  23.074  1.00  0.00     0.001 A 
ATOM     88  C   UNL A   1      28.044  31.796  20.812  1.00  0.00     0.001 A 
ATOM     89  C   UNL A   1      28.248  32.805  21.751  1.00  0.00     0.000 A 
ENDBRANCH  83  84
ENDBRANCH  81  82
ENDBRANCH  79  81
ENDBRANCH  66  72
ENDBRANCH  63  65
ENDBRANCH  62  63
ENDBRANCH   1  62
TORSDOF 15
ENDMDL
MODEL 3
REMARK VINA RESULT:     -12.3      4.484      9.787
REMARK SMILES O=C(OCCOC(=O)[C@@H]1[C@@H](C(=O)N2CC[NH+](C/C=C/c3ccccc3)CC2)[C@@H]2C=C[C@H]1C2)c1ccc(-c2c3nc(c(-c4c(F)cccc4F)c4ccc([nH]4)c(-c4c(F)cccc4F)c4nc(c(-c5c(F)cccc5F)c5ccc2[nH]5)C=C4)C=C3)cc1
REMARK SMILES IDX 5 1 4 2 3 3 2 4 1 5 33 6 34 7 86 8 35 9 85 10 36 11 37 12
REMARK SMILES IDX 38 13 79 14 39 15 84 16 78 17 80 18 40 19 83 20 77 21 76 22
REMARK SMILES IDX 41 24 67 25 50 26 66 27 51 28 54 29 65 30 81 31 52 32 53 33
REMARK SMILES IDX 64 35 82 36 55 37 42 38 43 39 48 40 44 41 45 42 47 43 49 44
REMARK SMILES IDX 46 45 68 46 69 47 74 48 70 49 71 50 73 51 75 52 72 53 56 54
REMARK SMILES IDX 57 55 62 56 58 57 59 58 61 59 63 60 60 61 6 62 7 63 8 64
REMARK SMILES IDX 9 65 10 66 31 67 28 68 30 69 32 70 29 71 11 72 12 73 13 74
REMARK SMILES IDX 14 75 27 76 15 77 26 78 16 79 17 81 18 82 19 83 20 84 21 85
REMARK SMILES IDX 25 86 22 87 24 88 23 89
REMARK H PARENT 80 23 54 34 16 80
REMARK Flexibility Score: inf
ROOT
ATOM      1  C   UNL A   1      36.891  20.293  25.229  1.00  0.00     0.274 C 
ENDROOT
BRANCH   1   2
ATOM      2  C   UNL A   1      38.331  20.154  24.706  1.00  0.00     0.275 C 
BRANCH   2   3
ATOM      3  O   UNL A   1      39.194  19.333  25.499  1.00  0.00    -0.458 OA
BRANCH   3   4
ATOM      4  C   UNL A   1      40.469  19.544  25.886  1.00  0.00     0.338 C 
ATOM      5  O   UNL A   1      41.281  18.635  25.720  1.00  0.00    -0.246 OA
BRANCH   4   6
ATOM      6  C   UNL A   1      40.950  20.794  26.570  1.00  0.00     0.060 A 
ATOM      7  C   UNL A   1      41.062  21.028  27.945  1.00  0.00     0.016 A 
ATOM      8  C   UNL A   1      41.352  21.829  25.722  1.00  0.00     0.016 A 
ATOM      9  C   UNL A   1      41.596  22.217  28.469  1.00  0.00     0.010 A 
ATOM     10  C   UNL A   1      41.926  22.995  26.242  1.00  0.00     0.010 A 
ATOM     11  C   UNL A   1      42.081  23.209  27.630  1.00  0.00    -0.014 A 
BRANCH  11  12
ATOM     12  C   UNL A   1      42.699  24.482  28.136  1.00  0.00     0.031 A 
ATOM     13  C   UNL A   1      41.764  25.652  28.322  1.00  0.00     0.074 A 
ATOM     14  C   UNL A   1      44.036  24.668  28.293  1.00  0.00     0.049 A 
ATOM     15  N   UNL A   1      42.019  26.932  28.342  1.00  0.00    -0.248 NA
ATOM     16  C   UNL A   1      40.325  25.325  28.413  1.00  0.00     0.031 C 
ATOM     17  C   UNL A   1      45.094  23.657  28.145  1.00  0.00     0.029 A 
ATOM     18  N   UNL A   1      44.756  25.836  28.472  1.00  0.00    -0.354 N 
ATOM     19  C   UNL A   1      40.771  27.534  28.440  1.00  0.00     0.074 A 
ATOM     20  C   UNL A   1      39.778  26.511  28.218  1.00  0.00     0.031 C 
ATOM     21  C   UNL A   1      46.292  24.266  28.052  1.00  0.00     0.029 A 
ATOM     22  C   UNL A   1      46.104  25.702  28.170  1.00  0.00     0.049 A 
ATOM     23  H   UNL A   1      44.352  26.679  28.782  1.00  0.00     0.167 HD
ATOM     24  C   UNL A   1      40.461  28.780  28.867  1.00  0.00     0.037 A 
ATOM     25  C   UNL A   1      47.046  26.643  27.930  1.00  0.00     0.037 A 
ATOM     26  C   UNL A   1      41.454  29.753  29.203  1.00  0.00     0.049 A 
ATOM     27  C   UNL A   1      46.691  28.075  28.187  1.00  0.00     0.074 A 
ATOM     28  C   UNL A   1      41.304  30.977  29.821  1.00  0.00     0.029 A 
ATOM     29  N   UNL A   1      42.805  29.583  28.948  1.00  0.00    -0.354 N 
ATOM     30  N   UNL A   1      45.522  28.609  28.431  1.00  0.00    -0.248 NA
ATOM     31  C   UNL A   1      47.815  29.022  28.223  1.00  0.00     0.031 C 
ATOM     32  C   UNL A   1      42.571  31.567  29.912  1.00  0.00     0.029 A 
ATOM     33  C   UNL A   1      43.503  30.694  29.374  1.00  0.00     0.049 A 
ATOM     34  H   UNL A   1      43.206  28.790  28.526  1.00  0.00     0.167 HD
ATOM     35  C   UNL A   1      45.782  29.928  28.767  1.00  0.00     0.074 A 
ATOM     36  C   UNL A   1      47.206  30.134  28.605  1.00  0.00     0.031 C 
ATOM     37  C   UNL A   1      44.924  30.863  29.239  1.00  0.00     0.037 A 
BRANCH  24  38
ATOM     38  C   UNL A   1      39.013  29.059  29.142  1.00  0.00     0.057 A 
ATOM     39  C   UNL A   1      38.165  29.531  28.122  1.00  0.00     0.134 A 
ATOM     40  C   UNL A   1      38.456  28.887  30.411  1.00  0.00     0.134 A 
ATOM     41  F   UNL A   1      38.636  29.722  26.879  1.00  0.00    -0.206 F 
ATOM     42  C   UNL A   1      36.841  29.885  28.371  1.00  0.00     0.040 A 
ATOM     43  C   UNL A   1      37.118  29.198  30.663  1.00  0.00     0.040 A 
ATOM     44  F   UNL A   1      39.201  28.427  31.428  1.00  0.00    -0.206 F 
ATOM     45  C   UNL A   1      36.312  29.714  29.646  1.00  0.00     0.006 A 
ENDBRANCH  24  38
BRANCH  25  46
ATOM     46  C   UNL A   1      48.408  26.336  27.404  1.00  0.00     0.057 A 
ATOM     47  C   UNL A   1      48.703  26.331  26.039  1.00  0.00     0.134 A 
ATOM     48  C   UNL A   1      49.412  25.866  28.265  1.00  0.00     0.134 A 
ATOM     49  F   UNL A   1      47.755  26.645  25.145  1.00  0.00    -0.206 F 
ATOM     50  C   UNL A   1      49.955  25.921  25.562  1.00  0.00     0.040 A 
ATOM     51  C   UNL A   1      50.684  25.512  27.813  1.00  0.00     0.040 A 
ATOM     52  F   UNL A   1      49.140  25.650  29.558  1.00  0.00    -0.206 F 
ATOM     53  C   UNL A   1      50.958  25.535  26.452  1.00  0.00     0.006 A 
ENDBRANCH  25  46
BRANCH  37  54
ATOM     54  C   UNL A   1      45.526  32.126  29.759  1.00  0.00     0.057 A 
ATOM     55  C   UNL A   1      46.011  32.246  31.063  1.00  0.00     0.134 A 
ATOM     56  C   UNL A   1      45.634  33.238  28.912  1.00  0.00     0.134 A 
ATOM     57  F   UNL A   1      45.905  31.224  31.925  1.00  0.00    -0.206 F 
ATOM     58  C   UNL A   1      46.572  33.440  31.515  1.00  0.00     0.040 A 
ATOM     59  C   UNL A   1      46.221  34.424  29.342  1.00  0.00     0.040 A 
ATOM     60  F   UNL A   1      45.180  33.180  27.650  1.00  0.00    -0.206 F 
ATOM     61  C   UNL A   1      46.687  34.528  30.650  1.00  0.00     0.006 A 
ENDBRANCH  37  54
ENDBRANCH  11  12
ENDBRANCH   4   6
ENDBRANCH   3   4
ENDBRANCH   2   3
ENDBRANCH   1   2
BRANCH   1  62
ATOM     62  O   UNL A   1      36.184  21.477  24.797  1.00  0.00    -0.462 OA
BRANCH  62  63
ATOM     63  C   UNL A   1      35.205  21.863  25.667  1.00  0.00     0.310 C 
ATOM     64  O   UNL A   1      35.281  21.618  26.873  1.00  0.00    -0.252 OA
BRANCH  63  65
ATOM     65  C   UNL A   1      34.018  22.541  24.978  1.00  0.00     0.119 C 
ATOM     66  C   UNL A   1      32.724  22.654  25.863  1.00  0.00     0.100 C 
ATOM     67  C   UNL A   1      33.525  21.648  23.784  1.00  0.00     0.027 C 
ATOM     68  C   UNL A   1      31.698  21.818  25.063  1.00  0.00     0.025 C 
ATOM     69  C   UNL A   1      33.183  20.259  24.272  1.00  0.00    -0.027 C 
ATOM     70  C   UNL A   1      32.089  22.119  23.610  1.00  0.00     0.017 C 
ATOM     71  C   UNL A   1      32.129  20.374  25.095  1.00  0.00    -0.027 C 
BRANCH  66  72
ATOM     72  C   UNL A   1      32.071  24.024  26.094  1.00  0.00     0.227 C 
ATOM     73  O   UNL A   1      31.163  24.181  26.909  1.00  0.00    -0.275 OA
ATOM     74  N   UNL A   1      32.556  25.069  25.353  1.00  0.00    -0.331 N 
ATOM     75  C   UNL A   1      33.287  26.067  26.077  1.00  0.00     0.181 C 
ATOM     76  C   UNL A   1      31.902  25.635  24.179  1.00  0.00     0.181 C 
ATOM     77  C   UNL A   1      34.375  26.668  25.207  1.00  0.00     0.284 C 
ATOM     78  C   UNL A   1      33.002  26.176  23.239  1.00  0.00     0.284 C 
ATOM     79  N   UNL A   1      33.965  27.095  23.863  1.00  0.00    -0.329 N 
ATOM     80  H   UNL A   1      34.782  27.026  23.256  1.00  0.00     0.348 HD
BRANCH  79  81
ATOM     81  C   UNL A   1      33.602  28.507  23.826  1.00  0.00     0.291 C 
BRANCH  81  82
ATOM     82  C   UNL A   1      32.220  28.857  23.359  1.00  0.00     0.034 C 
ATOM     83  C   UNL A   1      31.267  29.347  24.169  1.00  0.00     0.009 C 
BRANCH  83  84
ATOM     84  C   UNL A   1      29.878  29.595  23.771  1.00  0.00    -0.026 A 
ATOM     85  C   UNL A   1      29.118  28.550  23.236  1.00  0.00     0.008 A 
ATOM     86  C   UNL A   1      29.338  30.887  23.791  1.00  0.00     0.008 A 
ATOM     87  C   UNL A   1      27.838  28.793  22.731  1.00  0.00     0.001 A 
ATOM     88  C   UNL A   1      28.063  31.131  23.281  1.00  0.00     0.001 A 
ATOM     89  C   UNL A   1      27.314  30.084  22.747  1.00  0.00     0.000 A 
ENDBRANCH  83  84
ENDBRANCH  81  82
ENDBRANCH  79  81
ENDBRANCH  66  72
ENDBRANCH  63  65
ENDBRANCH  62  63
ENDBRANCH   1  62
TORSDOF 15
ENDMDL
