MODEL 1
REMARK VINA RESULT:      -8.9      0.000      0.000
REMARK SMILES C[C@@H]1C[N@H+](Cc2ccccc2)CC[C@@H]1CC(=O)OCCOC(=O)c1ccc(-c2c3nc(c(-c4c(F)cccc4F)c4ccc([nH]4)c(-c4c(F)cccc4F)c4nc(c(-c5c(F)cccc5F)c5ccc2[nH]5)C=C4)C=C3)cc1
REMARK SMILES IDX 19 1 18 2 16 3 17 4 15 5 14 6 1 7 2 8 3 9 4 10 13 11 12 12
REMARK SMILES IDX 5 14 6 15 7 16 11 17 8 18 10 19 9 20 20 21 21 22 22 23 23 24
REMARK SMILES IDX 24 25 25 26 77 27 26 28 76 29 27 30 28 31 29 32 70 33 30 34
REMARK SMILES IDX 75 35 69 36 71 37 31 38 74 39 68 40 67 41 32 43 58 44 41 45
REMARK SMILES IDX 57 46 42 47 45 48 56 49 72 50 43 51 44 52 55 54 73 55 46 56
REMARK SMILES IDX 33 57 34 58 39 59 35 60 36 61 38 62 40 63 37 64 59 65 60 66
REMARK SMILES IDX 65 67 61 68 62 69 64 70 66 71 63 72 47 73 48 74 53 75 49 76
REMARK SMILES IDX 50 77 52 78 54 79 51 80
REMARK H PARENT 4 13 71 42 45 53
REMARK Flexibility Score: inf
ROOT
ATOM      1  C   UNL A   1      45.830  20.127  24.436  1.00  0.00     0.274 C 
ENDROOT
BRANCH   1   2
ATOM      2  O   UNL A   1      45.497  21.534  24.390  1.00  0.00    -0.462 OA
BRANCH   2   3
ATOM      3  C   UNL A   1      45.932  22.313  25.411  1.00  0.00     0.306 C 
ATOM      4  O   UNL A   1      45.545  22.208  26.569  1.00  0.00    -0.252 OA
BRANCH   3   5
ATOM      5  C   UNL A   1      46.816  23.450  24.925  1.00  0.00     0.127 C 
BRANCH   5   6
ATOM      6  C   UNL A   1      46.335  24.904  24.626  1.00  0.00     0.014 C 
ATOM      7  C   UNL A   1      48.547  26.182  25.491  1.00  0.00     0.014 C 
ATOM      8  C   UNL A   1      47.298  26.141  24.617  1.00  0.00     0.045 C 
ATOM      9  C   UNL A   1      46.548  27.487  24.730  1.00  0.00     0.265 C 
ATOM     10  N   UNL A   1      45.476  27.534  25.710  1.00  0.00    -0.331 N 
ATOM     11  C   UNL A   1      44.906  25.138  25.203  1.00  0.00     0.066 C 
ATOM     12  C   UNL A   1      44.433  26.587  25.352  1.00  0.00     0.262 C 
ATOM     13  H   UNL A   1      45.033  28.450  25.645  1.00  0.00     0.348 HD
BRANCH  10  14
ATOM     14  C   UNL A   1      45.845  27.715  27.124  1.00  0.00     0.299 C 
BRANCH  14  15
ATOM     15  C   UNL A   1      45.290  28.948  27.808  1.00  0.00     0.006 A 
ATOM     16  C   UNL A   1      46.127  29.970  28.279  1.00  0.00     0.009 A 
ATOM     17  C   UNL A   1      43.918  29.173  27.805  1.00  0.00     0.009 A 
ATOM     18  C   UNL A   1      45.604  31.227  28.596  1.00  0.00     0.001 A 
ATOM     19  C   UNL A   1      43.423  30.454  27.999  1.00  0.00     0.001 A 
ATOM     20  C   UNL A   1      44.256  31.486  28.398  1.00  0.00     0.000 A 
ENDBRANCH  14  15
ENDBRANCH  10  14
ENDBRANCH   5   6
ENDBRANCH   3   5
ENDBRANCH   2   3
ENDBRANCH   1   2
BRANCH   1  21
ATOM     21  C   UNL A   1      44.693  19.273  25.016  1.00  0.00     0.275 C 
BRANCH  21  22
ATOM     22  O   UNL A   1      43.386  19.802  24.727  1.00  0.00    -0.458 OA
BRANCH  22  23
ATOM     23  C   UNL A   1      42.509  19.705  25.752  1.00  0.00     0.338 C 
ATOM     24  O   UNL A   1      41.918  18.696  26.113  1.00  0.00    -0.246 OA
BRANCH  23  25
ATOM     25  C   UNL A   1      42.263  21.027  26.346  1.00  0.00     0.060 A 
ATOM     26  C   UNL A   1      42.159  21.092  27.731  1.00  0.00     0.016 A 
ATOM     27  C   UNL A   1      42.221  22.198  25.581  1.00  0.00     0.016 A 
ATOM     28  C   UNL A   1      41.984  22.328  28.352  1.00  0.00     0.010 A 
ATOM     29  C   UNL A   1      42.179  23.450  26.224  1.00  0.00     0.010 A 
ATOM     30  C   UNL A   1      42.112  23.529  27.625  1.00  0.00    -0.014 A 
BRANCH  30  31
ATOM     31  C   UNL A   1      42.429  24.783  28.380  1.00  0.00     0.031 A 
ATOM     32  C   UNL A   1      43.779  25.105  28.964  1.00  0.00     0.074 A 
ATOM     33  C   UNL A   1      41.424  25.675  28.532  1.00  0.00     0.049 A 
ATOM     34  N   UNL A   1      44.127  26.139  29.695  1.00  0.00    -0.248 NA
ATOM     35  C   UNL A   1      44.874  24.161  28.709  1.00  0.00     0.031 C 
ATOM     36  C   UNL A   1      40.057  25.485  28.033  1.00  0.00     0.029 A 
ATOM     37  N   UNL A   1      41.385  26.925  29.098  1.00  0.00    -0.354 N 
ATOM     38  C   UNL A   1      45.467  25.957  30.020  1.00  0.00     0.074 A 
ATOM     39  C   UNL A   1      45.872  24.713  29.392  1.00  0.00     0.031 C 
ATOM     40  C   UNL A   1      39.364  26.614  28.185  1.00  0.00     0.029 A 
ATOM     41  C   UNL A   1      40.168  27.549  28.954  1.00  0.00     0.049 A 
ATOM     42  H   UNL A   1      42.152  27.333  29.560  1.00  0.00     0.167 HD
ATOM     43  C   UNL A   1      46.268  26.746  30.782  1.00  0.00     0.037 A 
ATOM     44  C   UNL A   1      39.701  28.715  29.434  1.00  0.00     0.037 A 
ATOM     45  C   UNL A   1      45.851  27.985  31.404  1.00  0.00     0.049 A 
ATOM     46  C   UNL A   1      40.585  29.529  30.318  1.00  0.00     0.074 A 
ATOM     47  C   UNL A   1      46.590  28.846  32.200  1.00  0.00     0.029 A 
ATOM     48  N   UNL A   1      44.580  28.538  31.308  1.00  0.00    -0.354 N 
ATOM     49  N   UNL A   1      41.832  29.314  30.655  1.00  0.00    -0.248 NA
ATOM     50  C   UNL A   1      39.986  30.723  30.925  1.00  0.00     0.031 C 
ATOM     51  C   UNL A   1      45.756  29.887  32.625  1.00  0.00     0.029 A 
ATOM     52  C   UNL A   1      44.509  29.709  32.050  1.00  0.00     0.049 A 
ATOM     53  H   UNL A   1      43.838  28.155  30.787  1.00  0.00     0.167 HD
ATOM     54  C   UNL A   1      42.170  30.340  31.521  1.00  0.00     0.074 A 
ATOM     55  C   UNL A   1      41.004  31.195  31.631  1.00  0.00     0.031 C 
ATOM     56  C   UNL A   1      43.339  30.544  32.172  1.00  0.00     0.037 A 
BRANCH  43  57
ATOM     57  C   UNL A   1      47.675  26.273  31.041  1.00  0.00     0.057 A 
ATOM     58  C   UNL A   1      48.731  26.537  30.160  1.00  0.00     0.134 A 
ATOM     59  C   UNL A   1      47.986  25.583  32.222  1.00  0.00     0.134 A 
ATOM     60  F   UNL A   1      48.510  27.192  29.011  1.00  0.00    -0.206 F 
ATOM     61  C   UNL A   1      50.035  26.108  30.429  1.00  0.00     0.040 A 
ATOM     62  C   UNL A   1      49.289  25.171  32.515  1.00  0.00     0.040 A 
ATOM     63  F   UNL A   1      47.029  25.311  33.123  1.00  0.00    -0.206 F 
ATOM     64  C   UNL A   1      50.317  25.427  31.612  1.00  0.00     0.006 A 
ENDBRANCH  43  57
BRANCH  44  65
ATOM     65  C   UNL A   1      38.305  29.120  29.131  1.00  0.00     0.057 A 
ATOM     66  C   UNL A   1      37.313  29.083  30.114  1.00  0.00     0.134 A 
ATOM     67  C   UNL A   1      37.951  29.631  27.873  1.00  0.00     0.134 A 
ATOM     68  F   UNL A   1      37.582  28.584  31.329  1.00  0.00    -0.206 F 
ATOM     69  C   UNL A   1      36.022  29.554  29.863  1.00  0.00     0.040 A 
ATOM     70  C   UNL A   1      36.678  30.141  27.622  1.00  0.00     0.040 A 
ATOM     71  F   UNL A   1      38.861  29.700  26.889  1.00  0.00    -0.206 F 
ATOM     72  C   UNL A   1      35.708  30.102  28.619  1.00  0.00     0.006 A 
ENDBRANCH  44  65
BRANCH  56  73
ATOM     73  C   UNL A   1      43.409  31.759  33.048  1.00  0.00     0.057 A 
ATOM     74  C   UNL A   1      43.865  32.993  32.565  1.00  0.00     0.134 A 
ATOM     75  C   UNL A   1      43.038  31.689  34.396  1.00  0.00     0.134 A 
ATOM     76  F   UNL A   1      44.259  33.119  31.289  1.00  0.00    -0.206 F 
ATOM     77  C   UNL A   1      43.974  34.106  33.399  1.00  0.00     0.040 A 
ATOM     78  C   UNL A   1      43.120  32.802  35.234  1.00  0.00     0.040 A 
ATOM     79  F   UNL A   1      42.595  30.537  34.922  1.00  0.00    -0.206 F 
ATOM     80  C   UNL A   1      43.597  34.014  34.738  1.00  0.00     0.006 A 
ENDBRANCH  56  73
ENDBRANCH  30  31
ENDBRANCH  23  25
ENDBRANCH  22  23
ENDBRANCH  21  22
ENDBRANCH   1  21
TORSDOF 14
ENDMDL
MODEL 2
REMARK VINA RESULT:      -8.9      4.598     10.180
REMARK SMILES C[C@@H]1C[N@H+](Cc2ccccc2)CC[C@@H]1CC(=O)OCCOC(=O)c1ccc(-c2c3nc(c(-c4c(F)cccc4F)c4ccc([nH]4)c(-c4c(F)cccc4F)c4nc(c(-c5c(F)cccc5F)c5ccc2[nH]5)C=C4)C=C3)cc1
REMARK SMILES IDX 19 1 18 2 16 3 17 4 15 5 14 6 1 7 2 8 3 9 4 10 13 11 12 12
REMARK SMILES IDX 5 14 6 15 7 16 11 17 8 18 10 19 9 20 20 21 21 22 22 23 23 24
REMARK SMILES IDX 24 25 25 26 77 27 26 28 76 29 27 30 28 31 29 32 70 33 30 34
REMARK SMILES IDX 75 35 69 36 71 37 31 38 74 39 68 40 67 41 32 43 58 44 41 45
REMARK SMILES IDX 57 46 42 47 45 48 56 49 72 50 43 51 44 52 55 54 73 55 46 56
REMARK SMILES IDX 33 57 34 58 39 59 35 60 36 61 38 62 40 63 37 64 59 65 60 66
REMARK SMILES IDX 65 67 61 68 62 69 64 70 66 71 63 72 47 73 48 74 53 75 49 76
REMARK SMILES IDX 50 77 52 78 54 79 51 80
REMARK H PARENT 4 13 71 42 45 53
REMARK Flexibility Score: inf
ROOT
ATOM      1  C   UNL A   1      33.898  34.461  29.671  1.00  0.00     0.274 C 
ENDROOT
BRANCH   1   2
ATOM      2  O   UNL A   1      34.007  33.901  31.000  1.00  0.00    -0.462 OA
BRANCH   2   3
ATOM      3  C   UNL A   1      33.752  34.723  32.048  1.00  0.00     0.306 C 
ATOM      4  O   UNL A   1      32.635  34.919  32.511  1.00  0.00    -0.252 OA
BRANCH   3   5
ATOM      5  C   UNL A   1      34.981  35.513  32.467  1.00  0.00     0.127 C 
BRANCH   5   6
ATOM      6  C   UNL A   1      36.244  34.916  33.164  1.00  0.00     0.014 C 
ATOM      7  C   UNL A   1      37.430  33.941  30.947  1.00  0.00     0.014 C 
ATOM      8  C   UNL A   1      37.521  34.460  32.378  1.00  0.00     0.045 C 
ATOM      9  C   UNL A   1      38.434  33.526  33.205  1.00  0.00     0.265 C 
ATOM     10  N   UNL A   1      37.756  32.486  33.960  1.00  0.00    -0.331 N 
ATOM     11  C   UNL A   1      35.834  34.049  34.392  1.00  0.00     0.066 C 
ATOM     12  C   UNL A   1      36.881  33.084  34.955  1.00  0.00     0.262 C 
ATOM     13  H   UNL A   1      38.460  31.981  34.498  1.00  0.00     0.348 HD
BRANCH  10  14
ATOM     14  C   UNL A   1      37.320  31.281  33.233  1.00  0.00     0.299 C 
BRANCH  14  15
ATOM     15  C   UNL A   1      38.239  30.079  33.319  1.00  0.00     0.006 A 
ATOM     16  C   UNL A   1      37.884  28.838  32.771  1.00  0.00     0.009 A 
ATOM     17  C   UNL A   1      39.541  30.244  33.780  1.00  0.00     0.009 A 
ATOM     18  C   UNL A   1      38.851  27.851  32.562  1.00  0.00     0.001 A 
ATOM     19  C   UNL A   1      40.517  29.314  33.455  1.00  0.00     0.001 A 
ATOM     20  C   UNL A   1      40.182  28.114  32.850  1.00  0.00     0.000 A 
ENDBRANCH  14  15
ENDBRANCH  10  14
ENDBRANCH   5   6
ENDBRANCH   3   5
ENDBRANCH   2   3
ENDBRANCH   1   2
BRANCH   1  21
ATOM     21  C   UNL A   1      34.190  33.429  28.572  1.00  0.00     0.275 C 
BRANCH  21  22
ATOM     22  O   UNL A   1      34.472  32.116  29.093  1.00  0.00    -0.458 OA
BRANCH  22  23
ATOM     23  C   UNL A   1      34.579  31.155  28.147  1.00  0.00     0.338 C 
ATOM     24  O   UNL A   1      33.754  30.885  27.284  1.00  0.00    -0.246 OA
BRANCH  23  25
ATOM     25  C   UNL A   1      35.811  30.376  28.343  1.00  0.00     0.060 A 
ATOM     26  C   UNL A   1      36.757  30.416  27.324  1.00  0.00     0.016 A 
ATOM     27  C   UNL A   1      36.083  29.687  29.529  1.00  0.00     0.016 A 
ATOM     28  C   UNL A   1      37.968  29.743  27.481  1.00  0.00     0.010 A 
ATOM     29  C   UNL A   1      37.357  29.125  29.733  1.00  0.00     0.010 A 
ATOM     30  C   UNL A   1      38.334  29.192  28.725  1.00  0.00    -0.014 A 
BRANCH  30  31
ATOM     31  C   UNL A   1      39.789  28.954  28.993  1.00  0.00     0.031 A 
ATOM     32  C   UNL A   1      40.692  29.925  29.706  1.00  0.00     0.074 A 
ATOM     33  C   UNL A   1      40.304  27.780  28.562  1.00  0.00     0.049 A 
ATOM     34  N   UNL A   1      41.984  29.831  29.921  1.00  0.00    -0.248 NA
ATOM     35  C   UNL A   1      40.088  31.151  30.240  1.00  0.00     0.031 C 
ATOM     36  C   UNL A   1      39.547  26.752  27.839  1.00  0.00     0.029 A 
ATOM     37  N   UNL A   1      41.552  27.223  28.694  1.00  0.00    -0.354 N 
ATOM     38  C   UNL A   1      42.358  30.997  30.581  1.00  0.00     0.074 A 
ATOM     39  C   UNL A   1      41.147  31.779  30.741  1.00  0.00     0.031 C 
ATOM     40  C   UNL A   1      40.291  25.651  27.719  1.00  0.00     0.029 A 
ATOM     41  C   UNL A   1      41.634  25.947  28.187  1.00  0.00     0.049 A 
ATOM     42  H   UNL A   1      42.311  27.690  29.111  1.00  0.00     0.167 HD
ATOM     43  C   UNL A   1      43.595  31.377  30.993  1.00  0.00     0.037 A 
ATOM     44  C   UNL A   1      42.676  25.110  28.042  1.00  0.00     0.037 A 
ATOM     45  C   UNL A   1      44.797  30.587  30.825  1.00  0.00     0.049 A 
ATOM     46  C   UNL A   1      44.032  25.581  28.447  1.00  0.00     0.074 A 
ATOM     47  C   UNL A   1      46.095  30.894  31.203  1.00  0.00     0.029 A 
ATOM     48  N   UNL A   1      44.852  29.336  30.224  1.00  0.00    -0.354 N 
ATOM     49  N   UNL A   1      44.372  26.707  29.023  1.00  0.00    -0.248 NA
ATOM     50  C   UNL A   1      45.155  24.686  28.145  1.00  0.00     0.031 C 
ATOM     51  C   UNL A   1      46.938  29.857  30.786  1.00  0.00     0.029 A 
ATOM     52  C   UNL A   1      46.161  28.873  30.197  1.00  0.00     0.049 A 
ATOM     53  H   UNL A   1      44.074  28.847  29.869  1.00  0.00     0.167 HD
ATOM     54  C   UNL A   1      45.751  26.664  29.147  1.00  0.00     0.074 A 
ATOM     55  C   UNL A   1      46.179  25.385  28.615  1.00  0.00     0.031 C 
ATOM     56  C   UNL A   1      46.583  27.608  29.647  1.00  0.00     0.037 A 
BRANCH  43  57
ATOM     57  C   UNL A   1      43.736  32.738  31.622  1.00  0.00     0.057 A 
ATOM     58  C   UNL A   1      43.985  33.892  30.869  1.00  0.00     0.134 A 
ATOM     59  C   UNL A   1      43.570  32.902  33.006  1.00  0.00     0.134 A 
ATOM     60  F   UNL A   1      44.154  33.813  29.541  1.00  0.00    -0.206 F 
ATOM     61  C   UNL A   1      44.091  35.151  31.470  1.00  0.00     0.040 A 
ATOM     62  C   UNL A   1      43.649  34.157  33.615  1.00  0.00     0.040 A 
ATOM     63  F   UNL A   1      43.310  31.844  33.790  1.00  0.00    -0.206 F 
ATOM     64  C   UNL A   1      43.918  35.287  32.846  1.00  0.00     0.006 A 
ENDBRANCH  43  57
BRANCH  44  65
ATOM     65  C   UNL A   1      42.460  23.780  27.419  1.00  0.00     0.057 A 
ATOM     66  C   UNL A   1      42.489  23.619  26.031  1.00  0.00     0.134 A 
ATOM     67  C   UNL A   1      42.301  22.626  28.201  1.00  0.00     0.134 A 
ATOM     68  F   UNL A   1      42.614  24.686  25.228  1.00  0.00    -0.206 F 
ATOM     69  C   UNL A   1      42.384  22.357  25.443  1.00  0.00     0.040 A 
ATOM     70  C   UNL A   1      42.235  21.357  27.627  1.00  0.00     0.040 A 
ATOM     71  F   UNL A   1      42.272  22.714  29.539  1.00  0.00    -0.206 F 
ATOM     72  C   UNL A   1      42.275  21.220  26.243  1.00  0.00     0.006 A 
ENDBRANCH  44  65
BRANCH  56  73
ATOM     73  C   UNL A   1      48.044  27.270  29.654  1.00  0.00     0.057 A 
ATOM     74  C   UNL A   1      48.639  26.589  30.725  1.00  0.00     0.134 A 
ATOM     75  C   UNL A   1      48.870  27.650  28.589  1.00  0.00     0.134 A 
ATOM     76  F   UNL A   1      47.907  26.220  31.786  1.00  0.00    -0.206 F 
ATOM     77  C   UNL A   1      50.008  26.323  30.747  1.00  0.00     0.040 A 
ATOM     78  C   UNL A   1      50.235  27.367  28.590  1.00  0.00     0.040 A 
ATOM     79  F   UNL A   1      48.362  28.307  27.535  1.00  0.00    -0.206 F 
ATOM     80  C   UNL A   1      50.811  26.708  29.674  1.00  0.00     0.006 A 
ENDBRANCH  56  73
ENDBRANCH  30  31
ENDBRANCH  23  25
ENDBRANCH  22  23
ENDBRANCH  21  22
ENDBRANCH   1  21
TORSDOF 14
ENDMDL
MODEL 3
REMARK VINA RESULT:      -8.9      5.067     10.313
REMARK SMILES C[C@@H]1C[N@H+](Cc2ccccc2)CC[C@@H]1CC(=O)OCCOC(=O)c1ccc(-c2c3nc(c(-c4c(F)cccc4F)c4ccc([nH]4)c(-c4c(F)cccc4F)c4nc(c(-c5c(F)cccc5F)c5ccc2[nH]5)C=C4)C=C3)cc1
REMARK SMILES IDX 19 1 18 2 16 3 17 4 15 5 14 6 1 7 2 8 3 9 4 10 13 11 12 12
REMARK SMILES IDX 5 14 6 15 7 16 11 17 8 18 10 19 9 20 20 21 21 22 22 23 23 24
REMARK SMILES IDX 24 25 25 26 77 27 26 28 76 29 27 30 28 31 29 32 70 33 30 34
REMARK SMILES IDX 75 35 69 36 71 37 31 38 74 39 68 40 67 41 32 43 58 44 41 45
REMARK SMILES IDX 57 46 42 47 45 48 56 49 72 50 43 51 44 52 55 54 73 55 46 56
REMARK SMILES IDX 33 57 34 58 39 59 35 60 36 61 38 62 40 63 37 64 59 65 60 66
REMARK SMILES IDX 65 67 61 68 62 69 64 70 66 71 63 72 47 73 48 74 53 75 49 76
REMARK SMILES IDX 50 77 52 78 54 79 51 80
REMARK H PARENT 4 13 71 42 45 53
REMARK Flexibility Score: inf
ROOT
ATOM      1  C   UNL A   1      39.700  21.290  26.121  1.00  0.00     0.274 C 
ENDROOT
BRANCH   1   2
ATOM      2  O   UNL A   1      38.402  21.923  26.189  1.00  0.00    -0.462 OA
BRANCH   2   3
ATOM      3  C   UNL A   1      37.550  21.716  25.155  1.00  0.00     0.306 C 
ATOM      4  O   UNL A   1      37.360  20.626  24.627  1.00  0.00    -0.252 OA
BRANCH   3   5
ATOM      5  C   UNL A   1      36.994  23.019  24.604  1.00  0.00     0.127 C 
BRANCH   5   6
ATOM      6  C   UNL A   1      35.478  23.358  24.444  1.00  0.00     0.014 C 
ATOM      7  C   UNL A   1      34.760  22.927  27.008  1.00  0.00     0.014 C 
ATOM      8  C   UNL A   1      34.522  23.605  25.662  1.00  0.00     0.045 C 
ATOM      9  C   UNL A   1      33.028  23.490  25.286  1.00  0.00     0.265 C 
ATOM     10  N   UNL A   1      32.676  22.372  24.428  1.00  0.00    -0.331 N 
ATOM     11  C   UNL A   1      34.872  22.600  23.225  1.00  0.00     0.066 C 
ATOM     12  C   UNL A   1      33.346  22.499  23.145  1.00  0.00     0.262 C 
ATOM     13  H   UNL A   1      31.682  22.443  24.214  1.00  0.00     0.348 HD
BRANCH  10  14
ATOM     14  C   UNL A   1      32.536  21.045  25.051  1.00  0.00     0.299 C 
BRANCH  14  15
ATOM     15  C   UNL A   1      33.067  19.871  24.253  1.00  0.00     0.006 A 
ATOM     16  C   UNL A   1      34.203  19.155  24.660  1.00  0.00     0.009 A 
ATOM     17  C   UNL A   1      32.315  19.364  23.199  1.00  0.00     0.009 A 
ATOM     18  C   UNL A   1      34.481  17.897  24.117  1.00  0.00     0.001 A 
ATOM     19  C   UNL A   1      32.523  18.066  22.757  1.00  0.00     0.001 A 
ATOM     20  C   UNL A   1      33.604  17.327  23.206  1.00  0.00     0.000 A 
ENDBRANCH  14  15
ENDBRANCH  10  14
ENDBRANCH   5   6
ENDBRANCH   3   5
ENDBRANCH   2   3
ENDBRANCH   1   2
BRANCH   1  21
ATOM     21  C   UNL A   1      40.848  22.271  26.401  1.00  0.00     0.275 C 
BRANCH  21  22
ATOM     22  O   UNL A   1      40.408  23.638  26.502  1.00  0.00    -0.458 OA
BRANCH  22  23
ATOM     23  C   UNL A   1      41.408  24.531  26.681  1.00  0.00     0.338 C 
ATOM     24  O   UNL A   1      42.591  24.365  26.415  1.00  0.00    -0.246 OA
BRANCH  23  25
ATOM     25  C   UNL A   1      40.905  25.741  27.348  1.00  0.00     0.060 A 
ATOM     26  C   UNL A   1      39.862  25.580  28.254  1.00  0.00     0.016 A 
ATOM     27  C   UNL A   1      41.490  26.998  27.165  1.00  0.00     0.016 A 
ATOM     28  C   UNL A   1      39.384  26.684  28.959  1.00  0.00     0.010 A 
ATOM     29  C   UNL A   1      41.093  28.077  27.977  1.00  0.00     0.010 A 
ATOM     30  C   UNL A   1      40.066  27.917  28.922  1.00  0.00    -0.014 A 
BRANCH  30  31
ATOM     31  C   UNL A   1      39.845  28.882  30.047  1.00  0.00     0.031 A 
ATOM     32  C   UNL A   1      38.788  29.955  30.051  1.00  0.00     0.074 A 
ATOM     33  C   UNL A   1      40.655  28.761  31.122  1.00  0.00     0.049 A 
ATOM     34  N   UNL A   1      38.570  30.882  30.955  1.00  0.00    -0.248 NA
ATOM     35  C   UNL A   1      37.866  30.008  28.910  1.00  0.00     0.031 C 
ATOM     36  C   UNL A   1      41.736  27.776  31.247  1.00  0.00     0.029 A 
ATOM     37  N   UNL A   1      40.686  29.420  32.326  1.00  0.00    -0.354 N 
ATOM     38  C   UNL A   1      37.513  31.651  30.481  1.00  0.00     0.074 A 
ATOM     39  C   UNL A   1      37.126  31.070  29.208  1.00  0.00     0.031 C 
ATOM     40  C   UNL A   1      42.222  27.799  32.488  1.00  0.00     0.029 A 
ATOM     41  C   UNL A   1      41.622  28.916  33.198  1.00  0.00     0.049 A 
ATOM     42  H   UNL A   1      40.095  30.177  32.543  1.00  0.00     0.167 HD
ATOM     43  C   UNL A   1      36.939  32.743  31.049  1.00  0.00     0.037 A 
ATOM     44  C   UNL A   1      42.022  29.328  34.414  1.00  0.00     0.037 A 
ATOM     45  C   UNL A   1      37.336  33.314  32.319  1.00  0.00     0.049 A 
ATOM     46  C   UNL A   1      41.416  30.566  34.984  1.00  0.00     0.074 A 
ATOM     47  C   UNL A   1      36.818  34.424  32.969  1.00  0.00     0.029 A 
ATOM     48  N   UNL A   1      38.351  32.826  33.131  1.00  0.00    -0.354 N 
ATOM     49  N   UNL A   1      40.453  31.309  34.496  1.00  0.00    -0.248 NA
ATOM     50  C   UNL A   1      41.979  31.051  36.249  1.00  0.00     0.031 C 
ATOM     51  C   UNL A   1      37.552  34.636  34.143  1.00  0.00     0.029 A 
ATOM     52  C   UNL A   1      38.492  33.626  34.257  1.00  0.00     0.049 A 
ATOM     53  H   UNL A   1      38.893  32.027  32.936  1.00  0.00     0.167 HD
ATOM     54  C   UNL A   1      40.297  32.356  35.389  1.00  0.00     0.074 A 
ATOM     55  C   UNL A   1      41.243  32.133  36.465  1.00  0.00     0.031 C 
ATOM     56  C   UNL A   1      39.451  33.410  35.313  1.00  0.00     0.037 A 
BRANCH  43  57
ATOM     57  C   UNL A   1      35.848  33.441  30.279  1.00  0.00     0.057 A 
ATOM     58  C   UNL A   1      34.507  33.410  30.681  1.00  0.00     0.134 A 
ATOM     59  C   UNL A   1      36.157  34.201  29.141  1.00  0.00     0.134 A 
ATOM     60  F   UNL A   1      34.137  32.705  31.760  1.00  0.00    -0.206 F 
ATOM     61  C   UNL A   1      33.512  34.083  29.965  1.00  0.00     0.040 A 
ATOM     62  C   UNL A   1      35.175  34.898  28.432  1.00  0.00     0.040 A 
ATOM     63  F   UNL A   1      37.423  34.293  28.707  1.00  0.00    -0.206 F 
ATOM     64  C   UNL A   1      33.845  34.834  28.839  1.00  0.00     0.006 A 
ENDBRANCH  43  57
BRANCH  44  65
ATOM     65  C   UNL A   1      43.098  28.585  35.117  1.00  0.00     0.057 A 
ATOM     66  C   UNL A   1      44.446  28.875  34.885  1.00  0.00     0.134 A 
ATOM     67  C   UNL A   1      42.802  27.626  36.097  1.00  0.00     0.134 A 
ATOM     68  F   UNL A   1      44.794  29.765  33.945  1.00  0.00    -0.206 F 
ATOM     69  C   UNL A   1      45.460  28.249  35.613  1.00  0.00     0.040 A 
ATOM     70  C   UNL A   1      43.803  27.024  36.858  1.00  0.00     0.040 A 
ATOM     71  F   UNL A   1      41.527  27.309  36.371  1.00  0.00    -0.206 F 
ATOM     72  C   UNL A   1      45.138  27.335  36.615  1.00  0.00     0.006 A 
ENDBRANCH  44  65
BRANCH  56  73
ATOM     73  C   UNL A   1      39.508  34.391  36.447  1.00  0.00     0.057 A 
ATOM     74  C   UNL A   1      40.262  35.570  36.365  1.00  0.00     0.134 A 
ATOM     75  C   UNL A   1      38.821  34.143  37.640  1.00  0.00     0.134 A 
ATOM     76  F   UNL A   1      40.964  35.853  35.257  1.00  0.00    -0.206 F 
ATOM     77  C   UNL A   1      40.351  36.453  37.442  1.00  0.00     0.040 A 
ATOM     78  C   UNL A   1      38.883  35.031  38.715  1.00  0.00     0.040 A 
ATOM     79  F   UNL A   1      38.083  33.032  37.784  1.00  0.00    -0.206 F 
ATOM     80  C   UNL A   1      39.656  36.186  38.620  1.00  0.00     0.006 A 
ENDBRANCH  56  73
ENDBRANCH  30  31
ENDBRANCH  23  25
ENDBRANCH  22  23
ENDBRANCH  21  22
ENDBRANCH   1  21
TORSDOF 14
ENDMDL
