MODEL 1
REMARK VINA RESULT:     -12.1      0.000      0.000
REMARK SMILES C[C@H]1CC[C@@](C[C@@H]2CCCc3ccccc32)(C(=O)OCCOC(=O)c2ccc(-c3c4nc(c(-c5c(F)cccc5F)c5ccc([nH]5)c(-c5c(F)cccc5F)c5nc(c(-c6c(F)cccc6F)c6ccc3[nH]6)C=C5)C=C4)cc2)C1
REMARK SMILES IDX 20 1 19 2 17 3 18 4 5 5 1 6 2 7 3 8 79 9 4 10 6 11 7 12 8 13
REMARK SMILES IDX 16 14 9 15 11 16 15 17 10 18 12 19 14 20 13 21 21 22 22 23
REMARK SMILES IDX 23 24 24 25 25 26 26 27 78 28 27 29 77 30 28 31 29 32 30 33
REMARK SMILES IDX 71 34 31 35 76 36 70 37 72 38 32 39 75 40 69 41 68 42 33 44
REMARK SMILES IDX 59 45 42 46 58 47 43 48 46 49 57 50 73 51 44 52 45 53 56 55
REMARK SMILES IDX 74 56 47 57 34 58 35 59 40 60 36 61 37 62 39 63 41 64 38 65
REMARK SMILES IDX 60 66 61 67 66 68 62 69 63 70 65 71 67 72 64 73 48 74 49 75
REMARK SMILES IDX 54 76 50 77 51 78 53 79 55 80 52 81
REMARK H PARENT 72 43 46 54
REMARK Flexibility Score: inf
ROOT
ATOM      1  C   UNL A   1      31.400  29.345  24.717  1.00  0.00     0.274 C 
ENDROOT
BRANCH   1   2
ATOM      2  O   UNL A   1      31.066  27.974  25.010  1.00  0.00    -0.462 OA
BRANCH   2   3
ATOM      3  C   UNL A   1      31.971  27.243  25.704  1.00  0.00     0.312 C 
ATOM      4  O   UNL A   1      31.997  27.175  26.928  1.00  0.00    -0.252 OA
BRANCH   3   5
ATOM      5  C   UNL A   1      33.003  26.550  24.796  1.00  0.00     0.069 C 
ATOM      6  C   UNL A   1      32.300  25.800  21.088  1.00  0.00     0.007 C 
ATOM      7  C   UNL A   1      33.060  25.999  22.389  1.00  0.00    -0.013 C 
ATOM      8  C   UNL A   1      33.590  27.411  22.542  1.00  0.00     0.004 C 
ATOM      9  C   UNL A   1      32.209  25.833  23.649  1.00  0.00     0.022 C 
ATOM     10  C   UNL A   1      33.960  27.490  24.018  1.00  0.00     0.019 C 
BRANCH   5  11
ATOM     11  C   UNL A   1      33.710  25.465  25.665  1.00  0.00     0.027 C 
BRANCH  11  12
ATOM     12  C   UNL A   1      33.449  23.937  25.489  1.00  0.00     0.020 C 
ATOM     13  C   UNL A   1      32.674  23.243  26.621  1.00  0.00     0.009 C 
ATOM     14  C   UNL A   1      34.677  23.168  25.033  1.00  0.00    -0.042 A 
ATOM     15  C   UNL A   1      33.557  22.549  27.649  1.00  0.00     0.005 C 
ATOM     16  C   UNL A   1      35.219  22.115  25.789  1.00  0.00    -0.045 A 
ATOM     17  C   UNL A   1      35.310  23.538  23.831  1.00  0.00     0.004 A 
ATOM     18  C   UNL A   1      34.524  21.567  27.008  1.00  0.00     0.036 C 
ATOM     19  C   UNL A   1      36.413  21.507  25.368  1.00  0.00     0.004 A 
ATOM     20  C   UNL A   1      36.490  22.925  23.421  1.00  0.00     0.000 A 
ATOM     21  C   UNL A   1      37.052  21.920  24.199  1.00  0.00     0.000 A 
ENDBRANCH  11  12
ENDBRANCH   5  11
ENDBRANCH   3   5
ENDBRANCH   2   3
ENDBRANCH   1   2
BRANCH   1  22
ATOM     22  C   UNL A   1      31.537  30.109  26.033  1.00  0.00     0.275 C 
BRANCH  22  23
ATOM     23  O   UNL A   1      32.927  30.440  26.201  1.00  0.00    -0.458 OA
BRANCH  23  24
ATOM     24  C   UNL A   1      33.178  31.505  26.993  1.00  0.00     0.338 C 
ATOM     25  O   UNL A   1      32.432  32.414  27.305  1.00  0.00    -0.246 OA
BRANCH  24  26
ATOM     26  C   UNL A   1      34.482  31.262  27.621  1.00  0.00     0.060 A 
ATOM     27  C   UNL A   1      34.790  29.948  27.966  1.00  0.00     0.016 A 
ATOM     28  C   UNL A   1      35.363  32.298  27.908  1.00  0.00     0.016 A 
ATOM     29  C   UNL A   1      35.958  29.656  28.653  1.00  0.00     0.010 A 
ATOM     30  C   UNL A   1      36.570  31.995  28.547  1.00  0.00     0.010 A 
ATOM     31  C   UNL A   1      36.868  30.676  28.944  1.00  0.00    -0.014 A 
BRANCH  31  32
ATOM     32  C   UNL A   1      38.091  30.380  29.731  1.00  0.00     0.031 A 
ATOM     33  C   UNL A   1      39.167  29.528  29.121  1.00  0.00     0.074 A 
ATOM     34  C   UNL A   1      38.255  30.879  30.972  1.00  0.00     0.049 A 
ATOM     35  N   UNL A   1      40.180  28.935  29.694  1.00  0.00    -0.248 NA
ATOM     36  C   UNL A   1      39.074  29.301  27.669  1.00  0.00     0.031 C 
ATOM     37  C   UNL A   1      37.333  31.788  31.653  1.00  0.00     0.029 A 
ATOM     38  N   UNL A   1      39.267  30.689  31.881  1.00  0.00    -0.354 N 
ATOM     39  C   UNL A   1      40.803  28.204  28.690  1.00  0.00     0.074 A 
ATOM     40  C   UNL A   1      40.062  28.439  27.469  1.00  0.00     0.031 C 
ATOM     41  C   UNL A   1      37.830  32.094  32.861  1.00  0.00     0.029 A 
ATOM     42  C   UNL A   1      39.057  31.334  33.076  1.00  0.00     0.049 A 
ATOM     43  H   UNL A   1      40.065  30.144  31.694  1.00  0.00     0.167 HD
ATOM     44  C   UNL A   1      41.888  27.401  28.787  1.00  0.00     0.037 A 
ATOM     45  C   UNL A   1      39.747  31.277  34.230  1.00  0.00     0.037 A 
ATOM     46  C   UNL A   1      42.651  27.225  29.995  1.00  0.00     0.049 A 
ATOM     47  C   UNL A   1      40.941  30.371  34.322  1.00  0.00     0.074 A 
ATOM     48  C   UNL A   1      43.757  26.422  30.211  1.00  0.00     0.029 A 
ATOM     49  N   UNL A   1      42.399  27.890  31.186  1.00  0.00    -0.354 N 
ATOM     50  N   UNL A   1      41.461  29.595  33.402  1.00  0.00    -0.248 NA
ATOM     51  C   UNL A   1      41.628  30.310  35.619  1.00  0.00     0.031 C 
ATOM     52  C   UNL A   1      44.163  26.587  31.541  1.00  0.00     0.029 A 
ATOM     53  C   UNL A   1      43.330  27.518  32.141  1.00  0.00     0.049 A 
ATOM     54  H   UNL A   1      41.666  28.531  31.331  1.00  0.00     0.167 HD
ATOM     55  C   UNL A   1      42.536  28.957  34.004  1.00  0.00     0.074 A 
ATOM     56  C   UNL A   1      42.609  29.456  35.363  1.00  0.00     0.031 C 
ATOM     57  C   UNL A   1      43.382  28.034  33.485  1.00  0.00     0.037 A 
BRANCH  44  58
ATOM     58  C   UNL A   1      42.276  26.618  27.569  1.00  0.00     0.057 A 
ATOM     59  C   UNL A   1      41.799  25.324  27.327  1.00  0.00     0.134 A 
ATOM     60  C   UNL A   1      43.142  27.176  26.618  1.00  0.00     0.134 A 
ATOM     61  F   UNL A   1      40.984  24.724  28.208  1.00  0.00    -0.206 F 
ATOM     62  C   UNL A   1      42.188  24.603  26.196  1.00  0.00     0.040 A 
ATOM     63  C   UNL A   1      43.518  26.474  25.471  1.00  0.00     0.040 A 
ATOM     64  F   UNL A   1      43.635  28.411  26.788  1.00  0.00    -0.206 F 
ATOM     65  C   UNL A   1      43.046  25.181  25.261  1.00  0.00     0.006 A 
ENDBRANCH  44  58
BRANCH  45  66
ATOM     66  C   UNL A   1      39.288  32.061  35.405  1.00  0.00     0.057 A 
ATOM     67  C   UNL A   1      39.701  33.383  35.598  1.00  0.00     0.134 A 
ATOM     68  C   UNL A   1      38.418  31.511  36.356  1.00  0.00     0.134 A 
ATOM     69  F   UNL A   1      40.554  33.957  34.737  1.00  0.00    -0.206 F 
ATOM     70  C   UNL A   1      39.268  34.131  36.696  1.00  0.00     0.040 A 
ATOM     71  C   UNL A   1      37.958  32.255  37.443  1.00  0.00     0.040 A 
ATOM     72  F   UNL A   1      37.986  30.249  36.228  1.00  0.00    -0.206 F 
ATOM     73  C   UNL A   1      38.386  33.569  37.617  1.00  0.00     0.006 A 
ENDBRANCH  45  66
BRANCH  57  74
ATOM     74  C   UNL A   1      44.468  27.529  34.385  1.00  0.00     0.057 A 
ATOM     75  C   UNL A   1      44.298  26.381  35.168  1.00  0.00     0.134 A 
ATOM     76  C   UNL A   1      45.705  28.182  34.445  1.00  0.00     0.134 A 
ATOM     77  F   UNL A   1      43.132  25.719  35.163  1.00  0.00    -0.206 F 
ATOM     78  C   UNL A   1      45.318  25.910  35.997  1.00  0.00     0.040 A 
ATOM     79  C   UNL A   1      46.738  27.710  35.255  1.00  0.00     0.040 A 
ATOM     80  F   UNL A   1      45.929  29.284  33.714  1.00  0.00    -0.206 F 
ATOM     81  C   UNL A   1      46.543  26.573  36.037  1.00  0.00     0.006 A 
ENDBRANCH  57  74
ENDBRANCH  31  32
ENDBRANCH  24  26
ENDBRANCH  23  24
ENDBRANCH  22  23
ENDBRANCH   1  22
TORSDOF 13
ENDMDL
MODEL 2
REMARK VINA RESULT:     -12.1      3.983      8.899
REMARK SMILES C[C@H]1CC[C@@](C[C@@H]2CCCc3ccccc32)(C(=O)OCCOC(=O)c2ccc(-c3c4nc(c(-c5c(F)cccc5F)c5ccc([nH]5)c(-c5c(F)cccc5F)c5nc(c(-c6c(F)cccc6F)c6ccc3[nH]6)C=C5)C=C4)cc2)C1
REMARK SMILES IDX 20 1 19 2 17 3 18 4 5 5 1 6 2 7 3 8 79 9 4 10 6 11 7 12 8 13
REMARK SMILES IDX 16 14 9 15 11 16 15 17 10 18 12 19 14 20 13 21 21 22 22 23
REMARK SMILES IDX 23 24 24 25 25 26 26 27 78 28 27 29 77 30 28 31 29 32 30 33
REMARK SMILES IDX 71 34 31 35 76 36 70 37 72 38 32 39 75 40 69 41 68 42 33 44
REMARK SMILES IDX 59 45 42 46 58 47 43 48 46 49 57 50 73 51 44 52 45 53 56 55
REMARK SMILES IDX 74 56 47 57 34 58 35 59 40 60 36 61 37 62 39 63 41 64 38 65
REMARK SMILES IDX 60 66 61 67 66 68 62 69 63 70 65 71 67 72 64 73 48 74 49 75
REMARK SMILES IDX 54 76 50 77 51 78 53 79 55 80 52 81
REMARK H PARENT 72 43 46 54
REMARK Flexibility Score: inf
ROOT
ATOM      1  C   UNL A   1      35.420  20.864  24.934  1.00  0.00     0.274 C 
ENDROOT
BRANCH   1   2
ATOM      2  O   UNL A   1      35.441  22.303  24.850  1.00  0.00    -0.462 OA
BRANCH   2   3
ATOM      3  C   UNL A   1      34.326  22.920  24.392  1.00  0.00     0.312 C 
ATOM      4  O   UNL A   1      33.937  22.849  23.232  1.00  0.00    -0.252 OA
BRANCH   3   5
ATOM      5  C   UNL A   1      33.627  23.770  25.469  1.00  0.00     0.069 C 
ATOM      6  C   UNL A   1      30.132  22.901  26.822  1.00  0.00     0.007 C 
ATOM      7  C   UNL A   1      31.507  23.539  26.714  1.00  0.00    -0.013 C 
ATOM      8  C   UNL A   1      32.566  22.769  27.479  1.00  0.00     0.004 C 
ATOM      9  C   UNL A   1      32.082  23.564  25.297  1.00  0.00     0.022 C 
ATOM     10  C   UNL A   1      33.873  23.336  26.938  1.00  0.00     0.019 C 
BRANCH   5  11
ATOM     11  C   UNL A   1      33.968  25.260  25.158  1.00  0.00     0.027 C 
BRANCH  11  12
ATOM     12  C   UNL A   1      32.951  26.240  24.495  1.00  0.00     0.020 C 
ATOM     13  C   UNL A   1      33.254  26.659  23.047  1.00  0.00     0.009 C 
ATOM     14  C   UNL A   1      32.564  27.400  25.395  1.00  0.00    -0.042 A 
ATOM     15  C   UNL A   1      33.981  27.990  22.921  1.00  0.00     0.005 C 
ATOM     16  C   UNL A   1      32.783  28.738  25.022  1.00  0.00    -0.045 A 
ATOM     17  C   UNL A   1      31.994  27.131  26.654  1.00  0.00     0.004 A 
ATOM     18  C   UNL A   1      33.255  29.114  23.642  1.00  0.00     0.036 C 
ATOM     19  C   UNL A   1      32.496  29.764  25.936  1.00  0.00     0.004 A 
ATOM     20  C   UNL A   1      31.709  28.157  27.549  1.00  0.00     0.000 A 
ATOM     21  C   UNL A   1      31.977  29.474  27.198  1.00  0.00     0.000 A 
ENDBRANCH  11  12
ENDBRANCH   5  11
ENDBRANCH   3   5
ENDBRANCH   2   3
ENDBRANCH   1   2
BRANCH   1  22
ATOM     22  C   UNL A   1      36.859  20.354  24.981  1.00  0.00     0.275 C 
BRANCH  22  23
ATOM     23  O   UNL A   1      37.664  21.377  25.593  1.00  0.00    -0.458 OA
BRANCH  23  24
ATOM     24  C   UNL A   1      38.892  20.985  25.996  1.00  0.00     0.338 C 
ATOM     25  O   UNL A   1      39.455  19.924  25.801  1.00  0.00    -0.246 OA
BRANCH  24  26
ATOM     26  C   UNL A   1      39.554  22.175  26.542  1.00  0.00     0.060 A 
ATOM     27  C   UNL A   1      39.087  23.417  26.115  1.00  0.00     0.016 A 
ATOM     28  C   UNL A   1      40.633  22.081  27.413  1.00  0.00     0.016 A 
ATOM     29  C   UNL A   1      39.728  24.582  26.508  1.00  0.00     0.010 A 
ATOM     30  C   UNL A   1      41.240  23.260  27.858  1.00  0.00     0.010 A 
ATOM     31  C   UNL A   1      40.808  24.519  27.393  1.00  0.00    -0.014 A 
BRANCH  31  32
ATOM     32  C   UNL A   1      41.534  25.757  27.770  1.00  0.00     0.031 A 
ATOM     33  C   UNL A   1      40.842  26.781  28.622  1.00  0.00     0.074 A 
ATOM     34  C   UNL A   1      42.806  25.962  27.376  1.00  0.00     0.049 A 
ATOM     35  N   UNL A   1      41.171  28.024  28.858  1.00  0.00    -0.248 NA
ATOM     36  C   UNL A   1      39.600  26.349  29.284  1.00  0.00     0.031 C 
ATOM     37  C   UNL A   1      43.627  25.016  26.620  1.00  0.00     0.029 A 
ATOM     38  N   UNL A   1      43.632  27.043  27.563  1.00  0.00    -0.354 N 
ATOM     39  C   UNL A   1      40.142  28.545  29.631  1.00  0.00     0.074 A 
ATOM     40  C   UNL A   1      39.183  27.480  29.837  1.00  0.00     0.031 C 
ATOM     41  C   UNL A   1      44.844  25.547  26.427  1.00  0.00     0.029 A 
ATOM     42  C   UNL A   1      44.860  26.903  26.964  1.00  0.00     0.049 A 
ATOM     43  H   UNL A   1      43.370  27.840  28.077  1.00  0.00     0.167 HD
ATOM     44  C   UNL A   1      40.007  29.803  30.112  1.00  0.00     0.037 A 
ATOM     45  C   UNL A   1      45.866  27.786  26.819  1.00  0.00     0.037 A 
ATOM     46  C   UNL A   1      40.998  30.833  29.950  1.00  0.00     0.049 A 
ATOM     47  C   UNL A   1      45.693  29.180  27.349  1.00  0.00     0.074 A 
ATOM     48  C   UNL A   1      40.958  32.148  30.381  1.00  0.00     0.029 A 
ATOM     49  N   UNL A   1      42.225  30.653  29.329  1.00  0.00    -0.354 N 
ATOM     50  N   UNL A   1      44.670  29.702  27.983  1.00  0.00    -0.248 NA
ATOM     51  C   UNL A   1      46.801  30.117  27.121  1.00  0.00     0.031 C 
ATOM     52  C   UNL A   1      42.155  32.768  30.002  1.00  0.00     0.029 A 
ATOM     53  C   UNL A   1      42.953  31.830  29.366  1.00  0.00     0.049 A 
ATOM     54  H   UNL A   1      42.533  29.811  28.920  1.00  0.00     0.167 HD
ATOM     55  C   UNL A   1      45.011  31.024  28.233  1.00  0.00     0.074 A 
ATOM     56  C   UNL A   1      46.346  31.218  27.704  1.00  0.00     0.031 C 
ATOM     57  C   UNL A   1      44.281  31.994  28.835  1.00  0.00     0.037 A 
BRANCH  44  58
ATOM     58  C   UNL A   1      38.723  30.139  30.810  1.00  0.00     0.057 A 
ATOM     59  C   UNL A   1      38.550  29.959  32.188  1.00  0.00     0.134 A 
ATOM     60  C   UNL A   1      37.642  30.659  30.086  1.00  0.00     0.134 A 
ATOM     61  F   UNL A   1      39.539  29.446  32.935  1.00  0.00    -0.206 F 
ATOM     62  C   UNL A   1      37.341  30.260  32.816  1.00  0.00     0.040 A 
ATOM     63  C   UNL A   1      36.436  30.987  30.707  1.00  0.00     0.040 A 
ATOM     64  F   UNL A   1      37.741  30.857  28.763  1.00  0.00    -0.206 F 
ATOM     65  C   UNL A   1      36.280  30.781  32.076  1.00  0.00     0.006 A 
ENDBRANCH  44  58
BRANCH  45  66
ATOM     66  C   UNL A   1      47.099  27.390  26.093  1.00  0.00     0.057 A 
ATOM     67  C   UNL A   1      47.195  27.522  24.704  1.00  0.00     0.134 A 
ATOM     68  C   UNL A   1      48.215  26.881  26.771  1.00  0.00     0.134 A 
ATOM     69  F   UNL A   1      46.152  27.979  23.995  1.00  0.00    -0.206 F 
ATOM     70  C   UNL A   1      48.354  27.161  24.014  1.00  0.00     0.040 A 
ATOM     71  C   UNL A   1      49.388  26.540  26.097  1.00  0.00     0.040 A 
ATOM     72  F   UNL A   1      48.186  26.729  28.103  1.00  0.00    -0.206 F 
ATOM     73  C   UNL A   1      49.459  26.676  24.713  1.00  0.00     0.006 A 
ENDBRANCH  45  66
BRANCH  57  74
ATOM     74  C   UNL A   1      44.927  33.339  28.974  1.00  0.00     0.057 A 
ATOM     75  C   UNL A   1      45.734  33.656  30.074  1.00  0.00     0.134 A 
ATOM     76  C   UNL A   1      44.763  34.314  27.983  1.00  0.00     0.134 A 
ATOM     77  F   UNL A   1      45.919  32.768  31.061  1.00  0.00    -0.206 F 
ATOM     78  C   UNL A   1      46.341  34.908  30.191  1.00  0.00     0.040 A 
ATOM     79  C   UNL A   1      45.380  35.561  28.080  1.00  0.00     0.040 A 
ATOM     80  F   UNL A   1      44.005  34.067  26.904  1.00  0.00    -0.206 F 
ATOM     81  C   UNL A   1      46.167  35.862  29.190  1.00  0.00     0.006 A 
ENDBRANCH  57  74
ENDBRANCH  31  32
ENDBRANCH  24  26
ENDBRANCH  23  24
ENDBRANCH  22  23
ENDBRANCH   1  22
TORSDOF 13
ENDMDL
MODEL 3
REMARK VINA RESULT:     -12.0      1.149      2.383
REMARK SMILES C[C@H]1CC[C@@](C[C@@H]2CCCc3ccccc32)(C(=O)OCCOC(=O)c2ccc(-c3c4nc(c(-c5c(F)cccc5F)c5ccc([nH]5)c(-c5c(F)cccc5F)c5nc(c(-c6c(F)cccc6F)c6ccc3[nH]6)C=C5)C=C4)cc2)C1
REMARK SMILES IDX 20 1 19 2 17 3 18 4 5 5 1 6 2 7 3 8 79 9 4 10 6 11 7 12 8 13
REMARK SMILES IDX 16 14 9 15 11 16 15 17 10 18 12 19 14 20 13 21 21 22 22 23
REMARK SMILES IDX 23 24 24 25 25 26 26 27 78 28 27 29 77 30 28 31 29 32 30 33
REMARK SMILES IDX 71 34 31 35 76 36 70 37 72 38 32 39 75 40 69 41 68 42 33 44
REMARK SMILES IDX 59 45 42 46 58 47 43 48 46 49 57 50 73 51 44 52 45 53 56 55
REMARK SMILES IDX 74 56 47 57 34 58 35 59 40 60 36 61 37 62 39 63 41 64 38 65
REMARK SMILES IDX 60 66 61 67 66 68 62 69 63 70 65 71 67 72 64 73 48 74 49 75
REMARK SMILES IDX 54 76 50 77 51 78 53 79 55 80 52 81
REMARK H PARENT 72 43 46 54
REMARK Flexibility Score: inf
ROOT
ATOM      1  C   UNL A   1      33.084  29.233  23.973  1.00  0.00     0.274 C 
ENDROOT
BRANCH   1   2
ATOM      2  O   UNL A   1      33.517  27.878  24.203  1.00  0.00    -0.462 OA
BRANCH   2   3
ATOM      3  C   UNL A   1      33.443  27.012  23.163  1.00  0.00     0.312 C 
ATOM      4  O   UNL A   1      33.833  27.273  22.031  1.00  0.00    -0.252 OA
BRANCH   3   5
ATOM      5  C   UNL A   1      32.764  25.683  23.540  1.00  0.00     0.069 C 
ATOM      6  C   UNL A   1      29.922  25.487  26.126  1.00  0.00     0.007 C 
ATOM      7  C   UNL A   1      30.860  25.092  24.998  1.00  0.00    -0.013 C 
ATOM      8  C   UNL A   1      30.296  25.422  23.630  1.00  0.00     0.004 C 
ATOM      9  C   UNL A   1      32.192  25.844  24.991  1.00  0.00     0.022 C 
ATOM     10  C   UNL A   1      31.507  25.307  22.712  1.00  0.00     0.019 C 
BRANCH   5  11
ATOM     11  C   UNL A   1      33.884  24.598  23.564  1.00  0.00     0.027 C 
BRANCH  11  12
ATOM     12  C   UNL A   1      34.293  23.833  24.862  1.00  0.00     0.020 C 
ATOM     13  C   UNL A   1      35.720  24.081  25.376  1.00  0.00     0.009 C 
ATOM     14  C   UNL A   1      33.900  22.365  24.840  1.00  0.00    -0.042 A 
ATOM     15  C   UNL A   1      36.734  23.032  24.939  1.00  0.00     0.005 C 
ATOM     16  C   UNL A   1      34.852  21.338  24.963  1.00  0.00    -0.045 A 
ATOM     17  C   UNL A   1      32.547  22.020  24.664  1.00  0.00     0.004 A 
ATOM     18  C   UNL A   1      36.294  21.622  25.295  1.00  0.00     0.036 C 
ATOM     19  C   UNL A   1      34.443  20.001  24.838  1.00  0.00     0.004 A 
ATOM     20  C   UNL A   1      32.153  20.691  24.545  1.00  0.00     0.000 A 
ATOM     21  C   UNL A   1      33.105  19.681  24.614  1.00  0.00     0.000 A 
ENDBRANCH  11  12
ENDBRANCH   5  11
ENDBRANCH   3   5
ENDBRANCH   2   3
ENDBRANCH   1   2
BRANCH   1  22
ATOM     22  C   UNL A   1      31.995  29.580  24.988  1.00  0.00     0.275 C 
BRANCH  22  23
ATOM     23  O   UNL A   1      32.605  29.600  26.290  1.00  0.00    -0.458 OA
BRANCH  23  24
ATOM     24  C   UNL A   1      32.883  30.828  26.781  1.00  0.00     0.338 C 
ATOM     25  O   UNL A   1      32.150  31.794  26.876  1.00  0.00    -0.246 OA
BRANCH  24  26
ATOM     26  C   UNL A   1      34.204  30.737  27.411  1.00  0.00     0.060 A 
ATOM     27  C   UNL A   1      34.701  29.461  27.674  1.00  0.00     0.016 A 
ATOM     28  C   UNL A   1      34.922  31.869  27.780  1.00  0.00     0.016 A 
ATOM     29  C   UNL A   1      35.895  29.298  28.358  1.00  0.00     0.010 A 
ATOM     30  C   UNL A   1      36.157  31.704  28.417  1.00  0.00     0.010 A 
ATOM     31  C   UNL A   1      36.643  30.419  28.731  1.00  0.00    -0.014 A 
BRANCH  31  32
ATOM     32  C   UNL A   1      37.892  30.252  29.515  1.00  0.00     0.031 A 
ATOM     33  C   UNL A   1      39.021  29.451  28.934  1.00  0.00     0.074 A 
ATOM     34  C   UNL A   1      38.031  30.825  30.727  1.00  0.00     0.049 A 
ATOM     35  N   UNL A   1      40.081  28.962  29.523  1.00  0.00    -0.248 NA
ATOM     36  C   UNL A   1      38.932  29.144  27.497  1.00  0.00     0.031 C 
ATOM     37  C   UNL A   1      37.052  31.698  31.374  1.00  0.00     0.029 A 
ATOM     38  N   UNL A   1      39.062  30.755  31.631  1.00  0.00    -0.354 N 
ATOM     39  C   UNL A   1      40.746  28.228  28.549  1.00  0.00     0.074 A 
ATOM     40  C   UNL A   1      39.978  28.346  27.328  1.00  0.00     0.031 C 
ATOM     41  C   UNL A   1      37.537  32.100  32.559  1.00  0.00     0.029 A 
ATOM     42  C   UNL A   1      38.818  31.443  32.794  1.00  0.00     0.049 A 
ATOM     43  H   UNL A   1      39.896  30.260  31.462  1.00  0.00     0.167 HD
ATOM     44  C   UNL A   1      41.888  27.511  28.672  1.00  0.00     0.037 A 
ATOM     45  C   UNL A   1      39.520  31.495  33.941  1.00  0.00     0.037 A 
ATOM     46  C   UNL A   1      42.672  27.453  29.877  1.00  0.00     0.049 A 
ATOM     47  C   UNL A   1      40.778  30.683  34.063  1.00  0.00     0.074 A 
ATOM     48  C   UNL A   1      43.836  26.745  30.118  1.00  0.00     0.029 A 
ATOM     49  N   UNL A   1      42.384  28.158  31.036  1.00  0.00    -0.354 N 
ATOM     50  N   UNL A   1      41.345  29.901  33.176  1.00  0.00    -0.248 NA
ATOM     51  C   UNL A   1      41.481  30.739  35.352  1.00  0.00     0.031 C 
ATOM     52  C   UNL A   1      44.241  27.006  31.433  1.00  0.00     0.029 A 
ATOM     53  C   UNL A   1      43.349  27.904  31.997  1.00  0.00     0.049 A 
ATOM     54  H   UNL A   1      41.607  28.751  31.159  1.00  0.00     0.167 HD
ATOM     55  C   UNL A   1      42.470  29.375  33.795  1.00  0.00     0.074 A 
ATOM     56  C   UNL A   1      42.519  29.946  35.126  1.00  0.00     0.031 C 
ATOM     57  C   UNL A   1      43.375  28.490  33.312  1.00  0.00     0.037 A 
BRANCH  44  58
ATOM     58  C   UNL A   1      42.320  26.697  27.489  1.00  0.00     0.057 A 
ATOM     59  C   UNL A   1      43.146  27.216  26.485  1.00  0.00     0.134 A 
ATOM     60  C   UNL A   1      41.903  25.366  27.360  1.00  0.00     0.134 A 
ATOM     61  F   UNL A   1      43.563  28.490  26.538  1.00  0.00    -0.206 F 
ATOM     62  C   UNL A   1      43.521  26.448  25.381  1.00  0.00     0.040 A 
ATOM     63  C   UNL A   1      42.293  24.580  26.273  1.00  0.00     0.040 A 
ATOM     64  F   UNL A   1      41.112  24.807  28.287  1.00  0.00    -0.206 F 
ATOM     65  C   UNL A   1      43.099  25.124  25.276  1.00  0.00     0.006 A 
ENDBRANCH  44  58
BRANCH  45  66
ATOM     66  C   UNL A   1      39.017  32.303  35.081  1.00  0.00     0.057 A 
ATOM     67  C   UNL A   1      38.249  31.723  36.096  1.00  0.00     0.134 A 
ATOM     68  C   UNL A   1      39.302  33.671  35.189  1.00  0.00     0.134 A 
ATOM     69  F   UNL A   1      37.921  30.424  36.035  1.00  0.00    -0.206 F 
ATOM     70  C   UNL A   1      37.779  32.473  37.176  1.00  0.00     0.040 A 
ATOM     71  C   UNL A   1      38.861  34.427  36.276  1.00  0.00     0.040 A 
ATOM     72  F   UNL A   1      40.034  34.286  34.250  1.00  0.00    -0.206 F 
ATOM     73  C   UNL A   1      38.093  33.828  37.272  1.00  0.00     0.006 A 
ENDBRANCH  45  66
BRANCH  57  74
ATOM     74  C   UNL A   1      44.504  28.111  34.222  1.00  0.00     0.057 A 
ATOM     75  C   UNL A   1      45.691  28.854  34.267  1.00  0.00     0.134 A 
ATOM     76  C   UNL A   1      44.390  27.012  35.080  1.00  0.00     0.134 A 
ATOM     77  F   UNL A   1      45.865  29.910  33.460  1.00  0.00    -0.206 F 
ATOM     78  C   UNL A   1      46.735  28.501  35.125  1.00  0.00     0.040 A 
ATOM     79  C   UNL A   1      45.418  26.662  35.955  1.00  0.00     0.040 A 
ATOM     80  F   UNL A   1      43.275  26.265  35.085  1.00  0.00    -0.206 F 
ATOM     81  C   UNL A   1      46.597  27.405  35.974  1.00  0.00     0.006 A 
ENDBRANCH  57  74
ENDBRANCH  31  32
ENDBRANCH  24  26
ENDBRANCH  23  24
ENDBRANCH  22  23
ENDBRANCH   1  22
TORSDOF 13
ENDMDL
