MODEL 1
REMARK VINA RESULT:     -11.8      0.000      0.000
REMARK SMILES O=C(OCCOC(=O)[C@@H]1CCCC[C@@H]1NS(=O)(=O)c1ccc2ccccc2c1)c1ccc(-c2c3nc(c(-c4c(F)cccc4F)c4ccc([nH]4)c(-c4c(F)cccc4F)c4nc(c(-c5c(F)cccc5F)c5ccc2[nH]5)C=C4)C=C3)cc1
REMARK SMILES IDX 5 1 4 2 3 3 2 4 1 5 29 6 30 7 82 8 31 9 81 10 32 11 33 12
REMARK SMILES IDX 34 13 75 14 35 15 80 16 74 17 76 18 36 19 79 20 73 21 72 22
REMARK SMILES IDX 37 24 63 25 46 26 62 27 47 28 50 29 61 30 77 31 48 32 49 33
REMARK SMILES IDX 60 35 78 36 51 37 38 38 39 39 44 40 40 41 41 42 43 43 45 44
REMARK SMILES IDX 42 45 64 46 65 47 70 48 66 49 67 50 69 51 71 52 68 53 52 54
REMARK SMILES IDX 53 55 58 56 54 57 55 58 57 59 59 60 56 61 6 62 7 63 8 64
REMARK SMILES IDX 9 65 10 66 14 67 11 68 13 69 12 70 15 71 16 73 17 74 18 75
REMARK SMILES IDX 19 76 20 77 28 78 21 79 27 80 22 81 26 82 23 83 25 84 24 85
REMARK H PARENT 76 23 50 34 15 72
REMARK Flexibility Score: inf
ROOT
ATOM      1  C   UNL A   1      38.092  21.282  25.632  1.00  0.00     0.274 C 
ENDROOT
BRANCH   1   2
ATOM      2  C   UNL A   1      38.832  20.009  25.177  1.00  0.00     0.275 C 
BRANCH   2   3
ATOM      3  O   UNL A   1      39.818  19.419  26.035  1.00  0.00    -0.458 OA
BRANCH   3   4
ATOM      4  C   UNL A   1      41.150  19.662  25.998  1.00  0.00     0.338 C 
ATOM      5  O   UNL A   1      41.961  18.773  25.763  1.00  0.00    -0.246 OA
BRANCH   4   6
ATOM      6  C   UNL A   1      41.637  20.972  26.485  1.00  0.00     0.060 A 
ATOM      7  C   UNL A   1      42.200  21.942  25.653  1.00  0.00     0.016 A 
ATOM      8  C   UNL A   1      41.500  21.232  27.854  1.00  0.00     0.016 A 
ATOM      9  C   UNL A   1      42.428  23.226  26.125  1.00  0.00     0.010 A 
ATOM     10  C   UNL A   1      41.808  22.496  28.353  1.00  0.00     0.010 A 
ATOM     11  C   UNL A   1      42.216  23.512  27.472  1.00  0.00    -0.014 A 
BRANCH  11  12
ATOM     12  C   UNL A   1      42.711  24.796  27.987  1.00  0.00     0.031 A 
ATOM     13  C   UNL A   1      41.665  25.839  28.211  1.00  0.00     0.074 A 
ATOM     14  C   UNL A   1      44.002  24.986  28.312  1.00  0.00     0.049 A 
ATOM     15  N   UNL A   1      41.781  27.042  28.693  1.00  0.00    -0.248 NA
ATOM     16  C   UNL A   1      40.291  25.461  27.833  1.00  0.00     0.031 C 
ATOM     17  C   UNL A   1      45.073  23.999  28.167  1.00  0.00     0.029 A 
ATOM     18  N   UNL A   1      44.631  26.079  28.844  1.00  0.00    -0.354 N 
ATOM     19  C   UNL A   1      40.494  27.560  28.675  1.00  0.00     0.074 A 
ATOM     20  C   UNL A   1      39.629  26.573  28.078  1.00  0.00     0.031 C 
ATOM     21  C   UNL A   1      46.233  24.542  28.582  1.00  0.00     0.029 A 
ATOM     22  C   UNL A   1      45.982  25.908  29.030  1.00  0.00     0.049 A 
ATOM     23  H   UNL A   1      44.159  26.913  29.073  1.00  0.00     0.167 HD
ATOM     24  C   UNL A   1      40.064  28.749  29.146  1.00  0.00     0.037 A 
ATOM     25  C   UNL A   1      46.896  26.770  29.519  1.00  0.00     0.037 A 
ATOM     26  C   UNL A   1      40.943  29.716  29.729  1.00  0.00     0.049 A 
ATOM     27  C   UNL A   1      46.406  28.114  30.001  1.00  0.00     0.074 A 
ATOM     28  C   UNL A   1      40.657  30.975  30.210  1.00  0.00     0.029 A 
ATOM     29  N   UNL A   1      42.307  29.507  29.902  1.00  0.00    -0.354 N 
ATOM     30  N   UNL A   1      45.181  28.590  30.006  1.00  0.00    -0.248 NA
ATOM     31  C   UNL A   1      47.408  29.031  30.558  1.00  0.00     0.031 C 
ATOM     32  C   UNL A   1      41.858  31.540  30.656  1.00  0.00     0.029 A 
ATOM     33  C   UNL A   1      42.883  30.619  30.480  1.00  0.00     0.049 A 
ATOM     34  H   UNL A   1      42.791  28.688  29.650  1.00  0.00     0.167 HD
ATOM     35  C   UNL A   1      45.259  29.848  30.588  1.00  0.00     0.074 A 
ATOM     36  C   UNL A   1      46.654  30.057  30.931  1.00  0.00     0.031 C 
ATOM     37  C   UNL A   1      44.278  30.754  30.820  1.00  0.00     0.037 A 
BRANCH  24  38
ATOM     38  C   UNL A   1      38.601  29.014  28.979  1.00  0.00     0.057 A 
ATOM     39  C   UNL A   1      38.088  29.557  27.790  1.00  0.00     0.134 A 
ATOM     40  C   UNL A   1      37.737  28.915  30.074  1.00  0.00     0.134 A 
ATOM     41  F   UNL A   1      38.886  29.729  26.723  1.00  0.00    -0.206 F 
ATOM     42  C   UNL A   1      36.786  30.051  27.720  1.00  0.00     0.040 A 
ATOM     43  C   UNL A   1      36.423  29.383  30.006  1.00  0.00     0.040 A 
ATOM     44  F   UNL A   1      38.173  28.426  31.245  1.00  0.00    -0.206 F 
ATOM     45  C   UNL A   1      35.952  29.972  28.832  1.00  0.00     0.006 A 
ENDBRANCH  24  38
BRANCH  25  46
ATOM     46  C   UNL A   1      48.334  26.398  29.595  1.00  0.00     0.057 A 
ATOM     47  C   UNL A   1      48.873  25.771  30.725  1.00  0.00     0.134 A 
ATOM     48  C   UNL A   1      49.215  26.682  28.543  1.00  0.00     0.134 A 
ATOM     49  F   UNL A   1      48.088  25.484  31.775  1.00  0.00    -0.206 F 
ATOM     50  C   UNL A   1      50.232  25.459  30.816  1.00  0.00     0.040 A 
ATOM     51  C   UNL A   1      50.574  26.359  28.612  1.00  0.00     0.040 A 
ATOM     52  F   UNL A   1      48.768  27.276  27.427  1.00  0.00    -0.206 F 
ATOM     53  C   UNL A   1      51.088  25.751  29.756  1.00  0.00     0.006 A 
ENDBRANCH  25  46
BRANCH  37  54
ATOM     54  C   UNL A   1      44.671  32.028  31.498  1.00  0.00     0.057 A 
ATOM     55  C   UNL A   1      45.065  33.152  30.765  1.00  0.00     0.134 A 
ATOM     56  C   UNL A   1      44.537  32.160  32.886  1.00  0.00     0.134 A 
ATOM     57  F   UNL A   1      45.217  33.078  29.435  1.00  0.00    -0.206 F 
ATOM     58  C   UNL A   1      45.310  34.372  31.392  1.00  0.00     0.040 A 
ATOM     59  C   UNL A   1      44.761  33.379  33.521  1.00  0.00     0.040 A 
ATOM     60  F   UNL A   1      44.153  31.115  33.635  1.00  0.00    -0.206 F 
ATOM     61  C   UNL A   1      45.145  34.491  32.772  1.00  0.00     0.006 A 
ENDBRANCH  37  54
ENDBRANCH  11  12
ENDBRANCH   4   6
ENDBRANCH   3   4
ENDBRANCH   2   3
ENDBRANCH   1   2
BRANCH   1  62
ATOM     62  O   UNL A   1      36.987  21.823  24.892  1.00  0.00    -0.462 OA
BRANCH  62  63
ATOM     63  C   UNL A   1      35.756  21.363  25.242  1.00  0.00     0.310 C 
ATOM     64  O   UNL A   1      35.328  20.260  24.946  1.00  0.00    -0.252 OA
BRANCH  63  65
ATOM     65  C   UNL A   1      35.006  22.348  26.122  1.00  0.00     0.117 C 
ATOM     66  C   UNL A   1      34.223  21.529  27.137  1.00  0.00     0.017 C 
ATOM     67  C   UNL A   1      34.140  23.353  25.342  1.00  0.00     0.084 C 
ATOM     68  C   UNL A   1      33.308  22.326  28.041  1.00  0.00     0.001 C 
ATOM     69  C   UNL A   1      33.173  24.106  26.287  1.00  0.00     0.021 C 
ATOM     70  C   UNL A   1      32.376  23.187  27.216  1.00  0.00     0.002 C 
BRANCH  67  71
ATOM     71  N   UNL A   1      33.336  22.738  24.280  1.00  0.00    -0.207 NA
ATOM     72  H   UNL A   1      32.361  22.895  24.535  1.00  0.00     0.141 HD
BRANCH  71  73
ATOM     73  S   UNL A   1      33.478  23.193  22.672  1.00  0.00     0.240 S 
ATOM     74  O   UNL A   1      34.897  23.281  22.398  1.00  0.00    -0.207 OA
ATOM     75  O   UNL A   1      32.610  22.339  21.891  1.00  0.00    -0.207 OA
BRANCH  73  76
ATOM     76  C   UNL A   1      32.814  24.845  22.614  1.00  0.00     0.083 A 
ATOM     77  C   UNL A   1      33.657  25.907  22.273  1.00  0.00     0.022 A 
ATOM     78  C   UNL A   1      31.465  25.076  22.903  1.00  0.00     0.030 A 
ATOM     79  C   UNL A   1      33.167  27.216  22.298  1.00  0.00     0.010 A 
ATOM     80  C   UNL A   1      30.966  26.392  22.938  1.00  0.00    -0.017 A 
ATOM     81  C   UNL A   1      31.833  27.476  22.644  1.00  0.00    -0.018 A 
ATOM     82  C   UNL A   1      29.645  26.667  23.329  1.00  0.00     0.009 A 
ATOM     83  C   UNL A   1      31.358  28.793  22.767  1.00  0.00     0.009 A 
ATOM     84  C   UNL A   1      29.196  27.984  23.466  1.00  0.00     0.001 A 
ATOM     85  C   UNL A   1      30.053  29.045  23.191  1.00  0.00     0.001 A 
ENDBRANCH  73  76
ENDBRANCH  71  73
ENDBRANCH  67  71
ENDBRANCH  63  65
ENDBRANCH  62  63
ENDBRANCH   1  62
TORSDOF 14
ENDMDL
MODEL 2
REMARK VINA RESULT:     -11.8      1.394      6.537
REMARK SMILES O=C(OCCOC(=O)[C@@H]1CCCC[C@@H]1NS(=O)(=O)c1ccc2ccccc2c1)c1ccc(-c2c3nc(c(-c4c(F)cccc4F)c4ccc([nH]4)c(-c4c(F)cccc4F)c4nc(c(-c5c(F)cccc5F)c5ccc2[nH]5)C=C4)C=C3)cc1
REMARK SMILES IDX 5 1 4 2 3 3 2 4 1 5 29 6 30 7 82 8 31 9 81 10 32 11 33 12
REMARK SMILES IDX 34 13 75 14 35 15 80 16 74 17 76 18 36 19 79 20 73 21 72 22
REMARK SMILES IDX 37 24 63 25 46 26 62 27 47 28 50 29 61 30 77 31 48 32 49 33
REMARK SMILES IDX 60 35 78 36 51 37 38 38 39 39 44 40 40 41 41 42 43 43 45 44
REMARK SMILES IDX 42 45 64 46 65 47 70 48 66 49 67 50 69 51 71 52 68 53 52 54
REMARK SMILES IDX 53 55 58 56 54 57 55 58 57 59 59 60 56 61 6 62 7 63 8 64
REMARK SMILES IDX 9 65 10 66 14 67 11 68 13 69 12 70 15 71 16 73 17 74 18 75
REMARK SMILES IDX 19 76 20 77 28 78 21 79 27 80 22 81 26 82 23 83 25 84 24 85
REMARK H PARENT 76 23 50 34 15 72
REMARK Flexibility Score: inf
ROOT
ATOM      1  C   UNL A   1      38.550  20.922  25.344  1.00  0.00     0.274 C 
ENDROOT
BRANCH   1   2
ATOM      2  C   UNL A   1      39.185  19.574  25.736  1.00  0.00     0.275 C 
BRANCH   2   3
ATOM      3  O   UNL A   1      40.525  19.277  25.322  1.00  0.00    -0.458 OA
BRANCH   3   4
ATOM      4  C   UNL A   1      41.647  19.499  26.047  1.00  0.00     0.338 C 
ATOM      5  O   UNL A   1      42.376  18.580  26.405  1.00  0.00    -0.246 OA
BRANCH   4   6
ATOM      6  C   UNL A   1      41.859  20.850  26.614  1.00  0.00     0.060 A 
ATOM      7  C   UNL A   1      41.663  21.159  27.961  1.00  0.00     0.016 A 
ATOM      8  C   UNL A   1      42.293  21.848  25.733  1.00  0.00     0.016 A 
ATOM      9  C   UNL A   1      42.090  22.375  28.473  1.00  0.00     0.010 A 
ATOM     10  C   UNL A   1      42.644  23.103  26.227  1.00  0.00     0.010 A 
ATOM     11  C   UNL A   1      42.599  23.344  27.609  1.00  0.00    -0.014 A 
BRANCH  11  12
ATOM     12  C   UNL A   1      42.796  24.700  28.141  1.00  0.00     0.031 A 
ATOM     13  C   UNL A   1      44.216  25.080  28.407  1.00  0.00     0.074 A 
ATOM     14  C   UNL A   1      41.776  25.562  28.295  1.00  0.00     0.049 A 
ATOM     15  N   UNL A   1      44.709  26.208  28.830  1.00  0.00    -0.248 NA
ATOM     16  C   UNL A   1      45.220  24.029  28.156  1.00  0.00     0.031 C 
ATOM     17  C   UNL A   1      40.368  25.279  28.011  1.00  0.00     0.029 A 
ATOM     18  N   UNL A   1      41.771  26.863  28.721  1.00  0.00    -0.354 N 
ATOM     19  C   UNL A   1      46.079  25.997  28.894  1.00  0.00     0.074 A 
ATOM     20  C   UNL A   1      46.333  24.625  28.532  1.00  0.00     0.031 C 
ATOM     21  C   UNL A   1      39.633  26.371  28.293  1.00  0.00     0.029 A 
ATOM     22  C   UNL A   1      40.519  27.430  28.765  1.00  0.00     0.049 A 
ATOM     23  H   UNL A   1      42.589  27.349  28.974  1.00  0.00     0.167 HD
ATOM     24  C   UNL A   1      47.048  26.885  29.199  1.00  0.00     0.037 A 
ATOM     25  C   UNL A   1      40.154  28.672  29.139  1.00  0.00     0.037 A 
ATOM     26  C   UNL A   1      46.771  28.241  29.561  1.00  0.00     0.049 A 
ATOM     27  C   UNL A   1      41.247  29.641  29.521  1.00  0.00     0.074 A 
ATOM     28  C   UNL A   1      47.646  29.239  29.935  1.00  0.00     0.029 A 
ATOM     29  N   UNL A   1      45.490  28.781  29.593  1.00  0.00    -0.354 N 
ATOM     30  N   UNL A   1      42.546  29.445  29.554  1.00  0.00    -0.248 NA
ATOM     31  C   UNL A   1      40.835  30.998  29.898  1.00  0.00     0.031 C 
ATOM     32  C   UNL A   1      46.888  30.382  30.215  1.00  0.00     0.029 A 
ATOM     33  C   UNL A   1      45.546  30.102  29.986  1.00  0.00     0.049 A 
ATOM     34  H   UNL A   1      44.665  28.293  29.369  1.00  0.00     0.167 HD
ATOM     35  C   UNL A   1      43.108  30.656  29.929  1.00  0.00     0.074 A 
ATOM     36  C   UNL A   1      42.007  31.586  30.104  1.00  0.00     0.031 C 
ATOM     37  C   UNL A   1      44.411  30.982  30.117  1.00  0.00     0.037 A 
BRANCH  24  38
ATOM     38  C   UNL A   1      48.443  26.344  29.177  1.00  0.00     0.057 A 
ATOM     39  C   UNL A   1      49.045  25.828  30.336  1.00  0.00     0.134 A 
ATOM     40  C   UNL A   1      49.251  26.524  28.050  1.00  0.00     0.134 A 
ATOM     41  F   UNL A   1      48.332  25.687  31.465  1.00  0.00    -0.206 F 
ATOM     42  C   UNL A   1      50.415  25.573  30.390  1.00  0.00     0.040 A 
ATOM     43  C   UNL A   1      50.619  26.247  28.087  1.00  0.00     0.040 A 
ATOM     44  F   UNL A   1      48.740  27.035  26.919  1.00  0.00    -0.206 F 
ATOM     45  C   UNL A   1      51.207  25.789  29.266  1.00  0.00     0.006 A 
ENDBRANCH  24  38
BRANCH  25  46
ATOM     46  C   UNL A   1      38.722  29.075  29.156  1.00  0.00     0.057 A 
ATOM     47  C   UNL A   1      38.094  29.606  28.024  1.00  0.00     0.134 A 
ATOM     48  C   UNL A   1      37.948  28.959  30.319  1.00  0.00     0.134 A 
ATOM     49  F   UNL A   1      38.781  29.759  26.881  1.00  0.00    -0.206 F 
ATOM     50  C   UNL A   1      36.760  30.025  28.049  1.00  0.00     0.040 A 
ATOM     51  C   UNL A   1      36.608  29.356  30.354  1.00  0.00     0.040 A 
ATOM     52  F   UNL A   1      38.482  28.453  31.440  1.00  0.00    -0.206 F 
ATOM     53  C   UNL A   1      36.012  29.899  29.217  1.00  0.00     0.006 A 
ENDBRANCH  25  46
BRANCH  37  54
ATOM     54  C   UNL A   1      44.714  32.397  30.497  1.00  0.00     0.057 A 
ATOM     55  C   UNL A   1      44.879  33.391  29.529  1.00  0.00     0.134 A 
ATOM     56  C   UNL A   1      44.721  32.780  31.844  1.00  0.00     0.134 A 
ATOM     57  F   UNL A   1      44.889  33.077  28.225  1.00  0.00    -0.206 F 
ATOM     58  C   UNL A   1      45.037  34.729  29.888  1.00  0.00     0.040 A 
ATOM     59  C   UNL A   1      44.859  34.116  32.214  1.00  0.00     0.040 A 
ATOM     60  F   UNL A   1      44.558  31.867  32.813  1.00  0.00    -0.206 F 
ATOM     61  C   UNL A   1      45.014  35.095  31.233  1.00  0.00     0.006 A 
ENDBRANCH  37  54
ENDBRANCH  11  12
ENDBRANCH   4   6
ENDBRANCH   3   4
ENDBRANCH   2   3
ENDBRANCH   1   2
BRANCH   1  62
ATOM     62  O   UNL A   1      37.257  21.000  24.722  1.00  0.00    -0.462 OA
BRANCH  62  63
ATOM     63  C   UNL A   1      36.349  21.802  25.340  1.00  0.00     0.310 C 
ATOM     64  O   UNL A   1      36.569  22.955  25.674  1.00  0.00    -0.252 OA
BRANCH  63  65
ATOM     65  C   UNL A   1      34.996  21.128  25.489  1.00  0.00     0.117 C 
ATOM     66  C   UNL A   1      35.110  19.758  24.837  1.00  0.00     0.017 C 
ATOM     67  C   UNL A   1      33.817  21.965  24.963  1.00  0.00     0.084 C 
ATOM     68  C   UNL A   1      33.822  18.965  24.774  1.00  0.00     0.001 C 
ATOM     69  C   UNL A   1      32.533  21.109  24.853  1.00  0.00     0.021 C 
ATOM     70  C   UNL A   1      32.734  19.784  24.112  1.00  0.00     0.002 C 
BRANCH  67  71
ATOM     71  N   UNL A   1      34.064  22.570  23.649  1.00  0.00    -0.207 NA
ATOM     72  H   UNL A   1      34.163  21.795  22.994  1.00  0.00     0.141 HD
BRANCH  71  73
ATOM     73  S   UNL A   1      32.988  23.645  22.942  1.00  0.00     0.240 S 
ATOM     74  O   UNL A   1      33.749  24.400  21.969  1.00  0.00    -0.207 OA
ATOM     75  O   UNL A   1      31.804  22.904  22.566  1.00  0.00    -0.207 OA
BRANCH  73  76
ATOM     76  C   UNL A   1      32.539  24.759  24.257  1.00  0.00     0.083 A 
ATOM     77  C   UNL A   1      31.268  24.659  24.832  1.00  0.00     0.022 A 
ATOM     78  C   UNL A   1      33.448  25.720  24.712  1.00  0.00     0.030 A 
ATOM     79  C   UNL A   1      30.877  25.575  25.813  1.00  0.00     0.010 A 
ATOM     80  C   UNL A   1      33.058  26.652  25.693  1.00  0.00    -0.017 A 
ATOM     81  C   UNL A   1      31.751  26.585  26.240  1.00  0.00    -0.018 A 
ATOM     82  C   UNL A   1      33.909  27.697  26.094  1.00  0.00     0.009 A 
ATOM     83  C   UNL A   1      31.333  27.569  27.152  1.00  0.00     0.009 A 
ATOM     84  C   UNL A   1      33.468  28.678  26.987  1.00  0.00     0.001 A 
ATOM     85  C   UNL A   1      32.181  28.618  27.510  1.00  0.00     0.001 A 
ENDBRANCH  73  76
ENDBRANCH  71  73
ENDBRANCH  67  71
ENDBRANCH  63  65
ENDBRANCH  62  63
ENDBRANCH   1  62
TORSDOF 14
ENDMDL
MODEL 3
REMARK VINA RESULT:     -11.8      1.386      2.013
REMARK SMILES O=C(OCCOC(=O)[C@@H]1CCCC[C@@H]1NS(=O)(=O)c1ccc2ccccc2c1)c1ccc(-c2c3nc(c(-c4c(F)cccc4F)c4ccc([nH]4)c(-c4c(F)cccc4F)c4nc(c(-c5c(F)cccc5F)c5ccc2[nH]5)C=C4)C=C3)cc1
REMARK SMILES IDX 5 1 4 2 3 3 2 4 1 5 29 6 30 7 82 8 31 9 81 10 32 11 33 12
REMARK SMILES IDX 34 13 75 14 35 15 80 16 74 17 76 18 36 19 79 20 73 21 72 22
REMARK SMILES IDX 37 24 63 25 46 26 62 27 47 28 50 29 61 30 77 31 48 32 49 33
REMARK SMILES IDX 60 35 78 36 51 37 38 38 39 39 44 40 40 41 41 42 43 43 45 44
REMARK SMILES IDX 42 45 64 46 65 47 70 48 66 49 67 50 69 51 71 52 68 53 52 54
REMARK SMILES IDX 53 55 58 56 54 57 55 58 57 59 59 60 56 61 6 62 7 63 8 64
REMARK SMILES IDX 9 65 10 66 14 67 11 68 13 69 12 70 15 71 16 73 17 74 18 75
REMARK SMILES IDX 19 76 20 77 28 78 21 79 27 80 22 81 26 82 23 83 25 84 24 85
REMARK H PARENT 76 23 50 34 15 72
REMARK Flexibility Score: inf
ROOT
ATOM      1  C   UNL A   1      38.267  21.178  25.388  1.00  0.00     0.274 C 
ENDROOT
BRANCH   1   2
ATOM      2  C   UNL A   1      38.878  19.767  25.277  1.00  0.00     0.275 C 
BRANCH   2   3
ATOM      3  O   UNL A   1      39.895  19.362  26.202  1.00  0.00    -0.458 OA
BRANCH   3   4
ATOM      4  C   UNL A   1      41.220  19.615  26.086  1.00  0.00     0.338 C 
ATOM      5  O   UNL A   1      42.026  18.728  25.825  1.00  0.00    -0.246 OA
BRANCH   4   6
ATOM      6  C   UNL A   1      41.720  20.940  26.519  1.00  0.00     0.060 A 
ATOM      7  C   UNL A   1      42.230  21.895  25.638  1.00  0.00     0.016 A 
ATOM      8  C   UNL A   1      41.653  21.228  27.888  1.00  0.00     0.016 A 
ATOM      9  C   UNL A   1      42.472  23.191  26.070  1.00  0.00     0.010 A 
ATOM     10  C   UNL A   1      41.976  22.505  28.343  1.00  0.00     0.010 A 
ATOM     11  C   UNL A   1      42.327  23.504  27.420  1.00  0.00    -0.014 A 
BRANCH  11  12
ATOM     12  C   UNL A   1      42.838  24.803  27.881  1.00  0.00     0.031 A 
ATOM     13  C   UNL A   1      41.794  25.836  28.159  1.00  0.00     0.074 A 
ATOM     14  C   UNL A   1      44.145  25.016  28.115  1.00  0.00     0.049 A 
ATOM     15  N   UNL A   1      41.925  27.048  28.614  1.00  0.00    -0.248 NA
ATOM     16  C   UNL A   1      40.403  25.433  27.881  1.00  0.00     0.031 C 
ATOM     17  C   UNL A   1      45.218  24.041  27.913  1.00  0.00     0.029 A 
ATOM     18  N   UNL A   1      44.792  26.126  28.587  1.00  0.00    -0.354 N 
ATOM     19  C   UNL A   1      40.632  27.548  28.675  1.00  0.00     0.074 A 
ATOM     20  C   UNL A   1      39.743  26.540  28.153  1.00  0.00     0.031 C 
ATOM     21  C   UNL A   1      46.395  24.606  28.239  1.00  0.00     0.029 A 
ATOM     22  C   UNL A   1      46.156  25.976  28.683  1.00  0.00     0.049 A 
ATOM     23  H   UNL A   1      44.325  26.956  28.834  1.00  0.00     0.167 HD
ATOM     24  C   UNL A   1      40.218  28.738  29.156  1.00  0.00     0.037 A 
ATOM     25  C   UNL A   1      47.087  26.857  29.096  1.00  0.00     0.037 A 
ATOM     26  C   UNL A   1      41.121  29.726  29.664  1.00  0.00     0.049 A 
ATOM     27  C   UNL A   1      46.612  28.202  29.590  1.00  0.00     0.074 A 
ATOM     28  C   UNL A   1      40.849  30.989  30.143  1.00  0.00     0.029 A 
ATOM     29  N   UNL A   1      42.496  29.539  29.747  1.00  0.00    -0.354 N 
ATOM     30  N   UNL A   1      45.383  28.662  29.670  1.00  0.00    -0.248 NA
ATOM     31  C   UNL A   1      47.636  29.141  30.064  1.00  0.00     0.031 C 
ATOM     32  C   UNL A   1      42.069  31.578  30.499  1.00  0.00     0.029 A 
ATOM     33  C   UNL A   1      43.093  30.667  30.268  1.00  0.00     0.049 A 
ATOM     34  H   UNL A   1      42.973  28.722  29.475  1.00  0.00     0.167 HD
ATOM     35  C   UNL A   1      45.482  29.930  30.226  1.00  0.00     0.074 A 
ATOM     36  C   UNL A   1      46.894  30.163  30.471  1.00  0.00     0.031 C 
ATOM     37  C   UNL A   1      44.506  30.827  30.510  1.00  0.00     0.037 A 
BRANCH  24  38
ATOM     38  C   UNL A   1      38.743  28.981  29.084  1.00  0.00     0.057 A 
ATOM     39  C   UNL A   1      38.147  29.521  27.934  1.00  0.00     0.134 A 
ATOM     40  C   UNL A   1      37.953  28.864  30.232  1.00  0.00     0.134 A 
ATOM     41  F   UNL A   1      38.872  29.710  26.819  1.00  0.00    -0.206 F 
ATOM     42  C   UNL A   1      36.835  29.995  27.950  1.00  0.00     0.040 A 
ATOM     43  C   UNL A   1      36.631  29.311  30.250  1.00  0.00     0.040 A 
ATOM     44  F   UNL A   1      38.471  28.376  31.370  1.00  0.00    -0.206 F 
ATOM     45  C   UNL A   1      36.076  29.898  29.113  1.00  0.00     0.006 A 
ENDBRANCH  24  38
BRANCH  25  46
ATOM     46  C   UNL A   1      48.533  26.506  29.080  1.00  0.00     0.057 A 
ATOM     47  C   UNL A   1      49.355  26.823  27.993  1.00  0.00     0.134 A 
ATOM     48  C   UNL A   1      49.127  25.824  30.151  1.00  0.00     0.134 A 
ATOM     49  F   UNL A   1      48.848  27.463  26.928  1.00  0.00    -0.206 F 
ATOM     50  C   UNL A   1      50.704  26.457  27.958  1.00  0.00     0.040 A 
ATOM     51  C   UNL A   1      50.479  25.468  30.139  1.00  0.00     0.040 A 
ATOM     52  F   UNL A   1      48.401  25.494  31.229  1.00  0.00    -0.206 F 
ATOM     53  C   UNL A   1      51.270  25.779  29.035  1.00  0.00     0.006 A 
ENDBRANCH  25  46
BRANCH  37  54
ATOM     54  C   UNL A   1      44.925  32.117  31.141  1.00  0.00     0.057 A 
ATOM     55  C   UNL A   1      45.214  33.245  30.368  1.00  0.00     0.134 A 
ATOM     56  C   UNL A   1      44.922  32.255  32.535  1.00  0.00     0.134 A 
ATOM     57  F   UNL A   1      45.240  33.165  29.030  1.00  0.00    -0.206 F 
ATOM     58  C   UNL A   1      45.483  34.477  30.962  1.00  0.00     0.040 A 
ATOM     59  C   UNL A   1      45.170  33.485  33.139  1.00  0.00     0.040 A 
ATOM     60  F   UNL A   1      44.642  31.206  33.323  1.00  0.00    -0.206 F 
ATOM     61  C   UNL A   1      45.448  34.602  32.351  1.00  0.00     0.006 A 
ENDBRANCH  37  54
ENDBRANCH  11  12
ENDBRANCH   4   6
ENDBRANCH   3   4
ENDBRANCH   2   3
ENDBRANCH   1   2
BRANCH   1  62
ATOM     62  O   UNL A   1      37.016  21.514  24.769  1.00  0.00    -0.462 OA
BRANCH  62  63
ATOM     63  C   UNL A   1      36.109  22.141  25.567  1.00  0.00     0.310 C 
ATOM     64  O   UNL A   1      36.314  23.200  26.135  1.00  0.00    -0.252 OA
BRANCH  63  65
ATOM     65  C   UNL A   1      34.776  21.413  25.599  1.00  0.00     0.117 C 
ATOM     66  C   UNL A   1      34.985  20.072  24.912  1.00  0.00     0.017 C 
ATOM     67  C   UNL A   1      33.604  22.226  25.021  1.00  0.00     0.084 C 
ATOM     68  C   UNL A   1      33.736  19.237  24.734  1.00  0.00     0.001 C 
ATOM     69  C   UNL A   1      32.363  21.329  24.795  1.00  0.00     0.021 C 
ATOM     70  C   UNL A   1      32.665  20.040  24.026  1.00  0.00     0.002 C 
BRANCH  67  71
ATOM     71  N   UNL A   1      33.916  22.886  23.749  1.00  0.00    -0.207 NA
ATOM     72  H   UNL A   1      34.017  22.141  23.060  1.00  0.00     0.141 HD
BRANCH  71  73
ATOM     73  S   UNL A   1      32.897  24.026  23.058  1.00  0.00     0.240 S 
ATOM     74  O   UNL A   1      33.679  24.714  22.053  1.00  0.00    -0.207 OA
ATOM     75  O   UNL A   1      31.654  23.365  22.726  1.00  0.00    -0.207 OA
BRANCH  73  76
ATOM     76  C   UNL A   1      32.565  25.183  24.370  1.00  0.00     0.083 A 
ATOM     77  C   UNL A   1      31.446  24.988  25.186  1.00  0.00     0.022 A 
ATOM     78  C   UNL A   1      33.416  26.273  24.585  1.00  0.00     0.030 A 
ATOM     79  C   UNL A   1      31.133  25.930  26.170  1.00  0.00     0.010 A 
ATOM     80  C   UNL A   1      33.103  27.230  25.568  1.00  0.00    -0.017 A 
ATOM     81  C   UNL A   1      31.939  27.062  26.361  1.00  0.00    -0.018 A 
ATOM     82  C   UNL A   1      33.877  28.392  25.737  1.00  0.00     0.009 A 
ATOM     83  C   UNL A   1      31.579  28.062  27.280  1.00  0.00     0.009 A 
ATOM     84  C   UNL A   1      33.491  29.385  26.641  1.00  0.00     0.001 A 
ATOM     85  C   UNL A   1      32.341  29.225  27.407  1.00  0.00     0.001 A 
ENDBRANCH  73  76
ENDBRANCH  71  73
ENDBRANCH  67  71
ENDBRANCH  63  65
ENDBRANCH  62  63
ENDBRANCH   1  62
TORSDOF 14
ENDMDL
