MODEL 1
REMARK VINA RESULT:     -11.3      0.000      0.000
REMARK SMILES Cc1ccc(N[C@H](CC(=O)c2ccccc2)C(=O)OCCOC(=O)c2ccc(-c3c4nc(c(-c5c(F)cccc5F)c5ccc([nH]5)c(-c5c(F)cccc5F)c5nc(c(-c6c(F)cccc6F)c6ccc3[nH]6)C=C5)C=C4)cc2)cc1Cl
REMARK SMILES IDX 20 1 19 2 17 3 18 4 7 5 6 6 5 8 1 9 2 10 3 11 80 12 4 13
REMARK SMILES IDX 79 14 81 15 8 16 9 17 10 18 11 19 12 20 16 21 13 22 15 23
REMARK SMILES IDX 14 24 21 25 22 26 23 27 24 28 25 29 26 30 78 31 27 32 77 33
REMARK SMILES IDX 28 34 29 35 30 36 71 37 31 38 76 39 70 40 72 41 32 42 75 43
REMARK SMILES IDX 69 44 68 45 33 47 59 48 42 49 58 50 43 51 46 52 57 53 73 54
REMARK SMILES IDX 44 55 45 56 56 58 74 59 47 60 34 61 35 62 40 63 36 64 37 65
REMARK SMILES IDX 39 66 41 67 38 68 60 69 61 70 66 71 62 72 63 73 65 74 67 75
REMARK SMILES IDX 64 76 48 77 49 78 54 79 50 80 51 81 53 82 55 83 52 84
REMARK H PARENT 6 7 72 46 46 57
REMARK Flexibility Score: inf
ROOT
ATOM      1  C   UNL A   1      35.142  20.993  24.639  1.00  0.00     0.274 C 
ENDROOT
BRANCH   1   2
ATOM      2  O   UNL A   1      35.064  22.429  24.714  1.00  0.00    -0.461 OA
BRANCH   2   3
ATOM      3  C   UNL A   1      35.099  23.102  23.530  1.00  0.00     0.329 C 
ATOM      4  O   UNL A   1      35.943  22.933  22.654  1.00  0.00    -0.250 OA
BRANCH   3   5
ATOM      5  C   UNL A   1      34.029  24.215  23.445  1.00  0.00     0.197 C 
BRANCH   5   6
ATOM      6  N   UNL A   1      33.306  24.223  24.740  1.00  0.00    -0.372 N 
ATOM      7  H   UNL A   1      33.089  23.354  25.148  1.00  0.00     0.161 HD
BRANCH   6   8
ATOM      8  C   UNL A   1      32.914  25.364  25.419  1.00  0.00     0.036 A 
ATOM      9  C   UNL A   1      31.590  28.923  27.525  1.00  0.00     0.046 C 
ATOM     10  C   UNL A   1      32.063  27.704  26.787  1.00  0.00    -0.032 A 
ATOM     11  C   UNL A   1      31.162  26.670  26.502  1.00  0.00     0.007 A 
ATOM     12  C   UNL A   1      33.398  27.540  26.399  1.00  0.00     0.046 A 
ATOM     13  C   UNL A   1      31.586  25.516  25.832  1.00  0.00     0.026 A 
ATOM     14  C   UNL A   1      33.809  26.392  25.714  1.00  0.00     0.046 A 
ATOM     15  Cl  UNL A   1      34.600  28.733  26.751  1.00  0.00    -0.084 Cl
ENDBRANCH   6   8
ENDBRANCH   5   6
BRANCH   5  16
ATOM     16  C   UNL A   1      33.184  24.066  22.181  1.00  0.00     0.118 C 
BRANCH  16  17
ATOM     17  C   UNL A   1      32.984  25.324  21.349  1.00  0.00     0.165 C 
ATOM     18  O   UNL A   1      33.062  25.305  20.121  1.00  0.00    -0.294 OA
BRANCH  17  19
ATOM     19  C   UNL A   1      32.568  26.598  21.969  1.00  0.00     0.018 A 
ATOM     20  C   UNL A   1      33.544  27.566  22.233  1.00  0.00     0.012 A 
ATOM     21  C   UNL A   1      31.255  26.785  22.405  1.00  0.00     0.012 A 
ATOM     22  C   UNL A   1      33.184  28.752  22.876  1.00  0.00     0.001 A 
ATOM     23  C   UNL A   1      30.899  27.977  23.037  1.00  0.00     0.001 A 
ATOM     24  C   UNL A   1      31.861  28.961  23.266  1.00  0.00     0.000 A 
ENDBRANCH  17  19
ENDBRANCH  16  17
ENDBRANCH   5  16
ENDBRANCH   3   5
ENDBRANCH   2   3
ENDBRANCH   1   2
BRANCH   1  25
ATOM     25  C   UNL A   1      36.535  20.479  25.004  1.00  0.00     0.275 C 
BRANCH  25  26
ATOM     26  O   UNL A   1      37.259  21.447  25.786  1.00  0.00    -0.458 OA
BRANCH  26  27
ATOM     27  C   UNL A   1      38.570  21.175  25.967  1.00  0.00     0.338 C 
ATOM     28  O   UNL A   1      39.164  20.151  25.669  1.00  0.00    -0.246 OA
BRANCH  27  29
ATOM     29  C   UNL A   1      39.244  22.364  26.500  1.00  0.00     0.060 A 
ATOM     30  C   UNL A   1      38.756  23.626  26.151  1.00  0.00     0.016 A 
ATOM     31  C   UNL A   1      40.404  22.234  27.265  1.00  0.00     0.016 A 
ATOM     32  C   UNL A   1      39.431  24.772  26.564  1.00  0.00     0.010 A 
ATOM     33  C   UNL A   1      41.078  23.384  27.682  1.00  0.00     0.010 A 
ATOM     34  C   UNL A   1      40.602  24.658  27.325  1.00  0.00    -0.014 A 
BRANCH  34  35
ATOM     35  C   UNL A   1      41.364  25.871  27.701  1.00  0.00     0.031 A 
ATOM     36  C   UNL A   1      40.705  26.943  28.519  1.00  0.00     0.074 A 
ATOM     37  C   UNL A   1      42.643  26.009  27.310  1.00  0.00     0.049 A 
ATOM     38  N   UNL A   1      41.157  28.124  28.852  1.00  0.00    -0.248 NA
ATOM     39  C   UNL A   1      39.357  26.645  29.027  1.00  0.00     0.031 C 
ATOM     40  C   UNL A   1      43.404  25.022  26.544  1.00  0.00     0.029 A 
ATOM     41  N   UNL A   1      43.524  27.044  27.496  1.00  0.00    -0.354 N 
ATOM     42  C   UNL A   1      40.146  28.720  29.593  1.00  0.00     0.074 A 
ATOM     43  C   UNL A   1      39.050  27.774  29.650  1.00  0.00     0.031 C 
ATOM     44  C   UNL A   1      44.637  25.504  26.315  1.00  0.00     0.029 A 
ATOM     45  C   UNL A   1      44.737  26.846  26.884  1.00  0.00     0.049 A 
ATOM     46  H   UNL A   1      43.308  27.850  28.017  1.00  0.00     0.167 HD
ATOM     47  C   UNL A   1      40.133  29.943  30.175  1.00  0.00     0.037 A 
ATOM     48  C   UNL A   1      45.797  27.667  26.768  1.00  0.00     0.037 A 
ATOM     49  C   UNL A   1      41.226  30.878  30.127  1.00  0.00     0.049 A 
ATOM     50  C   UNL A   1      45.744  29.036  27.385  1.00  0.00     0.074 A 
ATOM     51  C   UNL A   1      41.305  32.144  30.680  1.00  0.00     0.029 A 
ATOM     52  N   UNL A   1      42.436  30.643  29.492  1.00  0.00    -0.354 N 
ATOM     53  N   UNL A   1      44.774  29.598  28.064  1.00  0.00    -0.248 NA
ATOM     54  C   UNL A   1      46.931  29.887  27.216  1.00  0.00     0.031 C 
ATOM     55  C   UNL A   1      42.555  32.686  30.358  1.00  0.00     0.029 A 
ATOM     56  C   UNL A   1      43.264  31.743  29.631  1.00  0.00     0.049 A 
ATOM     57  H   UNL A   1      42.670  29.816  29.012  1.00  0.00     0.167 HD
ATOM     58  C   UNL A   1      45.234  30.861  28.411  1.00  0.00     0.074 A 
ATOM     59  C   UNL A   1      46.578  30.978  27.883  1.00  0.00     0.031 C 
ATOM     60  C   UNL A   1      44.599  31.839  29.101  1.00  0.00     0.037 A 
BRANCH  47  61
ATOM     61  C   UNL A   1      38.884  30.346  30.897  1.00  0.00     0.057 A 
ATOM     62  C   UNL A   1      38.660  29.990  32.233  1.00  0.00     0.134 A 
ATOM     63  C   UNL A   1      37.909  31.120  30.259  1.00  0.00     0.134 A 
ATOM     64  F   UNL A   1      39.552  29.238  32.894  1.00  0.00    -0.206 F 
ATOM     65  C   UNL A   1      37.499  30.377  32.904  1.00  0.00     0.040 A 
ATOM     66  C   UNL A   1      36.752  31.530  30.925  1.00  0.00     0.040 A 
ATOM     67  F   UNL A   1      38.067  31.496  28.981  1.00  0.00    -0.206 F 
ATOM     68  C   UNL A   1      36.544  31.155  32.251  1.00  0.00     0.006 A 
ENDBRANCH  47  61
BRANCH  48  69
ATOM     69  C   UNL A   1      46.992  27.225  26.009  1.00  0.00     0.057 A 
ATOM     70  C   UNL A   1      48.062  26.591  26.648  1.00  0.00     0.134 A 
ATOM     71  C   UNL A   1      47.090  27.432  24.628  1.00  0.00     0.134 A 
ATOM     72  F   UNL A   1      48.032  26.387  27.973  1.00  0.00    -0.206 F 
ATOM     73  C   UNL A   1      49.194  26.183  25.941  1.00  0.00     0.040 A 
ATOM     74  C   UNL A   1      48.207  27.011  23.906  1.00  0.00     0.040 A 
ATOM     75  F   UNL A   1      46.096  28.035  23.961  1.00  0.00    -0.206 F 
ATOM     76  C   UNL A   1      49.266  26.389  24.565  1.00  0.00     0.006 A 
ENDBRANCH  48  69
BRANCH  60  77
ATOM     77  C   UNL A   1      45.360  33.107  29.340  1.00  0.00     0.057 A 
ATOM     78  C   UNL A   1      45.274  34.191  28.461  1.00  0.00     0.134 A 
ATOM     79  C   UNL A   1      46.162  33.254  30.480  1.00  0.00     0.134 A 
ATOM     80  F   UNL A   1      44.533  34.104  27.345  1.00  0.00    -0.206 F 
ATOM     81  C   UNL A   1      45.972  35.376  28.696  1.00  0.00     0.040 A 
ATOM     82  C   UNL A   1      46.850  34.440  30.735  1.00  0.00     0.040 A 
ATOM     83  F   UNL A   1      46.281  32.252  31.363  1.00  0.00    -0.206 F 
ATOM     84  C   UNL A   1      46.759  35.505  29.840  1.00  0.00     0.006 A 
ENDBRANCH  60  77
ENDBRANCH  34  35
ENDBRANCH  27  29
ENDBRANCH  26  27
ENDBRANCH  25  26
ENDBRANCH   1  25
TORSDOF 16
ENDMDL
MODEL 2
REMARK VINA RESULT:     -11.1      3.200      6.733
REMARK SMILES Cc1ccc(N[C@H](CC(=O)c2ccccc2)C(=O)OCCOC(=O)c2ccc(-c3c4nc(c(-c5c(F)cccc5F)c5ccc([nH]5)c(-c5c(F)cccc5F)c5nc(c(-c6c(F)cccc6F)c6ccc3[nH]6)C=C5)C=C4)cc2)cc1Cl
REMARK SMILES IDX 20 1 19 2 17 3 18 4 7 5 6 6 5 8 1 9 2 10 3 11 80 12 4 13
REMARK SMILES IDX 79 14 81 15 8 16 9 17 10 18 11 19 12 20 16 21 13 22 15 23
REMARK SMILES IDX 14 24 21 25 22 26 23 27 24 28 25 29 26 30 78 31 27 32 77 33
REMARK SMILES IDX 28 34 29 35 30 36 71 37 31 38 76 39 70 40 72 41 32 42 75 43
REMARK SMILES IDX 69 44 68 45 33 47 59 48 42 49 58 50 43 51 46 52 57 53 73 54
REMARK SMILES IDX 44 55 45 56 56 58 74 59 47 60 34 61 35 62 40 63 36 64 37 65
REMARK SMILES IDX 39 66 41 67 38 68 60 69 61 70 66 71 62 72 63 73 65 74 67 75
REMARK SMILES IDX 64 76 48 77 49 78 54 79 50 80 51 81 53 82 55 83 52 84
REMARK H PARENT 6 7 72 46 46 57
REMARK Flexibility Score: inf
ROOT
ATOM      1  C   UNL A   1      32.091  29.938  26.677  1.00  0.00     0.274 C 
ENDROOT
BRANCH   1   2
ATOM      2  O   UNL A   1      32.014  28.627  26.086  1.00  0.00    -0.461 OA
BRANCH   2   3
ATOM      3  C   UNL A   1      31.594  27.618  26.899  1.00  0.00     0.329 C 
ATOM      4  O   UNL A   1      31.041  27.778  27.984  1.00  0.00    -0.250 OA
BRANCH   3   5
ATOM      5  C   UNL A   1      32.006  26.222  26.378  1.00  0.00     0.197 C 
BRANCH   5   6
ATOM      6  N   UNL A   1      33.006  26.436  25.303  1.00  0.00    -0.372 N 
ATOM      7  H   UNL A   1      33.043  27.326  24.885  1.00  0.00     0.161 HD
BRANCH   6   8
ATOM      8  C   UNL A   1      33.892  25.476  24.847  1.00  0.00     0.036 A 
ATOM      9  C   UNL A   1      36.607  22.435  23.351  1.00  0.00     0.046 C 
ATOM     10  C   UNL A   1      35.673  23.481  23.889  1.00  0.00    -0.032 A 
ATOM     11  C   UNL A   1      34.578  23.896  23.121  1.00  0.00     0.007 A 
ATOM     12  C   UNL A   1      35.878  24.094  25.130  1.00  0.00     0.046 A 
ATOM     13  C   UNL A   1      33.705  24.883  23.594  1.00  0.00     0.026 A 
ATOM     14  C   UNL A   1      34.991  25.067  25.603  1.00  0.00     0.046 A 
ATOM     15  Cl  UNL A   1      37.230  23.693  26.130  1.00  0.00    -0.084 Cl
ENDBRANCH   6   8
ENDBRANCH   5   6
BRANCH   5  16
ATOM     16  C   UNL A   1      30.777  25.387  26.023  1.00  0.00     0.118 C 
BRANCH  16  17
ATOM     17  C   UNL A   1      30.668  24.024  26.692  1.00  0.00     0.165 C 
ATOM     18  O   UNL A   1      29.676  23.705  27.348  1.00  0.00    -0.294 OA
BRANCH  17  19
ATOM     19  C   UNL A   1      31.692  22.981  26.484  1.00  0.00     0.018 A 
ATOM     20  C   UNL A   1      32.686  22.815  27.454  1.00  0.00     0.012 A 
ATOM     21  C   UNL A   1      31.749  22.267  25.286  1.00  0.00     0.012 A 
ATOM     22  C   UNL A   1      33.701  21.878  27.249  1.00  0.00     0.001 A 
ATOM     23  C   UNL A   1      32.760  21.324  25.091  1.00  0.00     0.001 A 
ATOM     24  C   UNL A   1      33.730  21.125  26.074  1.00  0.00     0.000 A 
ENDBRANCH  17  19
ENDBRANCH  16  17
ENDBRANCH   5  16
ENDBRANCH   3   5
ENDBRANCH   2   3
ENDBRANCH   1   2
BRANCH   1  25
ATOM     25  C   UNL A   1      33.533  30.439  26.767  1.00  0.00     0.275 C 
BRANCH  25  26
ATOM     26  O   UNL A   1      34.249  29.775  27.825  1.00  0.00    -0.458 OA
BRANCH  26  27
ATOM     27  C   UNL A   1      35.027  30.578  28.584  1.00  0.00     0.338 C 
ATOM     28  O   UNL A   1      34.687  31.574  29.200  1.00  0.00    -0.246 OA
BRANCH  27  29
ATOM     29  C   UNL A   1      36.380  30.014  28.659  1.00  0.00     0.060 A 
ATOM     30  C   UNL A   1      36.799  29.433  29.860  1.00  0.00     0.016 A 
ATOM     31  C   UNL A   1      37.257  30.139  27.582  1.00  0.00     0.016 A 
ATOM     32  C   UNL A   1      38.107  28.975  29.991  1.00  0.00     0.010 A 
ATOM     33  C   UNL A   1      38.569  29.676  27.714  1.00  0.00     0.010 A 
ATOM     34  C   UNL A   1      39.004  29.102  28.922  1.00  0.00    -0.014 A 
BRANCH  34  35
ATOM     35  C   UNL A   1      40.416  28.686  29.083  1.00  0.00     0.031 A 
ATOM     36  C   UNL A   1      41.419  29.649  29.648  1.00  0.00     0.074 A 
ATOM     37  C   UNL A   1      40.796  27.447  28.723  1.00  0.00     0.049 A 
ATOM     38  N   UNL A   1      42.716  29.521  29.760  1.00  0.00    -0.248 NA
ATOM     39  C   UNL A   1      40.891  30.927  30.150  1.00  0.00     0.031 C 
ATOM     40  C   UNL A   1      39.909  26.410  28.197  1.00  0.00     0.029 A 
ATOM     41  N   UNL A   1      42.034  26.856  28.737  1.00  0.00    -0.354 N 
ATOM     42  C   UNL A   1      43.164  30.705  30.328  1.00  0.00     0.074 A 
ATOM     43  C   UNL A   1      42.001  31.546  30.527  1.00  0.00     0.031 C 
ATOM     44  C   UNL A   1      40.634  25.312  27.927  1.00  0.00     0.029 A 
ATOM     45  C   UNL A   1      42.038  25.583  28.225  1.00  0.00     0.049 A 
ATOM     46  H   UNL A   1      42.842  27.302  29.081  1.00  0.00     0.167 HD
ATOM     47  C   UNL A   1      44.429  31.058  30.658  1.00  0.00     0.037 A 
ATOM     48  C   UNL A   1      43.063  24.742  27.992  1.00  0.00     0.037 A 
ATOM     49  C   UNL A   1      45.583  30.219  30.471  1.00  0.00     0.049 A 
ATOM     50  C   UNL A   1      44.463  25.172  28.327  1.00  0.00     0.074 A 
ATOM     51  C   UNL A   1      46.907  30.490  30.768  1.00  0.00     0.029 A 
ATOM     52  N   UNL A   1      45.546  28.937  29.943  1.00  0.00    -0.354 N 
ATOM     53  N   UNL A   1      44.879  26.303  28.842  1.00  0.00    -0.248 NA
ATOM     54  C   UNL A   1      45.538  24.211  28.041  1.00  0.00     0.031 C 
ATOM     55  C   UNL A   1      47.677  29.381  30.396  1.00  0.00     0.029 A 
ATOM     56  C   UNL A   1      46.825  28.408  29.897  1.00  0.00     0.049 A 
ATOM     57  H   UNL A   1      44.732  28.472  29.645  1.00  0.00     0.167 HD
ATOM     58  C   UNL A   1      46.258  26.187  28.953  1.00  0.00     0.074 A 
ATOM     59  C   UNL A   1      46.608  24.869  28.466  1.00  0.00     0.031 C 
ATOM     60  C   UNL A   1      47.154  27.094  29.412  1.00  0.00     0.037 A 
BRANCH  47  61
ATOM     61  C   UNL A   1      44.631  32.425  31.237  1.00  0.00     0.057 A 
ATOM     62  C   UNL A   1      44.849  33.543  30.423  1.00  0.00     0.134 A 
ATOM     63  C   UNL A   1      44.579  32.629  32.621  1.00  0.00     0.134 A 
ATOM     64  F   UNL A   1      44.922  33.409  29.090  1.00  0.00    -0.206 F 
ATOM     65  C   UNL A   1      45.026  34.816  30.967  1.00  0.00     0.040 A 
ATOM     66  C   UNL A   1      44.735  33.900  33.176  1.00  0.00     0.040 A 
ATOM     67  F   UNL A   1      44.369  31.598  33.454  1.00  0.00    -0.206 F 
ATOM     68  C   UNL A   1      44.963  34.998  32.348  1.00  0.00     0.006 A 
ENDBRANCH  47  61
BRANCH  48  69
ATOM     69  C   UNL A   1      42.803  23.415  27.383  1.00  0.00     0.057 A 
ATOM     70  C   UNL A   1      42.503  22.301  28.174  1.00  0.00     0.134 A 
ATOM     71  C   UNL A   1      42.854  23.232  25.996  1.00  0.00     0.134 A 
ATOM     72  F   UNL A   1      42.464  22.412  29.510  1.00  0.00    -0.206 F 
ATOM     73  C   UNL A   1      42.270  21.047  27.607  1.00  0.00     0.040 A 
ATOM     74  C   UNL A   1      42.604  21.989  25.416  1.00  0.00     0.040 A 
ATOM     75  F   UNL A   1      43.138  24.263  25.187  1.00  0.00    -0.206 F 
ATOM     76  C   UNL A   1      42.315  20.890  26.223  1.00  0.00     0.006 A 
ENDBRANCH  48  69
BRANCH  60  77
ATOM     77  C   UNL A   1      48.593  26.679  29.428  1.00  0.00     0.057 A 
ATOM     78  C   UNL A   1      49.449  26.959  28.357  1.00  0.00     0.134 A 
ATOM     79  C   UNL A   1      49.135  26.022  30.540  1.00  0.00     0.134 A 
ATOM     80  F   UNL A   1      48.985  27.574  27.259  1.00  0.00    -0.206 F 
ATOM     81  C   UNL A   1      50.793  26.585  28.383  1.00  0.00     0.040 A 
ATOM     82  C   UNL A   1      50.481  25.658  30.585  1.00  0.00     0.040 A 
ATOM     83  F   UNL A   1      48.366  25.729  31.600  1.00  0.00    -0.206 F 
ATOM     84  C   UNL A   1      51.314  25.937  29.503  1.00  0.00     0.006 A 
ENDBRANCH  60  77
ENDBRANCH  34  35
ENDBRANCH  27  29
ENDBRANCH  26  27
ENDBRANCH  25  26
ENDBRANCH   1  25
TORSDOF 16
ENDMDL
MODEL 3
REMARK VINA RESULT:     -10.9      3.083      6.647
REMARK SMILES Cc1ccc(N[C@H](CC(=O)c2ccccc2)C(=O)OCCOC(=O)c2ccc(-c3c4nc(c(-c5c(F)cccc5F)c5ccc([nH]5)c(-c5c(F)cccc5F)c5nc(c(-c6c(F)cccc6F)c6ccc3[nH]6)C=C5)C=C4)cc2)cc1Cl
REMARK SMILES IDX 20 1 19 2 17 3 18 4 7 5 6 6 5 8 1 9 2 10 3 11 80 12 4 13
REMARK SMILES IDX 79 14 81 15 8 16 9 17 10 18 11 19 12 20 16 21 13 22 15 23
REMARK SMILES IDX 14 24 21 25 22 26 23 27 24 28 25 29 26 30 78 31 27 32 77 33
REMARK SMILES IDX 28 34 29 35 30 36 71 37 31 38 76 39 70 40 72 41 32 42 75 43
REMARK SMILES IDX 69 44 68 45 33 47 59 48 42 49 58 50 43 51 46 52 57 53 73 54
REMARK SMILES IDX 44 55 45 56 56 58 74 59 47 60 34 61 35 62 40 63 36 64 37 65
REMARK SMILES IDX 39 66 41 67 38 68 60 69 61 70 66 71 62 72 63 73 65 74 67 75
REMARK SMILES IDX 64 76 48 77 49 78 54 79 50 80 51 81 53 82 55 83 52 84
REMARK H PARENT 6 7 72 46 46 57
REMARK Flexibility Score: inf
ROOT
ATOM      1  C   UNL A   1      31.886  27.983  27.093  1.00  0.00     0.274 C 
ENDROOT
BRANCH   1   2
ATOM      2  O   UNL A   1      31.497  27.412  25.831  1.00  0.00    -0.461 OA
BRANCH   2   3
ATOM      3  C   UNL A   1      30.989  26.148  25.866  1.00  0.00     0.329 C 
ATOM      4  O   UNL A   1      29.959  25.824  26.451  1.00  0.00    -0.250 OA
BRANCH   3   5
ATOM      5  C   UNL A   1      31.921  25.113  25.195  1.00  0.00     0.197 C 
BRANCH   5   6
ATOM      6  N   UNL A   1      31.931  23.909  26.061  1.00  0.00    -0.372 N 
ATOM      7  H   UNL A   1      31.538  23.990  26.960  1.00  0.00     0.161 HD
BRANCH   6   8
ATOM      8  C   UNL A   1      32.450  22.679  25.698  1.00  0.00     0.036 A 
ATOM      9  C   UNL A   1      34.152  18.830  24.625  1.00  0.00     0.046 C 
ATOM     10  C   UNL A   1      33.562  20.166  24.975  1.00  0.00    -0.032 A 
ATOM     11  C   UNL A   1      33.884  20.770  26.197  1.00  0.00     0.007 A 
ATOM     12  C   UNL A   1      32.659  20.825  24.132  1.00  0.00     0.046 A 
ATOM     13  C   UNL A   1      33.331  22.006  26.552  1.00  0.00     0.026 A 
ATOM     14  C   UNL A   1      32.125  22.068  24.487  1.00  0.00     0.046 A 
ATOM     15  Cl  UNL A   1      32.154  20.139  22.627  1.00  0.00    -0.084 Cl
ENDBRANCH   6   8
ENDBRANCH   5   6
BRANCH   5  16
ATOM     16  C   UNL A   1      33.276  25.734  24.858  1.00  0.00     0.118 C 
BRANCH  16  17
ATOM     17  C   UNL A   1      34.130  24.986  23.845  1.00  0.00     0.165 C 
ATOM     18  O   UNL A   1      34.027  25.192  22.636  1.00  0.00    -0.294 OA
BRANCH  17  19
ATOM     19  C   UNL A   1      35.205  24.068  24.274  1.00  0.00     0.018 A 
ATOM     20  C   UNL A   1      35.890  24.347  25.462  1.00  0.00     0.012 A 
ATOM     21  C   UNL A   1      35.620  23.021  23.450  1.00  0.00     0.012 A 
ATOM     22  C   UNL A   1      36.951  23.530  25.855  1.00  0.00     0.001 A 
ATOM     23  C   UNL A   1      36.675  22.200  23.854  1.00  0.00     0.001 A 
ATOM     24  C   UNL A   1      37.334  22.450  25.057  1.00  0.00     0.000 A 
ENDBRANCH  17  19
ENDBRANCH  16  17
ENDBRANCH   5  16
ENDBRANCH   3   5
ENDBRANCH   2   3
ENDBRANCH   1   2
BRANCH   1  25
ATOM     25  C   UNL A   1      32.776  29.213  26.912  1.00  0.00     0.275 C 
BRANCH  25  26
ATOM     26  O   UNL A   1      34.063  29.019  27.528  1.00  0.00    -0.458 OA
BRANCH  26  27
ATOM     27  C   UNL A   1      34.648  30.141  28.003  1.00  0.00     0.338 C 
ATOM     28  O   UNL A   1      34.110  31.206  28.261  1.00  0.00    -0.246 OA
BRANCH  27  29
ATOM     29  C   UNL A   1      36.063  29.871  28.281  1.00  0.00     0.060 A 
ATOM     30  C   UNL A   1      36.993  30.042  27.252  1.00  0.00     0.016 A 
ATOM     31  C   UNL A   1      36.455  29.367  29.521  1.00  0.00     0.016 A 
ATOM     32  C   UNL A   1      38.328  29.703  27.458  1.00  0.00     0.010 A 
ATOM     33  C   UNL A   1      37.795  29.031  29.729  1.00  0.00     0.010 A 
ATOM     34  C   UNL A   1      38.736  29.187  28.695  1.00  0.00    -0.014 A 
BRANCH  34  35
ATOM     35  C   UNL A   1      40.139  28.755  28.893  1.00  0.00     0.031 A 
ATOM     36  C   UNL A   1      41.143  29.716  29.459  1.00  0.00     0.074 A 
ATOM     37  C   UNL A   1      40.509  27.504  28.567  1.00  0.00     0.049 A 
ATOM     38  N   UNL A   1      42.436  29.572  29.600  1.00  0.00    -0.248 NA
ATOM     39  C   UNL A   1      40.624  31.011  29.924  1.00  0.00     0.031 C 
ATOM     40  C   UNL A   1      39.618  26.468  28.044  1.00  0.00     0.029 A 
ATOM     41  N   UNL A   1      41.738  26.896  28.618  1.00  0.00    -0.354 N 
ATOM     42  C   UNL A   1      42.889  30.762  30.153  1.00  0.00     0.074 A 
ATOM     43  C   UNL A   1      41.734  31.622  30.310  1.00  0.00     0.031 C 
ATOM     44  C   UNL A   1      40.333  25.355  27.811  1.00  0.00     0.029 A 
ATOM     45  C   UNL A   1      41.734  25.613  28.132  1.00  0.00     0.049 A 
ATOM     46  H   UNL A   1      42.545  27.338  28.969  1.00  0.00     0.167 HD
ATOM     47  C   UNL A   1      44.152  31.105  30.501  1.00  0.00     0.037 A 
ATOM     48  C   UNL A   1      42.752  24.754  27.937  1.00  0.00     0.037 A 
ATOM     49  C   UNL A   1      45.298  30.246  30.354  1.00  0.00     0.049 A 
ATOM     50  C   UNL A   1      44.151  25.171  28.291  1.00  0.00     0.074 A 
ATOM     51  C   UNL A   1      46.620  30.506  30.672  1.00  0.00     0.029 A 
ATOM     52  N   UNL A   1      45.254  28.954  29.852  1.00  0.00    -0.354 N 
ATOM     53  N   UNL A   1      44.572  26.307  28.792  1.00  0.00    -0.248 NA
ATOM     54  C   UNL A   1      45.218  24.190  28.047  1.00  0.00     0.031 C 
ATOM     55  C   UNL A   1      47.381  29.379  30.339  1.00  0.00     0.029 A 
ATOM     56  C   UNL A   1      46.526  28.408  29.843  1.00  0.00     0.049 A 
ATOM     57  H   UNL A   1      44.440  28.494  29.547  1.00  0.00     0.167 HD
ATOM     58  C   UNL A   1      45.947  26.175  28.932  1.00  0.00     0.074 A 
ATOM     59  C   UNL A   1      46.289  24.843  28.480  1.00  0.00     0.031 C 
ATOM     60  C   UNL A   1      46.846  27.079  29.391  1.00  0.00     0.037 A 
BRANCH  47  61
ATOM     61  C   UNL A   1      44.361  32.480  31.056  1.00  0.00     0.057 A 
ATOM     62  C   UNL A   1      44.637  33.573  30.225  1.00  0.00     0.134 A 
ATOM     63  C   UNL A   1      44.258  32.719  32.431  1.00  0.00     0.134 A 
ATOM     64  F   UNL A   1      44.761  33.406  28.900  1.00  0.00    -0.206 F 
ATOM     65  C   UNL A   1      44.821  34.855  30.746  1.00  0.00     0.040 A 
ATOM     66  C   UNL A   1      44.420  34.000  32.962  1.00  0.00     0.040 A 
ATOM     67  F   UNL A   1      43.991  31.714  33.278  1.00  0.00    -0.206 F 
ATOM     68  C   UNL A   1      44.707  35.071  32.119  1.00  0.00     0.006 A 
ENDBRANCH  47  61
BRANCH  48  69
ATOM     69  C   UNL A   1      42.486  23.418  27.350  1.00  0.00     0.057 A 
ATOM     70  C   UNL A   1      42.157  22.325  28.158  1.00  0.00     0.134 A 
ATOM     71  C   UNL A   1      42.561  23.207  25.969  1.00  0.00     0.134 A 
ATOM     72  F   UNL A   1      42.094  22.464  29.490  1.00  0.00    -0.206 F 
ATOM     73  C   UNL A   1      41.918  21.063  27.612  1.00  0.00     0.040 A 
ATOM     74  C   UNL A   1      42.304  21.955  25.409  1.00  0.00     0.040 A 
ATOM     75  F   UNL A   1      42.872  24.217  25.144  1.00  0.00    -0.206 F 
ATOM     76  C   UNL A   1      41.987  20.877  26.232  1.00  0.00     0.006 A 
ENDBRANCH  48  69
BRANCH  60  77
ATOM     77  C   UNL A   1      48.279  26.646  29.444  1.00  0.00     0.057 A 
ATOM     78  C   UNL A   1      49.172  26.934  28.407  1.00  0.00     0.134 A 
ATOM     79  C   UNL A   1      48.777  25.961  30.561  1.00  0.00     0.134 A 
ATOM     80  F   UNL A   1      48.750  27.575  27.306  1.00  0.00    -0.206 F 
ATOM     81  C   UNL A   1      50.510  26.542  28.468  1.00  0.00     0.040 A 
ATOM     82  C   UNL A   1      50.116  25.579  30.642  1.00  0.00     0.040 A 
ATOM     83  F   UNL A   1      47.971  25.659  31.590  1.00  0.00    -0.206 F 
ATOM     84  C   UNL A   1      50.986  25.867  29.591  1.00  0.00     0.006 A 
ENDBRANCH  60  77
ENDBRANCH  34  35
ENDBRANCH  27  29
ENDBRANCH  26  27
ENDBRANCH  25  26
ENDBRANCH   1  25
TORSDOF 16
ENDMDL
