MODEL 1
REMARK VINA RESULT:     -13.4      0.000      0.000
REMARK SMILES COc1ccc(-n2c(SCc3cn(-c4ccc(C(=O)OCCOC(=O)c5ccc(-c6c7nc(c(-c8c(F)cccc8F)c8ccc([nH]8)c(-c8c(F)cccc8F)c8nc(c(-c9c(F)cccc9F)c9ccc6[nH]9)C=C8)C=C7)cc5)cc4)nn3)nc3ccccc3c2=O)cc1
REMARK SMILES IDX 18 1 19 2 17 3 14 4 15 5 81 6 16 7 80 8 13 9 11 10 12 11
REMARK SMILES IDX 83 12 82 13 10 14 9 15 8 16 7 17 91 18 84 19 90 20 92 21
REMARK SMILES IDX 85 22 89 23 86 24 88 25 87 26 6 27 3 28 4 29 94 30 5 31
REMARK SMILES IDX 93 32 2 33 1 34 20 35 21 36 22 37 23 38 24 39 25 40 26 41
REMARK SMILES IDX 27 42 79 43 28 44 78 45 29 46 30 47 31 48 72 49 32 50 77 51
REMARK SMILES IDX 71 52 73 53 33 54 76 55 70 56 69 57 34 59 60 60 43 61 59 62
REMARK SMILES IDX 44 63 47 64 58 65 74 66 45 67 46 68 57 70 75 71 48 72 35 73
REMARK SMILES IDX 36 74 41 75 37 76 38 77 40 78 42 79 39 80 61 81 62 82 67 83
REMARK SMILES IDX 63 84 64 85 66 86 68 87 65 88 49 89 50 90 55 91 51 92 52 93
REMARK SMILES IDX 54 94 56 95 53 96
REMARK H PARENT 73 58 47 69
REMARK Flexibility Score: inf
ROOT
ATOM      1  C   UNL A   1      42.024  19.415  26.501  1.00  0.00     0.338 C 
ATOM      2  O   UNL A   1      42.537  19.473  27.610  1.00  0.00    -0.246 OA
ENDROOT
BRANCH   1   3
ATOM      3  C   UNL A   1      40.706  20.019  26.188  1.00  0.00     0.060 A 
ATOM      4  C   UNL A   1      38.318  21.271  25.555  1.00  0.00     0.066 A 
ATOM      5  C   UNL A   1      39.330  22.011  26.169  1.00  0.00     0.029 A 
ATOM      6  C   UNL A   1      38.483  19.921  25.235  1.00  0.00     0.029 A 
ATOM      7  C   UNL A   1      40.537  21.385  26.459  1.00  0.00     0.018 A 
ATOM      8  C   UNL A   1      39.676  19.289  25.576  1.00  0.00     0.018 A 
BRANCH   4   9
ATOM      9  N   UNL A   1      37.053  21.849  25.432  1.00  0.00    -0.220 N 
ATOM     10  C   UNL A   1      35.501  23.361  25.466  1.00  0.00     0.093 A 
ATOM     11  C   UNL A   1      36.842  23.184  25.226  1.00  0.00     0.141 A 
ATOM     12  N   UNL A   1      34.936  22.140  25.732  1.00  0.00    -0.134 NA
ATOM     13  N   UNL A   1      35.905  21.232  25.759  1.00  0.00    -0.062 NA
BRANCH  10  14
ATOM     14  C   UNL A   1      34.682  24.582  25.566  1.00  0.00     0.138 C 
BRANCH  14  15
ATOM     15  S   UNL A   1      34.237  25.350  24.024  1.00  0.00    -0.081 SA
BRANCH  15  16
ATOM     16  C   UNL A   1      32.462  25.388  23.921  1.00  0.00     0.176 A 
ATOM     17  N   UNL A   1      31.777  25.590  25.109  1.00  0.00    -0.255 N 
ATOM     18  C   UNL A   1      31.022  24.532  25.607  1.00  0.00     0.266 A 
ATOM     19  N   UNL A   1      31.997  24.586  23.011  1.00  0.00    -0.223 NA
ATOM     20  C   UNL A   1      31.301  23.244  24.922  1.00  0.00     0.066 A 
ATOM     21  O   UNL A   1      30.219  24.574  26.532  1.00  0.00    -0.268 OA
ATOM     22  C   UNL A   1      31.703  23.333  23.581  1.00  0.00     0.079 A 
ATOM     23  C   UNL A   1      31.405  22.046  25.622  1.00  0.00     0.016 A 
ATOM     24  C   UNL A   1      32.144  22.192  22.914  1.00  0.00     0.029 A 
ATOM     25  C   UNL A   1      31.937  20.931  24.970  1.00  0.00     0.001 A 
ATOM     26  C   UNL A   1      32.287  20.997  23.616  1.00  0.00     0.002 A 
BRANCH  17  27
ATOM     27  C   UNL A   1      31.542  26.916  25.550  1.00  0.00     0.052 A 
ATOM     28  C   UNL A   1      31.868  29.621  26.110  1.00  0.00     0.119 A 
ATOM     29  C   UNL A   1      31.168  29.240  24.968  1.00  0.00     0.048 A 
ATOM     30  C   UNL A   1      32.240  28.664  27.054  1.00  0.00     0.048 A 
ATOM     31  C   UNL A   1      31.025  27.880  24.672  1.00  0.00     0.030 A 
ATOM     32  C   UNL A   1      32.052  27.308  26.788  1.00  0.00     0.030 A 
BRANCH  28  33
ATOM     33  O   UNL A   1      32.157  30.946  26.289  1.00  0.00    -0.497 OA
ATOM     34  C   UNL A   1      33.101  31.136  27.353  1.00  0.00     0.278 C 
ENDBRANCH  28  33
ENDBRANCH  17  27
ENDBRANCH  15  16
ENDBRANCH  14  15
ENDBRANCH  10  14
ENDBRANCH   4   9
ENDBRANCH   1   3
BRANCH   1  35
ATOM     35  O   UNL A   1      42.603  18.932  25.374  1.00  0.00    -0.458 OA
BRANCH  35  36
ATOM     36  C   UNL A   1      44.020  18.724  25.452  1.00  0.00     0.275 C 
BRANCH  36  37
ATOM     37  C   UNL A   1      44.695  19.179  24.165  1.00  0.00     0.275 C 
BRANCH  37  38
ATOM     38  O   UNL A   1      44.465  20.566  23.905  1.00  0.00    -0.458 OA
BRANCH  38  39
ATOM     39  C   UNL A   1      45.343  21.407  24.499  1.00  0.00     0.338 C 
ATOM     40  O   UNL A   1      46.557  21.301  24.542  1.00  0.00    -0.246 OA
BRANCH  39  41
ATOM     41  C   UNL A   1      44.608  22.369  25.323  1.00  0.00     0.060 A 
ATOM     42  C   UNL A   1      43.828  23.328  24.668  1.00  0.00     0.016 A 
ATOM     43  C   UNL A   1      44.938  22.488  26.681  1.00  0.00     0.016 A 
ATOM     44  C   UNL A   1      43.497  24.484  25.346  1.00  0.00     0.010 A 
ATOM     45  C   UNL A   1      44.626  23.648  27.347  1.00  0.00     0.010 A 
ATOM     46  C   UNL A   1      43.964  24.658  26.654  1.00  0.00    -0.014 A 
BRANCH  46  47
ATOM     47  C   UNL A   1      43.665  25.903  27.328  1.00  0.00     0.031 A 
ATOM     48  C   UNL A   1      44.627  26.989  27.036  1.00  0.00     0.074 A 
ATOM     49  C   UNL A   1      42.530  26.098  28.025  1.00  0.00     0.049 A 
ATOM     50  N   UNL A   1      45.424  27.587  27.857  1.00  0.00    -0.248 NA
ATOM     51  C   UNL A   1      44.815  27.366  25.625  1.00  0.00     0.031 C 
ATOM     52  C   UNL A   1      41.357  25.224  28.111  1.00  0.00     0.029 A 
ATOM     53  N   UNL A   1      42.148  27.198  28.726  1.00  0.00    -0.354 N 
ATOM     54  C   UNL A   1      46.089  28.546  27.100  1.00  0.00     0.074 A 
ATOM     55  C   UNL A   1      45.802  28.255  25.720  1.00  0.00     0.031 C 
ATOM     56  C   UNL A   1      40.323  25.925  28.633  1.00  0.00     0.029 A 
ATOM     57  C   UNL A   1      40.796  27.242  29.029  1.00  0.00     0.049 A 
ATOM     58  H   UNL A   1      42.779  27.903  28.997  1.00  0.00     0.167 HD
ATOM     59  C   UNL A   1      46.636  29.649  27.676  1.00  0.00     0.037 A 
ATOM     60  C   UNL A   1      40.117  28.321  29.492  1.00  0.00     0.037 A 
ATOM     61  C   UNL A   1      46.794  29.484  29.096  1.00  0.00     0.049 A 
ATOM     62  C   UNL A   1      41.112  29.282  30.031  1.00  0.00     0.074 A 
ATOM     63  C   UNL A   1      47.489  28.601  29.901  1.00  0.00     0.029 A 
ATOM     64  N   UNL A   1      45.880  30.097  29.916  1.00  0.00    -0.354 N 
ATOM     65  N   UNL A   1      41.805  29.088  31.118  1.00  0.00    -0.248 NA
ATOM     66  C   UNL A   1      41.653  30.282  29.121  1.00  0.00     0.031 C 
ATOM     67  C   UNL A   1      46.646  28.387  31.029  1.00  0.00     0.029 A 
ATOM     68  C   UNL A   1      45.512  29.184  30.869  1.00  0.00     0.049 A 
ATOM     69  H   UNL A   1      45.551  31.022  29.835  1.00  0.00     0.167 HD
ATOM     70  C   UNL A   1      43.062  29.603  30.833  1.00  0.00     0.074 A 
ATOM     71  C   UNL A   1      42.880  30.414  29.634  1.00  0.00     0.031 C 
ATOM     72  C   UNL A   1      44.182  29.094  31.426  1.00  0.00     0.037 A 
BRANCH  59  73
ATOM     73  C   UNL A   1      46.681  31.000  27.014  1.00  0.00     0.057 A 
ATOM     74  C   UNL A   1      47.892  31.712  26.988  1.00  0.00     0.134 A 
ATOM     75  C   UNL A   1      45.534  31.747  26.673  1.00  0.00     0.134 A 
ATOM     76  F   UNL A   1      49.048  31.115  27.316  1.00  0.00    -0.206 F 
ATOM     77  C   UNL A   1      47.947  33.081  26.706  1.00  0.00     0.040 A 
ATOM     78  C   UNL A   1      45.586  33.101  26.336  1.00  0.00     0.040 A 
ATOM     79  F   UNL A   1      44.297  31.239  26.749  1.00  0.00    -0.206 F 
ATOM     80  C   UNL A   1      46.791  33.781  26.384  1.00  0.00     0.006 A 
ENDBRANCH  59  73
BRANCH  60  81
ATOM     81  C   UNL A   1      38.711  28.709  29.237  1.00  0.00     0.057 A 
ATOM     82  C   UNL A   1      37.777  28.770  30.281  1.00  0.00     0.134 A 
ATOM     83  C   UNL A   1      38.312  29.289  28.019  1.00  0.00     0.134 A 
ATOM     84  F   UNL A   1      38.078  28.280  31.493  1.00  0.00    -0.206 F 
ATOM     85  C   UNL A   1      36.532  29.395  30.133  1.00  0.00     0.040 A 
ATOM     86  C   UNL A   1      37.068  29.906  27.855  1.00  0.00     0.040 A 
ATOM     87  F   UNL A   1      39.149  29.357  26.975  1.00  0.00    -0.206 F 
ATOM     88  C   UNL A   1      36.178  29.975  28.919  1.00  0.00     0.006 A 
ENDBRANCH  60  81
BRANCH  72  89
ATOM     89  C   UNL A   1      43.999  28.160  32.589  1.00  0.00     0.057 A 
ATOM     90  C   UNL A   1      43.889  26.766  32.467  1.00  0.00     0.134 A 
ATOM     91  C   UNL A   1      44.091  28.677  33.886  1.00  0.00     0.134 A 
ATOM     92  F   UNL A   1      43.900  26.171  31.267  1.00  0.00    -0.206 F 
ATOM     93  C   UNL A   1      43.824  25.932  33.587  1.00  0.00     0.040 A 
ATOM     94  C   UNL A   1      44.063  27.852  35.011  1.00  0.00     0.040 A 
ATOM     95  F   UNL A   1      44.256  29.995  34.078  1.00  0.00    -0.206 F 
ATOM     96  C   UNL A   1      43.919  26.475  34.865  1.00  0.00     0.006 A 
ENDBRANCH  72  89
ENDBRANCH  46  47
ENDBRANCH  39  41
ENDBRANCH  38  39
ENDBRANCH  37  38
ENDBRANCH  36  37
ENDBRANCH  35  36
ENDBRANCH   1  35
TORSDOF 17
ENDMDL
MODEL 2
REMARK VINA RESULT:     -13.2      1.789      3.666
REMARK SMILES COc1ccc(-n2c(SCc3cn(-c4ccc(C(=O)OCCOC(=O)c5ccc(-c6c7nc(c(-c8c(F)cccc8F)c8ccc([nH]8)c(-c8c(F)cccc8F)c8nc(c(-c9c(F)cccc9F)c9ccc6[nH]9)C=C8)C=C7)cc5)cc4)nn3)nc3ccccc3c2=O)cc1
REMARK SMILES IDX 18 1 19 2 17 3 14 4 15 5 81 6 16 7 80 8 13 9 11 10 12 11
REMARK SMILES IDX 83 12 82 13 10 14 9 15 8 16 7 17 91 18 84 19 90 20 92 21
REMARK SMILES IDX 85 22 89 23 86 24 88 25 87 26 6 27 3 28 4 29 94 30 5 31
REMARK SMILES IDX 93 32 2 33 1 34 20 35 21 36 22 37 23 38 24 39 25 40 26 41
REMARK SMILES IDX 27 42 79 43 28 44 78 45 29 46 30 47 31 48 72 49 32 50 77 51
REMARK SMILES IDX 71 52 73 53 33 54 76 55 70 56 69 57 34 59 60 60 43 61 59 62
REMARK SMILES IDX 44 63 47 64 58 65 74 66 45 67 46 68 57 70 75 71 48 72 35 73
REMARK SMILES IDX 36 74 41 75 37 76 38 77 40 78 42 79 39 80 61 81 62 82 67 83
REMARK SMILES IDX 63 84 64 85 66 86 68 87 65 88 49 89 50 90 55 91 51 92 52 93
REMARK SMILES IDX 54 94 56 95 53 96
REMARK H PARENT 73 58 47 69
REMARK Flexibility Score: inf
ROOT
ATOM      1  C   UNL A   1      41.330  19.593  26.827  1.00  0.00     0.338 C 
ATOM      2  O   UNL A   1      41.732  19.609  27.982  1.00  0.00    -0.246 OA
ENDROOT
BRANCH   1   3
ATOM      3  C   UNL A   1      40.222  20.453  26.345  1.00  0.00     0.060 A 
ATOM      4  C   UNL A   1      38.257  22.169  25.417  1.00  0.00     0.066 A 
ATOM      5  C   UNL A   1      39.266  22.675  26.239  1.00  0.00     0.029 A 
ATOM      6  C   UNL A   1      38.221  20.826  25.036  1.00  0.00     0.029 A 
ATOM      7  C   UNL A   1      40.266  21.816  26.679  1.00  0.00     0.018 A 
ATOM      8  C   UNL A   1      39.197  19.961  25.523  1.00  0.00     0.018 A 
BRANCH   4   9
ATOM      9  N   UNL A   1      37.163  22.987  25.129  1.00  0.00    -0.220 N 
ATOM     10  C   UNL A   1      35.265  24.003  25.384  1.00  0.00     0.093 A 
ATOM     11  C   UNL A   1      36.358  23.548  26.081  1.00  0.00     0.141 A 
ATOM     12  N   UNL A   1      35.471  23.776  24.047  1.00  0.00    -0.134 NA
ATOM     13  N   UNL A   1      36.610  23.109  23.909  1.00  0.00    -0.062 NA
BRANCH  10  14
ATOM     14  C   UNL A   1      33.979  24.559  25.842  1.00  0.00     0.138 C 
BRANCH  14  15
ATOM     15  S   UNL A   1      32.944  23.457  26.780  1.00  0.00    -0.081 SA
BRANCH  15  16
ATOM     16  C   UNL A   1      31.893  22.588  25.640  1.00  0.00     0.176 A 
ATOM     17  N   UNL A   1      32.521  21.941  24.587  1.00  0.00    -0.255 N 
ATOM     18  C   UNL A   1      32.311  22.441  23.305  1.00  0.00     0.266 A 
ATOM     19  N   UNL A   1      30.745  23.171  25.474  1.00  0.00    -0.223 NA
ATOM     20  C   UNL A   1      31.662  23.777  23.300  1.00  0.00     0.066 A 
ATOM     21  O   UNL A   1      32.630  21.909  22.248  1.00  0.00    -0.268 OA
ATOM     22  C   UNL A   1      30.808  24.053  24.378  1.00  0.00     0.079 A 
ATOM     23  C   UNL A   1      32.061  24.785  22.428  1.00  0.00     0.016 A 
ATOM     24  C   UNL A   1      30.292  25.336  24.541  1.00  0.00     0.029 A 
ATOM     25  C   UNL A   1      31.610  26.087  22.655  1.00  0.00     0.001 A 
ATOM     26  C   UNL A   1      30.714  26.360  23.695  1.00  0.00     0.002 A 
BRANCH  17  27
ATOM     27  C   UNL A   1      33.003  20.622  24.779  1.00  0.00     0.052 A 
ATOM     28  C   UNL A   1      33.993  18.066  24.307  1.00  0.00     0.119 A 
ATOM     29  C   UNL A   1      34.872  19.082  24.677  1.00  0.00     0.048 A 
ATOM     30  C   UNL A   1      32.616  18.282  24.354  1.00  0.00     0.048 A 
ATOM     31  C   UNL A   1      34.379  20.373  24.889  1.00  0.00     0.030 A 
ATOM     32  C   UNL A   1      32.116  19.558  24.618  1.00  0.00     0.030 A 
BRANCH  28  33
ATOM     33  O   UNL A   1      34.510  16.859  23.926  1.00  0.00    -0.497 OA
ATOM     34  C   UNL A   1      34.982  16.112  25.057  1.00  0.00     0.278 C 
ENDBRANCH  28  33
ENDBRANCH  17  27
ENDBRANCH  15  16
ENDBRANCH  14  15
ENDBRANCH  10  14
ENDBRANCH   4   9
ENDBRANCH   1   3
BRANCH   1  35
ATOM     35  O   UNL A   1      41.889  18.917  25.793  1.00  0.00    -0.458 OA
BRANCH  35  36
ATOM     36  C   UNL A   1      43.028  18.112  26.129  1.00  0.00     0.275 C 
BRANCH  36  37
ATOM     37  C   UNL A   1      44.259  18.588  25.368  1.00  0.00     0.275 C 
BRANCH  37  38
ATOM     38  O   UNL A   1      44.530  19.971  25.608  1.00  0.00    -0.458 OA
BRANCH  38  39
ATOM     39  C   UNL A   1      44.512  20.752  24.504  1.00  0.00     0.338 C 
ATOM     40  O   UNL A   1      44.620  20.396  23.342  1.00  0.00    -0.246 OA
BRANCH  39  41
ATOM     41  C   UNL A   1      44.597  22.158  24.905  1.00  0.00     0.060 A 
ATOM     42  C   UNL A   1      45.463  22.486  25.953  1.00  0.00     0.016 A 
ATOM     43  C   UNL A   1      43.618  23.052  24.448  1.00  0.00     0.016 A 
ATOM     44  C   UNL A   1      45.250  23.665  26.640  1.00  0.00     0.010 A 
ATOM     45  C   UNL A   1      43.394  24.214  25.145  1.00  0.00     0.010 A 
ATOM     46  C   UNL A   1      44.171  24.477  26.270  1.00  0.00    -0.014 A 
BRANCH  46  47
ATOM     47  C   UNL A   1      43.920  25.676  27.042  1.00  0.00     0.031 A 
ATOM     48  C   UNL A   1      44.903  26.756  26.805  1.00  0.00     0.074 A 
ATOM     49  C   UNL A   1      42.808  25.846  27.780  1.00  0.00     0.049 A 
ATOM     50  N   UNL A   1      45.735  27.272  27.647  1.00  0.00    -0.248 NA
ATOM     51  C   UNL A   1      45.068  27.233  25.422  1.00  0.00     0.031 C 
ATOM     52  C   UNL A   1      41.615  24.998  27.831  1.00  0.00     0.029 A 
ATOM     53  N   UNL A   1      42.472  26.900  28.570  1.00  0.00    -0.354 N 
ATOM     54  C   UNL A   1      46.407  28.268  26.946  1.00  0.00     0.074 A 
ATOM     55  C   UNL A   1      46.080  28.088  25.556  1.00  0.00     0.031 C 
ATOM     56  C   UNL A   1      40.612  25.683  28.430  1.00  0.00     0.029 A 
ATOM     57  C   UNL A   1      41.129  26.955  28.909  1.00  0.00     0.049 A 
ATOM     58  H   UNL A   1      43.127  27.568  28.875  1.00  0.00     0.167 HD
ATOM     59  C   UNL A   1      46.996  29.312  27.587  1.00  0.00     0.037 A 
ATOM     60  C   UNL A   1      40.490  28.012  29.467  1.00  0.00     0.037 A 
ATOM     61  C   UNL A   1      47.184  29.038  28.987  1.00  0.00     0.049 A 
ATOM     62  C   UNL A   1      41.522  28.906  30.051  1.00  0.00     0.074 A 
ATOM     63  C   UNL A   1      47.874  28.082  29.706  1.00  0.00     0.029 A 
ATOM     64  N   UNL A   1      46.306  29.611  29.873  1.00  0.00    -0.354 N 
ATOM     65  N   UNL A   1      42.236  28.616  31.102  1.00  0.00    -0.248 NA
ATOM     66  C   UNL A   1      42.068  29.958  29.202  1.00  0.00     0.031 C 
ATOM     67  C   UNL A   1      47.053  27.805  30.838  1.00  0.00     0.029 A 
ATOM     68  C   UNL A   1      45.937  28.639  30.765  1.00  0.00     0.049 A 
ATOM     69  H   UNL A   1      45.999  30.547  29.869  1.00  0.00     0.167 HD
ATOM     70  C   UNL A   1      43.499  29.119  30.823  1.00  0.00     0.074 A 
ATOM     71  C   UNL A   1      43.309  30.022  29.692  1.00  0.00     0.031 C 
ATOM     72  C   UNL A   1      44.619  28.541  31.348  1.00  0.00     0.037 A 
BRANCH  59  73
ATOM     73  C   UNL A   1      47.061  30.707  27.026  1.00  0.00     0.057 A 
ATOM     74  C   UNL A   1      48.285  31.396  27.038  1.00  0.00     0.134 A 
ATOM     75  C   UNL A   1      45.925  31.497  26.752  1.00  0.00     0.134 A 
ATOM     76  F   UNL A   1      49.432  30.756  27.310  1.00  0.00    -0.206 F 
ATOM     77  C   UNL A   1      48.364  32.781  26.857  1.00  0.00     0.040 A 
ATOM     78  C   UNL A   1      46.000  32.871  26.514  1.00  0.00     0.040 A 
ATOM     79  F   UNL A   1      44.680  31.009  26.804  1.00  0.00    -0.206 F 
ATOM     80  C   UNL A   1      47.218  33.524  26.599  1.00  0.00     0.006 A 
ENDBRANCH  59  73
BRANCH  60  81
ATOM     81  C   UNL A   1      39.088  28.452  29.278  1.00  0.00     0.057 A 
ATOM     82  C   UNL A   1      38.197  28.512  30.359  1.00  0.00     0.134 A 
ATOM     83  C   UNL A   1      38.664  29.081  28.094  1.00  0.00     0.134 A 
ATOM     84  F   UNL A   1      38.527  27.976  31.544  1.00  0.00    -0.206 F 
ATOM     85  C   UNL A   1      36.969  29.180  30.277  1.00  0.00     0.040 A 
ATOM     86  C   UNL A   1      37.436  29.742  27.995  1.00  0.00     0.040 A 
ATOM     87  F   UNL A   1      39.463  29.155  27.021  1.00  0.00    -0.206 F 
ATOM     88  C   UNL A   1      36.589  29.807  29.094  1.00  0.00     0.006 A 
ENDBRANCH  60  81
BRANCH  72  89
ATOM     89  C   UNL A   1      44.439  27.528  32.444  1.00  0.00     0.057 A 
ATOM     90  C   UNL A   1      44.271  26.152  32.221  1.00  0.00     0.134 A 
ATOM     91  C   UNL A   1      44.594  27.940  33.771  1.00  0.00     0.134 A 
ATOM     92  F   UNL A   1      44.218  25.650  30.981  1.00  0.00    -0.206 F 
ATOM     93  C   UNL A   1      44.212  25.238  33.277  1.00  0.00     0.040 A 
ATOM     94  C   UNL A   1      44.572  27.034  34.832  1.00  0.00     0.040 A 
ATOM     95  F   UNL A   1      44.817  29.233  34.056  1.00  0.00    -0.206 F 
ATOM     96  C   UNL A   1      44.370  25.677  34.588  1.00  0.00     0.006 A 
ENDBRANCH  72  89
ENDBRANCH  46  47
ENDBRANCH  39  41
ENDBRANCH  38  39
ENDBRANCH  37  38
ENDBRANCH  36  37
ENDBRANCH  35  36
ENDBRANCH   1  35
TORSDOF 17
ENDMDL
MODEL 3
REMARK VINA RESULT:     -13.1      1.231      1.686
REMARK SMILES COc1ccc(-n2c(SCc3cn(-c4ccc(C(=O)OCCOC(=O)c5ccc(-c6c7nc(c(-c8c(F)cccc8F)c8ccc([nH]8)c(-c8c(F)cccc8F)c8nc(c(-c9c(F)cccc9F)c9ccc6[nH]9)C=C8)C=C7)cc5)cc4)nn3)nc3ccccc3c2=O)cc1
REMARK SMILES IDX 18 1 19 2 17 3 14 4 15 5 81 6 16 7 80 8 13 9 11 10 12 11
REMARK SMILES IDX 83 12 82 13 10 14 9 15 8 16 7 17 91 18 84 19 90 20 92 21
REMARK SMILES IDX 85 22 89 23 86 24 88 25 87 26 6 27 3 28 4 29 94 30 5 31
REMARK SMILES IDX 93 32 2 33 1 34 20 35 21 36 22 37 23 38 24 39 25 40 26 41
REMARK SMILES IDX 27 42 79 43 28 44 78 45 29 46 30 47 31 48 72 49 32 50 77 51
REMARK SMILES IDX 71 52 73 53 33 54 76 55 70 56 69 57 34 59 60 60 43 61 59 62
REMARK SMILES IDX 44 63 47 64 58 65 74 66 45 67 46 68 57 70 75 71 48 72 35 73
REMARK SMILES IDX 36 74 41 75 37 76 38 77 40 78 42 79 39 80 61 81 62 82 67 83
REMARK SMILES IDX 63 84 64 85 66 86 68 87 65 88 49 89 50 90 55 91 51 92 52 93
REMARK SMILES IDX 54 94 56 95 53 96
REMARK H PARENT 73 58 47 69
REMARK Flexibility Score: inf
ROOT
ATOM      1  C   UNL A   1      41.077  19.719  26.839  1.00  0.00     0.338 C 
ATOM      2  O   UNL A   1      41.298  19.599  28.036  1.00  0.00    -0.246 OA
ENDROOT
BRANCH   1   3
ATOM      3  C   UNL A   1      40.004  20.589  26.298  1.00  0.00     0.060 A 
ATOM      4  C   UNL A   1      37.902  22.102  25.317  1.00  0.00     0.066 A 
ATOM      5  C   UNL A   1      37.968  20.744  24.998  1.00  0.00     0.029 A 
ATOM      6  C   UNL A   1      38.858  22.714  26.132  1.00  0.00     0.029 A 
ATOM      7  C   UNL A   1      39.009  19.983  25.516  1.00  0.00     0.018 A 
ATOM      8  C   UNL A   1      39.926  21.956  26.604  1.00  0.00     0.018 A 
BRANCH   4   9
ATOM      9  N   UNL A   1      36.965  22.896  24.653  1.00  0.00    -0.220 N 
ATOM     10  C   UNL A   1      35.320  24.276  24.358  1.00  0.00     0.093 A 
ATOM     11  C   UNL A   1      36.355  23.984  25.214  1.00  0.00     0.141 A 
ATOM     12  N   UNL A   1      35.380  23.420  23.287  1.00  0.00    -0.134 NA
ATOM     13  N   UNL A   1      36.358  22.549  23.506  1.00  0.00    -0.062 NA
BRANCH  10  14
ATOM     14  C   UNL A   1      34.201  25.228  24.471  1.00  0.00     0.138 C 
BRANCH  14  15
ATOM     15  S   UNL A   1      33.221  25.455  23.003  1.00  0.00    -0.081 SA
BRANCH  15  16
ATOM     16  C   UNL A   1      31.545  25.003  23.386  1.00  0.00     0.176 A 
ATOM     17  N   UNL A   1      30.968  25.629  24.480  1.00  0.00    -0.255 N 
ATOM     18  C   UNL A   1      30.690  24.849  25.598  1.00  0.00     0.266 A 
ATOM     19  N   UNL A   1      31.291  23.757  23.120  1.00  0.00    -0.223 NA
ATOM     20  C   UNL A   1      31.323  23.506  25.543  1.00  0.00     0.066 A 
ATOM     21  O   UNL A   1      30.030  25.177  26.577  1.00  0.00    -0.268 OA
ATOM     22  C   UNL A   1      31.517  22.967  24.263  1.00  0.00     0.079 A 
ATOM     23  C   UNL A   1      31.915  22.926  26.661  1.00  0.00     0.016 A 
ATOM     24  C   UNL A   1      32.251  21.793  24.110  1.00  0.00     0.029 A 
ATOM     25  C   UNL A   1      32.726  21.802  26.485  1.00  0.00     0.001 A 
ATOM     26  C   UNL A   1      32.879  21.226  25.219  1.00  0.00     0.002 A 
BRANCH  17  27
ATOM     27  C   UNL A   1      30.336  26.884  24.299  1.00  0.00     0.052 A 
ATOM     28  C   UNL A   1      29.534  29.317  23.216  1.00  0.00     0.119 A 
ATOM     29  C   UNL A   1      28.701  28.208  23.092  1.00  0.00     0.048 A 
ATOM     30  C   UNL A   1      30.665  29.256  24.029  1.00  0.00     0.048 A 
ATOM     31  C   UNL A   1      29.115  26.978  23.615  1.00  0.00     0.030 A 
ATOM     32  C   UNL A   1      31.054  28.042  24.596  1.00  0.00     0.030 A 
BRANCH  28  33
ATOM     33  O   UNL A   1      29.203  30.463  22.544  1.00  0.00    -0.497 OA
ATOM     34  C   UNL A   1      27.811  30.775  22.700  1.00  0.00     0.278 C 
ENDBRANCH  28  33
ENDBRANCH  17  27
ENDBRANCH  15  16
ENDBRANCH  14  15
ENDBRANCH  10  14
ENDBRANCH   4   9
ENDBRANCH   1   3
BRANCH   1  35
ATOM     35  O   UNL A   1      41.826  19.209  25.831  1.00  0.00    -0.458 OA
BRANCH  35  36
ATOM     36  C   UNL A   1      42.911  18.363  26.239  1.00  0.00     0.275 C 
BRANCH  36  37
ATOM     37  C   UNL A   1      44.089  18.512  25.285  1.00  0.00     0.275 C 
BRANCH  37  38
ATOM     38  O   UNL A   1      44.739  19.776  25.437  1.00  0.00    -0.458 OA
BRANCH  38  39
ATOM     39  C   UNL A   1      44.583  20.623  24.394  1.00  0.00     0.338 C 
ATOM     40  O   UNL A   1      44.527  20.337  23.209  1.00  0.00    -0.246 OA
BRANCH  39  41
ATOM     41  C   UNL A   1      44.739  22.002  24.862  1.00  0.00     0.060 A 
ATOM     42  C   UNL A   1      45.443  22.209  26.054  1.00  0.00     0.016 A 
ATOM     43  C   UNL A   1      43.949  23.006  24.286  1.00  0.00     0.016 A 
ATOM     44  C   UNL A   1      45.237  23.387  26.745  1.00  0.00     0.010 A 
ATOM     45  C   UNL A   1      43.729  24.169  24.986  1.00  0.00     0.010 A 
ATOM     46  C   UNL A   1      44.325  24.319  26.235  1.00  0.00    -0.014 A 
BRANCH  46  47
ATOM     47  C   UNL A   1      44.069  25.518  27.003  1.00  0.00     0.031 A 
ATOM     48  C   UNL A   1      45.063  26.593  26.785  1.00  0.00     0.074 A 
ATOM     49  C   UNL A   1      42.946  25.695  27.724  1.00  0.00     0.049 A 
ATOM     50  N   UNL A   1      45.884  27.102  27.640  1.00  0.00    -0.248 NA
ATOM     51  C   UNL A   1      45.254  27.069  25.404  1.00  0.00     0.031 C 
ATOM     52  C   UNL A   1      41.747  24.854  27.754  1.00  0.00     0.029 A 
ATOM     53  N   UNL A   1      42.604  26.750  28.509  1.00  0.00    -0.354 N 
ATOM     54  C   UNL A   1      46.575  28.094  26.952  1.00  0.00     0.074 A 
ATOM     55  C   UNL A   1      46.269  27.918  25.556  1.00  0.00     0.031 C 
ATOM     56  C   UNL A   1      40.739  25.545  28.337  1.00  0.00     0.029 A 
ATOM     57  C   UNL A   1      41.256  26.813  28.826  1.00  0.00     0.049 A 
ATOM     58  H   UNL A   1      43.259  27.413  28.826  1.00  0.00     0.167 HD
ATOM     59  C   UNL A   1      47.160  29.134  27.604  1.00  0.00     0.037 A 
ATOM     60  C   UNL A   1      40.615  27.874  29.375  1.00  0.00     0.037 A 
ATOM     61  C   UNL A   1      47.323  28.857  29.006  1.00  0.00     0.049 A 
ATOM     62  C   UNL A   1      41.643  28.761  29.976  1.00  0.00     0.074 A 
ATOM     63  C   UNL A   1      47.994  27.895  29.736  1.00  0.00     0.029 A 
ATOM     64  N   UNL A   1      46.434  29.434  29.879  1.00  0.00    -0.354 N 
ATOM     65  N   UNL A   1      42.338  28.464  31.039  1.00  0.00    -0.248 NA
ATOM     66  C   UNL A   1      42.210  29.810  29.138  1.00  0.00     0.031 C 
ATOM     67  C   UNL A   1      47.153  27.622  30.853  1.00  0.00     0.029 A 
ATOM     68  C   UNL A   1      46.044  28.463  30.763  1.00  0.00     0.049 A 
ATOM     69  H   UNL A   1      46.133  30.372  29.870  1.00  0.00     0.167 HD
ATOM     70  C   UNL A   1      43.608  28.960  30.782  1.00  0.00     0.074 A 
ATOM     71  C   UNL A   1      43.443  29.865  29.649  1.00  0.00     0.031 C 
ATOM     72  C   UNL A   1      44.716  28.373  31.324  1.00  0.00     0.037 A 
BRANCH  59  73
ATOM     73  C   UNL A   1      47.243  30.528  27.046  1.00  0.00     0.057 A 
ATOM     74  C   UNL A   1      48.471  31.210  27.080  1.00  0.00     0.134 A 
ATOM     75  C   UNL A   1      46.117  31.327  26.754  1.00  0.00     0.134 A 
ATOM     76  F   UNL A   1      49.609  30.562  27.370  1.00  0.00    -0.206 F 
ATOM     77  C   UNL A   1      48.562  32.595  26.902  1.00  0.00     0.040 A 
ATOM     78  C   UNL A   1      46.204  32.700  26.519  1.00  0.00     0.040 A 
ATOM     79  F   UNL A   1      44.868  30.846  26.784  1.00  0.00    -0.206 F 
ATOM     80  C   UNL A   1      47.426  33.345  26.626  1.00  0.00     0.006 A 
ENDBRANCH  59  73
BRANCH  60  81
ATOM     81  C   UNL A   1      39.220  28.324  29.163  1.00  0.00     0.057 A 
ATOM     82  C   UNL A   1      38.299  28.346  30.221  1.00  0.00     0.134 A 
ATOM     83  C   UNL A   1      38.828  28.996  27.991  1.00  0.00     0.134 A 
ATOM     84  F   UNL A   1      38.596  27.768  31.394  1.00  0.00    -0.206 F 
ATOM     85  C   UNL A   1      37.074  29.020  30.129  1.00  0.00     0.040 A 
ATOM     86  C   UNL A   1      37.605  29.663  27.883  1.00  0.00     0.040 A 
ATOM     87  F   UNL A   1      39.657  29.106  26.944  1.00  0.00    -0.206 F 
ATOM     88  C   UNL A   1      36.728  29.690  28.959  1.00  0.00     0.006 A 
ENDBRANCH  60  81
BRANCH  72  89
ATOM     89  C   UNL A   1      44.512  27.360  32.415  1.00  0.00     0.057 A 
ATOM     90  C   UNL A   1      44.324  25.988  32.188  1.00  0.00     0.134 A 
ATOM     91  C   UNL A   1      44.661  27.767  33.746  1.00  0.00     0.134 A 
ATOM     92  F   UNL A   1      44.275  25.490  30.946  1.00  0.00    -0.206 F 
ATOM     93  C   UNL A   1      44.243  25.072  33.241  1.00  0.00     0.040 A 
ATOM     94  C   UNL A   1      44.617  26.858  34.803  1.00  0.00     0.040 A 
ATOM     95  F   UNL A   1      44.901  29.056  34.036  1.00  0.00    -0.206 F 
ATOM     96  C   UNL A   1      44.396  25.505  34.554  1.00  0.00     0.006 A 
ENDBRANCH  72  89
ENDBRANCH  46  47
ENDBRANCH  39  41
ENDBRANCH  38  39
ENDBRANCH  37  38
ENDBRANCH  36  37
ENDBRANCH  35  36
ENDBRANCH   1  35
TORSDOF 17
ENDMDL
