MODEL 1
REMARK VINA RESULT:      -9.9      0.000      0.000
REMARK SMILES O=C(COCCNC(=O)[C@@H]1CCCCO1)OCCOC(=O)c1ccc(-c2c3nc(c(-c4c(F)cccc4F)c4ccc([nH]4)c(-c4c(F)cccc4F)c4nc(c(-c5c(F)cccc5F)c5ccc2[nH]5)C=C4)C=C3)cc1
REMARK SMILES IDX 16 1 2 2 1 3 3 4 4 5 5 6 6 7 7 8 8 9 9 11 10 12 11 13 15 14
REMARK SMILES IDX 12 15 14 16 13 17 17 18 18 19 19 20 20 21 21 22 22 23 23 24
REMARK SMILES IDX 75 25 24 26 74 27 25 28 26 29 27 30 68 31 28 32 73 33 67 34
REMARK SMILES IDX 69 35 29 36 72 37 66 38 65 39 30 41 56 42 39 43 55 44 40 45
REMARK SMILES IDX 43 46 54 47 70 48 41 49 42 50 53 52 71 53 44 54 31 55 32 56
REMARK SMILES IDX 37 57 33 58 34 59 36 60 38 61 35 62 57 63 58 64 63 65 59 66
REMARK SMILES IDX 60 67 62 68 64 69 61 70 45 71 46 72 51 73 47 74 48 75 50 76
REMARK SMILES IDX 52 77 49 78
REMARK H PARENT 7 10 69 40 43 51
REMARK Flexibility Score: inf
ROOT
ATOM      1  O   UNL A   1      45.355  20.987  25.394  1.00  0.00    -0.460 OA
ENDROOT
BRANCH   1   2
ATOM      2  C   UNL A   1      46.148  19.952  25.026  1.00  0.00     0.332 C 
ATOM      3  O   UNL A   1      47.157  20.176  24.358  1.00  0.00    -0.250 OA
BRANCH   2   4
ATOM      4  C   UNL A   1      45.735  18.514  25.395  1.00  0.00     0.282 C 
BRANCH   4   5
ATOM      5  O   UNL A   1      44.395  18.079  25.230  1.00  0.00    -0.368 OA
BRANCH   5   6
ATOM      6  C   UNL A   1      43.615  17.935  26.420  1.00  0.00     0.182 C 
BRANCH   6   7
ATOM      7  C   UNL A   1      42.310  18.749  26.439  1.00  0.00     0.144 C 
BRANCH   7   8
ATOM      8  N   UNL A   1      42.433  20.098  25.913  1.00  0.00    -0.352 N 
ATOM      9  C   UNL A   1      41.650  21.203  25.889  1.00  0.00     0.249 C 
ATOM     10  H   UNL A   1      43.296  20.245  25.462  1.00  0.00     0.163 HD
ATOM     11  O   UNL A   1      42.166  22.169  25.306  1.00  0.00    -0.272 OA
BRANCH   9  12
ATOM     12  C   UNL A   1      40.275  21.364  26.593  1.00  0.00     0.207 C 
ATOM     13  C   UNL A   1      39.265  22.418  26.153  1.00  0.00     0.042 C 
ATOM     14  O   UNL A   1      40.442  21.503  28.019  1.00  0.00    -0.368 OA
ATOM     15  C   UNL A   1      39.700  23.825  26.535  1.00  0.00     0.006 C 
ATOM     16  C   UNL A   1      41.012  22.765  28.385  1.00  0.00     0.161 C 
ATOM     17  C   UNL A   1      40.075  23.903  28.007  1.00  0.00     0.029 C 
ENDBRANCH   9  12
ENDBRANCH   7   8
ENDBRANCH   6   7
ENDBRANCH   5   6
ENDBRANCH   4   5
ENDBRANCH   2   4
ENDBRANCH   1   2
BRANCH   1  18
ATOM     18  C   UNL A   1      45.758  22.370  25.453  1.00  0.00     0.274 C 
BRANCH  18  19
ATOM     19  C   UNL A   1      45.342  23.123  24.189  1.00  0.00     0.275 C 
BRANCH  19  20
ATOM     20  O   UNL A   1      44.534  24.267  24.525  1.00  0.00    -0.458 OA
BRANCH  20  21
ATOM     21  C   UNL A   1      45.207  25.339  25.018  1.00  0.00     0.338 C 
ATOM     22  O   UNL A   1      46.248  25.802  24.585  1.00  0.00    -0.246 OA
BRANCH  21  23
ATOM     23  C   UNL A   1      44.413  25.979  26.095  1.00  0.00     0.060 A 
ATOM     24  C   UNL A   1      44.578  27.353  26.299  1.00  0.00     0.016 A 
ATOM     25  C   UNL A   1      43.499  25.266  26.882  1.00  0.00     0.016 A 
ATOM     26  C   UNL A   1      43.850  28.009  27.296  1.00  0.00     0.010 A 
ATOM     27  C   UNL A   1      42.772  25.925  27.882  1.00  0.00     0.010 A 
ATOM     28  C   UNL A   1      42.957  27.299  28.108  1.00  0.00    -0.014 A 
BRANCH  28  29
ATOM     29  C   UNL A   1      42.308  27.984  29.255  1.00  0.00     0.031 A 
ATOM     30  C   UNL A   1      42.955  27.920  30.608  1.00  0.00     0.074 A 
ATOM     31  C   UNL A   1      41.178  28.695  29.093  1.00  0.00     0.049 A 
ATOM     32  N   UNL A   1      42.599  28.504  31.725  1.00  0.00    -0.248 NA
ATOM     33  C   UNL A   1      44.161  27.086  30.720  1.00  0.00     0.031 C 
ATOM     34  C   UNL A   1      40.448  28.847  27.839  1.00  0.00     0.029 A 
ATOM     35  N   UNL A   1      40.448  29.430  29.995  1.00  0.00    -0.354 N 
ATOM     36  C   UNL A   1      43.555  28.139  32.662  1.00  0.00     0.074 A 
ATOM     37  C   UNL A   1      44.476  27.239  31.998  1.00  0.00     0.031 C 
ATOM     38  C   UNL A   1      39.375  29.631  28.046  1.00  0.00     0.029 A 
ATOM     39  C   UNL A   1      39.334  30.024  29.453  1.00  0.00     0.049 A 
ATOM     40  H   UNL A   1      40.699  29.521  30.943  1.00  0.00     0.167 HD
ATOM     41  C   UNL A   1      43.671  28.531  33.952  1.00  0.00     0.037 A 
ATOM     42  C   UNL A   1      38.391  30.795  30.026  1.00  0.00     0.037 A 
ATOM     43  C   UNL A   1      42.748  29.400  34.632  1.00  0.00     0.049 A 
ATOM     44  C   UNL A   1      38.501  31.152  31.485  1.00  0.00     0.074 A 
ATOM     45  C   UNL A   1      42.787  29.843  35.944  1.00  0.00     0.029 A 
ATOM     46  N   UNL A   1      41.614  29.953  34.058  1.00  0.00    -0.354 N 
ATOM     47  N   UNL A   1      39.437  30.841  32.346  1.00  0.00    -0.248 NA
ATOM     48  C   UNL A   1      37.420  31.977  32.049  1.00  0.00     0.031 C 
ATOM     49  C   UNL A   1      41.654  30.631  36.176  1.00  0.00     0.029 A 
ATOM     50  C   UNL A   1      40.933  30.712  34.996  1.00  0.00     0.049 A 
ATOM     51  H   UNL A   1      41.334  29.825  33.123  1.00  0.00     0.167 HD
ATOM     52  C   UNL A   1      39.076  31.454  33.541  1.00  0.00     0.074 A 
ATOM     53  C   UNL A   1      37.843  32.168  33.290  1.00  0.00     0.031 C 
ATOM     54  C   UNL A   1      39.709  31.425  34.739  1.00  0.00     0.037 A 
BRANCH  41  55
ATOM     55  C   UNL A   1      44.849  28.016  34.717  1.00  0.00     0.057 A 
ATOM     56  C   UNL A   1      46.093  28.656  34.656  1.00  0.00     0.134 A 
ATOM     57  C   UNL A   1      44.733  26.898  35.550  1.00  0.00     0.134 A 
ATOM     58  F   UNL A   1      46.269  29.725  33.864  1.00  0.00    -0.206 F 
ATOM     59  C   UNL A   1      47.187  28.194  35.389  1.00  0.00     0.040 A 
ATOM     60  C   UNL A   1      45.814  26.437  36.302  1.00  0.00     0.040 A 
ATOM     61  F   UNL A   1      43.567  26.241  35.652  1.00  0.00    -0.206 F 
ATOM     62  C   UNL A   1      47.046  27.084  36.220  1.00  0.00     0.006 A 
ENDBRANCH  41  55
BRANCH  42  63
ATOM     63  C   UNL A   1      37.237  31.289  29.231  1.00  0.00     0.057 A 
ATOM     64  C   UNL A   1      37.211  32.591  28.718  1.00  0.00     0.134 A 
ATOM     65  C   UNL A   1      36.104  30.492  29.031  1.00  0.00     0.134 A 
ATOM     66  F   UNL A   1      38.256  33.410  28.904  1.00  0.00    -0.206 F 
ATOM     67  C   UNL A   1      36.086  33.095  28.062  1.00  0.00     0.040 A 
ATOM     68  C   UNL A   1      34.982  30.975  28.357  1.00  0.00     0.040 A 
ATOM     69  F   UNL A   1      36.067  29.235  29.498  1.00  0.00    -0.206 F 
ATOM     70  C   UNL A   1      34.967  32.284  27.880  1.00  0.00     0.006 A 
ENDBRANCH  42  63
BRANCH  54  71
ATOM     71  C   UNL A   1      39.095  32.210  35.861  1.00  0.00     0.057 A 
ATOM     72  C   UNL A   1      38.207  31.622  36.772  1.00  0.00     0.134 A 
ATOM     73  C   UNL A   1      39.415  33.560  36.049  1.00  0.00     0.134 A 
ATOM     74  F   UNL A   1      37.848  30.336  36.639  1.00  0.00    -0.206 F 
ATOM     75  C   UNL A   1      37.639  32.359  37.815  1.00  0.00     0.040 A 
ATOM     76  C   UNL A   1      38.873  34.299  37.103  1.00  0.00     0.040 A 
ATOM     77  F   UNL A   1      40.266  34.181  35.218  1.00  0.00    -0.206 F 
ATOM     78  C   UNL A   1      37.977  33.700  37.985  1.00  0.00     0.006 A 
ENDBRANCH  54  71
ENDBRANCH  28  29
ENDBRANCH  21  23
ENDBRANCH  20  21
ENDBRANCH  19  20
ENDBRANCH  18  19
ENDBRANCH   1  18
TORSDOF 16
ENDMDL
MODEL 2
REMARK VINA RESULT:      -9.6      5.984     12.235
REMARK SMILES O=C(COCCNC(=O)[C@@H]1CCCCO1)OCCOC(=O)c1ccc(-c2c3nc(c(-c4c(F)cccc4F)c4ccc([nH]4)c(-c4c(F)cccc4F)c4nc(c(-c5c(F)cccc5F)c5ccc2[nH]5)C=C4)C=C3)cc1
REMARK SMILES IDX 16 1 2 2 1 3 3 4 4 5 5 6 6 7 7 8 8 9 9 11 10 12 11 13 15 14
REMARK SMILES IDX 12 15 14 16 13 17 17 18 18 19 19 20 20 21 21 22 22 23 23 24
REMARK SMILES IDX 75 25 24 26 74 27 25 28 26 29 27 30 68 31 28 32 73 33 67 34
REMARK SMILES IDX 69 35 29 36 72 37 66 38 65 39 30 41 56 42 39 43 55 44 40 45
REMARK SMILES IDX 43 46 54 47 70 48 41 49 42 50 53 52 71 53 44 54 31 55 32 56
REMARK SMILES IDX 37 57 33 58 34 59 36 60 38 61 35 62 57 63 58 64 63 65 59 66
REMARK SMILES IDX 60 67 62 68 64 69 61 70 45 71 46 72 51 73 47 74 48 75 50 76
REMARK SMILES IDX 52 77 49 78
REMARK H PARENT 7 10 69 40 43 51
REMARK Flexibility Score: inf
ROOT
ATOM      1  O   UNL A   1      34.626  35.686  32.623  1.00  0.00    -0.460 OA
ENDROOT
BRANCH   1   2
ATOM      2  C   UNL A   1      33.903  36.828  32.705  1.00  0.00     0.332 C 
ATOM      3  O   UNL A   1      33.815  37.406  33.788  1.00  0.00    -0.250 OA
BRANCH   2   4
ATOM      4  C   UNL A   1      33.155  37.342  31.459  1.00  0.00     0.282 C 
BRANCH   4   5
ATOM      5  O   UNL A   1      32.513  36.439  30.575  1.00  0.00    -0.368 OA
BRANCH   5   6
ATOM      6  C   UNL A   1      32.930  36.473  29.207  1.00  0.00     0.182 C 
BRANCH   6   7
ATOM      7  C   UNL A   1      34.127  35.566  28.874  1.00  0.00     0.144 C 
BRANCH   7   8
ATOM      8  N   UNL A   1      34.232  34.377  29.702  1.00  0.00    -0.352 N 
ATOM      9  C   UNL A   1      34.338  33.046  29.477  1.00  0.00     0.249 C 
ATOM     10  H   UNL A   1      34.224  34.592  30.664  1.00  0.00     0.163 HD
ATOM     11  O   UNL A   1      34.396  32.367  30.514  1.00  0.00    -0.272 OA
BRANCH   9  12
ATOM     12  C   UNL A   1      34.487  32.363  28.090  1.00  0.00     0.207 C 
ATOM     13  C   UNL A   1      34.326  30.857  27.913  1.00  0.00     0.042 C 
ATOM     14  O   UNL A   1      35.736  32.733  27.469  1.00  0.00    -0.368 OA
ATOM     15  C   UNL A   1      35.497  30.081  28.496  1.00  0.00     0.006 C 
ATOM     16  C   UNL A   1      36.868  32.141  28.116  1.00  0.00     0.161 C 
ATOM     17  C   UNL A   1      36.823  30.625  27.988  1.00  0.00     0.029 C 
ENDBRANCH   9  12
ENDBRANCH   7   8
ENDBRANCH   6   7
ENDBRANCH   5   6
ENDBRANCH   4   5
ENDBRANCH   2   4
ENDBRANCH   1   2
BRANCH   1  18
ATOM     18  C   UNL A   1      34.286  34.433  33.250  1.00  0.00     0.274 C 
BRANCH  18  19
ATOM     19  C   UNL A   1      35.434  33.917  34.117  1.00  0.00     0.275 C 
BRANCH  19  20
ATOM     20  O   UNL A   1      35.946  32.677  33.592  1.00  0.00    -0.458 OA
BRANCH  20  21
ATOM     21  C   UNL A   1      37.048  32.185  34.214  1.00  0.00     0.338 C 
ATOM     22  O   UNL A   1      37.219  32.092  35.417  1.00  0.00    -0.246 OA
BRANCH  21  23
ATOM     23  C   UNL A   1      37.985  31.626  33.209  1.00  0.00     0.060 A 
ATOM     24  C   UNL A   1      39.029  30.816  33.668  1.00  0.00     0.016 A 
ATOM     25  C   UNL A   1      37.843  31.861  31.835  1.00  0.00     0.016 A 
ATOM     26  C   UNL A   1      39.938  30.259  32.764  1.00  0.00     0.010 A 
ATOM     27  C   UNL A   1      38.757  31.303  30.930  1.00  0.00     0.010 A 
ATOM     28  C   UNL A   1      39.822  30.513  31.392  1.00  0.00    -0.014 A 
BRANCH  28  29
ATOM     29  C   UNL A   1      40.881  30.035  30.467  1.00  0.00     0.031 A 
ATOM     30  C   UNL A   1      42.041  30.936  30.152  1.00  0.00     0.074 A 
ATOM     31  C   UNL A   1      40.844  28.796  29.945  1.00  0.00     0.049 A 
ATOM     32  N   UNL A   1      43.107  30.693  29.432  1.00  0.00    -0.248 NA
ATOM     33  C   UNL A   1      41.990  32.291  30.721  1.00  0.00     0.031 C 
ATOM     34  C   UNL A   1      39.786  27.816  30.169  1.00  0.00     0.029 A 
ATOM     35  N   UNL A   1      41.728  28.148  29.117  1.00  0.00    -0.354 N 
ATOM     36  C   UNL A   1      43.871  31.850  29.491  1.00  0.00     0.074 A 
ATOM     37  C   UNL A   1      43.123  32.813  30.271  1.00  0.00     0.031 C 
ATOM     38  C   UNL A   1      40.082  26.688  29.502  1.00  0.00     0.029 A 
ATOM     39  C   UNL A   1      41.344  26.871  28.788  1.00  0.00     0.049 A 
ATOM     40  H   UNL A   1      42.560  28.562  28.789  1.00  0.00     0.167 HD
ATOM     41  C   UNL A   1      45.095  32.084  28.962  1.00  0.00     0.037 A 
ATOM     42  C   UNL A   1      41.942  25.956  28.002  1.00  0.00     0.037 A 
ATOM     43  C   UNL A   1      45.837  31.147  28.161  1.00  0.00     0.049 A 
ATOM     44  C   UNL A   1      43.267  26.272  27.360  1.00  0.00     0.074 A 
ATOM     45  C   UNL A   1      47.084  31.308  27.578  1.00  0.00     0.029 A 
ATOM     46  N   UNL A   1      45.399  29.877  27.821  1.00  0.00    -0.354 N 
ATOM     47  N   UNL A   1      44.003  27.351  27.464  1.00  0.00    -0.248 NA
ATOM     48  C   UNL A   1      43.848  25.234  26.493  1.00  0.00     0.031 C 
ATOM     49  C   UNL A   1      47.382  30.149  26.852  1.00  0.00     0.029 A 
ATOM     50  C   UNL A   1      46.339  29.253  27.017  1.00  0.00     0.049 A 
ATOM     51  H   UNL A   1      44.546  29.478  28.108  1.00  0.00     0.167 HD
ATOM     52  C   UNL A   1      45.142  27.111  26.705  1.00  0.00     0.074 A 
ATOM     53  C   UNL A   1      45.009  25.779  26.157  1.00  0.00     0.031 C 
ATOM     54  C   UNL A   1      46.203  27.924  26.480  1.00  0.00     0.037 A 
BRANCH  41  55
ATOM     55  C   UNL A   1      45.711  33.420  29.237  1.00  0.00     0.057 A 
ATOM     56  C   UNL A   1      46.587  33.611  30.313  1.00  0.00     0.134 A 
ATOM     57  C   UNL A   1      45.459  34.514  28.401  1.00  0.00     0.134 A 
ATOM     58  F   UNL A   1      46.855  32.602  31.157  1.00  0.00    -0.206 F 
ATOM     59  C   UNL A   1      47.183  34.848  30.556  1.00  0.00     0.040 A 
ATOM     60  C   UNL A   1      46.064  35.751  28.623  1.00  0.00     0.040 A 
ATOM     61  F   UNL A   1      44.630  34.395  27.354  1.00  0.00    -0.206 F 
ATOM     62  C   UNL A   1      46.927  35.922  29.705  1.00  0.00     0.006 A 
ENDBRANCH  41  55
BRANCH  42  63
ATOM     63  C   UNL A   1      41.299  24.640  27.755  1.00  0.00     0.057 A 
ATOM     64  C   UNL A   1      41.738  23.482  28.408  1.00  0.00     0.134 A 
ATOM     65  C   UNL A   1      40.281  24.500  26.804  1.00  0.00     0.134 A 
ATOM     66  F   UNL A   1      42.729  23.550  29.307  1.00  0.00    -0.206 F 
ATOM     67  C   UNL A   1      41.208  22.227  28.103  1.00  0.00     0.040 A 
ATOM     68  C   UNL A   1      39.727  23.255  26.507  1.00  0.00     0.040 A 
ATOM     69  F   UNL A   1      39.817  25.572  26.145  1.00  0.00    -0.206 F 
ATOM     70  C   UNL A   1      40.199  22.112  27.149  1.00  0.00     0.006 A 
ENDBRANCH  42  63
BRANCH  54  71
ATOM     71  C   UNL A   1      47.315  27.386  25.628  1.00  0.00     0.057 A 
ATOM     72  C   UNL A   1      48.386  26.670  26.179  1.00  0.00     0.134 A 
ATOM     73  C   UNL A   1      47.302  27.563  24.239  1.00  0.00     0.134 A 
ATOM     74  F   UNL A   1      48.465  26.478  27.505  1.00  0.00    -0.206 F 
ATOM     75  C   UNL A   1      49.418  26.172  25.380  1.00  0.00     0.040 A 
ATOM     76  C   UNL A   1      48.315  27.047  23.428  1.00  0.00     0.040 A 
ATOM     77  F   UNL A   1      46.301  28.231  23.646  1.00  0.00    -0.206 F 
ATOM     78  C   UNL A   1      49.380  26.356  23.999  1.00  0.00     0.006 A 
ENDBRANCH  54  71
ENDBRANCH  28  29
ENDBRANCH  21  23
ENDBRANCH  20  21
ENDBRANCH  19  20
ENDBRANCH  18  19
ENDBRANCH   1  18
TORSDOF 16
ENDMDL
MODEL 3
REMARK VINA RESULT:      -9.6      5.368     11.436
REMARK SMILES O=C(COCCNC(=O)[C@@H]1CCCCO1)OCCOC(=O)c1ccc(-c2c3nc(c(-c4c(F)cccc4F)c4ccc([nH]4)c(-c4c(F)cccc4F)c4nc(c(-c5c(F)cccc5F)c5ccc2[nH]5)C=C4)C=C3)cc1
REMARK SMILES IDX 16 1 2 2 1 3 3 4 4 5 5 6 6 7 7 8 8 9 9 11 10 12 11 13 15 14
REMARK SMILES IDX 12 15 14 16 13 17 17 18 18 19 19 20 20 21 21 22 22 23 23 24
REMARK SMILES IDX 75 25 24 26 74 27 25 28 26 29 27 30 68 31 28 32 73 33 67 34
REMARK SMILES IDX 69 35 29 36 72 37 66 38 65 39 30 41 56 42 39 43 55 44 40 45
REMARK SMILES IDX 43 46 54 47 70 48 41 49 42 50 53 52 71 53 44 54 31 55 32 56
REMARK SMILES IDX 37 57 33 58 34 59 36 60 38 61 35 62 57 63 58 64 63 65 59 66
REMARK SMILES IDX 60 67 62 68 64 69 61 70 45 71 46 72 51 73 47 74 48 75 50 76
REMARK SMILES IDX 52 77 49 78
REMARK H PARENT 7 10 69 40 43 51
REMARK Flexibility Score: inf
ROOT
ATOM      1  O   UNL A   1      34.116  35.558  29.317  1.00  0.00    -0.460 OA
ENDROOT
BRANCH   1   2
ATOM      2  C   UNL A   1      32.905  36.067  29.645  1.00  0.00     0.332 C 
ATOM      3  O   UNL A   1      32.153  36.452  28.751  1.00  0.00    -0.250 OA
BRANCH   2   4
ATOM      4  C   UNL A   1      32.523  36.214  31.132  1.00  0.00     0.282 C 
BRANCH   4   5
ATOM      5  O   UNL A   1      33.089  37.240  31.929  1.00  0.00    -0.368 OA
BRANCH   5   6
ATOM      6  C   UNL A   1      34.004  36.831  32.949  1.00  0.00     0.182 C 
BRANCH   6   7
ATOM      7  C   UNL A   1      34.258  35.316  33.019  1.00  0.00     0.144 C 
BRANCH   7   8
ATOM      8  N   UNL A   1      34.706  34.837  34.315  1.00  0.00    -0.352 N 
ATOM      9  C   UNL A   1      35.604  33.923  34.752  1.00  0.00     0.249 C 
ATOM     10  H   UNL A   1      34.242  35.288  35.058  1.00  0.00     0.163 HD
ATOM     11  O   UNL A   1      35.660  33.828  35.988  1.00  0.00    -0.272 OA
BRANCH   9  12
ATOM     12  C   UNL A   1      36.583  33.107  33.865  1.00  0.00     0.207 C 
ATOM     13  C   UNL A   1      37.405  31.952  34.426  1.00  0.00     0.042 C 
ATOM     14  O   UNL A   1      37.498  33.984  33.174  1.00  0.00    -0.368 OA
ATOM     15  C   UNL A   1      38.525  32.431  35.337  1.00  0.00     0.006 C 
ATOM     16  C   UNL A   1      38.459  34.579  34.052  1.00  0.00     0.161 C 
ATOM     17  C   UNL A   1      39.356  33.512  34.664  1.00  0.00     0.029 C 
ENDBRANCH   9  12
ENDBRANCH   7   8
ENDBRANCH   6   7
ENDBRANCH   5   6
ENDBRANCH   4   5
ENDBRANCH   2   4
ENDBRANCH   1   2
BRANCH   1  18
ATOM     18  C   UNL A   1      34.519  34.183  29.482  1.00  0.00     0.274 C 
BRANCH  18  19
ATOM     19  C   UNL A   1      33.779  33.268  28.506  1.00  0.00     0.275 C 
BRANCH  19  20
ATOM     20  O   UNL A   1      34.715  32.507  27.719  1.00  0.00    -0.458 OA
BRANCH  20  21
ATOM     21  C   UNL A   1      34.629  31.158  27.843  1.00  0.00     0.338 C 
ATOM     22  O   UNL A   1      33.719  30.451  27.444  1.00  0.00    -0.246 OA
BRANCH  21  23
ATOM     23  C   UNL A   1      35.888  30.624  28.417  1.00  0.00     0.060 A 
ATOM     24  C   UNL A   1      37.096  31.089  27.887  1.00  0.00     0.016 A 
ATOM     25  C   UNL A   1      35.903  29.704  29.473  1.00  0.00     0.016 A 
ATOM     26  C   UNL A   1      38.312  30.624  28.394  1.00  0.00     0.010 A 
ATOM     27  C   UNL A   1      37.124  29.237  29.979  1.00  0.00     0.010 A 
ATOM     28  C   UNL A   1      38.338  29.681  29.429  1.00  0.00    -0.014 A 
BRANCH  28  29
ATOM     29  C   UNL A   1      39.634  29.091  29.850  1.00  0.00     0.031 A 
ATOM     30  C   UNL A   1      40.343  29.656  31.047  1.00  0.00     0.074 A 
ATOM     31  C   UNL A   1      40.160  28.033  29.207  1.00  0.00     0.049 A 
ATOM     32  N   UNL A   1      41.443  29.249  31.627  1.00  0.00    -0.248 NA
ATOM     33  C   UNL A   1      39.733  30.841  31.670  1.00  0.00     0.031 C 
ATOM     34  C   UNL A   1      39.579  27.380  28.039  1.00  0.00     0.029 A 
ATOM     35  N   UNL A   1      41.306  27.317  29.453  1.00  0.00    -0.354 N 
ATOM     36  C   UNL A   1      41.639  30.102  32.704  1.00  0.00     0.074 A 
ATOM     37  C   UNL A   1      40.575  31.083  32.666  1.00  0.00     0.031 C 
ATOM     38  C   UNL A   1      40.366  26.355  27.669  1.00  0.00     0.029 A 
ATOM     39  C   UNL A   1      41.517  26.289  28.567  1.00  0.00     0.049 A 
ATOM     40  H   UNL A   1      41.920  27.523  30.196  1.00  0.00     0.167 HD
ATOM     41  C   UNL A   1      42.603  30.061  33.654  1.00  0.00     0.037 A 
ATOM     42  C   UNL A   1      42.524  25.398  28.489  1.00  0.00     0.037 A 
ATOM     43  C   UNL A   1      43.682  29.110  33.687  1.00  0.00     0.049 A 
ATOM     44  C   UNL A   1      43.628  25.426  29.513  1.00  0.00     0.074 A 
ATOM     45  C   UNL A   1      44.709  29.004  34.612  1.00  0.00     0.029 A 
ATOM     46  N   UNL A   1      43.881  28.107  32.753  1.00  0.00    -0.354 N 
ATOM     47  N   UNL A   1      43.774  26.205  30.555  1.00  0.00    -0.248 NA
ATOM     48  C   UNL A   1      44.708  24.438  29.349  1.00  0.00     0.031 C 
ATOM     49  C   UNL A   1      45.552  27.961  34.213  1.00  0.00     0.029 A 
ATOM     50  C   UNL A   1      45.027  27.392  33.065  1.00  0.00     0.049 A 
ATOM     51  H   UNL A   1      43.295  27.928  31.982  1.00  0.00     0.167 HD
ATOM     52  C   UNL A   1      44.940  25.786  31.186  1.00  0.00     0.074 A 
ATOM     53  C   UNL A   1      45.455  24.673  30.419  1.00  0.00     0.031 C 
ATOM     54  C   UNL A   1      45.531  26.282  32.300  1.00  0.00     0.037 A 
BRANCH  41  55
ATOM     55  C   UNL A   1      42.531  31.087  34.741  1.00  0.00     0.057 A 
ATOM     56  C   UNL A   1      43.072  32.368  34.570  1.00  0.00     0.134 A 
ATOM     57  C   UNL A   1      41.885  30.810  35.950  1.00  0.00     0.134 A 
ATOM     58  F   UNL A   1      43.717  32.688  33.437  1.00  0.00    -0.206 F 
ATOM     59  C   UNL A   1      42.983  33.335  35.571  1.00  0.00     0.040 A 
ATOM     60  C   UNL A   1      41.773  31.774  36.952  1.00  0.00     0.040 A 
ATOM     61  F   UNL A   1      41.346  29.601  36.174  1.00  0.00    -0.206 F 
ATOM     62  C   UNL A   1      42.326  33.041  36.765  1.00  0.00     0.006 A 
ENDBRANCH  41  55
BRANCH  42  63
ATOM     63  C   UNL A   1      42.557  24.394  27.395  1.00  0.00     0.057 A 
ATOM     64  C   UNL A   1      42.060  23.099  27.581  1.00  0.00     0.134 A 
ATOM     65  C   UNL A   1      43.157  24.687  26.164  1.00  0.00     0.134 A 
ATOM     66  F   UNL A   1      41.501  22.753  28.749  1.00  0.00    -0.206 F 
ATOM     67  C   UNL A   1      42.184  22.121  26.592  1.00  0.00     0.040 A 
ATOM     68  C   UNL A   1      43.267  23.725  25.159  1.00  0.00     0.040 A 
ATOM     69  F   UNL A   1      43.653  25.909  25.925  1.00  0.00    -0.206 F 
ATOM     70  C   UNL A   1      42.790  22.434  25.377  1.00  0.00     0.006 A 
ENDBRANCH  42  63
BRANCH  54  71
ATOM     71  C   UNL A   1      46.786  25.606  32.772  1.00  0.00     0.057 A 
ATOM     72  C   UNL A   1      46.761  24.611  33.758  1.00  0.00     0.134 A 
ATOM     73  C   UNL A   1      48.028  25.937  32.218  1.00  0.00     0.134 A 
ATOM     74  F   UNL A   1      45.605  24.258  34.340  1.00  0.00    -0.206 F 
ATOM     75  C   UNL A   1      47.933  23.986  34.193  1.00  0.00     0.040 A 
ATOM     76  C   UNL A   1      49.202  25.302  32.626  1.00  0.00     0.040 A 
ATOM     77  F   UNL A   1      48.121  26.875  31.263  1.00  0.00    -0.206 F 
ATOM     78  C   UNL A   1      49.157  24.328  33.622  1.00  0.00     0.006 A 
ENDBRANCH  54  71
ENDBRANCH  28  29
ENDBRANCH  21  23
ENDBRANCH  20  21
ENDBRANCH  19  20
ENDBRANCH  18  19
ENDBRANCH   1  18
TORSDOF 16
ENDMDL
