MODEL 1
REMARK VINA RESULT:     -11.8      0.000      0.000
REMARK SMILES CCc1nnc(/[NH+]=C2/S/C(=C/c3ccccc3OCCC(=O)OCCOC(=O)c3ccc(-c4c5nc(c(-c6c(F)cccc6F)c6ccc([nH]6)c(-c6c(F)cccc6F)c6nc(c(-c7c(F)cccc7F)c7ccc4[nH]7)C=C6)C=C5)cc3)C(=O)N2C)s1
REMARK SMILES IDX 21 1 22 2 20 3 19 4 18 5 17 6 12 7 13 8 14 9 16 10 15 11
REMARK SMILES IDX 11 12 7 13 8 14 9 16 85 17 10 18 83 19 86 20 84 21 6 22 3 23
REMARK SMILES IDX 4 24 87 25 5 26 2 27 1 28 23 29 24 30 25 31 26 32 27 33
REMARK SMILES IDX 28 34 29 35 30 36 82 37 31 38 81 39 32 40 33 41 34 42 75 43
REMARK SMILES IDX 35 44 80 45 74 46 76 47 36 48 79 49 73 50 72 51 37 53 63 54
REMARK SMILES IDX 46 55 62 56 47 57 50 58 61 59 77 60 48 61 49 62 60 64 78 65
REMARK SMILES IDX 51 66 38 67 39 68 44 69 40 70 41 71 43 72 45 73 42 74 64 75
REMARK SMILES IDX 65 76 70 77 66 78 67 79 69 80 71 81 68 82 52 83 53 84 58 85
REMARK SMILES IDX 54 86 55 87 57 88 59 89 56 90
REMARK H PARENT 7 15 76 52 50 63
REMARK Flexibility Score: inf
ROOT
ATOM      1  C   UNL A   1      34.096  31.521  27.629  1.00  0.00     0.309 C 
ATOM      2  O   UNL A   1      35.309  31.475  27.423  1.00  0.00    -0.252 OA
ENDROOT
BRANCH   1   3
ATOM      3  C   UNL A   1      33.220  30.313  27.282  1.00  0.00     0.164 C 
BRANCH   3   4
ATOM      4  C   UNL A   1      32.303  30.207  26.059  1.00  0.00     0.241 C 
BRANCH   4   5
ATOM      5  O   UNL A   1      32.582  29.289  25.002  1.00  0.00    -0.492 OA
BRANCH   5   6
ATOM      6  C   UNL A   1      31.486  28.615  24.559  1.00  0.00     0.126 A 
ATOM      7  C   UNL A   1      31.287  27.242  24.786  1.00  0.00     0.018 A 
ATOM      8  C   UNL A   1      30.139  26.677  24.204  1.00  0.00     0.012 A 
ATOM      9  C   UNL A   1      29.213  27.460  23.485  1.00  0.00     0.001 A 
ATOM     10  C   UNL A   1      30.613  29.378  23.766  1.00  0.00     0.047 A 
ATOM     11  C   UNL A   1      29.456  28.809  23.254  1.00  0.00     0.004 A 
BRANCH   7  12
ATOM     12  C   UNL A   1      32.316  26.354  25.392  1.00  0.00     0.035 C 
ATOM     13  N   UNL A   1      33.469  21.570  25.937  1.00  0.00    -0.226 N 
ATOM     14  C   UNL A   1      33.305  22.684  25.307  1.00  0.00     0.271 C 
ATOM     15  H   UNL A   1      33.773  21.576  26.875  1.00  0.00     0.268 HD
ATOM     16  S   UNL A   1      33.687  24.175  26.189  1.00  0.00    -0.012 SA
ATOM     17  N   UNL A   1      32.843  23.003  24.054  1.00  0.00    -0.222 N 
ATOM     18  C   UNL A   1      32.850  25.169  25.038  1.00  0.00     0.100 C 
ATOM     19  C   UNL A   1      32.738  24.360  23.788  1.00  0.00     0.321 C 
ATOM     20  C   UNL A   1      32.411  22.078  23.011  1.00  0.00     0.252 C 
ATOM     21  O   UNL A   1      32.579  24.825  22.684  1.00  0.00    -0.250 OA
BRANCH  13  22
ATOM     22  C   UNL A   1      33.227  20.396  25.317  1.00  0.00     0.345 A 
ATOM     23  C   UNL A   1      33.396  18.252  24.260  1.00  0.00     0.138 A 
ATOM     24  N   UNL A   1      32.153  18.569  24.550  1.00  0.00    -0.067 NA
ATOM     25  S   UNL A   1      34.532  19.491  24.618  1.00  0.00    -0.044 S 
ATOM     26  N   UNL A   1      32.058  19.815  25.138  1.00  0.00     0.023 NA
BRANCH  23  27
ATOM     27  C   UNL A   1      33.826  16.915  23.750  1.00  0.00     0.068 C 
ATOM     28  C   UNL A   1      34.756  16.188  24.703  1.00  0.00     0.012 C 
ENDBRANCH  23  27
ENDBRANCH  13  22
ENDBRANCH   7  12
ENDBRANCH   5   6
ENDBRANCH   4   5
ENDBRANCH   3   4
ENDBRANCH   1   3
BRANCH   1  29
ATOM     29  O   UNL A   1      33.440  32.653  28.006  1.00  0.00    -0.462 OA
BRANCH  29  30
ATOM     30  C   UNL A   1      34.262  33.719  28.548  1.00  0.00     0.274 C 
BRANCH  30  31
ATOM     31  C   UNL A   1      34.154  33.921  30.073  1.00  0.00     0.275 C 
BRANCH  31  32
ATOM     32  O   UNL A   1      35.425  33.818  30.741  1.00  0.00    -0.458 OA
BRANCH  32  33
ATOM     33  C   UNL A   1      35.672  32.619  31.336  1.00  0.00     0.338 C 
ATOM     34  O   UNL A   1      34.939  32.053  32.134  1.00  0.00    -0.246 OA
BRANCH  33  35
ATOM     35  C   UNL A   1      36.970  32.035  30.885  1.00  0.00     0.060 A 
ATOM     36  C   UNL A   1      37.427  32.190  29.579  1.00  0.00     0.016 A 
ATOM     37  C   UNL A   1      37.737  31.272  31.773  1.00  0.00     0.016 A 
ATOM     38  C   UNL A   1      38.548  31.491  29.126  1.00  0.00     0.010 A 
ATOM     39  C   UNL A   1      38.948  30.695  31.355  1.00  0.00     0.010 A 
ATOM     40  C   UNL A   1      39.363  30.780  30.016  1.00  0.00    -0.014 A 
BRANCH  40  41
ATOM     41  C   UNL A   1      40.671  30.205  29.565  1.00  0.00     0.031 A 
ATOM     42  C   UNL A   1      41.906  31.066  29.445  1.00  0.00     0.074 A 
ATOM     43  C   UNL A   1      40.740  28.900  29.218  1.00  0.00     0.049 A 
ATOM     44  N   UNL A   1      43.055  30.795  28.873  1.00  0.00    -0.248 NA
ATOM     45  C   UNL A   1      41.833  32.417  30.020  1.00  0.00     0.031 C 
ATOM     46  C   UNL A   1      39.632  27.943  29.288  1.00  0.00     0.029 A 
ATOM     47  N   UNL A   1      41.784  28.146  28.738  1.00  0.00    -0.354 N 
ATOM     48  C   UNL A   1      43.813  31.960  28.962  1.00  0.00     0.074 A 
ATOM     49  C   UNL A   1      42.993  32.940  29.642  1.00  0.00     0.031 C 
ATOM     50  C   UNL A   1      40.065  26.728  28.932  1.00  0.00     0.029 A 
ATOM     51  C   UNL A   1      41.445  26.837  28.486  1.00  0.00     0.049 A 
ATOM     52  H   UNL A   1      42.687  28.508  28.587  1.00  0.00     0.167 HD
ATOM     53  C   UNL A   1      45.073  32.186  28.510  1.00  0.00     0.037 A 
ATOM     54  C   UNL A   1      42.138  25.837  27.908  1.00  0.00     0.037 A 
ATOM     55  C   UNL A   1      45.898  31.181  27.882  1.00  0.00     0.049 A 
ATOM     56  C   UNL A   1      43.522  26.119  27.407  1.00  0.00     0.074 A 
ATOM     57  C   UNL A   1      47.199  31.296  27.418  1.00  0.00     0.029 A 
ATOM     58  N   UNL A   1      45.506  29.872  27.640  1.00  0.00    -0.354 N 
ATOM     59  N   UNL A   1      44.208  27.234  27.458  1.00  0.00    -0.248 NA
ATOM     60  C   UNL A   1      44.220  25.008  26.747  1.00  0.00     0.031 C 
ATOM     61  C   UNL A   1      47.574  30.072  26.853  1.00  0.00     0.029 A 
ATOM     62  C   UNL A   1      46.530  29.175  27.017  1.00  0.00     0.049 A 
ATOM     63  H   UNL A   1      44.629  29.492  27.876  1.00  0.00     0.167 HD
ATOM     64  C   UNL A   1      45.426  26.957  26.856  1.00  0.00     0.074 A 
ATOM     65  C   UNL A   1      45.393  25.562  26.470  1.00  0.00     0.031 C 
ATOM     66  C   UNL A   1      46.477  27.786  26.638  1.00  0.00     0.037 A 
BRANCH  53  67
ATOM     67  C   UNL A   1      45.630  33.580  28.634  1.00  0.00     0.057 A 
ATOM     68  C   UNL A   1      45.437  34.562  27.655  1.00  0.00     0.134 A 
ATOM     69  C   UNL A   1      46.336  33.960  29.787  1.00  0.00     0.134 A 
ATOM     70  F   UNL A   1      44.778  34.273  26.523  1.00  0.00    -0.206 F 
ATOM     71  C   UNL A   1      45.946  35.856  27.801  1.00  0.00     0.040 A 
ATOM     72  C   UNL A   1      46.822  35.257  29.960  1.00  0.00     0.040 A 
ATOM     73  F   UNL A   1      46.549  33.079  30.777  1.00  0.00    -0.206 F 
ATOM     74  C   UNL A   1      46.635  36.209  28.960  1.00  0.00     0.006 A 
ENDBRANCH  53  67
BRANCH  54  75
ATOM     75  C   UNL A   1      41.514  24.499  27.736  1.00  0.00     0.057 A 
ATOM     76  C   UNL A   1      40.543  24.274  26.753  1.00  0.00     0.134 A 
ATOM     77  C   UNL A   1      41.882  23.407  28.534  1.00  0.00     0.134 A 
ATOM     78  F   UNL A   1      40.127  25.282  25.973  1.00  0.00    -0.206 F 
ATOM     79  C   UNL A   1      39.956  23.019  26.575  1.00  0.00     0.040 A 
ATOM     80  C   UNL A   1      41.330  22.139  28.344  1.00  0.00     0.040 A 
ATOM     81  F   UNL A   1      42.810  23.549  29.492  1.00  0.00    -0.206 F 
ATOM     82  C   UNL A   1      40.359  21.944  27.366  1.00  0.00     0.006 A 
ENDBRANCH  54  75
BRANCH  66  83
ATOM     83  C   UNL A   1      47.685  27.177  25.987  1.00  0.00     0.057 A 
ATOM     84  C   UNL A   1      47.845  27.150  24.597  1.00  0.00     0.134 A 
ATOM     85  C   UNL A   1      48.694  26.598  26.767  1.00  0.00     0.134 A 
ATOM     86  F   UNL A   1      46.906  27.672  23.792  1.00  0.00    -0.206 F 
ATOM     87  C   UNL A   1      48.947  26.533  24.001  1.00  0.00     0.040 A 
ATOM     88  C   UNL A   1      49.814  26.005  26.186  1.00  0.00     0.040 A 
ATOM     89  F   UNL A   1      48.605  26.596  28.107  1.00  0.00    -0.206 F 
ATOM     90  C   UNL A   1      49.938  25.961  24.799  1.00  0.00     0.006 A 
ENDBRANCH  66  83
ENDBRANCH  40  41
ENDBRANCH  33  35
ENDBRANCH  32  33
ENDBRANCH  31  32
ENDBRANCH  30  31
ENDBRANCH  29  30
ENDBRANCH   1  29
TORSDOF 17
ENDMDL
MODEL 2
REMARK VINA RESULT:     -11.7      4.533      8.646
REMARK SMILES CCc1nnc(/[NH+]=C2/S/C(=C/c3ccccc3OCCC(=O)OCCOC(=O)c3ccc(-c4c5nc(c(-c6c(F)cccc6F)c6ccc([nH]6)c(-c6c(F)cccc6F)c6nc(c(-c7c(F)cccc7F)c7ccc4[nH]7)C=C6)C=C5)cc3)C(=O)N2C)s1
REMARK SMILES IDX 21 1 22 2 20 3 19 4 18 5 17 6 12 7 13 8 14 9 16 10 15 11
REMARK SMILES IDX 11 12 7 13 8 14 9 16 85 17 10 18 83 19 86 20 84 21 6 22 3 23
REMARK SMILES IDX 4 24 87 25 5 26 2 27 1 28 23 29 24 30 25 31 26 32 27 33
REMARK SMILES IDX 28 34 29 35 30 36 82 37 31 38 81 39 32 40 33 41 34 42 75 43
REMARK SMILES IDX 35 44 80 45 74 46 76 47 36 48 79 49 73 50 72 51 37 53 63 54
REMARK SMILES IDX 46 55 62 56 47 57 50 58 61 59 77 60 48 61 49 62 60 64 78 65
REMARK SMILES IDX 51 66 38 67 39 68 44 69 40 70 41 71 43 72 45 73 42 74 64 75
REMARK SMILES IDX 65 76 70 77 66 78 67 79 69 80 71 81 68 82 52 83 53 84 58 85
REMARK SMILES IDX 54 86 55 87 57 88 59 89 56 90
REMARK H PARENT 7 15 76 52 50 63
REMARK Flexibility Score: inf
ROOT
ATOM      1  C   UNL A   1      32.056  28.135  27.097  1.00  0.00     0.309 C 
ATOM      2  O   UNL A   1      31.302  27.171  27.231  1.00  0.00    -0.252 OA
ENDROOT
BRANCH   1   3
ATOM      3  C   UNL A   1      33.513  27.910  26.680  1.00  0.00     0.164 C 
BRANCH   3   4
ATOM      4  C   UNL A   1      33.998  26.833  25.706  1.00  0.00     0.241 C 
BRANCH   4   5
ATOM      5  O   UNL A   1      33.915  25.446  26.032  1.00  0.00    -0.492 OA
BRANCH   5   6
ATOM      6  C   UNL A   1      34.647  24.645  25.213  1.00  0.00     0.126 A 
ATOM      7  C   UNL A   1      34.178  24.185  23.969  1.00  0.00     0.018 A 
ATOM      8  C   UNL A   1      35.027  23.308  23.272  1.00  0.00     0.012 A 
ATOM      9  C   UNL A   1      36.300  22.960  23.769  1.00  0.00     0.001 A 
ATOM     10  C   UNL A   1      35.876  24.228  25.751  1.00  0.00     0.047 A 
ATOM     11  C   UNL A   1      36.720  23.409  25.015  1.00  0.00     0.004 A 
BRANCH   7  12
ATOM     12  C   UNL A   1      32.785  24.393  23.492  1.00  0.00     0.035 C 
ATOM     13  N   UNL A   1      29.302  27.890  23.105  1.00  0.00    -0.226 N 
ATOM     14  C   UNL A   1      30.410  27.288  22.834  1.00  0.00     0.271 C 
ATOM     15  H   UNL A   1      28.508  27.366  23.362  1.00  0.00     0.268 HD
ATOM     16  S   UNL A   1      30.406  25.516  22.907  1.00  0.00    -0.012 SA
ATOM     17  N   UNL A   1      31.672  27.726  22.517  1.00  0.00    -0.222 N 
ATOM     18  C   UNL A   1      32.139  25.429  22.921  1.00  0.00     0.100 C 
ATOM     19  C   UNL A   1      32.629  26.731  22.381  1.00  0.00     0.321 C 
ATOM     20  C   UNL A   1      32.114  29.108  22.365  1.00  0.00     0.252 C 
ATOM     21  O   UNL A   1      33.718  26.900  21.885  1.00  0.00    -0.250 OA
BRANCH  13  22
ATOM     22  C   UNL A   1      29.225  29.236  23.038  1.00  0.00     0.345 A 
ATOM     23  C   UNL A   1      28.755  31.507  22.432  1.00  0.00     0.138 A 
ATOM     24  N   UNL A   1      29.282  31.409  23.633  1.00  0.00    -0.067 NA
ATOM     25  S   UNL A   1      28.647  30.008  21.596  1.00  0.00    -0.044 S 
ATOM     26  N   UNL A   1      29.573  30.102  23.969  1.00  0.00     0.023 NA
BRANCH  23  27
ATOM     27  C   UNL A   1      28.207  32.770  21.853  1.00  0.00     0.068 C 
ATOM     28  C   UNL A   1      27.752  32.615  20.414  1.00  0.00     0.012 C 
ENDBRANCH  23  27
ENDBRANCH  13  22
ENDBRANCH   7  12
ENDBRANCH   5   6
ENDBRANCH   4   5
ENDBRANCH   3   4
ENDBRANCH   1   3
BRANCH   1  29
ATOM     29  O   UNL A   1      31.720  29.406  27.454  1.00  0.00    -0.462 OA
BRANCH  29  30
ATOM     30  C   UNL A   1      31.958  30.435  26.458  1.00  0.00     0.274 C 
BRANCH  30  31
ATOM     31  C   UNL A   1      31.561  31.864  26.883  1.00  0.00     0.275 C 
BRANCH  31  32
ATOM     32  O   UNL A   1      32.615  32.822  26.670  1.00  0.00    -0.458 OA
BRANCH  32  33
ATOM     33  C   UNL A   1      32.963  33.552  27.765  1.00  0.00     0.338 C 
ATOM     34  O   UNL A   1      32.356  34.519  28.202  1.00  0.00    -0.246 OA
BRANCH  33  35
ATOM     35  C   UNL A   1      34.200  33.022  28.412  1.00  0.00     0.060 A 
ATOM     36  C   UNL A   1      34.320  31.683  28.772  1.00  0.00     0.016 A 
ATOM     37  C   UNL A   1      35.256  33.890  28.712  1.00  0.00     0.016 A 
ATOM     38  C   UNL A   1      35.404  31.241  29.535  1.00  0.00     0.010 A 
ATOM     39  C   UNL A   1      36.416  33.410  29.344  1.00  0.00     0.010 A 
ATOM     40  C   UNL A   1      36.499  32.079  29.783  1.00  0.00    -0.014 A 
BRANCH  40  41
ATOM     41  C   UNL A   1      37.743  31.542  30.422  1.00  0.00     0.031 A 
ATOM     42  C   UNL A   1      38.653  30.586  29.686  1.00  0.00     0.074 A 
ATOM     43  C   UNL A   1      38.039  31.885  31.696  1.00  0.00     0.049 A 
ATOM     44  N   UNL A   1      39.642  29.860  30.148  1.00  0.00    -0.248 NA
ATOM     45  C   UNL A   1      38.401  30.403  28.249  1.00  0.00     0.031 C 
ATOM     46  C   UNL A   1      37.259  32.804  32.530  1.00  0.00     0.029 A 
ATOM     47  N   UNL A   1      39.074  31.507  32.517  1.00  0.00    -0.354 N 
ATOM     48  C   UNL A   1      40.086  29.089  29.077  1.00  0.00     0.074 A 
ATOM     49  C   UNL A   1      39.257  29.436  27.942  1.00  0.00     0.031 C 
ATOM     50  C   UNL A   1      37.871  32.967  33.710  1.00  0.00     0.029 A 
ATOM     51  C   UNL A   1      39.015  32.073  33.770  1.00  0.00     0.049 A 
ATOM     52  H   UNL A   1      39.789  30.891  32.237  1.00  0.00     0.167 HD
ATOM     53  C   UNL A   1      41.089  28.174  29.050  1.00  0.00     0.037 A 
ATOM     54  C   UNL A   1      39.758  31.861  34.874  1.00  0.00     0.037 A 
ATOM     55  C   UNL A   1      41.942  27.879  30.177  1.00  0.00     0.049 A 
ATOM     56  C   UNL A   1      40.849  30.836  34.820  1.00  0.00     0.074 A 
ATOM     57  C   UNL A   1      43.008  26.996  30.247  1.00  0.00     0.029 A 
ATOM     58  N   UNL A   1      41.837  28.471  31.428  1.00  0.00    -0.354 N 
ATOM     59  N   UNL A   1      41.228  30.085  33.816  1.00  0.00    -0.248 NA
ATOM     60  C   UNL A   1      41.603  30.613  36.060  1.00  0.00     0.031 C 
ATOM     61  C   UNL A   1      43.512  27.017  31.552  1.00  0.00     0.029 A 
ATOM     62  C   UNL A   1      42.802  27.958  32.281  1.00  0.00     0.049 A 
ATOM     63  H   UNL A   1      41.173  29.155  31.674  1.00  0.00     0.167 HD
ATOM     64  C   UNL A   1      42.276  29.313  34.293  1.00  0.00     0.074 A 
ATOM     65  C   UNL A   1      42.488  29.706  35.672  1.00  0.00     0.031 C 
ATOM     66  C   UNL A   1      42.996  28.360  33.651  1.00  0.00     0.037 A 
BRANCH  53  67
ATOM     67  C   UNL A   1      41.298  27.389  27.781  1.00  0.00     0.057 A 
ATOM     68  C   UNL A   1      42.180  27.801  26.775  1.00  0.00     0.134 A 
ATOM     69  C   UNL A   1      40.635  26.167  27.588  1.00  0.00     0.134 A 
ATOM     70  F   UNL A   1      42.845  28.960  26.885  1.00  0.00    -0.206 F 
ATOM     71  C   UNL A   1      42.374  27.045  25.614  1.00  0.00     0.040 A 
ATOM     72  C   UNL A   1      40.843  25.388  26.448  1.00  0.00     0.040 A 
ATOM     73  F   UNL A   1      39.785  25.698  28.514  1.00  0.00    -0.206 F 
ATOM     74  C   UNL A   1      41.710  25.831  25.452  1.00  0.00     0.006 A 
ENDBRANCH  53  67
BRANCH  54  75
ATOM     75  C   UNL A   1      39.460  32.605  36.127  1.00  0.00     0.057 A 
ATOM     76  C   UNL A   1      40.102  33.813  36.423  1.00  0.00     0.134 A 
ATOM     77  C   UNL A   1      38.514  32.139  37.051  1.00  0.00     0.134 A 
ATOM     78  F   UNL A   1      41.036  34.301  35.593  1.00  0.00    -0.206 F 
ATOM     79  C   UNL A   1      39.824  34.524  37.591  1.00  0.00     0.040 A 
ATOM     80  C   UNL A   1      38.200  32.858  38.206  1.00  0.00     0.040 A 
ATOM     81  F   UNL A   1      37.857  30.991  36.829  1.00  0.00    -0.206 F 
ATOM     82  C   UNL A   1      38.861  34.051  38.482  1.00  0.00     0.006 A 
ENDBRANCH  54  75
BRANCH  66  83
ATOM     83  C   UNL A   1      44.103  27.717  34.434  1.00  0.00     0.057 A 
ATOM     84  C   UNL A   1      43.919  26.519  35.134  1.00  0.00     0.134 A 
ATOM     85  C   UNL A   1      45.367  28.317  34.496  1.00  0.00     0.134 A 
ATOM     86  F   UNL A   1      42.727  25.904  35.130  1.00  0.00    -0.206 F 
ATOM     87  C   UNL A   1      44.941  25.960  35.903  1.00  0.00     0.040 A 
ATOM     88  C   UNL A   1      46.406  27.752  35.235  1.00  0.00     0.040 A 
ATOM     89  F   UNL A   1      45.613  29.463  33.842  1.00  0.00    -0.206 F 
ATOM     90  C   UNL A   1      46.192  26.576  35.951  1.00  0.00     0.006 A 
ENDBRANCH  66  83
ENDBRANCH  40  41
ENDBRANCH  33  35
ENDBRANCH  32  33
ENDBRANCH  31  32
ENDBRANCH  30  31
ENDBRANCH  29  30
ENDBRANCH   1  29
TORSDOF 17
ENDMDL
MODEL 3
REMARK VINA RESULT:     -11.3      4.151      7.606
REMARK SMILES CCc1nnc(/[NH+]=C2/S/C(=C/c3ccccc3OCCC(=O)OCCOC(=O)c3ccc(-c4c5nc(c(-c6c(F)cccc6F)c6ccc([nH]6)c(-c6c(F)cccc6F)c6nc(c(-c7c(F)cccc7F)c7ccc4[nH]7)C=C6)C=C5)cc3)C(=O)N2C)s1
REMARK SMILES IDX 21 1 22 2 20 3 19 4 18 5 17 6 12 7 13 8 14 9 16 10 15 11
REMARK SMILES IDX 11 12 7 13 8 14 9 16 85 17 10 18 83 19 86 20 84 21 6 22 3 23
REMARK SMILES IDX 4 24 87 25 5 26 2 27 1 28 23 29 24 30 25 31 26 32 27 33
REMARK SMILES IDX 28 34 29 35 30 36 82 37 31 38 81 39 32 40 33 41 34 42 75 43
REMARK SMILES IDX 35 44 80 45 74 46 76 47 36 48 79 49 73 50 72 51 37 53 63 54
REMARK SMILES IDX 46 55 62 56 47 57 50 58 61 59 77 60 48 61 49 62 60 64 78 65
REMARK SMILES IDX 51 66 38 67 39 68 44 69 40 70 41 71 43 72 45 73 42 74 64 75
REMARK SMILES IDX 65 76 70 77 66 78 67 79 69 80 71 81 68 82 52 83 53 84 58 85
REMARK SMILES IDX 54 86 55 87 57 88 59 89 56 90
REMARK H PARENT 7 15 76 52 50 63
REMARK Flexibility Score: inf
ROOT
ATOM      1  C   UNL A   1      33.366  29.675  27.098  1.00  0.00     0.309 C 
ATOM      2  O   UNL A   1      34.460  29.140  27.281  1.00  0.00    -0.252 OA
ENDROOT
BRANCH   1   3
ATOM      3  C   UNL A   1      32.116  28.809  26.911  1.00  0.00     0.164 C 
BRANCH   3   4
ATOM      4  C   UNL A   1      31.386  28.583  25.583  1.00  0.00     0.241 C 
BRANCH   4   5
ATOM      5  O   UNL A   1      31.579  29.459  24.474  1.00  0.00    -0.492 OA
BRANCH   5   6
ATOM      6  C   UNL A   1      30.421  29.834  23.865  1.00  0.00     0.126 A 
ATOM      7  C   UNL A   1      29.899  29.175  22.738  1.00  0.00     0.018 A 
ATOM      8  C   UNL A   1      28.731  29.727  22.184  1.00  0.00     0.012 A 
ATOM      9  C   UNL A   1      28.092  30.842  22.764  1.00  0.00     0.001 A 
ATOM     10  C   UNL A   1      29.837  30.999  24.390  1.00  0.00     0.047 A 
ATOM     11  C   UNL A   1      28.652  31.487  23.860  1.00  0.00     0.004 A 
BRANCH   7  12
ATOM     12  C   UNL A   1      30.627  28.107  22.002  1.00  0.00     0.035 C 
ATOM     13  N   UNL A   1      33.436  24.101  22.763  1.00  0.00    -0.226 N 
ATOM     14  C   UNL A   1      32.355  24.807  22.761  1.00  0.00     0.271 C 
ATOM     15  H   UNL A   1      34.107  24.230  22.053  1.00  0.00     0.268 HD
ATOM     16  S   UNL A   1      32.141  25.954  21.425  1.00  0.00    -0.012 SA
ATOM     17  N   UNL A   1      31.290  24.908  23.621  1.00  0.00    -0.222 N 
ATOM     18  C   UNL A   1      30.873  26.806  22.249  1.00  0.00     0.100 C 
ATOM     19  C   UNL A   1      30.351  25.875  23.292  1.00  0.00     0.321 C 
ATOM     20  C   UNL A   1      31.074  24.152  24.851  1.00  0.00     0.252 C 
ATOM     21  O   UNL A   1      29.251  25.949  23.788  1.00  0.00    -0.250 OA
BRANCH  13  22
ATOM     22  C   UNL A   1      33.649  23.187  23.732  1.00  0.00     0.345 A 
ATOM     23  C   UNL A   1      34.143  22.052  25.785  1.00  0.00     0.138 A 
ATOM     24  N   UNL A   1      33.600  21.255  24.891  1.00  0.00    -0.067 NA
ATOM     25  S   UNL A   1      34.443  23.643  25.205  1.00  0.00    -0.044 S 
ATOM     26  N   UNL A   1      33.338  21.906  23.703  1.00  0.00     0.023 NA
BRANCH  23  27
ATOM     27  C   UNL A   1      34.405  21.672  27.205  1.00  0.00     0.068 C 
ATOM     28  C   UNL A   1      33.358  22.204  28.166  1.00  0.00     0.012 C 
ENDBRANCH  23  27
ENDBRANCH  13  22
ENDBRANCH   7  12
ENDBRANCH   5   6
ENDBRANCH   4   5
ENDBRANCH   3   4
ENDBRANCH   1   3
BRANCH   1  29
ATOM     29  O   UNL A   1      33.211  31.011  26.887  1.00  0.00    -0.462 OA
BRANCH  29  30
ATOM     30  C   UNL A   1      31.914  31.567  27.228  1.00  0.00     0.274 C 
BRANCH  30  31
ATOM     31  C   UNL A   1      31.778  33.090  27.022  1.00  0.00     0.275 C 
BRANCH  31  32
ATOM     32  O   UNL A   1      33.018  33.793  27.223  1.00  0.00    -0.458 OA
BRANCH  32  33
ATOM     33  C   UNL A   1      33.235  34.234  28.492  1.00  0.00     0.338 C 
ATOM     34  O   UNL A   1      32.528  35.019  29.107  1.00  0.00    -0.246 OA
BRANCH  33  35
ATOM     35  C   UNL A   1      34.462  33.625  29.087  1.00  0.00     0.060 A 
ATOM     36  C   UNL A   1      34.404  32.463  29.852  1.00  0.00     0.016 A 
ATOM     37  C   UNL A   1      35.702  34.249  28.917  1.00  0.00     0.016 A 
ATOM     38  C   UNL A   1      35.526  32.007  30.548  1.00  0.00     0.010 A 
ATOM     39  C   UNL A   1      36.861  33.700  29.492  1.00  0.00     0.010 A 
ATOM     40  C   UNL A   1      36.787  32.579  30.335  1.00  0.00    -0.014 A 
BRANCH  40  41
ATOM     41  C   UNL A   1      38.018  31.959  30.922  1.00  0.00     0.031 A 
ATOM     42  C   UNL A   1      38.806  30.914  30.167  1.00  0.00     0.074 A 
ATOM     43  C   UNL A   1      38.410  32.308  32.168  1.00  0.00     0.049 A 
ATOM     44  N   UNL A   1      39.758  30.121  30.597  1.00  0.00    -0.248 NA
ATOM     45  C   UNL A   1      38.462  30.716  28.752  1.00  0.00     0.031 C 
ATOM     46  C   UNL A   1      37.753  33.308  33.015  1.00  0.00     0.029 A 
ATOM     47  N   UNL A   1      39.455  31.868  32.944  1.00  0.00    -0.354 N 
ATOM     48  C   UNL A   1      40.079  29.291  29.527  1.00  0.00     0.074 A 
ATOM     49  C   UNL A   1      39.219  29.675  28.429  1.00  0.00     0.031 C 
ATOM     50  C   UNL A   1      38.439  33.451  34.156  1.00  0.00     0.029 A 
ATOM     51  C   UNL A   1      39.510  32.467  34.182  1.00  0.00     0.049 A 
ATOM     52  H   UNL A   1      40.101  31.188  32.645  1.00  0.00     0.167 HD
ATOM     53  C   UNL A   1      41.002  28.296  29.475  1.00  0.00     0.037 A 
ATOM     54  C   UNL A   1      40.292  32.224  35.250  1.00  0.00     0.037 A 
ATOM     55  C   UNL A   1      41.890  27.961  30.563  1.00  0.00     0.049 A 
ATOM     56  C   UNL A   1      41.294  31.112  35.169  1.00  0.00     0.074 A 
ATOM     57  C   UNL A   1      42.884  26.996  30.603  1.00  0.00     0.029 A 
ATOM     58  N   UNL A   1      41.901  28.591  31.800  1.00  0.00    -0.354 N 
ATOM     59  N   UNL A   1      41.556  30.307  34.168  1.00  0.00    -0.248 NA
ATOM     60  C   UNL A   1      42.094  30.859  36.373  1.00  0.00     0.031 C 
ATOM     61  C   UNL A   1      43.459  27.009  31.879  1.00  0.00     0.029 A 
ATOM     62  C   UNL A   1      42.868  28.022  32.616  1.00  0.00     0.049 A 
ATOM     63  H   UNL A   1      41.309  29.333  32.061  1.00  0.00     0.167 HD
ATOM     64  C   UNL A   1      42.563  29.465  34.613  1.00  0.00     0.074 A 
ATOM     65  C   UNL A   1      42.881  29.874  35.966  1.00  0.00     0.031 C 
ATOM     66  C   UNL A   1      43.168  28.441  33.961  1.00  0.00     0.037 A 
BRANCH  53  67
ATOM     67  C   UNL A   1      41.078  27.465  28.220  1.00  0.00     0.057 A 
ATOM     68  C   UNL A   1      41.953  27.763  27.169  1.00  0.00     0.134 A 
ATOM     69  C   UNL A   1      40.289  26.312  28.087  1.00  0.00     0.134 A 
ATOM     70  F   UNL A   1      42.734  28.852  27.221  1.00  0.00    -0.206 F 
ATOM     71  C   UNL A   1      42.021  26.966  26.022  1.00  0.00     0.040 A 
ATOM     72  C   UNL A   1      40.370  25.490  26.961  1.00  0.00     0.040 A 
ATOM     73  F   UNL A   1      39.436  25.953  29.059  1.00  0.00    -0.206 F 
ATOM     74  C   UNL A   1      41.233  25.821  25.919  1.00  0.00     0.006 A 
ENDBRANCH  53  67
BRANCH  54  75
ATOM     75  C   UNL A   1      40.124  33.020  36.495  1.00  0.00     0.057 A 
ATOM     76  C   UNL A   1      40.932  34.133  36.758  1.00  0.00     0.134 A 
ATOM     77  C   UNL A   1      39.143  32.702  37.444  1.00  0.00     0.134 A 
ATOM     78  F   UNL A   1      41.907  34.475  35.903  1.00  0.00    -0.206 F 
ATOM     79  C   UNL A   1      40.777  34.893  37.918  1.00  0.00     0.040 A 
ATOM     80  C   UNL A   1      38.953  33.475  38.591  1.00  0.00     0.040 A 
ATOM     81  F   UNL A   1      38.330  31.652  37.255  1.00  0.00    -0.206 F 
ATOM     82  C   UNL A   1      39.777  34.571  38.834  1.00  0.00     0.006 A 
ENDBRANCH  54  75
BRANCH  66  83
ATOM     83  C   UNL A   1      44.262  27.730  34.703  1.00  0.00     0.057 A 
ATOM     84  C   UNL A   1      45.594  28.156  34.649  1.00  0.00     0.134 A 
ATOM     85  C   UNL A   1      43.975  26.594  35.471  1.00  0.00     0.134 A 
ATOM     86  F   UNL A   1      45.938  29.226  33.917  1.00  0.00    -0.206 F 
ATOM     87  C   UNL A   1      46.611  27.454  35.299  1.00  0.00     0.040 A 
ATOM     88  C   UNL A   1      44.977  25.902  36.151  1.00  0.00     0.040 A 
ATOM     89  F   UNL A   1      42.716  26.137  35.570  1.00  0.00    -0.206 F 
ATOM     90  C   UNL A   1      46.301  26.324  36.057  1.00  0.00     0.006 A 
ENDBRANCH  66  83
ENDBRANCH  40  41
ENDBRANCH  33  35
ENDBRANCH  32  33
ENDBRANCH  31  32
ENDBRANCH  30  31
ENDBRANCH  29  30
ENDBRANCH   1  29
TORSDOF 17
ENDMDL
