MODEL 1
REMARK VINA RESULT:     -11.5      0.000      0.000
REMARK SMILES COc1cc(Cn2cc(C(=O)OCCOC(=O)c3ccc(-c4c5nc(c(-c6c(F)cccc6F)c6ccc([nH]6)c(-c6c(F)cccc6F)c6nc(c(-c7c(F)cccc7F)c7ccc4[nH]7)C=C6)C=C5)cc3)c(=O)[nH]c2=O)ccn1
REMARK SMILES IDX 13 1 12 2 10 3 11 4 9 5 7 6 8 7 75 8 74 9 76 10 72 11 73 13
REMARK SMILES IDX 6 14 5 15 3 16 4 17 79 18 78 19 77 20 2 21 1 22 14 23 15 24
REMARK SMILES IDX 16 25 17 26 18 27 19 28 71 29 20 30 70 31 21 32 22 33 23 34
REMARK SMILES IDX 64 35 24 36 69 37 63 38 65 39 25 40 68 41 62 42 61 43 26 45
REMARK SMILES IDX 52 46 35 47 51 48 36 49 39 50 50 51 66 52 37 53 38 54 49 56
REMARK SMILES IDX 67 57 40 58 27 59 28 60 33 61 29 62 30 63 32 64 34 65 31 66
REMARK SMILES IDX 53 67 54 68 59 69 55 70 56 71 58 72 60 73 57 74 41 75 42 76
REMARK SMILES IDX 47 77 43 78 44 79 46 80 48 81 45 82
REMARK H PARENT 74 12 65 44 39 55
REMARK Flexibility Score: inf
ROOT
ATOM      1  C   UNL A   1      35.579  33.617  28.481  1.00  0.00     0.275 C 
ENDROOT
BRANCH   1   2
ATOM      2  O   UNL A   1      34.705  34.669  28.017  1.00  0.00    -0.458 OA
BRANCH   2   3
ATOM      3  C   UNL A   1      33.436  34.663  28.516  1.00  0.00     0.345 C 
ATOM      4  O   UNL A   1      32.496  34.057  28.033  1.00  0.00    -0.246 OA
BRANCH   3   5
ATOM      5  C   UNL A   1      33.301  35.572  29.675  1.00  0.00     0.141 A 
ATOM      6  N   UNL A   1      33.691  35.828  32.020  1.00  0.00    -0.295 N 
ATOM      7  C   UNL A   1      33.466  35.054  30.896  1.00  0.00     0.112 A 
ATOM      8  C   UNL A   1      33.688  37.215  31.963  1.00  0.00     0.328 A 
ATOM      9  N   UNL A   1      33.404  37.745  30.735  1.00  0.00    -0.273 N 
ATOM     10  O   UNL A   1      33.939  37.951  32.914  1.00  0.00    -0.248 OA
ATOM     11  C   UNL A   1      33.238  37.047  29.572  1.00  0.00     0.268 A 
ATOM     12  H   UNL A   1      33.310  38.724  30.684  1.00  0.00     0.175 HD
ATOM     13  O   UNL A   1      33.028  37.649  28.528  1.00  0.00    -0.268 OA
BRANCH   6  14
ATOM     14  C   UNL A   1      34.088  35.170  33.265  1.00  0.00     0.162 C 
BRANCH  14  15
ATOM     15  C   UNL A   1      35.294  34.279  33.058  1.00  0.00    -0.021 A 
ATOM     16  C   UNL A   1      37.595  33.964  32.495  1.00  0.00     0.213 A 
ATOM     17  C   UNL A   1      36.531  34.827  32.713  1.00  0.00     0.074 A 
ATOM     18  N   UNL A   1      37.502  32.621  32.524  1.00  0.00    -0.222 NA
ATOM     19  C   UNL A   1      36.295  32.109  32.832  1.00  0.00     0.115 A 
ATOM     20  C   UNL A   1      35.187  32.884  33.131  1.00  0.00     0.026 A 
BRANCH  16  21
ATOM     21  O   UNL A   1      38.845  34.460  32.228  1.00  0.00    -0.481 OA
ATOM     22  C   UNL A   1      39.030  34.538  30.817  1.00  0.00     0.280 C 
ENDBRANCH  16  21
ENDBRANCH  14  15
ENDBRANCH   6  14
ENDBRANCH   3   5
ENDBRANCH   2   3
ENDBRANCH   1   2
BRANCH   1  23
ATOM     23  C   UNL A   1      35.106  32.238  28.015  1.00  0.00     0.275 C 
BRANCH  23  24
ATOM     24  O   UNL A   1      35.378  31.237  29.011  1.00  0.00    -0.458 OA
BRANCH  24  25
ATOM     25  C   UNL A   1      35.600  29.997  28.528  1.00  0.00     0.338 C 
ATOM     26  O   UNL A   1      34.796  29.262  27.965  1.00  0.00    -0.246 OA
BRANCH  25  27
ATOM     27  C   UNL A   1      37.030  29.689  28.619  1.00  0.00     0.060 A 
ATOM     28  C   UNL A   1      37.609  29.143  29.759  1.00  0.00     0.016 A 
ATOM     29  C   UNL A   1      37.784  29.847  27.464  1.00  0.00     0.016 A 
ATOM     30  C   UNL A   1      38.961  28.776  29.720  1.00  0.00     0.010 A 
ATOM     31  C   UNL A   1      39.092  29.399  27.393  1.00  0.00     0.010 A 
ATOM     32  C   UNL A   1      39.712  28.885  28.529  1.00  0.00    -0.014 A 
BRANCH  32  33
ATOM     33  C   UNL A   1      41.128  28.446  28.446  1.00  0.00     0.031 A 
ATOM     34  C   UNL A   1      41.480  27.015  28.123  1.00  0.00     0.074 A 
ATOM     35  C   UNL A   1      42.105  29.329  28.729  1.00  0.00     0.049 A 
ATOM     36  N   UNL A   1      42.662  26.470  27.962  1.00  0.00    -0.248 NA
ATOM     37  C   UNL A   1      40.367  26.059  27.999  1.00  0.00     0.031 C 
ATOM     38  C   UNL A   1      41.896  30.707  29.180  1.00  0.00     0.029 A 
ATOM     39  N   UNL A   1      43.469  29.205  28.668  1.00  0.00    -0.354 N 
ATOM     40  C   UNL A   1      42.429  25.120  27.722  1.00  0.00     0.074 A 
ATOM     41  C   UNL A   1      41.004  24.910  27.845  1.00  0.00     0.031 C 
ATOM     42  C   UNL A   1      43.085  31.322  29.283  1.00  0.00     0.029 A 
ATOM     43  C   UNL A   1      44.138  30.376  28.935  1.00  0.00     0.049 A 
ATOM     44  H   UNL A   1      43.926  28.359  28.455  1.00  0.00     0.167 HD
ATOM     45  C   UNL A   1      43.313  24.150  27.385  1.00  0.00     0.037 A 
ATOM     46  C   UNL A   1      45.453  30.656  28.877  1.00  0.00     0.037 A 
ATOM     47  C   UNL A   1      44.728  24.367  27.244  1.00  0.00     0.049 A 
ATOM     48  C   UNL A   1      46.411  29.573  28.468  1.00  0.00     0.074 A 
ATOM     49  C   UNL A   1      45.706  23.473  26.845  1.00  0.00     0.029 A 
ATOM     50  N   UNL A   1      45.365  25.572  27.499  1.00  0.00    -0.354 N 
ATOM     51  N   UNL A   1      46.164  28.330  28.132  1.00  0.00    -0.248 NA
ATOM     52  C   UNL A   1      47.833  29.939  28.419  1.00  0.00     0.031 C 
ATOM     53  C   UNL A   1      46.941  24.132  26.884  1.00  0.00     0.029 A 
ATOM     54  C   UNL A   1      46.724  25.445  27.273  1.00  0.00     0.049 A 
ATOM     55  H   UNL A   1      44.916  26.396  27.796  1.00  0.00     0.167 HD
ATOM     56  C   UNL A   1      47.394  27.772  27.811  1.00  0.00     0.074 A 
ATOM     57  C   UNL A   1      48.381  28.822  27.966  1.00  0.00     0.031 C 
ATOM     58  C   UNL A   1      47.686  26.506  27.427  1.00  0.00     0.037 A 
BRANCH  45  59
ATOM     59  C   UNL A   1      42.761  22.779  27.108  1.00  0.00     0.057 A 
ATOM     60  C   UNL A   1      42.427  21.905  28.149  1.00  0.00     0.134 A 
ATOM     61  C   UNL A   1      42.574  22.320  25.796  1.00  0.00     0.134 A 
ATOM     62  F   UNL A   1      42.590  22.273  29.429  1.00  0.00    -0.206 F 
ATOM     63  C   UNL A   1      41.919  20.628  27.894  1.00  0.00     0.040 A 
ATOM     64  C   UNL A   1      42.040  21.057  25.530  1.00  0.00     0.040 A 
ATOM     65  F   UNL A   1      42.866  23.109  24.751  1.00  0.00    -0.206 F 
ATOM     66  C   UNL A   1      41.717  20.205  26.582  1.00  0.00     0.006 A 
ENDBRANCH  45  59
BRANCH  46  67
ATOM     67  C   UNL A   1      45.940  32.032  29.147  1.00  0.00     0.057 A 
ATOM     68  C   UNL A   1      46.035  32.992  28.134  1.00  0.00     0.134 A 
ATOM     69  C   UNL A   1      46.294  32.423  30.444  1.00  0.00     0.134 A 
ATOM     70  F   UNL A   1      45.722  32.677  26.870  1.00  0.00    -0.206 F 
ATOM     71  C   UNL A   1      46.460  34.294  28.403  1.00  0.00     0.040 A 
ATOM     72  C   UNL A   1      46.695  33.728  30.731  1.00  0.00     0.040 A 
ATOM     73  F   UNL A   1      46.210  31.550  31.459  1.00  0.00    -0.206 F 
ATOM     74  C   UNL A   1      46.780  34.669  29.707  1.00  0.00     0.006 A 
ENDBRANCH  46  67
BRANCH  58  75
ATOM     75  C   UNL A   1      49.123  26.204  27.127  1.00  0.00     0.057 A 
ATOM     76  C   UNL A   1      49.611  26.289  25.817  1.00  0.00     0.134 A 
ATOM     77  C   UNL A   1      50.020  25.819  28.131  1.00  0.00     0.134 A 
ATOM     78  F   UNL A   1      48.800  26.646  24.810  1.00  0.00    -0.206 F 
ATOM     79  C   UNL A   1      50.942  26.005  25.517  1.00  0.00     0.040 A 
ATOM     80  C   UNL A   1      51.361  25.557  27.847  1.00  0.00     0.040 A 
ATOM     81  F   UNL A   1      49.617  25.734  29.408  1.00  0.00    -0.206 F 
ATOM     82  C   UNL A   1      51.824  25.646  26.536  1.00  0.00     0.006 A 
ENDBRANCH  58  75
ENDBRANCH  32  33
ENDBRANCH  25  27
ENDBRANCH  24  25
ENDBRANCH  23  24
ENDBRANCH   1  23
TORSDOF 14
ENDMDL
MODEL 2
REMARK VINA RESULT:     -11.1      5.602     13.426
REMARK SMILES COc1cc(Cn2cc(C(=O)OCCOC(=O)c3ccc(-c4c5nc(c(-c6c(F)cccc6F)c6ccc([nH]6)c(-c6c(F)cccc6F)c6nc(c(-c7c(F)cccc7F)c7ccc4[nH]7)C=C6)C=C5)cc3)c(=O)[nH]c2=O)ccn1
REMARK SMILES IDX 13 1 12 2 10 3 11 4 9 5 7 6 8 7 75 8 74 9 76 10 72 11 73 13
REMARK SMILES IDX 6 14 5 15 3 16 4 17 79 18 78 19 77 20 2 21 1 22 14 23 15 24
REMARK SMILES IDX 16 25 17 26 18 27 19 28 71 29 20 30 70 31 21 32 22 33 23 34
REMARK SMILES IDX 64 35 24 36 69 37 63 38 65 39 25 40 68 41 62 42 61 43 26 45
REMARK SMILES IDX 52 46 35 47 51 48 36 49 39 50 50 51 66 52 37 53 38 54 49 56
REMARK SMILES IDX 67 57 40 58 27 59 28 60 33 61 29 62 30 63 32 64 34 65 31 66
REMARK SMILES IDX 53 67 54 68 59 69 55 70 56 71 58 72 60 73 57 74 41 75 42 76
REMARK SMILES IDX 47 77 43 78 44 79 46 80 48 81 45 82
REMARK H PARENT 74 12 65 44 39 55
REMARK Flexibility Score: inf
ROOT
ATOM      1  C   UNL A   1      41.177  21.541  27.470  1.00  0.00     0.275 C 
ENDROOT
BRANCH   1   2
ATOM      2  O   UNL A   1      41.641  21.173  26.153  1.00  0.00    -0.458 OA
BRANCH   2   3
ATOM      3  C   UNL A   1      41.737  19.837  25.898  1.00  0.00     0.345 C 
ATOM      4  O   UNL A   1      40.818  19.041  25.977  1.00  0.00    -0.246 OA
BRANCH   3   5
ATOM      5  C   UNL A   1      43.130  19.436  25.607  1.00  0.00     0.141 A 
ATOM      6  N   UNL A   1      45.304  20.215  24.983  1.00  0.00    -0.295 N 
ATOM      7  C   UNL A   1      43.926  20.331  25.013  1.00  0.00     0.112 A 
ATOM      8  C   UNL A   1      45.953  19.108  25.512  1.00  0.00     0.328 A 
ATOM      9  N   UNL A   1      45.132  18.137  26.016  1.00  0.00    -0.273 N 
ATOM     10  O   UNL A   1      47.173  18.976  25.565  1.00  0.00    -0.248 OA
ATOM     11  C   UNL A   1      43.772  18.214  26.139  1.00  0.00     0.268 A 
ATOM     12  H   UNL A   1      45.560  17.305  26.319  1.00  0.00     0.175 HD
ATOM     13  O   UNL A   1      43.157  17.287  26.649  1.00  0.00    -0.268 OA
BRANCH   6  14
ATOM     14  C   UNL A   1      46.101  21.350  24.518  1.00  0.00     0.162 C 
BRANCH  14  15
ATOM     15  C   UNL A   1      45.587  22.655  25.086  1.00  0.00    -0.021 A 
ATOM     16  C   UNL A   1      45.402  24.238  26.867  1.00  0.00     0.213 A 
ATOM     17  C   UNL A   1      45.932  23.053  26.378  1.00  0.00     0.074 A 
ATOM     18  N   UNL A   1      44.513  25.002  26.203  1.00  0.00    -0.222 NA
ATOM     19  C   UNL A   1      44.170  24.589  24.968  1.00  0.00     0.115 A 
ATOM     20  C   UNL A   1      44.692  23.458  24.365  1.00  0.00     0.026 A 
BRANCH  16  21
ATOM     21  O   UNL A   1      45.773  24.706  28.100  1.00  0.00    -0.481 OA
ATOM     22  C   UNL A   1      47.188  24.875  28.134  1.00  0.00     0.280 C 
ENDBRANCH  16  21
ENDBRANCH  14  15
ENDBRANCH   6  14
ENDBRANCH   3   5
ENDBRANCH   2   3
ENDBRANCH   1   2
BRANCH   1  23
ATOM     23  C   UNL A   1      41.380  23.032  27.748  1.00  0.00     0.275 C 
BRANCH  23  24
ATOM     24  O   UNL A   1      41.098  23.817  26.577  1.00  0.00    -0.458 OA
BRANCH  24  25
ATOM     25  C   UNL A   1      39.986  24.577  26.654  1.00  0.00     0.338 C 
ATOM     26  O   UNL A   1      38.911  24.384  26.094  1.00  0.00    -0.246 OA
BRANCH  25  27
ATOM     27  C   UNL A   1      40.179  25.620  27.665  1.00  0.00     0.060 A 
ATOM     28  C   UNL A   1      41.060  26.679  27.491  1.00  0.00     0.016 A 
ATOM     29  C   UNL A   1      39.344  25.584  28.774  1.00  0.00     0.016 A 
ATOM     30  C   UNL A   1      41.100  27.692  28.461  1.00  0.00     0.010 A 
ATOM     31  C   UNL A   1      39.313  26.628  29.684  1.00  0.00     0.010 A 
ATOM     32  C   UNL A   1      40.213  27.685  29.558  1.00  0.00    -0.014 A 
BRANCH  32  33
ATOM     33  C   UNL A   1      40.193  28.776  30.565  1.00  0.00     0.031 A 
ATOM     34  C   UNL A   1      39.191  29.901  30.471  1.00  0.00     0.074 A 
ATOM     35  C   UNL A   1      41.128  28.790  31.535  1.00  0.00     0.049 A 
ATOM     36  N   UNL A   1      39.000  30.908  31.289  1.00  0.00    -0.248 NA
ATOM     37  C   UNL A   1      38.313  29.924  29.290  1.00  0.00     0.031 C 
ATOM     38  C   UNL A   1      42.230  27.833  31.661  1.00  0.00     0.029 A 
ATOM     39  N   UNL A   1      41.295  29.630  32.605  1.00  0.00    -0.354 N 
ATOM     40  C   UNL A   1      37.989  31.674  30.719  1.00  0.00     0.074 A 
ATOM     41  C   UNL A   1      37.667  31.068  29.447  1.00  0.00     0.031 C 
ATOM     42  C   UNL A   1      42.913  28.095  32.787  1.00  0.00     0.029 A 
ATOM     43  C   UNL A   1      42.316  29.252  33.443  1.00  0.00     0.049 A 
ATOM     44  H   UNL A   1      40.738  30.427  32.758  1.00  0.00     0.167 HD
ATOM     45  C   UNL A   1      37.352  32.757  31.226  1.00  0.00     0.037 A 
ATOM     46  C   UNL A   1      42.707  29.770  34.622  1.00  0.00     0.037 A 
ATOM     47  C   UNL A   1      37.661  33.346  32.502  1.00  0.00     0.049 A 
ATOM     48  C   UNL A   1      41.964  30.951  35.182  1.00  0.00     0.074 A 
ATOM     49  C   UNL A   1      37.039  34.403  33.142  1.00  0.00     0.029 A 
ATOM     50  N   UNL A   1      38.687  32.921  33.333  1.00  0.00    -0.354 N 
ATOM     51  N   UNL A   1      40.935  31.594  34.686  1.00  0.00    -0.248 NA
ATOM     52  C   UNL A   1      42.433  31.469  36.474  1.00  0.00     0.031 C 
ATOM     53  C   UNL A   1      37.706  34.634  34.351  1.00  0.00     0.029 A 
ATOM     54  C   UNL A   1      38.720  33.698  34.477  1.00  0.00     0.049 A 
ATOM     55  H   UNL A   1      39.300  32.175  33.137  1.00  0.00     0.167 HD
ATOM     56  C   UNL A   1      40.619  32.577  35.614  1.00  0.00     0.074 A 
ATOM     57  C   UNL A   1      41.551  32.426  36.714  1.00  0.00     0.031 C 
ATOM     58  C   UNL A   1      39.652  33.524  35.562  1.00  0.00     0.037 A 
BRANCH  45  59
ATOM     59  C   UNL A   1      36.233  33.343  30.412  1.00  0.00     0.057 A 
ATOM     60  C   UNL A   1      36.487  34.185  29.323  1.00  0.00     0.134 A 
ATOM     61  C   UNL A   1      34.890  33.080  30.723  1.00  0.00     0.134 A 
ATOM     62  F   UNL A   1      37.746  34.489  28.975  1.00  0.00    -0.206 F 
ATOM     63  C   UNL A   1      35.448  34.736  28.569  1.00  0.00     0.040 A 
ATOM     64  C   UNL A   1      33.845  33.602  29.958  1.00  0.00     0.040 A 
ATOM     65  F   UNL A   1      34.574  32.275  31.749  1.00  0.00    -0.206 F 
ATOM     66  C   UNL A   1      34.123  34.438  28.880  1.00  0.00     0.006 A 
ENDBRANCH  45  59
BRANCH  46  67
ATOM     67  C   UNL A   1      43.811  29.140  35.390  1.00  0.00     0.057 A 
ATOM     68  C   UNL A   1      45.148  29.497  35.184  1.00  0.00     0.134 A 
ATOM     69  C   UNL A   1      43.542  28.181  36.373  1.00  0.00     0.134 A 
ATOM     70  F   UNL A   1      45.473  30.401  34.250  1.00  0.00    -0.206 F 
ATOM     71  C   UNL A   1      46.177  28.925  35.935  1.00  0.00     0.040 A 
ATOM     72  C   UNL A   1      44.558  27.622  37.148  1.00  0.00     0.040 A 
ATOM     73  F   UNL A   1      42.277  27.809  36.624  1.00  0.00    -0.206 F 
ATOM     74  C   UNL A   1      45.882  27.994  36.929  1.00  0.00     0.006 A 
ENDBRANCH  46  67
BRANCH  58  75
ATOM     75  C   UNL A   1      39.542  34.445  36.739  1.00  0.00     0.057 A 
ATOM     76  C   UNL A   1      38.826  34.062  37.880  1.00  0.00     0.134 A 
ATOM     77  C   UNL A   1      40.137  35.713  36.740  1.00  0.00     0.134 A 
ATOM     78  F   UNL A   1      38.228  32.863  37.939  1.00  0.00    -0.206 F 
ATOM     79  C   UNL A   1      38.707  34.908  38.982  1.00  0.00     0.040 A 
ATOM     80  C   UNL A   1      40.046  36.558  37.847  1.00  0.00     0.040 A 
ATOM     81  F   UNL A   1      40.849  36.132  35.683  1.00  0.00    -0.206 F 
ATOM     82  C   UNL A   1      39.326  36.157  38.971  1.00  0.00     0.006 A 
ENDBRANCH  58  75
ENDBRANCH  32  33
ENDBRANCH  25  27
ENDBRANCH  24  25
ENDBRANCH  23  24
ENDBRANCH   1  23
TORSDOF 14
ENDMDL
MODEL 3
REMARK VINA RESULT:     -11.1      5.681     10.355
REMARK SMILES COc1cc(Cn2cc(C(=O)OCCOC(=O)c3ccc(-c4c5nc(c(-c6c(F)cccc6F)c6ccc([nH]6)c(-c6c(F)cccc6F)c6nc(c(-c7c(F)cccc7F)c7ccc4[nH]7)C=C6)C=C5)cc3)c(=O)[nH]c2=O)ccn1
REMARK SMILES IDX 13 1 12 2 10 3 11 4 9 5 7 6 8 7 75 8 74 9 76 10 72 11 73 13
REMARK SMILES IDX 6 14 5 15 3 16 4 17 79 18 78 19 77 20 2 21 1 22 14 23 15 24
REMARK SMILES IDX 16 25 17 26 18 27 19 28 71 29 20 30 70 31 21 32 22 33 23 34
REMARK SMILES IDX 64 35 24 36 69 37 63 38 65 39 25 40 68 41 62 42 61 43 26 45
REMARK SMILES IDX 52 46 35 47 51 48 36 49 39 50 50 51 66 52 37 53 38 54 49 56
REMARK SMILES IDX 67 57 40 58 27 59 28 60 33 61 29 62 30 63 32 64 34 65 31 66
REMARK SMILES IDX 53 67 54 68 59 69 55 70 56 71 58 72 60 73 57 74 41 75 42 76
REMARK SMILES IDX 47 77 43 78 44 79 46 80 48 81 45 82
REMARK H PARENT 74 12 65 44 39 55
REMARK Flexibility Score: inf
ROOT
ATOM      1  C   UNL A   1      31.442  29.088  24.757  1.00  0.00     0.275 C 
ENDROOT
BRANCH   1   2
ATOM      2  O   UNL A   1      32.250  27.943  25.109  1.00  0.00    -0.458 OA
BRANCH   2   3
ATOM      3  C   UNL A   1      32.169  26.868  24.275  1.00  0.00     0.345 C 
ATOM      4  O   UNL A   1      32.483  26.869  23.098  1.00  0.00    -0.246 OA
BRANCH   3   5
ATOM      5  C   UNL A   1      31.552  25.702  24.945  1.00  0.00     0.141 A 
ATOM      6  N   UNL A   1      31.951  23.826  26.373  1.00  0.00    -0.295 N 
ATOM      7  C   UNL A   1      32.367  24.774  25.455  1.00  0.00     0.112 A 
ATOM      8  C   UNL A   1      30.625  23.733  26.774  1.00  0.00     0.328 A 
ATOM      9  N   UNL A   1      29.770  24.608  26.163  1.00  0.00    -0.273 N 
ATOM     10  O   UNL A   1      30.209  22.952  27.626  1.00  0.00    -0.248 OA
ATOM     11  C   UNL A   1      30.120  25.611  25.301  1.00  0.00     0.268 A 
ATOM     12  H   UNL A   1      28.812  24.507  26.363  1.00  0.00     0.175 HD
ATOM     13  O   UNL A   1      29.257  26.355  24.856  1.00  0.00    -0.268 OA
BRANCH   6  14
ATOM     14  C   UNL A   1      32.955  23.003  27.047  1.00  0.00     0.162 C 
BRANCH  14  15
ATOM     15  C   UNL A   1      33.403  21.852  26.173  1.00  0.00    -0.021 A 
ATOM     16  C   UNL A   1      32.998  19.756  25.098  1.00  0.00     0.213 A 
ATOM     17  C   UNL A   1      32.527  20.808  25.870  1.00  0.00     0.074 A 
ATOM     18  N   UNL A   1      34.272  19.635  24.676  1.00  0.00    -0.222 NA
ATOM     19  C   UNL A   1      35.110  20.637  25.001  1.00  0.00     0.115 A 
ATOM     20  C   UNL A   1      34.722  21.761  25.711  1.00  0.00     0.026 A 
BRANCH  16  21
ATOM     21  O   UNL A   1      32.154  18.747  24.712  1.00  0.00    -0.481 OA
ATOM     22  C   UNL A   1      32.600  17.517  25.276  1.00  0.00     0.280 C 
ENDBRANCH  16  21
ENDBRANCH  14  15
ENDBRANCH   6  14
ENDBRANCH   3   5
ENDBRANCH   2   3
ENDBRANCH   1   2
BRANCH   1  23
ATOM     23  C   UNL A   1      31.709  30.277  25.681  1.00  0.00     0.275 C 
BRANCH  23  24
ATOM     24  O   UNL A   1      33.022  30.194  26.261  1.00  0.00    -0.458 OA
BRANCH  24  25
ATOM     25  C   UNL A   1      33.381  31.253  27.016  1.00  0.00     0.338 C 
ATOM     26  O   UNL A   1      32.700  32.234  27.295  1.00  0.00    -0.246 OA
BRANCH  25  27
ATOM     27  C   UNL A   1      34.689  30.995  27.624  1.00  0.00     0.060 A 
ATOM     28  C   UNL A   1      35.590  32.009  27.924  1.00  0.00     0.016 A 
ATOM     29  C   UNL A   1      34.956  29.689  28.014  1.00  0.00     0.016 A 
ATOM     30  C   UNL A   1      36.771  31.684  28.608  1.00  0.00     0.010 A 
ATOM     31  C   UNL A   1      36.074  29.380  28.771  1.00  0.00     0.010 A 
ATOM     32  C   UNL A   1      37.016  30.367  29.053  1.00  0.00    -0.014 A 
BRANCH  32  33
ATOM     33  C   UNL A   1      38.229  30.010  29.831  1.00  0.00     0.031 A 
ATOM     34  C   UNL A   1      38.436  30.535  31.231  1.00  0.00     0.074 A 
ATOM     35  C   UNL A   1      39.183  29.259  29.248  1.00  0.00     0.049 A 
ATOM     36  N   UNL A   1      39.411  30.286  32.071  1.00  0.00    -0.248 NA
ATOM     37  C   UNL A   1      37.444  31.494  31.745  1.00  0.00     0.031 C 
ATOM     38  C   UNL A   1      39.164  28.795  27.859  1.00  0.00     0.029 A 
ATOM     39  N   UNL A   1      40.349  28.743  29.753  1.00  0.00    -0.354 N 
ATOM     40  C   UNL A   1      39.147  31.053  33.200  1.00  0.00     0.074 A 
ATOM     41  C   UNL A   1      37.971  31.842  32.907  1.00  0.00     0.031 C 
ATOM     42  C   UNL A   1      40.227  28.004  27.645  1.00  0.00     0.029 A 
ATOM     43  C   UNL A   1      41.015  27.929  28.869  1.00  0.00     0.049 A 
ATOM     44  H   UNL A   1      40.678  28.939  30.660  1.00  0.00     0.167 HD
ATOM     45  C   UNL A   1      39.793  31.070  34.391  1.00  0.00     0.037 A 
ATOM     46  C   UNL A   1      42.123  27.185  29.041  1.00  0.00     0.037 A 
ATOM     47  C   UNL A   1      40.950  30.268  34.687  1.00  0.00     0.049 A 
ATOM     48  C   UNL A   1      42.804  27.191  30.381  1.00  0.00     0.074 A 
ATOM     49  C   UNL A   1      41.646  30.156  35.877  1.00  0.00     0.029 A 
ATOM     50  N   UNL A   1      41.581  29.437  33.773  1.00  0.00    -0.354 N 
ATOM     51  N   UNL A   1      42.476  27.834  31.476  1.00  0.00    -0.248 NA
ATOM     52  C   UNL A   1      44.007  26.358  30.510  1.00  0.00     0.031 C 
ATOM     53  C   UNL A   1      42.716  29.276  35.677  1.00  0.00     0.029 A 
ATOM     54  C   UNL A   1      42.663  28.813  34.371  1.00  0.00     0.049 A 
ATOM     55  H   UNL A   1      41.301  29.309  32.838  1.00  0.00     0.167 HD
ATOM     56  C   UNL A   1      43.415  27.465  32.429  1.00  0.00     0.074 A 
ATOM     57  C   UNL A   1      44.310  26.522  31.789  1.00  0.00     0.031 C 
ATOM     58  C   UNL A   1      43.535  27.873  33.716  1.00  0.00     0.037 A 
BRANCH  45  59
ATOM     59  C   UNL A   1      39.232  31.954  35.469  1.00  0.00     0.057 A 
ATOM     60  C   UNL A   1      38.301  31.470  36.395  1.00  0.00     0.134 A 
ATOM     61  C   UNL A   1      39.608  33.301  35.577  1.00  0.00     0.134 A 
ATOM     62  F   UNL A   1      37.886  30.196  36.345  1.00  0.00    -0.206 F 
ATOM     63  C   UNL A   1      37.771  32.292  37.394  1.00  0.00     0.040 A 
ATOM     64  C   UNL A   1      39.108  34.123  36.589  1.00  0.00     0.040 A 
ATOM     65  F   UNL A   1      40.502  33.828  34.727  1.00  0.00    -0.206 F 
ATOM     66  C   UNL A   1      38.182  33.620  37.498  1.00  0.00     0.006 A 
ENDBRANCH  45  59
BRANCH  46  67
ATOM     67  C   UNL A   1      42.624  26.319  27.945  1.00  0.00     0.057 A 
ATOM     68  C   UNL A   1      43.554  26.781  27.007  1.00  0.00     0.134 A 
ATOM     69  C   UNL A   1      42.198  24.990  27.831  1.00  0.00     0.134 A 
ATOM     70  F   UNL A   1      43.993  28.046  27.054  1.00  0.00    -0.206 F 
ATOM     71  C   UNL A   1      44.047  25.949  26.000  1.00  0.00     0.040 A 
ATOM     72  C   UNL A   1      42.702  24.141  26.846  1.00  0.00     0.040 A 
ATOM     73  F   UNL A   1      41.317  24.487  28.710  1.00  0.00    -0.206 F 
ATOM     74  C   UNL A   1      43.629  24.621  25.924  1.00  0.00     0.006 A 
ENDBRANCH  46  67
BRANCH  58  75
ATOM     75  C   UNL A   1      44.655  27.276  34.513  1.00  0.00     0.057 A 
ATOM     76  C   UNL A   1      44.469  26.083  35.224  1.00  0.00     0.134 A 
ATOM     77  C   UNL A   1      45.913  27.886  34.586  1.00  0.00     0.134 A 
ATOM     78  F   UNL A   1      43.284  25.454  35.200  1.00  0.00    -0.206 F 
ATOM     79  C   UNL A   1      45.496  25.518  35.977  1.00  0.00     0.040 A 
ATOM     80  C   UNL A   1      46.957  27.315  35.315  1.00  0.00     0.040 A 
ATOM     81  F   UNL A   1      46.159  29.021  33.915  1.00  0.00    -0.206 F 
ATOM     82  C   UNL A   1      46.748  26.129  36.017  1.00  0.00     0.006 A 
ENDBRANCH  58  75
ENDBRANCH  32  33
ENDBRANCH  25  27
ENDBRANCH  24  25
ENDBRANCH  23  24
ENDBRANCH   1  23
TORSDOF 14
ENDMDL
