MODEL 1
REMARK VINA RESULT:     -12.7      0.000      0.000
REMARK SMILES O=C(OCCOC(=O)c1cc(-c2ccccc2)nc(Nc2nc3ccccc3s2)n1)c1ccc(-c2c3nc(c(-c4c(F)cccc4F)c4ccc([nH]4)c(-c4c(F)cccc4F)c4nc(c(-c5c(F)cccc5F)c5ccc2[nH]5)C=C4)C=C3)cc1
REMARK SMILES IDX 4 1 3 2 2 3 1 4 31 5 32 6 84 7 33 8 83 9 34 10 35 11 36 12
REMARK SMILES IDX 77 13 37 14 82 15 76 16 78 17 38 18 81 19 75 20 74 21 39 23
REMARK SMILES IDX 65 24 48 25 64 26 49 27 52 28 63 29 79 30 50 31 51 32 62 34
REMARK SMILES IDX 80 35 53 36 40 37 41 38 46 39 42 40 43 41 45 42 47 43 44 44
REMARK SMILES IDX 66 45 67 46 72 47 68 48 69 49 71 50 73 51 70 52 54 53 55 54
REMARK SMILES IDX 60 55 56 56 57 57 59 58 61 59 58 60 5 61 6 62 7 63 8 64 9 65
REMARK SMILES IDX 10 66 30 67 11 68 19 69 18 70 12 71 13 72 17 73 14 74 16 75
REMARK SMILES IDX 15 76 20 77 21 79 22 80 29 81 23 82 28 83 24 84 27 85 25 86
REMARK SMILES IDX 26 87
REMARK H PARENT 78 22 52 33 20 78
REMARK Flexibility Score: inf
ROOT
ATOM      1  C   UNL A   1      38.015  20.586  24.880  1.00  0.00     0.275 C 
ENDROOT
BRANCH   1   2
ATOM      2  O   UNL A   1      38.871  19.753  25.673  1.00  0.00    -0.458 OA
BRANCH   2   3
ATOM      3  C   UNL A   1      40.190  19.860  25.937  1.00  0.00     0.338 C 
ATOM      4  O   UNL A   1      40.892  18.895  25.662  1.00  0.00    -0.246 OA
BRANCH   3   5
ATOM      5  C   UNL A   1      40.857  21.067  26.534  1.00  0.00     0.060 A 
ATOM      6  C   UNL A   1      40.897  21.398  27.890  1.00  0.00     0.016 A 
ATOM      7  C   UNL A   1      41.519  21.929  25.643  1.00  0.00     0.016 A 
ATOM      8  C   UNL A   1      41.605  22.515  28.349  1.00  0.00     0.010 A 
ATOM      9  C   UNL A   1      42.259  23.028  26.093  1.00  0.00     0.010 A 
ATOM     10  C   UNL A   1      42.285  23.342  27.457  1.00  0.00    -0.014 A 
BRANCH  10  11
ATOM     11  C   UNL A   1      42.804  24.656  27.910  1.00  0.00     0.031 A 
ATOM     12  C   UNL A   1      41.797  25.760  28.095  1.00  0.00     0.074 A 
ATOM     13  C   UNL A   1      44.106  24.855  28.202  1.00  0.00     0.049 A 
ATOM     14  N   UNL A   1      41.986  27.013  28.409  1.00  0.00    -0.248 NA
ATOM     15  C   UNL A   1      40.378  25.391  27.929  1.00  0.00     0.031 C 
ATOM     16  C   UNL A   1      45.152  23.832  28.184  1.00  0.00     0.029 A 
ATOM     17  N   UNL A   1      44.783  26.007  28.535  1.00  0.00    -0.354 N 
ATOM     18  C   UNL A   1      40.715  27.560  28.524  1.00  0.00     0.074 A 
ATOM     19  C   UNL A   1      39.766  26.545  28.138  1.00  0.00     0.031 C 
ATOM     20  C   UNL A   1      46.347  24.418  28.393  1.00  0.00     0.029 A 
ATOM     21  C   UNL A   1      46.155  25.855  28.529  1.00  0.00     0.049 A 
ATOM     22  H   UNL A   1      44.333  26.853  28.754  1.00  0.00     0.167 HD
ATOM     23  C   UNL A   1      40.368  28.787  28.979  1.00  0.00     0.037 A 
ATOM     24  C   UNL A   1      47.123  26.796  28.550  1.00  0.00     0.037 A 
ATOM     25  C   UNL A   1      41.332  29.785  29.344  1.00  0.00     0.049 A 
ATOM     26  C   UNL A   1      46.712  28.222  28.768  1.00  0.00     0.074 A 
ATOM     27  C   UNL A   1      41.124  31.039  29.886  1.00  0.00     0.029 A 
ATOM     28  N   UNL A   1      42.701  29.639  29.173  1.00  0.00    -0.354 N 
ATOM     29  N   UNL A   1      45.509  28.731  28.868  1.00  0.00    -0.248 NA
ATOM     30  C   UNL A   1      47.801  29.192  28.938  1.00  0.00     0.031 C 
ATOM     31  C   UNL A   1      42.365  31.678  29.977  1.00  0.00     0.029 A 
ATOM     32  C   UNL A   1      43.349  30.799  29.552  1.00  0.00     0.049 A 
ATOM     33  H   UNL A   1      43.145  28.829  28.832  1.00  0.00     0.167 HD
ATOM     34  C   UNL A   1      45.696  30.069  29.173  1.00  0.00     0.074 A 
ATOM     35  C   UNL A   1      47.126  30.304  29.177  1.00  0.00     0.031 C 
ATOM     36  C   UNL A   1      44.772  31.006  29.495  1.00  0.00     0.037 A 
BRANCH  23  37
ATOM     37  C   UNL A   1      38.903  29.088  29.092  1.00  0.00     0.057 A 
ATOM     38  C   UNL A   1      38.154  29.553  27.999  1.00  0.00     0.134 A 
ATOM     39  C   UNL A   1      38.235  28.939  30.312  1.00  0.00     0.134 A 
ATOM     40  F   UNL A   1      38.735  29.734  26.802  1.00  0.00    -0.206 F 
ATOM     41  C   UNL A   1      36.807  29.899  28.128  1.00  0.00     0.040 A 
ATOM     42  C   UNL A   1      36.881  29.253  30.446  1.00  0.00     0.040 A 
ATOM     43  F   UNL A   1      38.888  28.499  31.398  1.00  0.00    -0.206 F 
ATOM     44  C   UNL A   1      36.167  29.746  29.356  1.00  0.00     0.006 A 
ENDBRANCH  23  37
BRANCH  24  45
ATOM     45  C   UNL A   1      48.552  26.489  28.271  1.00  0.00     0.057 A 
ATOM     46  C   UNL A   1      49.489  26.210  29.267  1.00  0.00     0.134 A 
ATOM     47  C   UNL A   1      49.025  26.528  26.948  1.00  0.00     0.134 A 
ATOM     48  F   UNL A   1      49.132  26.237  30.558  1.00  0.00    -0.206 F 
ATOM     49  C   UNL A   1      50.822  25.914  28.954  1.00  0.00     0.040 A 
ATOM     50  C   UNL A   1      50.351  26.231  26.620  1.00  0.00     0.040 A 
ATOM     51  F   UNL A   1      48.189  26.837  25.944  1.00  0.00    -0.206 F 
ATOM     52  C   UNL A   1      51.250  25.901  27.627  1.00  0.00     0.006 A 
ENDBRANCH  24  45
BRANCH  36  53
ATOM     53  C   UNL A   1      45.305  32.327  29.945  1.00  0.00     0.057 A 
ATOM     54  C   UNL A   1      45.660  32.577  31.274  1.00  0.00     0.134 A 
ATOM     55  C   UNL A   1      45.444  33.368  29.019  1.00  0.00     0.134 A 
ATOM     56  F   UNL A   1      45.511  31.627  32.209  1.00  0.00    -0.206 F 
ATOM     57  C   UNL A   1      46.117  33.833  31.672  1.00  0.00     0.040 A 
ATOM     58  C   UNL A   1      45.929  34.616  29.399  1.00  0.00     0.040 A 
ATOM     59  F   UNL A   1      45.109  33.187  27.732  1.00  0.00    -0.206 F 
ATOM     60  C   UNL A   1      46.260  34.853  30.732  1.00  0.00     0.006 A 
ENDBRANCH  36  53
ENDBRANCH  10  11
ENDBRANCH   3   5
ENDBRANCH   2   3
ENDBRANCH   1   2
BRANCH   1  61
ATOM     61  C   UNL A   1      37.359  21.750  25.628  1.00  0.00     0.275 C 
BRANCH  61  62
ATOM     62  O   UNL A   1      37.361  22.979  24.883  1.00  0.00    -0.457 OA
BRANCH  62  63
ATOM     63  C   UNL A   1      36.440  23.078  23.875  1.00  0.00     0.357 C 
ATOM     64  O   UNL A   1      36.658  22.943  22.691  1.00  0.00    -0.244 OA
BRANCH  63  65
ATOM     65  C   UNL A   1      35.109  23.376  24.481  1.00  0.00     0.154 A 
ATOM     66  C   UNL A   1      34.909  24.593  25.067  1.00  0.00     0.065 A 
ATOM     67  N   UNL A   1      34.164  22.416  24.415  1.00  0.00    -0.206 NA
ATOM     68  C   UNL A   1      33.636  24.811  25.532  1.00  0.00     0.077 A 
ATOM     69  C   UNL A   1      32.981  22.673  24.995  1.00  0.00     0.230 A 
ATOM     70  N   UNL A   1      32.674  23.866  25.510  1.00  0.00    -0.213 NA
BRANCH  68  71
ATOM     71  C   UNL A   1      33.225  26.123  26.023  1.00  0.00     0.000 A 
ATOM     72  C   UNL A   1      34.120  27.200  26.050  1.00  0.00     0.010 A 
ATOM     73  C   UNL A   1      31.911  26.321  26.488  1.00  0.00     0.010 A 
ATOM     74  C   UNL A   1      33.711  28.437  26.533  1.00  0.00     0.001 A 
ATOM     75  C   UNL A   1      31.495  27.558  26.953  1.00  0.00     0.001 A 
ATOM     76  C   UNL A   1      32.403  28.605  26.987  1.00  0.00     0.000 A 
ENDBRANCH  68  71
BRANCH  69  77
ATOM     77  N   UNL A   1      31.973  21.721  25.055  1.00  0.00    -0.300 N 
ATOM     78  H   UNL A   1      31.081  22.004  25.363  1.00  0.00     0.172 HD
BRANCH  77  79
ATOM     79  C   UNL A   1      32.149  20.435  24.716  1.00  0.00     0.190 A 
ATOM     80  N   UNL A   1      32.227  19.446  25.573  1.00  0.00    -0.220 NA
ATOM     81  S   UNL A   1      32.271  19.948  23.071  1.00  0.00    -0.097 S 
ATOM     82  C   UNL A   1      32.770  18.337  24.968  1.00  0.00     0.084 A 
ATOM     83  C   UNL A   1      32.931  18.440  23.588  1.00  0.00     0.056 A 
ATOM     84  C   UNL A   1      33.211  17.171  25.621  1.00  0.00     0.030 A 
ATOM     85  C   UNL A   1      33.560  17.430  22.844  1.00  0.00     0.021 A 
ATOM     86  C   UNL A   1      33.909  16.199  24.908  1.00  0.00     0.002 A 
ATOM     87  C   UNL A   1      34.084  16.331  23.536  1.00  0.00     0.002 A 
ENDBRANCH  77  79
ENDBRANCH  69  77
ENDBRANCH  63  65
ENDBRANCH  62  63
ENDBRANCH  61  62
ENDBRANCH   1  61
TORSDOF 14
ENDMDL
MODEL 2
REMARK VINA RESULT:     -12.3      0.929      6.231
REMARK SMILES O=C(OCCOC(=O)c1cc(-c2ccccc2)nc(Nc2nc3ccccc3s2)n1)c1ccc(-c2c3nc(c(-c4c(F)cccc4F)c4ccc([nH]4)c(-c4c(F)cccc4F)c4nc(c(-c5c(F)cccc5F)c5ccc2[nH]5)C=C4)C=C3)cc1
REMARK SMILES IDX 4 1 3 2 2 3 1 4 31 5 32 6 84 7 33 8 83 9 34 10 35 11 36 12
REMARK SMILES IDX 77 13 37 14 82 15 76 16 78 17 38 18 81 19 75 20 74 21 39 23
REMARK SMILES IDX 65 24 48 25 64 26 49 27 52 28 63 29 79 30 50 31 51 32 62 34
REMARK SMILES IDX 80 35 53 36 40 37 41 38 46 39 42 40 43 41 45 42 47 43 44 44
REMARK SMILES IDX 66 45 67 46 72 47 68 48 69 49 71 50 73 51 70 52 54 53 55 54
REMARK SMILES IDX 60 55 56 56 57 57 59 58 61 59 58 60 5 61 6 62 7 63 8 64 9 65
REMARK SMILES IDX 10 66 30 67 11 68 19 69 18 70 12 71 13 72 17 73 14 74 16 75
REMARK SMILES IDX 15 76 20 77 21 79 22 80 29 81 23 82 28 83 24 84 27 85 25 86
REMARK SMILES IDX 26 87
REMARK H PARENT 78 22 52 33 20 78
REMARK Flexibility Score: inf
ROOT
ATOM      1  C   UNL A   1      38.685  19.296  25.773  1.00  0.00     0.275 C 
ENDROOT
BRANCH   1   2
ATOM      2  O   UNL A   1      40.011  18.930  25.374  1.00  0.00    -0.458 OA
BRANCH   2   3
ATOM      3  C   UNL A   1      41.200  19.187  25.958  1.00  0.00     0.338 C 
ATOM      4  O   UNL A   1      41.947  18.235  26.144  1.00  0.00    -0.246 OA
BRANCH   3   5
ATOM      5  C   UNL A   1      41.674  20.546  26.391  1.00  0.00     0.060 A 
ATOM      6  C   UNL A   1      41.751  21.010  27.706  1.00  0.00     0.016 A 
ATOM      7  C   UNL A   1      42.096  21.421  25.376  1.00  0.00     0.016 A 
ATOM      8  C   UNL A   1      42.271  22.274  28.006  1.00  0.00     0.010 A 
ATOM      9  C   UNL A   1      42.650  22.673  25.665  1.00  0.00     0.010 A 
ATOM     10  C   UNL A   1      42.718  23.119  26.991  1.00  0.00    -0.014 A 
BRANCH  10  11
ATOM     11  C   UNL A   1      43.016  24.542  27.285  1.00  0.00     0.031 A 
ATOM     12  C   UNL A   1      44.468  24.931  27.371  1.00  0.00     0.074 A 
ATOM     13  C   UNL A   1      42.045  25.469  27.415  1.00  0.00     0.049 A 
ATOM     14  N   UNL A   1      45.002  26.080  27.684  1.00  0.00    -0.248 NA
ATOM     15  C   UNL A   1      45.451  23.885  27.030  1.00  0.00     0.031 C 
ATOM     16  C   UNL A   1      40.613  25.239  27.227  1.00  0.00     0.029 A 
ATOM     17  N   UNL A   1      42.116  26.794  27.780  1.00  0.00    -0.354 N 
ATOM     18  C   UNL A   1      46.372  25.904  27.530  1.00  0.00     0.074 A 
ATOM     19  C   UNL A   1      46.599  24.517  27.208  1.00  0.00     0.031 C 
ATOM     20  C   UNL A   1      39.937  26.352  27.574  1.00  0.00     0.029 A 
ATOM     21  C   UNL A   1      40.882  27.359  28.035  1.00  0.00     0.049 A 
ATOM     22  H   UNL A   1      42.963  27.290  27.853  1.00  0.00     0.167 HD
ATOM     23  C   UNL A   1      47.349  26.838  27.586  1.00  0.00     0.037 A 
ATOM     24  C   UNL A   1      40.580  28.524  28.646  1.00  0.00     0.037 A 
ATOM     25  C   UNL A   1      47.098  28.211  27.921  1.00  0.00     0.049 A 
ATOM     26  C   UNL A   1      41.708  29.455  28.980  1.00  0.00     0.074 A 
ATOM     27  C   UNL A   1      47.978  29.276  27.945  1.00  0.00     0.029 A 
ATOM     28  N   UNL A   1      45.861  28.697  28.322  1.00  0.00    -0.354 N 
ATOM     29  N   UNL A   1      42.997  29.277  28.838  1.00  0.00    -0.248 NA
ATOM     30  C   UNL A   1      41.327  30.773  29.503  1.00  0.00     0.031 C 
ATOM     31  C   UNL A   1      47.287  30.393  28.428  1.00  0.00     0.029 A 
ATOM     32  C   UNL A   1      45.964  30.037  28.643  1.00  0.00     0.049 A 
ATOM     33  H   UNL A   1      45.034  28.166  28.370  1.00  0.00     0.167 HD
ATOM     34  C   UNL A   1      43.581  30.482  29.195  1.00  0.00     0.074 A 
ATOM     35  C   UNL A   1      42.508  31.358  29.622  1.00  0.00     0.031 C 
ATOM     36  C   UNL A   1      44.879  30.859  29.109  1.00  0.00     0.037 A 
BRANCH  23  37
ATOM     37  C   UNL A   1      48.747  26.390  27.282  1.00  0.00     0.057 A 
ATOM     38  C   UNL A   1      49.614  25.928  28.285  1.00  0.00     0.134 A 
ATOM     39  C   UNL A   1      49.246  26.441  25.976  1.00  0.00     0.134 A 
ATOM     40  F   UNL A   1      49.205  25.867  29.563  1.00  0.00    -0.206 F 
ATOM     41  C   UNL A   1      50.937  25.578  28.007  1.00  0.00     0.040 A 
ATOM     42  C   UNL A   1      50.558  26.065  25.681  1.00  0.00     0.040 A 
ATOM     43  F   UNL A   1      48.474  26.870  24.967  1.00  0.00    -0.206 F 
ATOM     44  C   UNL A   1      51.410  25.644  26.699  1.00  0.00     0.006 A 
ENDBRANCH  23  37
BRANCH  24  45
ATOM     45  C   UNL A   1      39.201  28.871  29.084  1.00  0.00     0.057 A 
ATOM     46  C   UNL A   1      38.706  28.599  30.359  1.00  0.00     0.134 A 
ATOM     47  C   UNL A   1      38.310  29.458  28.169  1.00  0.00     0.134 A 
ATOM     48  F   UNL A   1      39.469  27.966  31.261  1.00  0.00    -0.206 F 
ATOM     49  C   UNL A   1      37.403  28.957  30.730  1.00  0.00     0.040 A 
ATOM     50  C   UNL A   1      37.009  29.824  28.524  1.00  0.00     0.040 A 
ATOM     51  F   UNL A   1      38.705  29.704  26.910  1.00  0.00    -0.206 F 
ATOM     52  C   UNL A   1      36.559  29.592  29.819  1.00  0.00     0.006 A 
ENDBRANCH  24  45
BRANCH  36  53
ATOM     53  C   UNL A   1      45.168  32.293  29.412  1.00  0.00     0.057 A 
ATOM     54  C   UNL A   1      45.017  33.304  28.459  1.00  0.00     0.134 A 
ATOM     55  C   UNL A   1      45.624  32.652  30.687  1.00  0.00     0.134 A 
ATOM     56  F   UNL A   1      44.620  33.011  27.212  1.00  0.00    -0.206 F 
ATOM     57  C   UNL A   1      45.334  34.629  28.759  1.00  0.00     0.040 A 
ATOM     58  C   UNL A   1      45.913  33.975  31.008  1.00  0.00     0.040 A 
ATOM     59  F   UNL A   1      45.796  31.720  31.637  1.00  0.00    -0.206 F 
ATOM     60  C   UNL A   1      45.775  34.967  30.038  1.00  0.00     0.006 A 
ENDBRANCH  36  53
ENDBRANCH  10  11
ENDBRANCH   3   5
ENDBRANCH   2   3
ENDBRANCH   1   2
BRANCH   1  61
ATOM     61  C   UNL A   1      38.055  20.444  24.977  1.00  0.00     0.275 C 
BRANCH  61  62
ATOM     62  O   UNL A   1      36.970  21.086  25.664  1.00  0.00    -0.457 OA
BRANCH  62  63
ATOM     63  C   UNL A   1      37.022  22.453  25.734  1.00  0.00     0.357 C 
ATOM     64  O   UNL A   1      38.017  23.124  25.895  1.00  0.00    -0.244 OA
BRANCH  63  65
ATOM     65  C   UNL A   1      35.638  22.985  25.572  1.00  0.00     0.154 A 
ATOM     66  C   UNL A   1      35.452  24.337  25.532  1.00  0.00     0.065 A 
ATOM     67  N   UNL A   1      34.633  22.092  25.470  1.00  0.00    -0.206 NA
ATOM     68  C   UNL A   1      34.159  24.740  25.306  1.00  0.00     0.077 A 
ATOM     69  C   UNL A   1      33.385  22.575  25.363  1.00  0.00     0.230 A 
ATOM     70  N   UNL A   1      33.124  23.878  25.229  1.00  0.00    -0.213 NA
BRANCH  68  71
ATOM     71  C   UNL A   1      33.835  26.142  25.065  1.00  0.00     0.000 A 
ATOM     72  C   UNL A   1      33.692  27.047  26.125  1.00  0.00     0.010 A 
ATOM     73  C   UNL A   1      33.653  26.606  23.748  1.00  0.00     0.010 A 
ATOM     74  C   UNL A   1      33.371  28.375  25.871  1.00  0.00     0.001 A 
ATOM     75  C   UNL A   1      33.351  27.934  23.492  1.00  0.00     0.001 A 
ATOM     76  C   UNL A   1      33.196  28.807  24.557  1.00  0.00     0.000 A 
ENDBRANCH  68  71
BRANCH  69  77
ATOM     77  N   UNL A   1      32.276  21.740  25.338  1.00  0.00    -0.300 N 
ATOM     78  H   UNL A   1      31.409  22.109  25.624  1.00  0.00     0.172 HD
BRANCH  77  79
ATOM     79  C   UNL A   1      32.323  20.459  24.944  1.00  0.00     0.190 A 
ATOM     80  N   UNL A   1      32.209  19.431  25.749  1.00  0.00    -0.220 NA
ATOM     81  S   UNL A   1      32.525  20.035  23.289  1.00  0.00    -0.097 S 
ATOM     82  C   UNL A   1      32.664  18.290  25.129  1.00  0.00     0.084 A 
ATOM     83  C   UNL A   1      32.952  18.434  23.773  1.00  0.00     0.056 A 
ATOM     84  C   UNL A   1      32.904  17.051  25.750  1.00  0.00     0.030 A 
ATOM     85  C   UNL A   1      33.516  17.388  23.027  1.00  0.00     0.021 A 
ATOM     86  C   UNL A   1      33.537  16.032  25.042  1.00  0.00     0.002 A 
ATOM     87  C   UNL A   1      33.843  16.203  23.697  1.00  0.00     0.002 A 
ENDBRANCH  77  79
ENDBRANCH  69  77
ENDBRANCH  63  65
ENDBRANCH  62  63
ENDBRANCH  61  62
ENDBRANCH   1  61
TORSDOF 14
ENDMDL
MODEL 3
REMARK VINA RESULT:     -12.3      1.079      1.751
REMARK SMILES O=C(OCCOC(=O)c1cc(-c2ccccc2)nc(Nc2nc3ccccc3s2)n1)c1ccc(-c2c3nc(c(-c4c(F)cccc4F)c4ccc([nH]4)c(-c4c(F)cccc4F)c4nc(c(-c5c(F)cccc5F)c5ccc2[nH]5)C=C4)C=C3)cc1
REMARK SMILES IDX 4 1 3 2 2 3 1 4 31 5 32 6 84 7 33 8 83 9 34 10 35 11 36 12
REMARK SMILES IDX 77 13 37 14 82 15 76 16 78 17 38 18 81 19 75 20 74 21 39 23
REMARK SMILES IDX 65 24 48 25 64 26 49 27 52 28 63 29 79 30 50 31 51 32 62 34
REMARK SMILES IDX 80 35 53 36 40 37 41 38 46 39 42 40 43 41 45 42 47 43 44 44
REMARK SMILES IDX 66 45 67 46 72 47 68 48 69 49 71 50 73 51 70 52 54 53 55 54
REMARK SMILES IDX 60 55 56 56 57 57 59 58 61 59 58 60 5 61 6 62 7 63 8 64 9 65
REMARK SMILES IDX 10 66 30 67 11 68 19 69 18 70 12 71 13 72 17 73 14 74 16 75
REMARK SMILES IDX 15 76 20 77 21 79 22 80 29 81 23 82 28 83 24 84 27 85 25 86
REMARK SMILES IDX 26 87
REMARK H PARENT 78 22 52 33 20 78
REMARK Flexibility Score: inf
ROOT
ATOM      1  C   UNL A   1      38.723  20.047  25.239  1.00  0.00     0.275 C 
ENDROOT
BRANCH   1   2
ATOM      2  O   UNL A   1      39.718  19.361  26.008  1.00  0.00    -0.458 OA
BRANCH   2   3
ATOM      3  C   UNL A   1      41.052  19.553  26.077  1.00  0.00     0.338 C 
ATOM      4  O   UNL A   1      41.767  18.606  25.774  1.00  0.00    -0.246 OA
BRANCH   3   5
ATOM      5  C   UNL A   1      41.721  20.834  26.490  1.00  0.00     0.060 A 
ATOM      6  C   UNL A   1      41.916  21.275  27.799  1.00  0.00     0.016 A 
ATOM      7  C   UNL A   1      42.212  21.651  25.457  1.00  0.00     0.016 A 
ATOM      8  C   UNL A   1      42.612  22.457  28.077  1.00  0.00     0.010 A 
ATOM      9  C   UNL A   1      42.941  22.816  25.723  1.00  0.00     0.010 A 
ATOM     10  C   UNL A   1      43.124  23.241  27.044  1.00  0.00    -0.014 A 
BRANCH  10  11
ATOM     11  C   UNL A   1      43.621  24.610  27.325  1.00  0.00     0.031 A 
ATOM     12  C   UNL A   1      42.590  25.654  27.659  1.00  0.00     0.074 A 
ATOM     13  C   UNL A   1      44.936  24.909  27.342  1.00  0.00     0.049 A 
ATOM     14  N   UNL A   1      42.742  26.933  27.874  1.00  0.00    -0.248 NA
ATOM     15  C   UNL A   1      41.198  25.185  27.797  1.00  0.00     0.031 C 
ATOM     16  C   UNL A   1      46.033  23.958  27.161  1.00  0.00     0.029 A 
ATOM     17  N   UNL A   1      45.577  26.120  27.481  1.00  0.00    -0.354 N 
ATOM     18  C   UNL A   1      41.481  27.402  28.217  1.00  0.00     0.074 A 
ATOM     19  C   UNL A   1      40.554  26.306  28.073  1.00  0.00     0.031 C 
ATOM     20  C   UNL A   1      47.198  24.631  27.100  1.00  0.00     0.029 A 
ATOM     21  C   UNL A   1      46.929  26.058  27.208  1.00  0.00     0.049 A 
ATOM     22  H   UNL A   1      45.116  26.947  27.749  1.00  0.00     0.167 HD
ATOM     23  C   UNL A   1      41.138  28.628  28.677  1.00  0.00     0.037 A 
ATOM     24  C   UNL A   1      47.808  27.060  26.994  1.00  0.00     0.037 A 
ATOM     25  C   UNL A   1      42.078  29.707  28.798  1.00  0.00     0.049 A 
ATOM     26  C   UNL A   1      47.341  28.466  27.227  1.00  0.00     0.074 A 
ATOM     27  C   UNL A   1      41.886  30.973  29.315  1.00  0.00     0.029 A 
ATOM     28  N   UNL A   1      43.394  29.640  28.363  1.00  0.00    -0.354 N 
ATOM     29  N   UNL A   1      46.147  28.900  27.542  1.00  0.00    -0.248 NA
ATOM     30  C   UNL A   1      48.367  29.513  27.132  1.00  0.00     0.031 C 
ATOM     31  C   UNL A   1      43.069  31.696  29.127  1.00  0.00     0.029 A 
ATOM     32  C   UNL A   1      44.014  30.860  28.553  1.00  0.00     0.049 A 
ATOM     33  H   UNL A   1      43.822  28.843  27.976  1.00  0.00     0.167 HD
ATOM     34  C   UNL A   1      46.288  30.264  27.745  1.00  0.00     0.074 A 
ATOM     35  C   UNL A   1      47.670  30.591  27.452  1.00  0.00     0.031 C 
ATOM     36  C   UNL A   1      45.378  31.155  28.204  1.00  0.00     0.037 A 
BRANCH  23  37
ATOM     37  C   UNL A   1      39.706  28.840  29.068  1.00  0.00     0.057 A 
ATOM     38  C   UNL A   1      38.749  29.312  28.155  1.00  0.00     0.134 A 
ATOM     39  C   UNL A   1      39.278  28.594  30.377  1.00  0.00     0.134 A 
ATOM     40  F   UNL A   1      39.094  29.583  26.886  1.00  0.00    -0.206 F 
ATOM     41  C   UNL A   1      37.433  29.574  28.542  1.00  0.00     0.040 A 
ATOM     42  C   UNL A   1      37.958  28.824  30.768  1.00  0.00     0.040 A 
ATOM     43  F   UNL A   1      40.138  28.140  31.301  1.00  0.00    -0.206 F 
ATOM     44  C   UNL A   1      37.035  29.327  29.854  1.00  0.00     0.006 A 
ENDBRANCH  23  37
BRANCH  24  45
ATOM     45  C   UNL A   1      49.174  26.831  26.448  1.00  0.00     0.057 A 
ATOM     46  C   UNL A   1      49.485  26.909  25.091  1.00  0.00     0.134 A 
ATOM     47  C   UNL A   1      50.215  26.463  27.319  1.00  0.00     0.134 A 
ATOM     48  F   UNL A   1      48.527  27.172  24.192  1.00  0.00    -0.206 F 
ATOM     49  C   UNL A   1      50.790  26.699  24.626  1.00  0.00     0.040 A 
ATOM     50  C   UNL A   1      51.523  26.253  26.871  1.00  0.00     0.040 A 
ATOM     51  F   UNL A   1      49.976  26.323  28.632  1.00  0.00    -0.206 F 
ATOM     52  C   UNL A   1      51.817  26.393  25.519  1.00  0.00     0.006 A 
ENDBRANCH  24  45
BRANCH  36  53
ATOM     53  C   UNL A   1      45.888  32.532  28.479  1.00  0.00     0.057 A 
ATOM     54  C   UNL A   1      45.821  33.557  27.531  1.00  0.00     0.134 A 
ATOM     55  C   UNL A   1      46.473  32.819  29.719  1.00  0.00     0.134 A 
ATOM     56  F   UNL A   1      45.306  33.328  26.314  1.00  0.00    -0.206 F 
ATOM     57  C   UNL A   1      46.343  34.822  27.802  1.00  0.00     0.040 A 
ATOM     58  C   UNL A   1      46.967  34.086  30.012  1.00  0.00     0.040 A 
ATOM     59  F   UNL A   1      46.572  31.869  30.662  1.00  0.00    -0.206 F 
ATOM     60  C   UNL A   1      46.910  35.091  29.047  1.00  0.00     0.006 A 
ENDBRANCH  36  53
ENDBRANCH  10  11
ENDBRANCH   3   5
ENDBRANCH   2   3
ENDBRANCH   1   2
BRANCH   1  61
ATOM     61  C   UNL A   1      38.391  21.465  25.712  1.00  0.00     0.275 C 
BRANCH  61  62
ATOM     62  O   UNL A   1      36.990  21.774  25.651  1.00  0.00    -0.457 OA
BRANCH  62  63
ATOM     63  C   UNL A   1      36.628  22.778  24.794  1.00  0.00     0.357 C 
ATOM     64  O   UNL A   1      37.329  23.282  23.944  1.00  0.00    -0.244 OA
BRANCH  63  65
ATOM     65  C   UNL A   1      35.211  23.150  25.077  1.00  0.00     0.154 A 
ATOM     66  C   UNL A   1      34.934  24.418  25.501  1.00  0.00     0.065 A 
ATOM     67  N   UNL A   1      34.268  22.203  24.895  1.00  0.00    -0.206 NA
ATOM     68  C   UNL A   1      33.600  24.697  25.667  1.00  0.00     0.077 A 
ATOM     69  C   UNL A   1      32.999  22.530  25.188  1.00  0.00     0.230 A 
ATOM     70  N   UNL A   1      32.632  23.769  25.523  1.00  0.00    -0.213 NA
BRANCH  68  71
ATOM     71  C   UNL A   1      33.141  26.054  25.946  1.00  0.00     0.000 A 
ATOM     72  C   UNL A   1      33.953  27.164  25.679  1.00  0.00     0.010 A 
ATOM     73  C   UNL A   1      31.864  26.265  26.501  1.00  0.00     0.010 A 
ATOM     74  C   UNL A   1      33.499  28.447  25.965  1.00  0.00     0.001 A 
ATOM     75  C   UNL A   1      31.403  27.544  26.770  1.00  0.00     0.001 A 
ATOM     76  C   UNL A   1      32.230  28.626  26.514  1.00  0.00     0.000 A 
ENDBRANCH  68  71
BRANCH  69  77
ATOM     77  N   UNL A   1      31.969  21.602  25.115  1.00  0.00    -0.300 N 
ATOM     78  H   UNL A   1      31.055  21.903  25.327  1.00  0.00     0.172 HD
BRANCH  77  79
ATOM     79  C   UNL A   1      32.152  20.319  24.770  1.00  0.00     0.190 A 
ATOM     80  N   UNL A   1      32.152  19.317  25.616  1.00  0.00    -0.220 NA
ATOM     81  S   UNL A   1      32.390  19.853  23.131  1.00  0.00    -0.097 S 
ATOM     82  C   UNL A   1      32.724  18.208  25.036  1.00  0.00     0.084 A 
ATOM     83  C   UNL A   1      32.989  18.328  23.673  1.00  0.00     0.056 A 
ATOM     84  C   UNL A   1      33.099  17.027  25.703  1.00  0.00     0.030 A 
ATOM     85  C   UNL A   1      33.658  17.320  22.963  1.00  0.00     0.021 A 
ATOM     86  C   UNL A   1      33.835  16.055  25.029  1.00  0.00     0.002 A 
ATOM     87  C   UNL A   1      34.114  16.204  23.676  1.00  0.00     0.002 A 
ENDBRANCH  77  79
ENDBRANCH  69  77
ENDBRANCH  63  65
ENDBRANCH  62  63
ENDBRANCH  61  62
ENDBRANCH   1  61
TORSDOF 14
ENDMDL
