MODEL 1
REMARK VINA RESULT:     -10.0      0.000      0.000
REMARK SMILES CC[C@@](C)(NC(=O)N(C)[C@@H](C)C(C)C)C(=O)OCCOC(=O)c1ccc(-c2c3nc(c(-c4c(F)cccc4F)c4ccc([nH]4)c(-c4c(F)cccc4F)c4nc(c(-c5c(F)cccc5F)c5ccc2[nH]5)C=C4)C=C3)cc1
REMARK SMILES IDX 18 1 17 2 15 3 16 4 3 5 4 6 2 7 1 8 5 9 6 10 7 12 8 13 9 14
REMARK SMILES IDX 10 15 11 16 12 17 13 18 14 19 19 20 20 21 21 22 22 23 23 24
REMARK SMILES IDX 24 25 76 26 25 27 75 28 26 29 27 30 28 31 69 32 29 33 74 34
REMARK SMILES IDX 68 35 70 36 30 37 73 38 67 39 66 40 31 42 57 43 40 44 56 45
REMARK SMILES IDX 41 46 44 47 55 48 71 49 42 50 43 51 54 53 72 54 45 55 32 56
REMARK SMILES IDX 33 57 38 58 34 59 35 60 37 61 39 62 36 63 58 64 59 65 64 66
REMARK SMILES IDX 60 67 61 68 63 69 65 70 62 71 46 72 47 73 52 74 48 75 49 76
REMARK SMILES IDX 51 77 53 78 50 79
REMARK H PARENT 5 11 70 41 44 52
REMARK Flexibility Score: inf
ROOT
ATOM      1  C   UNL A   1      36.520  22.768  23.682  1.00  0.00     0.274 C 
ENDROOT
BRANCH   1   2
ATOM      2  O   UNL A   1      35.241  23.220  24.188  1.00  0.00    -0.460 OA
BRANCH   2   3
ATOM      3  C   UNL A   1      34.150  23.069  23.405  1.00  0.00     0.331 C 
ATOM      4  O   UNL A   1      34.104  23.527  22.266  1.00  0.00    -0.249 OA
BRANCH   3   5
ATOM      5  C   UNL A   1      32.903  22.458  24.141  1.00  0.00     0.136 C 
ATOM      6  C   UNL A   1      31.764  22.382  23.107  1.00  0.00     0.047 C 
BRANCH   5   7
ATOM      7  C   UNL A   1      33.240  20.961  24.556  1.00  0.00     0.037 C 
ATOM      8  C   UNL A   1      32.528  19.796  23.876  1.00  0.00     0.007 C 
ENDBRANCH   5   7
BRANCH   5   9
ATOM      9  N   UNL A   1      32.393  23.045  25.444  1.00  0.00    -0.322 N 
ATOM     10  C   UNL A   1      31.814  24.065  26.089  1.00  0.00     0.318 C 
ATOM     11  H   UNL A   1      32.567  22.361  26.130  1.00  0.00     0.166 HD
ATOM     12  O   UNL A   1      31.525  23.794  27.262  1.00  0.00    -0.249 OA
BRANCH  10  13
ATOM     13  N   UNL A   1      31.622  25.307  25.584  1.00  0.00    -0.325 N 
ATOM     14  C   UNL A   1      30.457  25.677  24.805  1.00  0.00     0.149 C 
BRANCH  13  15
ATOM     15  C   UNL A   1      32.430  26.468  26.078  1.00  0.00     0.086 C 
ATOM     16  C   UNL A   1      33.835  26.439  25.447  1.00  0.00     0.031 C 
BRANCH  15  17
ATOM     17  C   UNL A   1      31.845  27.927  25.955  1.00  0.00     0.005 C 
ATOM     18  C   UNL A   1      31.778  28.728  27.251  1.00  0.00     0.009 C 
ATOM     19  C   UNL A   1      32.675  28.770  24.966  1.00  0.00     0.009 C 
ENDBRANCH  15  17
ENDBRANCH  13  15
ENDBRANCH  10  13
ENDBRANCH   5   9
ENDBRANCH   3   5
ENDBRANCH   2   3
ENDBRANCH   1   2
BRANCH   1  20
ATOM     20  C   UNL A   1      36.954  21.477  24.382  1.00  0.00     0.275 C 
BRANCH  20  21
ATOM     21  O   UNL A   1      37.289  21.730  25.762  1.00  0.00    -0.458 OA
BRANCH  21  22
ATOM     22  C   UNL A   1      38.580  21.461  26.038  1.00  0.00     0.338 C 
ATOM     23  O   UNL A   1      39.188  20.444  25.751  1.00  0.00    -0.246 OA
BRANCH  22  24
ATOM     24  C   UNL A   1      39.289  22.618  26.564  1.00  0.00     0.060 A 
ATOM     25  C   UNL A   1      38.845  23.863  26.125  1.00  0.00     0.016 A 
ATOM     26  C   UNL A   1      40.463  22.491  27.301  1.00  0.00     0.016 A 
ATOM     27  C   UNL A   1      39.589  24.999  26.387  1.00  0.00     0.010 A 
ATOM     28  C   UNL A   1      41.185  23.644  27.617  1.00  0.00     0.010 A 
ATOM     29  C   UNL A   1      40.755  24.902  27.154  1.00  0.00    -0.014 A 
BRANCH  29  30
ATOM     30  C   UNL A   1      41.497  26.140  27.476  1.00  0.00     0.031 A 
ATOM     31  C   UNL A   1      40.879  27.196  28.340  1.00  0.00     0.074 A 
ATOM     32  C   UNL A   1      42.759  26.272  27.025  1.00  0.00     0.049 A 
ATOM     33  N   UNL A   1      41.342  28.379  28.651  1.00  0.00    -0.248 NA
ATOM     34  C   UNL A   1      39.570  26.883  28.934  1.00  0.00     0.031 C 
ATOM     35  C   UNL A   1      43.480  25.272  26.234  1.00  0.00     0.029 A 
ATOM     36  N   UNL A   1      43.664  27.286  27.187  1.00  0.00    -0.354 N 
ATOM     37  C   UNL A   1      40.364  28.972  29.439  1.00  0.00     0.074 A 
ATOM     38  C   UNL A   1      39.286  28.013  29.567  1.00  0.00     0.031 C 
ATOM     39  C   UNL A   1      44.730  25.704  26.016  1.00  0.00     0.029 A 
ATOM     40  C   UNL A   1      44.873  27.039  26.583  1.00  0.00     0.049 A 
ATOM     41  H   UNL A   1      43.468  28.112  27.685  1.00  0.00     0.167 HD
ATOM     42  C   UNL A   1      40.367  30.208  29.989  1.00  0.00     0.037 A 
ATOM     43  C   UNL A   1      45.965  27.816  26.477  1.00  0.00     0.037 A 
ATOM     44  C   UNL A   1      41.462  31.138  29.876  1.00  0.00     0.049 A 
ATOM     45  C   UNL A   1      45.934  29.190  27.079  1.00  0.00     0.074 A 
ATOM     46  C   UNL A   1      41.558  32.428  30.369  1.00  0.00     0.029 A 
ATOM     47  N   UNL A   1      42.660  30.866  29.232  1.00  0.00    -0.354 N 
ATOM     48  N   UNL A   1      44.976  29.769  27.760  1.00  0.00    -0.248 NA
ATOM     49  C   UNL A   1      47.126  30.023  26.882  1.00  0.00     0.031 C 
ATOM     50  C   UNL A   1      42.806  32.944  30.001  1.00  0.00     0.029 A 
ATOM     51  C   UNL A   1      43.501  31.964  29.312  1.00  0.00     0.049 A 
ATOM     52  H   UNL A   1      42.881  30.017  28.785  1.00  0.00     0.167 HD
ATOM     53  C   UNL A   1      45.451  31.030  28.086  1.00  0.00     0.074 A 
ATOM     54  C   UNL A   1      46.792  31.123  27.542  1.00  0.00     0.031 C 
ATOM     55  C   UNL A   1      44.835  32.025  28.769  1.00  0.00     0.037 A 
BRANCH  42  56
ATOM     56  C   UNL A   1      39.127  30.640  30.712  1.00  0.00     0.057 A 
ATOM     57  C   UNL A   1      38.070  31.288  30.063  1.00  0.00     0.134 A 
ATOM     58  C   UNL A   1      38.991  30.400  32.085  1.00  0.00     0.134 A 
ATOM     59  F   UNL A   1      38.144  31.564  28.752  1.00  0.00    -0.206 F 
ATOM     60  C   UNL A   1      36.931  31.701  30.759  1.00  0.00     0.040 A 
ATOM     61  C   UNL A   1      37.850  30.788  32.787  1.00  0.00     0.040 A 
ATOM     62  F   UNL A   1      39.968  29.782  32.769  1.00  0.00    -0.206 F 
ATOM     63  C   UNL A   1      36.817  31.449  32.125  1.00  0.00     0.006 A 
ENDBRANCH  42  56
BRANCH  43  64
ATOM     64  C   UNL A   1      47.161  27.317  25.757  1.00  0.00     0.057 A 
ATOM     65  C   UNL A   1      48.159  26.599  26.424  1.00  0.00     0.134 A 
ATOM     66  C   UNL A   1      47.328  27.529  24.383  1.00  0.00     0.134 A 
ATOM     67  F   UNL A   1      48.064  26.380  27.744  1.00  0.00    -0.206 F 
ATOM     68  C   UNL A   1      49.284  26.117  25.754  1.00  0.00     0.040 A 
ATOM     69  C   UNL A   1      48.435  27.032  23.694  1.00  0.00     0.040 A 
ATOM     70  F   UNL A   1      46.403  28.206  23.684  1.00  0.00    -0.206 F 
ATOM     71  C   UNL A   1      49.420  26.328  24.383  1.00  0.00     0.006 A 
ENDBRANCH  43  64
BRANCH  55  72
ATOM     72  C   UNL A   1      45.625  33.276  28.992  1.00  0.00     0.057 A 
ATOM     73  C   UNL A   1      46.454  33.436  30.110  1.00  0.00     0.134 A 
ATOM     74  C   UNL A   1      45.561  34.331  28.073  1.00  0.00     0.134 A 
ATOM     75  F   UNL A   1      46.542  32.467  31.033  1.00  0.00    -0.206 F 
ATOM     76  C   UNL A   1      47.176  34.611  30.317  1.00  0.00     0.040 A 
ATOM     77  C   UNL A   1      46.294  35.503  28.259  1.00  0.00     0.040 A 
ATOM     78  F   UNL A   1      44.787  34.237  26.982  1.00  0.00    -0.206 F 
ATOM     79  C   UNL A   1      47.100  35.647  29.387  1.00  0.00     0.006 A 
ENDBRANCH  55  72
ENDBRANCH  29  30
ENDBRANCH  22  24
ENDBRANCH  21  22
ENDBRANCH  20  21
ENDBRANCH   1  20
TORSDOF 16
ENDMDL
MODEL 2
REMARK VINA RESULT:     -10.0      3.948      8.912
REMARK SMILES CC[C@@](C)(NC(=O)N(C)[C@@H](C)C(C)C)C(=O)OCCOC(=O)c1ccc(-c2c3nc(c(-c4c(F)cccc4F)c4ccc([nH]4)c(-c4c(F)cccc4F)c4nc(c(-c5c(F)cccc5F)c5ccc2[nH]5)C=C4)C=C3)cc1
REMARK SMILES IDX 18 1 17 2 15 3 16 4 3 5 4 6 2 7 1 8 5 9 6 10 7 12 8 13 9 14
REMARK SMILES IDX 10 15 11 16 12 17 13 18 14 19 19 20 20 21 21 22 22 23 23 24
REMARK SMILES IDX 24 25 76 26 25 27 75 28 26 29 27 30 28 31 69 32 29 33 74 34
REMARK SMILES IDX 68 35 70 36 30 37 73 38 67 39 66 40 31 42 57 43 40 44 56 45
REMARK SMILES IDX 41 46 44 47 55 48 71 49 42 50 43 51 54 53 72 54 45 55 32 56
REMARK SMILES IDX 33 57 38 58 34 59 35 60 37 61 39 62 36 63 58 64 59 65 64 66
REMARK SMILES IDX 60 67 61 68 63 69 65 70 62 71 46 72 47 73 52 74 48 75 49 76
REMARK SMILES IDX 51 77 53 78 50 79
REMARK H PARENT 5 11 70 41 44 52
REMARK Flexibility Score: inf
ROOT
ATOM      1  C   UNL A   1      31.786  28.433  26.922  1.00  0.00     0.274 C 
ENDROOT
BRANCH   1   2
ATOM      2  O   UNL A   1      31.382  27.455  25.934  1.00  0.00    -0.460 OA
BRANCH   2   3
ATOM      3  C   UNL A   1      32.298  26.558  25.505  1.00  0.00     0.331 C 
ATOM      4  O   UNL A   1      32.897  25.824  26.286  1.00  0.00    -0.249 OA
BRANCH   3   5
ATOM      5  C   UNL A   1      32.671  26.690  23.984  1.00  0.00     0.136 C 
ATOM      6  C   UNL A   1      31.478  27.370  23.287  1.00  0.00     0.047 C 
BRANCH   5   7
ATOM      7  C   UNL A   1      33.904  27.683  23.847  1.00  0.00     0.037 C 
ATOM      8  C   UNL A   1      33.959  28.689  22.700  1.00  0.00     0.007 C 
ENDBRANCH   5   7
BRANCH   5   9
ATOM      9  N   UNL A   1      33.136  25.489  23.180  1.00  0.00    -0.322 N 
ATOM     10  C   UNL A   1      33.304  24.164  23.098  1.00  0.00     0.318 C 
ATOM     11  H   UNL A   1      33.464  25.852  22.326  1.00  0.00     0.166 HD
ATOM     12  O   UNL A   1      33.642  23.788  21.969  1.00  0.00    -0.249 OA
BRANCH  10  13
ATOM     13  N   UNL A   1      33.212  23.294  24.133  1.00  0.00    -0.325 N 
ATOM     14  C   UNL A   1      32.010  22.541  24.433  1.00  0.00     0.149 C 
BRANCH  13  15
ATOM     15  C   UNL A   1      34.441  22.801  24.831  1.00  0.00     0.086 C 
ATOM     16  C   UNL A   1      34.601  21.285  24.611  1.00  0.00     0.031 C 
BRANCH  15  17
ATOM     17  C   UNL A   1      35.825  23.505  24.554  1.00  0.00     0.005 C 
ATOM     18  C   UNL A   1      36.725  23.704  25.769  1.00  0.00     0.009 C 
ATOM     19  C   UNL A   1      36.653  22.706  23.528  1.00  0.00     0.009 C 
ENDBRANCH  15  17
ENDBRANCH  13  15
ENDBRANCH  10  13
ENDBRANCH   5   9
ENDBRANCH   3   5
ENDBRANCH   2   3
ENDBRANCH   1   2
BRANCH   1  20
ATOM     20  C   UNL A   1      31.825  29.837  26.310  1.00  0.00     0.275 C 
BRANCH  20  21
ATOM     21  O   UNL A   1      33.184  30.278  26.123  1.00  0.00    -0.458 OA
BRANCH  21  22
ATOM     22  C   UNL A   1      33.537  31.247  26.991  1.00  0.00     0.338 C 
ATOM     23  O   UNL A   1      32.842  32.177  27.363  1.00  0.00    -0.246 OA
BRANCH  22  24
ATOM     24  C   UNL A   1      34.814  30.979  27.637  1.00  0.00     0.060 A 
ATOM     25  C   UNL A   1      35.027  29.668  28.057  1.00  0.00     0.016 A 
ATOM     26  C   UNL A   1      35.688  32.001  27.995  1.00  0.00     0.016 A 
ATOM     27  C   UNL A   1      36.101  29.365  28.873  1.00  0.00     0.010 A 
ATOM     28  C   UNL A   1      36.806  31.687  28.770  1.00  0.00     0.010 A 
ATOM     29  C   UNL A   1      37.013  30.369  29.219  1.00  0.00    -0.014 A 
BRANCH  29  30
ATOM     30  C   UNL A   1      38.189  30.006  30.038  1.00  0.00     0.031 A 
ATOM     31  C   UNL A   1      39.286  29.162  29.465  1.00  0.00     0.074 A 
ATOM     32  C   UNL A   1      38.282  30.498  31.288  1.00  0.00     0.049 A 
ATOM     33  N   UNL A   1      40.343  28.672  30.060  1.00  0.00    -0.248 NA
ATOM     34  C   UNL A   1      39.184  28.824  28.037  1.00  0.00     0.031 C 
ATOM     35  C   UNL A   1      37.303  31.386  31.919  1.00  0.00     0.029 A 
ATOM     36  N   UNL A   1      39.252  30.341  32.241  1.00  0.00    -0.354 N 
ATOM     37  C   UNL A   1      41.009  27.930  29.094  1.00  0.00     0.074 A 
ATOM     38  C   UNL A   1      40.242  28.043  27.870  1.00  0.00     0.031 C 
ATOM     39  C   UNL A   1      37.744  31.730  33.137  1.00  0.00     0.029 A 
ATOM     40  C   UNL A   1      38.993  31.027  33.401  1.00  0.00     0.049 A 
ATOM     41  H   UNL A   1      40.057  29.789  32.108  1.00  0.00     0.167 HD
ATOM     42  C   UNL A   1      42.148  27.211  29.227  1.00  0.00     0.037 A 
ATOM     43  C   UNL A   1      39.675  31.064  34.559  1.00  0.00     0.037 A 
ATOM     44  C   UNL A   1      42.915  27.134  30.445  1.00  0.00     0.049 A 
ATOM     45  C   UNL A   1      40.924  30.242  34.687  1.00  0.00     0.074 A 
ATOM     46  C   UNL A   1      44.068  26.412  30.699  1.00  0.00     0.029 A 
ATOM     47  N   UNL A   1      42.607  27.819  31.611  1.00  0.00    -0.354 N 
ATOM     48  N   UNL A   1      41.507  29.485  33.790  1.00  0.00    -0.248 NA
ATOM     49  C   UNL A   1      41.598  30.265  35.990  1.00  0.00     0.031 C 
ATOM     50  C   UNL A   1      44.443  26.642  32.028  1.00  0.00     0.029 A 
ATOM     51  C   UNL A   1      43.546  27.536  32.589  1.00  0.00     0.049 A 
ATOM     52  H   UNL A   1      41.836  28.420  31.727  1.00  0.00     0.167 HD
ATOM     53  C   UNL A   1      42.624  28.951  34.413  1.00  0.00     0.074 A 
ATOM     54  C   UNL A   1      42.645  29.485  35.761  1.00  0.00     0.031 C 
ATOM     55  C   UNL A   1      43.547  28.090  33.919  1.00  0.00     0.037 A 
BRANCH  42  56
ATOM     56  C   UNL A   1      42.598  26.411  28.042  1.00  0.00     0.057 A 
ATOM     57  C   UNL A   1      43.480  26.924  27.084  1.00  0.00     0.134 A 
ATOM     58  C   UNL A   1      42.137  25.101  27.859  1.00  0.00     0.134 A 
ATOM     59  F   UNL A   1      43.945  28.178  27.191  1.00  0.00    -0.206 F 
ATOM     60  C   UNL A   1      43.871  26.170  25.975  1.00  0.00     0.040 A 
ATOM     61  C   UNL A   1      42.536  24.330  26.767  1.00  0.00     0.040 A 
ATOM     62  F   UNL A   1      41.289  24.548  28.741  1.00  0.00    -0.206 F 
ATOM     63  C   UNL A   1      43.401  24.867  25.816  1.00  0.00     0.006 A 
ENDBRANCH  42  56
BRANCH  43  64
ATOM     64  C   UNL A   1      39.177  31.888  35.687  1.00  0.00     0.057 A 
ATOM     65  C   UNL A   1      39.581  33.218  35.843  1.00  0.00     0.134 A 
ATOM     66  C   UNL A   1      38.272  31.374  36.624  1.00  0.00     0.134 A 
ATOM     67  F   UNL A   1      40.460  33.761  34.988  1.00  0.00    -0.206 F 
ATOM     68  C   UNL A   1      39.111  34.006  36.895  1.00  0.00     0.040 A 
ATOM     69  C   UNL A   1      37.774  32.156  37.666  1.00  0.00     0.040 A 
ATOM     70  F   UNL A   1      37.841  30.108  36.525  1.00  0.00    -0.206 F 
ATOM     71  C   UNL A   1      38.199  33.476  37.806  1.00  0.00     0.006 A 
ENDBRANCH  43  64
BRANCH  55  72
ATOM     72  C   UNL A   1      44.670  27.713  34.835  1.00  0.00     0.057 A 
ATOM     73  C   UNL A   1      44.596  26.591  35.669  1.00  0.00     0.134 A 
ATOM     74  C   UNL A   1      45.842  28.478  34.875  1.00  0.00     0.134 A 
ATOM     75  F   UNL A   1      43.492  25.829  35.687  1.00  0.00    -0.206 F 
ATOM     76  C   UNL A   1      45.642  26.254  36.529  1.00  0.00     0.040 A 
ATOM     77  C   UNL A   1      46.902  28.141  35.716  1.00  0.00     0.040 A 
ATOM     78  F   UNL A   1      45.974  29.564  34.098  1.00  0.00    -0.206 F 
ATOM     79  C   UNL A   1      46.801  27.029  36.551  1.00  0.00     0.006 A 
ENDBRANCH  55  72
ENDBRANCH  29  30
ENDBRANCH  22  24
ENDBRANCH  21  22
ENDBRANCH  20  21
ENDBRANCH   1  20
TORSDOF 16
ENDMDL
MODEL 3
REMARK VINA RESULT:     -10.0      4.187      7.582
REMARK SMILES CC[C@@](C)(NC(=O)N(C)[C@@H](C)C(C)C)C(=O)OCCOC(=O)c1ccc(-c2c3nc(c(-c4c(F)cccc4F)c4ccc([nH]4)c(-c4c(F)cccc4F)c4nc(c(-c5c(F)cccc5F)c5ccc2[nH]5)C=C4)C=C3)cc1
REMARK SMILES IDX 18 1 17 2 15 3 16 4 3 5 4 6 2 7 1 8 5 9 6 10 7 12 8 13 9 14
REMARK SMILES IDX 10 15 11 16 12 17 13 18 14 19 19 20 20 21 21 22 22 23 23 24
REMARK SMILES IDX 24 25 76 26 25 27 75 28 26 29 27 30 28 31 69 32 29 33 74 34
REMARK SMILES IDX 68 35 70 36 30 37 73 38 67 39 66 40 31 42 57 43 40 44 56 45
REMARK SMILES IDX 41 46 44 47 55 48 71 49 42 50 43 51 54 53 72 54 45 55 32 56
REMARK SMILES IDX 33 57 38 58 34 59 35 60 37 61 39 62 36 63 58 64 59 65 64 66
REMARK SMILES IDX 60 67 61 68 63 69 65 70 62 71 46 72 47 73 52 74 48 75 49 76
REMARK SMILES IDX 51 77 53 78 50 79
REMARK H PARENT 5 11 70 41 44 52
REMARK Flexibility Score: inf
ROOT
ATOM      1  C   UNL A   1      31.808  30.825  26.665  1.00  0.00     0.274 C 
ENDROOT
BRANCH   1   2
ATOM      2  O   UNL A   1      31.521  30.294  25.349  1.00  0.00    -0.460 OA
BRANCH   2   3
ATOM      3  C   UNL A   1      32.363  29.371  24.831  1.00  0.00     0.331 C 
ATOM      4  O   UNL A   1      33.561  29.368  25.100  1.00  0.00    -0.249 OA
BRANCH   3   5
ATOM      5  C   UNL A   1      31.725  28.463  23.718  1.00  0.00     0.136 C 
ATOM      6  C   UNL A   1      30.564  27.694  24.377  1.00  0.00     0.047 C 
BRANCH   5   7
ATOM      7  C   UNL A   1      31.077  29.399  22.609  1.00  0.00     0.037 C 
ATOM      8  C   UNL A   1      29.569  29.387  22.376  1.00  0.00     0.007 C 
ENDBRANCH   5   7
BRANCH   5   9
ATOM      9  N   UNL A   1      32.575  27.521  22.886  1.00  0.00    -0.322 N 
ATOM     10  C   UNL A   1      33.199  26.343  22.775  1.00  0.00     0.318 C 
ATOM     11  H   UNL A   1      32.745  27.993  22.040  1.00  0.00     0.166 HD
ATOM     12  O   UNL A   1      33.637  26.132  21.637  1.00  0.00    -0.249 OA
BRANCH  10  13
ATOM     13  N   UNL A   1      33.431  25.476  23.790  1.00  0.00    -0.325 N 
ATOM     14  C   UNL A   1      34.011  25.873  25.058  1.00  0.00     0.149 C 
BRANCH  13  15
ATOM     15  C   UNL A   1      32.796  24.120  23.799  1.00  0.00     0.086 C 
ATOM     16  C   UNL A   1      31.329  24.220  23.342  1.00  0.00     0.031 C 
BRANCH  15  17
ATOM     17  C   UNL A   1      33.491  22.934  23.026  1.00  0.00     0.005 C 
ATOM     18  C   UNL A   1      34.868  22.522  23.539  1.00  0.00     0.009 C 
ATOM     19  C   UNL A   1      32.617  21.665  23.064  1.00  0.00     0.009 C 
ENDBRANCH  15  17
ENDBRANCH  13  15
ENDBRANCH  10  13
ENDBRANCH   5   9
ENDBRANCH   3   5
ENDBRANCH   2   3
ENDBRANCH   1   2
BRANCH   1  20
ATOM     20  C   UNL A   1      31.515  32.328  26.718  1.00  0.00     0.275 C 
BRANCH  20  21
ATOM     21  O   UNL A   1      32.729  33.092  26.567  1.00  0.00    -0.458 OA
BRANCH  21  22
ATOM     22  C   UNL A   1      33.140  33.641  27.727  1.00  0.00     0.338 C 
ATOM     23  O   UNL A   1      32.517  34.427  28.420  1.00  0.00    -0.246 OA
BRANCH  22  24
ATOM     24  C   UNL A   1      34.375  33.047  28.218  1.00  0.00     0.060 A 
ATOM     25  C   UNL A   1      34.281  31.739  28.690  1.00  0.00     0.016 A 
ATOM     26  C   UNL A   1      35.535  33.795  28.393  1.00  0.00     0.016 A 
ATOM     27  C   UNL A   1      35.338  31.172  29.379  1.00  0.00     0.010 A 
ATOM     28  C   UNL A   1      36.624  33.202  29.036  1.00  0.00     0.010 A 
ATOM     29  C   UNL A   1      36.527  31.891  29.538  1.00  0.00    -0.014 A 
BRANCH  29  30
ATOM     30  C   UNL A   1      37.665  31.238  30.220  1.00  0.00     0.031 A 
ATOM     31  C   UNL A   1      37.913  31.468  31.680  1.00  0.00     0.074 A 
ATOM     32  C   UNL A   1      38.437  30.388  29.518  1.00  0.00     0.049 A 
ATOM     33  N   UNL A   1      38.908  31.054  32.420  1.00  0.00    -0.248 NA
ATOM     34  C   UNL A   1      36.911  32.266  32.403  1.00  0.00     0.031 C 
ATOM     35  C   UNL A   1      38.241  30.039  28.109  1.00  0.00     0.029 A 
ATOM     36  N   UNL A   1      39.524  29.646  29.896  1.00  0.00    -0.354 N 
ATOM     37  C   UNL A   1      38.680  31.578  33.685  1.00  0.00     0.074 A 
ATOM     38  C   UNL A   1      37.445  32.332  33.614  1.00  0.00     0.031 C 
ATOM     39  C   UNL A   1      39.149  29.119  27.754  1.00  0.00     0.029 A 
ATOM     40  C   UNL A   1      40.036  28.873  28.884  1.00  0.00     0.049 A 
ATOM     41  H   UNL A   1      39.903  29.666  30.805  1.00  0.00     0.167 HD
ATOM     42  C   UNL A   1      39.444  31.449  34.796  1.00  0.00     0.037 A 
ATOM     43  C   UNL A   1      41.118  28.075  28.862  1.00  0.00     0.037 A 
ATOM     44  C   UNL A   1      40.654  30.670  34.856  1.00  0.00     0.049 A 
ATOM     45  C   UNL A   1      41.957  27.966  30.101  1.00  0.00     0.074 A 
ATOM     46  C   UNL A   1      41.521  30.496  35.921  1.00  0.00     0.029 A 
ATOM     47  N   UNL A   1      41.160  29.923  33.802  1.00  0.00    -0.354 N 
ATOM     48  N   UNL A   1      41.774  28.524  31.273  1.00  0.00    -0.248 NA
ATOM     49  C   UNL A   1      43.163  27.133  30.010  1.00  0.00     0.031 C 
ATOM     50  C   UNL A   1      42.564  29.661  35.502  1.00  0.00     0.029 A 
ATOM     51  C   UNL A   1      42.328  29.287  34.190  1.00  0.00     0.049 A 
ATOM     52  H   UNL A   1      40.749  29.854  32.910  1.00  0.00     0.167 HD
ATOM     53  C   UNL A   1      42.830  28.101  32.064  1.00  0.00     0.074 A 
ATOM     54  C   UNL A   1      43.642  27.224  31.242  1.00  0.00     0.031 C 
ATOM     55  C   UNL A   1      43.110  28.412  33.353  1.00  0.00     0.037 A 
BRANCH  42  56
ATOM     56  C   UNL A   1      39.017  32.213  36.014  1.00  0.00     0.057 A 
ATOM     57  C   UNL A   1      38.185  31.656  36.991  1.00  0.00     0.134 A 
ATOM     58  C   UNL A   1      39.452  33.529  36.209  1.00  0.00     0.134 A 
ATOM     59  F   UNL A   1      37.719  30.405  36.856  1.00  0.00    -0.206 F 
ATOM     60  C   UNL A   1      37.782  32.390  38.109  1.00  0.00     0.040 A 
ATOM     61  C   UNL A   1      39.074  34.266  37.332  1.00  0.00     0.040 A 
ATOM     62  F   UNL A   1      40.253  34.123  35.310  1.00  0.00    -0.206 F 
ATOM     63  C   UNL A   1      38.229  33.699  38.283  1.00  0.00     0.006 A 
ENDBRANCH  42  56
BRANCH  43  64
ATOM     64  C   UNL A   1      41.473  27.340  27.624  1.00  0.00     0.057 A 
ATOM     65  C   UNL A   1      42.243  27.941  26.624  1.00  0.00     0.134 A 
ATOM     66  C   UNL A   1      41.067  26.016  27.419  1.00  0.00     0.134 A 
ATOM     67  F   UNL A   1      42.646  29.213  26.755  1.00  0.00    -0.206 F 
ATOM     68  C   UNL A   1      42.591  27.255  25.459  1.00  0.00     0.040 A 
ATOM     69  C   UNL A   1      41.428  25.309  26.272  1.00  0.00     0.040 A 
ATOM     70  F   UNL A   1      40.331  25.381  28.344  1.00  0.00    -0.206 F 
ATOM     71  C   UNL A   1      42.189  25.932  25.285  1.00  0.00     0.006 A 
ENDBRANCH  43  64
BRANCH  55  72
ATOM     72  C   UNL A   1      44.321  27.768  33.952  1.00  0.00     0.057 A 
ATOM     73  C   UNL A   1      45.577  28.385  33.920  1.00  0.00     0.134 A 
ATOM     74  C   UNL A   1      44.225  26.517  34.574  1.00  0.00     0.134 A 
ATOM     75  F   UNL A   1      45.734  29.576  33.323  1.00  0.00    -0.206 F 
ATOM     76  C   UNL A   1      46.703  27.771  34.469  1.00  0.00     0.040 A 
ATOM     77  C   UNL A   1      45.340  25.901  35.143  1.00  0.00     0.040 A 
ATOM     78  F   UNL A   1      43.049  25.875  34.638  1.00  0.00    -0.206 F 
ATOM     79  C   UNL A   1      46.585  26.526  35.086  1.00  0.00     0.006 A 
ENDBRANCH  55  72
ENDBRANCH  29  30
ENDBRANCH  22  24
ENDBRANCH  21  22
ENDBRANCH  20  21
ENDBRANCH   1  20
TORSDOF 16
ENDMDL
