MODEL 1
REMARK VINA RESULT:     -12.5      0.000      0.000
REMARK SMILES Cc1cccc(S(=O)(=O)Nc2cc(C(=O)OCCOC(=O)c3ccc(-c4c5nc(c(-c6c(F)cccc6F)c6ccc([nH]6)c(-c6c(F)cccc6F)c6nc(c(-c7c(F)cccc7F)c7ccc4[nH]7)C=C6)C=C5)cc3)cnc2N2CCC[C@H](C)C2)c1
REMARK SMILES IDX 17 1 16 2 14 3 15 4 13 5 11 6 12 7 78 8 77 9 76 10 10 11
REMARK SMILES IDX 7 13 8 14 9 15 6 16 1 17 2 18 3 19 86 20 4 21 5 22 79 23
REMARK SMILES IDX 80 24 85 25 81 26 83 27 82 28 84 29 18 30 19 31 20 32 21 33
REMARK SMILES IDX 22 34 23 35 75 36 24 37 74 38 25 39 26 40 27 41 68 42 28 43
REMARK SMILES IDX 73 44 67 45 69 46 29 47 72 48 66 49 65 50 30 52 56 53 39 54
REMARK SMILES IDX 55 55 40 56 43 57 54 58 70 59 41 60 42 61 53 63 71 64 44 65
REMARK SMILES IDX 31 66 32 67 37 68 33 69 34 70 36 71 38 72 35 73 57 74 58 75
REMARK SMILES IDX 63 76 59 77 60 78 62 79 64 80 61 81 45 82 46 83 51 84 47 85
REMARK SMILES IDX 48 86 50 87 52 88 49 89
REMARK H PARENT 10 12 69 51 43 62
REMARK Flexibility Score: inf
ROOT
ATOM      1  C   UNL A   1      32.359  28.068  27.425  1.00  0.00     0.275 C 
ENDROOT
BRANCH   1   2
ATOM      2  O   UNL A   1      32.218  27.304  26.216  1.00  0.00    -0.458 OA
BRANCH   2   3
ATOM      3  C   UNL A   1      31.264  26.366  26.343  1.00  0.00     0.339 C 
ATOM      4  O   UNL A   1      30.172  26.522  26.866  1.00  0.00    -0.246 OA
BRANCH   3   5
ATOM      5  C   UNL A   1      31.584  25.028  25.879  1.00  0.00     0.080 A 
ATOM      6  C   UNL A   1      32.306  24.094  23.780  1.00  0.00     0.092 A 
ATOM      7  C   UNL A   1      31.420  24.874  24.511  1.00  0.00     0.048 A 
ATOM      8  C   UNL A   1      33.240  23.290  24.497  1.00  0.00     0.153 A 
ATOM      9  N   UNL A   1      33.277  23.353  25.864  1.00  0.00    -0.236 NA
ATOM     10  C   UNL A   1      32.508  24.249  26.525  1.00  0.00     0.129 A 
BRANCH   6  11
ATOM     11  N   UNL A   1      32.397  24.302  22.360  1.00  0.00    -0.276 N 
ATOM     12  H   UNL A   1      32.376  23.493  21.798  1.00  0.00     0.180 HD
BRANCH  11  13
ATOM     13  S   UNL A   1      32.533  25.762  21.556  1.00  0.00     0.262 S 
ATOM     14  O   UNL A   1      31.897  25.617  20.264  1.00  0.00    -0.201 OA
ATOM     15  O   UNL A   1      33.948  26.067  21.646  1.00  0.00    -0.201 OA
BRANCH  13  16
ATOM     16  C   UNL A   1      31.699  27.092  22.405  1.00  0.00     0.088 A 
ATOM     17  C   UNL A   1      28.316  28.755  22.971  1.00  0.00     0.044 C 
ATOM     18  C   UNL A   1      29.783  28.456  22.993  1.00  0.00    -0.050 A 
ATOM     19  C   UNL A   1      30.629  29.459  23.463  1.00  0.00     0.003 A 
ATOM     20  C   UNL A   1      30.319  27.241  22.512  1.00  0.00     0.025 A 
ATOM     21  C   UNL A   1      32.001  29.282  23.423  1.00  0.00     0.002 A 
ATOM     22  C   UNL A   1      32.535  28.114  22.880  1.00  0.00     0.022 A 
ENDBRANCH  13  16
ENDBRANCH  11  13
ENDBRANCH   6  11
BRANCH   8  23
ATOM     23  N   UNL A   1      34.151  22.408  23.940  1.00  0.00    -0.355 N 
ATOM     24  C   UNL A   1      34.341  20.991  24.218  1.00  0.00     0.118 C 
ATOM     25  C   UNL A   1      35.289  23.004  23.220  1.00  0.00     0.121 C 
ATOM     26  C   UNL A   1      35.551  20.812  25.144  1.00  0.00     0.022 C 
ATOM     27  C   UNL A   1      36.527  22.965  24.137  1.00  0.00     0.005 C 
ATOM     28  C   UNL A   1      36.798  21.522  24.602  1.00  0.00     0.007 C 
ATOM     29  C   UNL A   1      36.384  23.931  25.319  1.00  0.00     0.009 C 
ENDBRANCH   8  23
ENDBRANCH   3   5
ENDBRANCH   2   3
ENDBRANCH   1   2
BRANCH   1  30
ATOM     30  C   UNL A   1      32.394  29.569  27.162  1.00  0.00     0.275 C 
BRANCH  30  31
ATOM     31  O   UNL A   1      33.688  30.218  26.987  1.00  0.00    -0.458 OA
BRANCH  31  32
ATOM     32  C   UNL A   1      34.469  30.852  27.894  1.00  0.00     0.338 C 
ATOM     33  O   UNL A   1      34.117  31.913  28.405  1.00  0.00    -0.246 OA
BRANCH  32  34
ATOM     34  C   UNL A   1      35.782  30.279  28.252  1.00  0.00     0.060 A 
ATOM     35  C   UNL A   1      36.038  29.857  29.577  1.00  0.00     0.016 A 
ATOM     36  C   UNL A   1      36.749  30.119  27.278  1.00  0.00     0.016 A 
ATOM     37  C   UNL A   1      37.234  29.205  29.912  1.00  0.00     0.010 A 
ATOM     38  C   UNL A   1      37.861  29.371  27.576  1.00  0.00     0.010 A 
ATOM     39  C   UNL A   1      38.154  28.964  28.901  1.00  0.00    -0.014 A 
BRANCH  39  40
ATOM     40  C   UNL A   1      39.547  28.523  29.059  1.00  0.00     0.031 A 
ATOM     41  C   UNL A   1      40.061  27.166  28.755  1.00  0.00     0.074 A 
ATOM     42  C   UNL A   1      40.370  29.597  29.126  1.00  0.00     0.049 A 
ATOM     43  N   UNL A   1      41.194  27.011  28.163  1.00  0.00    -0.248 NA
ATOM     44  C   UNL A   1      39.372  25.883  28.967  1.00  0.00     0.031 C 
ATOM     45  C   UNL A   1      41.790  29.758  28.869  1.00  0.00     0.029 A 
ATOM     46  N   UNL A   1      40.006  30.841  29.669  1.00  0.00    -0.354 N 
ATOM     47  C   UNL A   1      41.389  25.679  27.904  1.00  0.00     0.074 A 
ATOM     48  C   UNL A   1      40.185  25.011  28.331  1.00  0.00     0.031 C 
ATOM     49  C   UNL A   1      42.235  30.794  29.607  1.00  0.00     0.029 A 
ATOM     50  C   UNL A   1      41.115  31.227  30.433  1.00  0.00     0.049 A 
ATOM     51  H   UNL A   1      39.162  31.331  29.541  1.00  0.00     0.167 HD
ATOM     52  C   UNL A   1      42.632  25.293  27.508  1.00  0.00     0.037 A 
ATOM     53  C   UNL A   1      41.000  31.052  31.785  1.00  0.00     0.037 A 
ATOM     54  C   UNL A   1      43.579  26.154  28.192  1.00  0.00     0.049 A 
ATOM     55  C   UNL A   1      41.947  29.965  32.253  1.00  0.00     0.074 A 
ATOM     56  C   UNL A   1      44.284  27.298  27.882  1.00  0.00     0.029 A 
ATOM     57  N   UNL A   1      43.593  26.030  29.573  1.00  0.00    -0.354 N 
ATOM     58  N   UNL A   1      42.324  28.937  31.533  1.00  0.00    -0.248 NA
ATOM     59  C   UNL A   1      42.658  30.053  33.521  1.00  0.00     0.031 C 
ATOM     60  C   UNL A   1      44.583  27.945  29.124  1.00  0.00     0.029 A 
ATOM     61  C   UNL A   1      44.078  27.173  30.162  1.00  0.00     0.049 A 
ATOM     62  H   UNL A   1      43.295  25.231  30.064  1.00  0.00     0.167 HD
ATOM     63  C   UNL A   1      43.368  28.306  32.160  1.00  0.00     0.074 A 
ATOM     64  C   UNL A   1      43.520  29.029  33.410  1.00  0.00     0.031 C 
ATOM     65  C   UNL A   1      44.081  27.274  31.614  1.00  0.00     0.037 A 
BRANCH  52  66
ATOM     66  C   UNL A   1      43.021  24.238  26.516  1.00  0.00     0.057 A 
ATOM     67  C   UNL A   1      42.982  22.875  26.892  1.00  0.00     0.134 A 
ATOM     68  C   UNL A   1      43.632  24.487  25.279  1.00  0.00     0.134 A 
ATOM     69  F   UNL A   1      42.418  22.482  28.044  1.00  0.00    -0.206 F 
ATOM     70  C   UNL A   1      43.558  21.852  26.128  1.00  0.00     0.040 A 
ATOM     71  C   UNL A   1      44.208  23.468  24.498  1.00  0.00     0.040 A 
ATOM     72  F   UNL A   1      43.718  25.728  24.786  1.00  0.00    -0.206 F 
ATOM     73  C   UNL A   1      44.189  22.148  24.930  1.00  0.00     0.006 A 
ENDBRANCH  52  66
BRANCH  53  74
ATOM     74  C   UNL A   1      39.603  31.348  32.268  1.00  0.00     0.057 A 
ATOM     75  C   UNL A   1      38.861  30.271  32.815  1.00  0.00     0.134 A 
ATOM     76  C   UNL A   1      39.130  32.629  32.571  1.00  0.00     0.134 A 
ATOM     77  F   UNL A   1      39.245  29.004  32.579  1.00  0.00    -0.206 F 
ATOM     78  C   UNL A   1      37.813  30.454  33.724  1.00  0.00     0.040 A 
ATOM     79  C   UNL A   1      38.043  32.823  33.446  1.00  0.00     0.040 A 
ATOM     80  F   UNL A   1      39.762  33.718  32.116  1.00  0.00    -0.206 F 
ATOM     81  C   UNL A   1      37.415  31.739  34.063  1.00  0.00     0.006 A 
ENDBRANCH  53  74
BRANCH  65  82
ATOM     82  C   UNL A   1      44.882  26.267  32.417  1.00  0.00     0.057 A 
ATOM     83  C   UNL A   1      46.274  26.119  32.313  1.00  0.00     0.134 A 
ATOM     84  C   UNL A   1      44.291  25.533  33.475  1.00  0.00     0.134 A 
ATOM     85  F   UNL A   1      47.004  26.867  31.476  1.00  0.00    -0.206 F 
ATOM     86  C   UNL A   1      47.004  25.241  33.121  1.00  0.00     0.040 A 
ATOM     87  C   UNL A   1      45.025  24.717  34.341  1.00  0.00     0.040 A 
ATOM     88  F   UNL A   1      42.980  25.605  33.748  1.00  0.00    -0.206 F 
ATOM     89  C   UNL A   1      46.384  24.545  34.147  1.00  0.00     0.006 A 
ENDBRANCH  65  82
ENDBRANCH  39  40
ENDBRANCH  32  34
ENDBRANCH  31  32
ENDBRANCH  30  31
ENDBRANCH   1  30
TORSDOF 15
ENDMDL
MODEL 2
REMARK VINA RESULT:     -12.4      2.413      3.722
REMARK SMILES Cc1cccc(S(=O)(=O)Nc2cc(C(=O)OCCOC(=O)c3ccc(-c4c5nc(c(-c6c(F)cccc6F)c6ccc([nH]6)c(-c6c(F)cccc6F)c6nc(c(-c7c(F)cccc7F)c7ccc4[nH]7)C=C6)C=C5)cc3)cnc2N2CCC[C@H](C)C2)c1
REMARK SMILES IDX 17 1 16 2 14 3 15 4 13 5 11 6 12 7 78 8 77 9 76 10 10 11
REMARK SMILES IDX 7 13 8 14 9 15 6 16 1 17 2 18 3 19 86 20 4 21 5 22 79 23
REMARK SMILES IDX 80 24 85 25 81 26 83 27 82 28 84 29 18 30 19 31 20 32 21 33
REMARK SMILES IDX 22 34 23 35 75 36 24 37 74 38 25 39 26 40 27 41 68 42 28 43
REMARK SMILES IDX 73 44 67 45 69 46 29 47 72 48 66 49 65 50 30 52 56 53 39 54
REMARK SMILES IDX 55 55 40 56 43 57 54 58 70 59 41 60 42 61 53 63 71 64 44 65
REMARK SMILES IDX 31 66 32 67 37 68 33 69 34 70 36 71 38 72 35 73 57 74 58 75
REMARK SMILES IDX 63 76 59 77 60 78 62 79 64 80 61 81 45 82 46 83 51 84 47 85
REMARK SMILES IDX 48 86 50 87 52 88 49 89
REMARK H PARENT 10 12 69 51 43 62
REMARK Flexibility Score: inf
ROOT
ATOM      1  C   UNL A   1      34.085  32.597  27.996  1.00  0.00     0.275 C 
ENDROOT
BRANCH   1   2
ATOM      2  O   UNL A   1      33.014  31.756  27.536  1.00  0.00    -0.458 OA
BRANCH   2   3
ATOM      3  C   UNL A   1      33.419  30.480  27.411  1.00  0.00     0.339 C 
ATOM      4  O   UNL A   1      34.577  30.092  27.419  1.00  0.00    -0.246 OA
BRANCH   3   5
ATOM      5  C   UNL A   1      32.393  29.479  27.180  1.00  0.00     0.080 A 
ATOM      6  C   UNL A   1      31.495  28.397  25.225  1.00  0.00     0.092 A 
ATOM      7  C   UNL A   1      31.836  29.554  25.913  1.00  0.00     0.048 A 
ATOM      8  C   UNL A   1      31.526  27.162  25.935  1.00  0.00     0.153 A 
ATOM      9  N   UNL A   1      31.940  27.142  27.240  1.00  0.00    -0.236 NA
ATOM     10  C   UNL A   1      32.419  28.267  27.819  1.00  0.00     0.129 A 
BRANCH   6  11
ATOM     11  N   UNL A   1      31.354  28.462  23.795  1.00  0.00    -0.276 N 
ATOM     12  H   UNL A   1      32.183  28.600  23.281  1.00  0.00     0.180 HD
BRANCH  11  13
ATOM     13  S   UNL A   1      29.942  28.329  22.909  1.00  0.00     0.262 S 
ATOM     14  O   UNL A   1      29.013  27.525  23.674  1.00  0.00    -0.201 OA
ATOM     15  O   UNL A   1      30.401  27.881  21.608  1.00  0.00    -0.201 OA
BRANCH  13  16
ATOM     16  C   UNL A   1      29.159  29.908  22.625  1.00  0.00     0.088 A 
ATOM     17  C   UNL A   1      27.879  32.283  19.932  1.00  0.00     0.044 C 
ATOM     18  C   UNL A   1      28.272  31.700  21.254  1.00  0.00    -0.050 A 
ATOM     19  C   UNL A   1      28.317  32.569  22.343  1.00  0.00     0.003 A 
ATOM     20  C   UNL A   1      28.643  30.345  21.408  1.00  0.00     0.025 A 
ATOM     21  C   UNL A   1      28.763  32.114  23.573  1.00  0.00     0.002 A 
ATOM     22  C   UNL A   1      29.200  30.797  23.709  1.00  0.00     0.022 A 
ENDBRANCH  13  16
ENDBRANCH  11  13
ENDBRANCH   6  11
BRANCH   8  23
ATOM     23  N   UNL A   1      31.160  25.925  25.433  1.00  0.00    -0.355 N 
ATOM     24  C   UNL A   1      30.312  24.905  26.036  1.00  0.00     0.118 C 
ATOM     25  C   UNL A   1      31.960  25.408  24.310  1.00  0.00     0.121 C 
ATOM     26  C   UNL A   1      31.192  23.800  26.634  1.00  0.00     0.022 C 
ATOM     27  C   UNL A   1      32.956  24.365  24.854  1.00  0.00     0.005 C 
ATOM     28  C   UNL A   1      32.204  23.258  25.616  1.00  0.00     0.007 C 
ATOM     29  C   UNL A   1      34.042  25.019  25.717  1.00  0.00     0.009 C 
ENDBRANCH   8  23
ENDBRANCH   3   5
ENDBRANCH   2   3
ENDBRANCH   1   2
BRANCH   1  30
ATOM     30  C   UNL A   1      33.583  33.929  28.539  1.00  0.00     0.275 C 
BRANCH  30  31
ATOM     31  O   UNL A   1      34.205  34.471  29.742  1.00  0.00    -0.458 OA
BRANCH  31  32
ATOM     32  C   UNL A   1      34.580  33.844  30.882  1.00  0.00     0.338 C 
ATOM     33  O   UNL A   1      33.886  33.895  31.895  1.00  0.00    -0.246 OA
BRANCH  32  34
ATOM     34  C   UNL A   1      35.861  33.110  30.923  1.00  0.00     0.060 A 
ATOM     35  C   UNL A   1      36.953  33.536  30.133  1.00  0.00     0.016 A 
ATOM     36  C   UNL A   1      36.002  32.024  31.766  1.00  0.00     0.016 A 
ATOM     37  C   UNL A   1      38.210  32.924  30.243  1.00  0.00     0.010 A 
ATOM     38  C   UNL A   1      37.260  31.510  31.967  1.00  0.00     0.010 A 
ATOM     39  C   UNL A   1      38.362  31.899  31.166  1.00  0.00    -0.014 A 
BRANCH  39  40
ATOM     40  C   UNL A   1      39.496  30.972  31.282  1.00  0.00     0.031 A 
ATOM     41  C   UNL A   1      39.584  29.636  30.648  1.00  0.00     0.074 A 
ATOM     42  C   UNL A   1      40.601  31.639  31.694  1.00  0.00     0.049 A 
ATOM     43  N   UNL A   1      40.683  29.237  30.107  1.00  0.00    -0.248 NA
ATOM     44  C   UNL A   1      38.494  28.666  30.453  1.00  0.00     0.031 C 
ATOM     45  C   UNL A   1      42.019  31.345  31.581  1.00  0.00     0.029 A 
ATOM     46  N   UNL A   1      40.580  32.763  32.537  1.00  0.00    -0.354 N 
ATOM     47  C   UNL A   1      40.475  28.024  29.503  1.00  0.00     0.074 A 
ATOM     48  C   UNL A   1      39.069  27.742  29.653  1.00  0.00     0.031 C 
ATOM     49  C   UNL A   1      42.656  31.951  32.603  1.00  0.00     0.029 A 
ATOM     50  C   UNL A   1      41.623  32.541  33.445  1.00  0.00     0.049 A 
ATOM     51  H   UNL A   1      39.969  33.535  32.497  1.00  0.00     0.167 HD
ATOM     52  C   UNL A   1      41.572  27.331  29.094  1.00  0.00     0.037 A 
ATOM     53  C   UNL A   1      41.251  32.100  34.685  1.00  0.00     0.037 A 
ATOM     54  C   UNL A   1      42.629  27.614  30.046  1.00  0.00     0.049 A 
ATOM     55  C   UNL A   1      41.712  30.672  34.893  1.00  0.00     0.074 A 
ATOM     56  C   UNL A   1      43.705  28.475  30.110  1.00  0.00     0.029 A 
ATOM     57  N   UNL A   1      42.390  27.169  31.337  1.00  0.00    -0.354 N 
ATOM     58  N   UNL A   1      41.843  29.780  33.942  1.00  0.00    -0.248 NA
ATOM     59  C   UNL A   1      42.210  30.199  36.178  1.00  0.00     0.031 C 
ATOM     60  C   UNL A   1      44.002  28.660  31.497  1.00  0.00     0.029 A 
ATOM     61  C   UNL A   1      43.122  27.891  32.248  1.00  0.00     0.049 A 
ATOM     62  H   UNL A   1      41.778  26.433  31.569  1.00  0.00     0.167 HD
ATOM     63  C   UNL A   1      42.518  28.692  34.434  1.00  0.00     0.074 A 
ATOM     64  C   UNL A   1      42.701  28.996  35.842  1.00  0.00     0.031 C 
ATOM     65  C   UNL A   1      42.934  27.636  33.669  1.00  0.00     0.037 A 
BRANCH  52  66
ATOM     66  C   UNL A   1      41.747  26.475  27.875  1.00  0.00     0.057 A 
ATOM     67  C   UNL A   1      42.371  25.212  27.991  1.00  0.00     0.134 A 
ATOM     68  C   UNL A   1      41.529  26.902  26.558  1.00  0.00     0.134 A 
ATOM     69  F   UNL A   1      42.634  24.667  29.188  1.00  0.00    -0.206 F 
ATOM     70  C   UNL A   1      42.798  24.464  26.886  1.00  0.00     0.040 A 
ATOM     71  C   UNL A   1      41.946  26.157  25.439  1.00  0.00     0.040 A 
ATOM     72  F   UNL A   1      40.925  28.068  26.298  1.00  0.00    -0.206 F 
ATOM     73  C   UNL A   1      42.600  24.942  25.601  1.00  0.00     0.006 A 
ENDBRANCH  52  66
BRANCH  53  74
ATOM     74  C   UNL A   1      39.967  32.746  35.144  1.00  0.00     0.057 A 
ATOM     75  C   UNL A   1      38.828  31.911  35.271  1.00  0.00     0.134 A 
ATOM     76  C   UNL A   1      39.897  33.976  35.806  1.00  0.00     0.134 A 
ATOM     77  F   UNL A   1      38.808  30.709  34.671  1.00  0.00    -0.206 F 
ATOM     78  C   UNL A   1      37.757  32.212  36.119  1.00  0.00     0.040 A 
ATOM     79  C   UNL A   1      38.800  34.310  36.623  1.00  0.00     0.040 A 
ATOM     80  F   UNL A   1      40.923  34.837  35.762  1.00  0.00    -0.206 F 
ATOM     81  C   UNL A   1      37.751  33.409  36.821  1.00  0.00     0.006 A 
ENDBRANCH  53  74
BRANCH  65  82
ATOM     82  C   UNL A   1      43.234  26.252  34.211  1.00  0.00     0.057 A 
ATOM     83  C   UNL A   1      44.516  25.683  34.226  1.00  0.00     0.134 A 
ATOM     84  C   UNL A   1      42.255  25.511  34.917  1.00  0.00     0.134 A 
ATOM     85  F   UNL A   1      45.585  26.334  33.748  1.00  0.00    -0.206 F 
ATOM     86  C   UNL A   1      44.785  24.438  34.804  1.00  0.00     0.040 A 
ATOM     87  C   UNL A   1      42.532  24.306  35.569  1.00  0.00     0.040 A 
ATOM     88  F   UNL A   1      40.991  25.942  35.049  1.00  0.00    -0.206 F 
ATOM     89  C   UNL A   1      43.796  23.749  35.489  1.00  0.00     0.006 A 
ENDBRANCH  65  82
ENDBRANCH  39  40
ENDBRANCH  32  34
ENDBRANCH  31  32
ENDBRANCH  30  31
ENDBRANCH   1  30
TORSDOF 15
ENDMDL
MODEL 3
REMARK VINA RESULT:     -12.3      3.766      8.857
REMARK SMILES Cc1cccc(S(=O)(=O)Nc2cc(C(=O)OCCOC(=O)c3ccc(-c4c5nc(c(-c6c(F)cccc6F)c6ccc([nH]6)c(-c6c(F)cccc6F)c6nc(c(-c7c(F)cccc7F)c7ccc4[nH]7)C=C6)C=C5)cc3)cnc2N2CCC[C@H](C)C2)c1
REMARK SMILES IDX 17 1 16 2 14 3 15 4 13 5 11 6 12 7 78 8 77 9 76 10 10 11
REMARK SMILES IDX 7 13 8 14 9 15 6 16 1 17 2 18 3 19 86 20 4 21 5 22 79 23
REMARK SMILES IDX 80 24 85 25 81 26 83 27 82 28 84 29 18 30 19 31 20 32 21 33
REMARK SMILES IDX 22 34 23 35 75 36 24 37 74 38 25 39 26 40 27 41 68 42 28 43
REMARK SMILES IDX 73 44 67 45 69 46 29 47 72 48 66 49 65 50 30 52 56 53 39 54
REMARK SMILES IDX 55 55 40 56 43 57 54 58 70 59 41 60 42 61 53 63 71 64 44 65
REMARK SMILES IDX 31 66 32 67 37 68 33 69 34 70 36 71 38 72 35 73 57 74 58 75
REMARK SMILES IDX 63 76 59 77 60 78 62 79 64 80 61 81 45 82 46 83 51 84 47 85
REMARK SMILES IDX 48 86 50 87 52 88 49 89
REMARK H PARENT 10 12 69 51 43 62
REMARK Flexibility Score: inf
ROOT
ATOM      1  C   UNL A   1      40.030  19.968  25.983  1.00  0.00     0.275 C 
ENDROOT
BRANCH   1   2
ATOM      2  O   UNL A   1      39.245  21.169  25.898  1.00  0.00    -0.458 OA
BRANCH   2   3
ATOM      3  C   UNL A   1      38.071  20.939  25.285  1.00  0.00     0.339 C 
ATOM      4  O   UNL A   1      37.642  19.847  24.946  1.00  0.00    -0.246 OA
BRANCH   3   5
ATOM      5  C   UNL A   1      37.271  22.097  24.930  1.00  0.00     0.080 A 
ATOM      6  C   UNL A   1      34.913  22.505  24.659  1.00  0.00     0.092 A 
ATOM      7  C   UNL A   1      36.049  21.762  24.367  1.00  0.00     0.048 A 
ATOM      8  C   UNL A   1      35.079  23.733  25.364  1.00  0.00     0.153 A 
ATOM      9  N   UNL A   1      36.327  24.113  25.778  1.00  0.00    -0.236 NA
ATOM     10  C   UNL A   1      37.380  23.279  25.617  1.00  0.00     0.129 A 
BRANCH   6  11
ATOM     11  N   UNL A   1      33.624  21.904  24.448  1.00  0.00    -0.276 N 
ATOM     12  H   UNL A   1      33.116  22.224  23.668  1.00  0.00     0.180 HD
BRANCH  11  13
ATOM     13  S   UNL A   1      32.892  20.721  25.377  1.00  0.00     0.262 S 
ATOM     14  O   UNL A   1      31.468  20.981  25.384  1.00  0.00    -0.201 OA
ATOM     15  O   UNL A   1      33.648  20.749  26.615  1.00  0.00    -0.201 OA
BRANCH  13  16
ATOM     16  C   UNL A   1      33.123  19.083  24.708  1.00  0.00     0.088 A 
ATOM     17  C   UNL A   1      35.129  15.859  25.053  1.00  0.00     0.044 C 
ATOM     18  C   UNL A   1      34.182  16.907  24.555  1.00  0.00    -0.050 A 
ATOM     19  C   UNL A   1      33.642  16.723  23.283  1.00  0.00     0.003 A 
ATOM     20  C   UNL A   1      33.876  18.070  25.297  1.00  0.00     0.025 A 
ATOM     21  C   UNL A   1      32.834  17.700  22.727  1.00  0.00     0.002 A 
ATOM     22  C   UNL A   1      32.591  18.881  23.426  1.00  0.00     0.022 A 
ENDBRANCH  13  16
ENDBRANCH  11  13
ENDBRANCH   6  11
BRANCH   8  23
ATOM     23  N   UNL A   1      34.073  24.630  25.684  1.00  0.00    -0.355 N 
ATOM     24  C   UNL A   1      32.764  24.368  26.267  1.00  0.00     0.118 C 
ATOM     25  C   UNL A   1      34.170  25.970  25.082  1.00  0.00     0.121 C 
ATOM     26  C   UNL A   1      31.700  24.399  25.163  1.00  0.00     0.022 C 
ATOM     27  C   UNL A   1      33.204  26.041  23.882  1.00  0.00     0.005 C 
ATOM     28  C   UNL A   1      31.774  25.685  24.330  1.00  0.00     0.007 C 
ATOM     29  C   UNL A   1      33.679  25.158  22.722  1.00  0.00     0.009 C 
ENDBRANCH   8  23
ENDBRANCH   3   5
ENDBRANCH   2   3
ENDBRANCH   1   2
BRANCH   1  30
ATOM     30  C   UNL A   1      41.484  20.250  26.341  1.00  0.00     0.275 C 
BRANCH  30  31
ATOM     31  O   UNL A   1      42.305  20.995  25.393  1.00  0.00    -0.458 OA
BRANCH  31  32
ATOM     32  C   UNL A   1      43.462  21.671  25.592  1.00  0.00     0.338 C 
ATOM     33  O   UNL A   1      44.552  21.134  25.408  1.00  0.00    -0.246 OA
BRANCH  32  34
ATOM     34  C   UNL A   1      43.417  23.068  26.069  1.00  0.00     0.060 A 
ATOM     35  C   UNL A   1      43.821  24.125  25.221  1.00  0.00     0.016 A 
ATOM     36  C   UNL A   1      42.940  23.344  27.336  1.00  0.00     0.016 A 
ATOM     37  C   UNL A   1      43.677  25.464  25.613  1.00  0.00     0.010 A 
ATOM     38  C   UNL A   1      42.682  24.651  27.668  1.00  0.00     0.010 A 
ATOM     39  C   UNL A   1      43.105  25.727  26.850  1.00  0.00    -0.014 A 
BRANCH  39  40
ATOM     40  C   UNL A   1      43.077  27.016  27.556  1.00  0.00     0.031 A 
ATOM     41  C   UNL A   1      41.923  27.945  27.606  1.00  0.00     0.074 A 
ATOM     42  C   UNL A   1      44.071  27.064  28.476  1.00  0.00     0.049 A 
ATOM     43  N   UNL A   1      41.610  28.543  28.704  1.00  0.00    -0.248 NA
ATOM     44  C   UNL A   1      40.962  28.234  26.530  1.00  0.00     0.031 C 
ATOM     45  C   UNL A   1      44.252  27.858  29.677  1.00  0.00     0.029 A 
ATOM     46  N   UNL A   1      45.309  26.414  28.338  1.00  0.00    -0.354 N 
ATOM     47  C   UNL A   1      40.454  29.256  28.514  1.00  0.00     0.074 A 
ATOM     48  C   UNL A   1      40.021  28.961  27.171  1.00  0.00     0.031 C 
ATOM     49  C   UNL A   1      45.575  27.981  29.904  1.00  0.00     0.029 A 
ATOM     50  C   UNL A   1      46.249  27.357  28.772  1.00  0.00     0.049 A 
ATOM     51  H   UNL A   1      45.477  25.501  28.012  1.00  0.00     0.167 HD
ATOM     52  C   UNL A   1      40.102  30.146  29.480  1.00  0.00     0.037 A 
ATOM     53  C   UNL A   1      46.935  28.014  27.787  1.00  0.00     0.037 A 
ATOM     54  C   UNL A   1      41.333  30.688  30.025  1.00  0.00     0.049 A 
ATOM     55  C   UNL A   1      46.535  29.475  27.755  1.00  0.00     0.074 A 
ATOM     56  C   UNL A   1      42.129  30.437  31.123  1.00  0.00     0.029 A 
ATOM     57  N   UNL A   1      42.096  31.421  29.129  1.00  0.00    -0.354 N 
ATOM     58  N   UNL A   1      45.354  29.936  28.090  1.00  0.00    -0.248 NA
ATOM     59  C   UNL A   1      47.497  30.535  27.489  1.00  0.00     0.031 C 
ATOM     60  C   UNL A   1      43.442  30.900  30.792  1.00  0.00     0.029 A 
ATOM     61  C   UNL A   1      43.415  31.445  29.515  1.00  0.00     0.049 A 
ATOM     62  H   UNL A   1      41.741  31.865  28.326  1.00  0.00     0.167 HD
ATOM     63  C   UNL A   1      45.418  31.303  28.192  1.00  0.00     0.074 A 
ATOM     64  C   UNL A   1      46.773  31.626  27.783  1.00  0.00     0.031 C 
ATOM     65  C   UNL A   1      44.394  32.087  28.650  1.00  0.00     0.037 A 
BRANCH  52  66
ATOM     66  C   UNL A   1      38.734  30.501  29.984  1.00  0.00     0.057 A 
ATOM     67  C   UNL A   1      37.872  29.479  30.445  1.00  0.00     0.134 A 
ATOM     68  C   UNL A   1      38.131  31.759  29.849  1.00  0.00     0.134 A 
ATOM     69  F   UNL A   1      38.309  28.225  30.634  1.00  0.00    -0.206 F 
ATOM     70  C   UNL A   1      36.508  29.681  30.694  1.00  0.00     0.040 A 
ATOM     71  C   UNL A   1      36.764  31.977  30.102  1.00  0.00     0.040 A 
ATOM     72  F   UNL A   1      38.833  32.824  29.444  1.00  0.00    -0.206 F 
ATOM     73  C   UNL A   1      35.944  30.932  30.508  1.00  0.00     0.006 A 
ENDBRANCH  52  66
BRANCH  53  74
ATOM     74  C   UNL A   1      47.249  27.104  26.626  1.00  0.00     0.057 A 
ATOM     75  C   UNL A   1      46.631  27.396  25.384  1.00  0.00     0.134 A 
ATOM     76  C   UNL A   1      48.360  26.255  26.569  1.00  0.00     0.134 A 
ATOM     77  F   UNL A   1      45.559  28.205  25.342  1.00  0.00    -0.206 F 
ATOM     78  C   UNL A   1      47.169  26.997  24.155  1.00  0.00     0.040 A 
ATOM     79  C   UNL A   1      48.880  25.807  25.339  1.00  0.00     0.040 A 
ATOM     80  F   UNL A   1      49.026  25.923  27.682  1.00  0.00    -0.206 F 
ATOM     81  C   UNL A   1      48.316  26.217  24.128  1.00  0.00     0.006 A 
ENDBRANCH  53  74
BRANCH  65  82
ATOM     82  C   UNL A   1      44.240  33.563  28.338  1.00  0.00     0.057 A 
ATOM     83  C   UNL A   1      43.937  34.061  27.062  1.00  0.00     0.134 A 
ATOM     84  C   UNL A   1      44.209  34.533  29.369  1.00  0.00     0.134 A 
ATOM     85  F   UNL A   1      43.763  33.251  26.009  1.00  0.00    -0.206 F 
ATOM     86  C   UNL A   1      43.720  35.420  26.811  1.00  0.00     0.040 A 
ATOM     87  C   UNL A   1      43.912  35.880  29.141  1.00  0.00     0.040 A 
ATOM     88  F   UNL A   1      44.421  34.215  30.655  1.00  0.00    -0.206 F 
ATOM     89  C   UNL A   1      43.695  36.334  27.853  1.00  0.00     0.006 A 
ENDBRANCH  65  82
ENDBRANCH  39  40
ENDBRANCH  32  34
ENDBRANCH  31  32
ENDBRANCH  30  31
ENDBRANCH   1  30
TORSDOF 15
ENDMDL
