MODEL 1
REMARK VINA RESULT:     -12.5      0.000      0.000
REMARK SMILES Cc1ccnc(-n2c(C)nc3c(C(=O)OCCOC(=O)c4ccc(-c5c6nc(c(-c7c(F)cccc7F)c7ccc([nH]7)c(-c7c(F)cccc7F)c7nc(c(-c8c(F)cccc8F)c8ccc5[nH]8)C=C7)C=C6)cc4)cccc32)c1
REMARK SMILES IDX 17 1 16 2 15 3 13 4 14 5 12 6 7 7 8 8 78 9 9 10 10 11 11 12
REMARK SMILES IDX 77 13 76 14 75 15 6 16 1 17 2 18 3 19 79 20 4 21 5 22 18 23
REMARK SMILES IDX 19 24 20 25 21 26 22 27 74 28 23 29 73 30 24 31 25 32 26 33
REMARK SMILES IDX 67 34 27 35 72 36 66 37 68 38 28 39 71 40 65 41 64 42 29 44
REMARK SMILES IDX 55 45 38 46 54 47 39 48 42 49 53 50 69 51 40 52 41 53 52 55
REMARK SMILES IDX 70 56 43 57 30 58 31 59 36 60 32 61 33 62 35 63 37 64 34 65
REMARK SMILES IDX 56 66 57 67 62 68 58 69 59 70 61 71 63 72 60 73 44 74 45 75
REMARK SMILES IDX 50 76 46 77 47 78 49 79 51 80 48 81
REMARK H PARENT 68 43 42 54
REMARK Flexibility Score: inf
ROOT
ATOM      1  C   UNL A   1      33.673  30.454  26.815  1.00  0.00     0.275 C 
ENDROOT
BRANCH   1   2
ATOM      2  C   UNL A   1      32.147  30.433  26.982  1.00  0.00     0.275 C 
BRANCH   2   3
ATOM      3  O   UNL A   1      31.498  29.402  26.186  1.00  0.00    -0.458 OA
BRANCH   3   4
ATOM      4  C   UNL A   1      31.604  28.144  26.684  1.00  0.00     0.340 C 
ATOM      5  O   UNL A   1      31.506  27.859  27.865  1.00  0.00    -0.246 OA
BRANCH   4   6
ATOM      6  C   UNL A   1      32.099  27.153  25.705  1.00  0.00     0.087 A 
ATOM      7  N   UNL A   1      32.042  23.594  25.609  1.00  0.00    -0.281 N 
ATOM      8  C   UNL A   1      30.869  23.886  26.294  1.00  0.00     0.112 A 
ATOM      9  C   UNL A   1      32.556  24.817  25.178  1.00  0.00     0.075 A 
ATOM     10  C   UNL A   1      30.036  22.863  26.993  1.00  0.00     0.088 C 
ATOM     11  N   UNL A   1      30.697  25.186  26.416  1.00  0.00    -0.232 NA
ATOM     12  C   UNL A   1      31.760  25.787  25.804  1.00  0.00     0.104 A 
ATOM     13  C   UNL A   1      33.584  25.179  24.294  1.00  0.00     0.029 A 
ATOM     14  C   UNL A   1      33.824  26.550  24.104  1.00  0.00     0.003 A 
ATOM     15  C   UNL A   1      33.129  27.523  24.829  1.00  0.00     0.018 A 
BRANCH   7  16
ATOM     16  C   UNL A   1      32.579  22.274  25.510  1.00  0.00     0.138 A 
ATOM     17  C   UNL A   1      32.498  19.284  23.171  1.00  0.00     0.044 C 
ATOM     18  C   UNL A   1      32.870  20.242  24.264  1.00  0.00    -0.046 A 
ATOM     19  C   UNL A   1      34.033  19.998  25.001  1.00  0.00     0.023 A 
ATOM     20  C   UNL A   1      32.100  21.385  24.549  1.00  0.00     0.051 A 
ATOM     21  C   UNL A   1      34.403  20.907  25.968  1.00  0.00     0.114 A 
ATOM     22  N   UNL A   1      33.713  22.033  26.223  1.00  0.00    -0.239 NA
ENDBRANCH   7  16
ENDBRANCH   4   6
ENDBRANCH   3   4
ENDBRANCH   2   3
ENDBRANCH   1   2
BRANCH   1  23
ATOM     23  O   UNL A   1      34.266  30.872  28.054  1.00  0.00    -0.458 OA
BRANCH  23  24
ATOM     24  C   UNL A   1      35.311  31.722  27.947  1.00  0.00     0.338 C 
ATOM     25  O   UNL A   1      35.268  32.903  27.627  1.00  0.00    -0.246 OA
BRANCH  24  26
ATOM     26  C   UNL A   1      36.424  31.075  28.665  1.00  0.00     0.060 A 
ATOM     27  C   UNL A   1      37.681  31.676  28.834  1.00  0.00     0.016 A 
ATOM     28  C   UNL A   1      36.259  29.720  28.907  1.00  0.00     0.016 A 
ATOM     29  C   UNL A   1      38.802  30.884  29.129  1.00  0.00     0.010 A 
ATOM     30  C   UNL A   1      37.384  28.952  29.156  1.00  0.00     0.010 A 
ATOM     31  C   UNL A   1      38.661  29.499  29.225  1.00  0.00    -0.014 A 
BRANCH  31  32
ATOM     32  C   UNL A   1      39.777  28.576  29.477  1.00  0.00     0.031 A 
ATOM     33  C   UNL A   1      40.196  28.424  30.905  1.00  0.00     0.074 A 
ATOM     34  C   UNL A   1      40.275  27.667  28.601  1.00  0.00     0.049 A 
ATOM     35  N   UNL A   1      41.373  28.634  31.399  1.00  0.00    -0.248 NA
ATOM     36  C   UNL A   1      39.213  27.975  31.905  1.00  0.00     0.031 C 
ATOM     37  C   UNL A   1      39.827  27.331  27.252  1.00  0.00     0.029 A 
ATOM     38  N   UNL A   1      41.307  26.781  28.795  1.00  0.00    -0.354 N 
ATOM     39  C   UNL A   1      41.323  28.207  32.723  1.00  0.00     0.074 A 
ATOM     40  C   UNL A   1      39.958  27.865  33.004  1.00  0.00     0.031 C 
ATOM     41  C   UNL A   1      40.477  26.232  26.799  1.00  0.00     0.029 A 
ATOM     42  C   UNL A   1      41.505  25.869  27.759  1.00  0.00     0.049 A 
ATOM     43  H   UNL A   1      41.865  26.790  29.605  1.00  0.00     0.167 HD
ATOM     44  C   UNL A   1      42.444  28.013  33.465  1.00  0.00     0.037 A 
ATOM     45  C   UNL A   1      42.467  24.915  27.666  1.00  0.00     0.037 A 
ATOM     46  C   UNL A   1      43.558  28.765  32.958  1.00  0.00     0.049 A 
ATOM     47  C   UNL A   1      43.537  25.287  28.616  1.00  0.00     0.074 A 
ATOM     48  C   UNL A   1      43.742  30.099  32.637  1.00  0.00     0.029 A 
ATOM     49  N   UNL A   1      44.588  28.108  32.334  1.00  0.00    -0.354 N 
ATOM     50  N   UNL A   1      44.391  26.248  28.423  1.00  0.00    -0.248 NA
ATOM     51  C   UNL A   1      43.465  24.766  29.970  1.00  0.00     0.031 C 
ATOM     52  C   UNL A   1      44.485  30.080  31.421  1.00  0.00     0.029 A 
ATOM     53  C   UNL A   1      44.750  28.742  31.126  1.00  0.00     0.049 A 
ATOM     54  H   UNL A   1      45.103  27.342  32.678  1.00  0.00     0.167 HD
ATOM     55  C   UNL A   1      44.645  26.744  29.687  1.00  0.00     0.074 A 
ATOM     56  C   UNL A   1      44.153  25.718  30.603  1.00  0.00     0.031 C 
ATOM     57  C   UNL A   1      44.976  28.054  29.880  1.00  0.00     0.037 A 
BRANCH  44  58
ATOM     58  C   UNL A   1      42.572  26.915  34.480  1.00  0.00     0.057 A 
ATOM     59  C   UNL A   1      43.312  25.736  34.255  1.00  0.00     0.134 A 
ATOM     60  C   UNL A   1      42.190  27.144  35.811  1.00  0.00     0.134 A 
ATOM     61  F   UNL A   1      43.825  25.437  33.052  1.00  0.00    -0.206 F 
ATOM     62  C   UNL A   1      43.646  24.847  35.280  1.00  0.00     0.040 A 
ATOM     63  C   UNL A   1      42.558  26.283  36.852  1.00  0.00     0.040 A 
ATOM     64  F   UNL A   1      41.510  28.249  36.150  1.00  0.00    -0.206 F 
ATOM     65  C   UNL A   1      43.292  25.132  36.589  1.00  0.00     0.006 A 
ENDBRANCH  44  58
BRANCH  45  66
ATOM     66  C   UNL A   1      42.600  23.671  26.872  1.00  0.00     0.057 A 
ATOM     67  C   UNL A   1      42.226  22.425  27.393  1.00  0.00     0.134 A 
ATOM     68  C   UNL A   1      43.377  23.641  25.698  1.00  0.00     0.134 A 
ATOM     69  F   UNL A   1      41.537  22.337  28.540  1.00  0.00    -0.206 F 
ATOM     70  C   UNL A   1      42.636  21.219  26.805  1.00  0.00     0.040 A 
ATOM     71  C   UNL A   1      43.801  22.445  25.108  1.00  0.00     0.040 A 
ATOM     72  F   UNL A   1      43.805  24.776  25.127  1.00  0.00    -0.206 F 
ATOM     73  C   UNL A   1      43.443  21.227  25.672  1.00  0.00     0.006 A 
ENDBRANCH  45  66
BRANCH  57  74
ATOM     74  C   UNL A   1      45.306  28.900  28.678  1.00  0.00     0.057 A 
ATOM     75  C   UNL A   1      46.653  29.133  28.370  1.00  0.00     0.134 A 
ATOM     76  C   UNL A   1      44.360  29.608  27.918  1.00  0.00     0.134 A 
ATOM     77  F   UNL A   1      47.623  28.537  29.083  1.00  0.00    -0.206 F 
ATOM     78  C   UNL A   1      47.043  30.015  27.359  1.00  0.00     0.040 A 
ATOM     79  C   UNL A   1      44.736  30.463  26.875  1.00  0.00     0.040 A 
ATOM     80  F   UNL A   1      43.052  29.545  28.195  1.00  0.00    -0.206 F 
ATOM     81  C   UNL A   1      46.082  30.676  26.599  1.00  0.00     0.006 A 
ENDBRANCH  57  74
ENDBRANCH  31  32
ENDBRANCH  24  26
ENDBRANCH  23  24
ENDBRANCH   1  23
TORSDOF 12
ENDMDL
MODEL 2
REMARK VINA RESULT:     -12.4      3.120      4.658
REMARK SMILES Cc1ccnc(-n2c(C)nc3c(C(=O)OCCOC(=O)c4ccc(-c5c6nc(c(-c7c(F)cccc7F)c7ccc([nH]7)c(-c7c(F)cccc7F)c7nc(c(-c8c(F)cccc8F)c8ccc5[nH]8)C=C7)C=C6)cc4)cccc32)c1
REMARK SMILES IDX 17 1 16 2 15 3 13 4 14 5 12 6 7 7 8 8 78 9 9 10 10 11 11 12
REMARK SMILES IDX 77 13 76 14 75 15 6 16 1 17 2 18 3 19 79 20 4 21 5 22 18 23
REMARK SMILES IDX 19 24 20 25 21 26 22 27 74 28 23 29 73 30 24 31 25 32 26 33
REMARK SMILES IDX 67 34 27 35 72 36 66 37 68 38 28 39 71 40 65 41 64 42 29 44
REMARK SMILES IDX 55 45 38 46 54 47 39 48 42 49 53 50 69 51 40 52 41 53 52 55
REMARK SMILES IDX 70 56 43 57 30 58 31 59 36 60 32 61 33 62 35 63 37 64 34 65
REMARK SMILES IDX 56 66 57 67 62 68 58 69 59 70 61 71 63 72 60 73 44 74 45 75
REMARK SMILES IDX 50 76 46 77 47 78 49 79 51 80 48 81
REMARK H PARENT 68 43 42 54
REMARK Flexibility Score: inf
ROOT
ATOM      1  C   UNL A   1      33.314  35.544  29.565  1.00  0.00     0.275 C 
ENDROOT
BRANCH   1   2
ATOM      2  C   UNL A   1      33.737  34.695  28.358  1.00  0.00     0.275 C 
BRANCH   2   3
ATOM      3  O   UNL A   1      33.553  33.267  28.572  1.00  0.00    -0.458 OA
BRANCH   3   4
ATOM      4  C   UNL A   1      32.837  32.632  27.609  1.00  0.00     0.340 C 
ATOM      5  O   UNL A   1      31.729  32.976  27.234  1.00  0.00    -0.246 OA
BRANCH   4   6
ATOM      6  C   UNL A   1      33.399  31.323  27.212  1.00  0.00     0.087 A 
ATOM      7  N   UNL A   1      32.030  28.507  25.516  1.00  0.00    -0.281 N 
ATOM      8  C   UNL A   1      31.333  29.562  24.938  1.00  0.00     0.112 A 
ATOM      9  C   UNL A   1      33.001  29.084  26.335  1.00  0.00     0.075 A 
ATOM     10  C   UNL A   1      30.149  29.389  24.046  1.00  0.00     0.088 C 
ATOM     11  N   UNL A   1      31.723  30.719  25.432  1.00  0.00    -0.232 NA
ATOM     12  C   UNL A   1      32.697  30.452  26.351  1.00  0.00     0.104 A 
ATOM     13  C   UNL A   1      34.117  28.578  27.020  1.00  0.00     0.029 A 
ATOM     14  C   UNL A   1      34.885  29.485  27.769  1.00  0.00     0.003 A 
ATOM     15  C   UNL A   1      34.510  30.825  27.905  1.00  0.00     0.018 A 
BRANCH   7  16
ATOM     16  C   UNL A   1      31.675  27.138  25.320  1.00  0.00     0.138 A 
ATOM     17  C   UNL A   1      32.627  24.186  23.129  1.00  0.00     0.044 C 
ATOM     18  C   UNL A   1      32.054  25.034  24.226  1.00  0.00    -0.046 A 
ATOM     19  C   UNL A   1      31.440  24.400  25.310  1.00  0.00     0.023 A 
ATOM     20  C   UNL A   1      32.140  26.438  24.208  1.00  0.00     0.051 A 
ATOM     21  C   UNL A   1      30.961  25.176  26.343  1.00  0.00     0.114 A 
ATOM     22  N   UNL A   1      31.079  26.516  26.374  1.00  0.00    -0.239 NA
ENDBRANCH   7  16
ENDBRANCH   4   6
ENDBRANCH   3   4
ENDBRANCH   2   3
ENDBRANCH   1   2
BRANCH   1  23
ATOM     23  O   UNL A   1      33.031  34.668  30.668  1.00  0.00    -0.458 OA
BRANCH  23  24
ATOM     24  C   UNL A   1      33.427  35.107  31.882  1.00  0.00     0.338 C 
ATOM     25  O   UNL A   1      32.762  35.747  32.686  1.00  0.00    -0.246 OA
BRANCH  24  26
ATOM     26  C   UNL A   1      34.640  34.335  32.206  1.00  0.00     0.060 A 
ATOM     27  C   UNL A   1      35.870  34.933  32.520  1.00  0.00     0.016 A 
ATOM     28  C   UNL A   1      34.580  32.986  31.893  1.00  0.00     0.016 A 
ATOM     29  C   UNL A   1      37.059  34.196  32.398  1.00  0.00     0.010 A 
ATOM     30  C   UNL A   1      35.766  32.289  31.739  1.00  0.00     0.010 A 
ATOM     31  C   UNL A   1      37.010  32.879  31.939  1.00  0.00    -0.014 A 
BRANCH  31  32
ATOM     32  C   UNL A   1      38.197  32.039  31.725  1.00  0.00     0.031 A 
ATOM     33  C   UNL A   1      38.938  31.622  32.956  1.00  0.00     0.074 A 
ATOM     34  C   UNL A   1      38.525  31.396  30.576  1.00  0.00     0.049 A 
ATOM     35  N   UNL A   1      40.186  31.836  33.225  1.00  0.00    -0.248 NA
ATOM     36  C   UNL A   1      38.234  30.871  34.009  1.00  0.00     0.031 C 
ATOM     37  C   UNL A   1      37.797  31.318  29.312  1.00  0.00     0.029 A 
ATOM     38  N   UNL A   1      39.615  30.596  30.334  1.00  0.00    -0.354 N 
ATOM     39  C   UNL A   1      40.461  31.129  34.392  1.00  0.00     0.074 A 
ATOM     40  C   UNL A   1      39.214  30.600  34.867  1.00  0.00     0.031 C 
ATOM     41  C   UNL A   1      38.378  30.414  28.488  1.00  0.00     0.029 A 
ATOM     42  C   UNL A   1      39.614  29.955  29.096  1.00  0.00     0.049 A 
ATOM     43  H   UNL A   1      40.343  30.484  30.987  1.00  0.00     0.167 HD
ATOM     44  C   UNL A   1      41.730  30.891  34.813  1.00  0.00     0.037 A 
ATOM     45  C   UNL A   1      40.575  29.145  28.581  1.00  0.00     0.037 A 
ATOM     46  C   UNL A   1      42.661  31.842  34.272  1.00  0.00     0.049 A 
ATOM     47  C   UNL A   1      41.814  29.406  29.342  1.00  0.00     0.074 A 
ATOM     48  C   UNL A   1      42.701  33.225  34.241  1.00  0.00     0.029 A 
ATOM     49  N   UNL A   1      43.551  31.442  33.307  1.00  0.00    -0.354 N 
ATOM     50  N   UNL A   1      42.554  30.466  29.203  1.00  0.00    -0.248 NA
ATOM     51  C   UNL A   1      42.079  28.599  30.521  1.00  0.00     0.031 C 
ATOM     52  C   UNL A   1      43.146  33.545  32.924  1.00  0.00     0.029 A 
ATOM     53  C   UNL A   1      43.401  32.337  32.276  1.00  0.00     0.049 A 
ATOM     54  H   UNL A   1      44.167  30.675  33.346  1.00  0.00     0.167 HD
ATOM     55  C   UNL A   1      43.066  30.699  30.465  1.00  0.00     0.074 A 
ATOM     56  C   UNL A   1      42.847  29.454  31.199  1.00  0.00     0.031 C 
ATOM     57  C   UNL A   1      43.369  31.961  30.885  1.00  0.00     0.037 A 
BRANCH  44  58
ATOM     58  C   UNL A   1      42.140  29.617  35.492  1.00  0.00     0.057 A 
ATOM     59  C   UNL A   1      41.913  28.338  34.943  1.00  0.00     0.134 A 
ATOM     60  C   UNL A   1      43.025  29.658  36.581  1.00  0.00     0.134 A 
ATOM     61  F   UNL A   1      41.166  28.161  33.842  1.00  0.00    -0.206 F 
ATOM     62  C   UNL A   1      42.520  27.183  35.440  1.00  0.00     0.040 A 
ATOM     63  C   UNL A   1      43.674  28.513  37.058  1.00  0.00     0.040 A 
ATOM     64  F   UNL A   1      43.342  30.822  37.165  1.00  0.00    -0.206 F 
ATOM     65  C   UNL A   1      43.426  27.271  36.485  1.00  0.00     0.006 A 
ENDBRANCH  44  58
BRANCH  45  66
ATOM     66  C   UNL A   1      40.582  28.123  27.509  1.00  0.00     0.057 A 
ATOM     67  C   UNL A   1      40.010  26.857  27.696  1.00  0.00     0.134 A 
ATOM     68  C   UNL A   1      41.416  28.261  26.382  1.00  0.00     0.134 A 
ATOM     69  F   UNL A   1      39.249  26.599  28.770  1.00  0.00    -0.206 F 
ATOM     70  C   UNL A   1      40.285  25.781  26.840  1.00  0.00     0.040 A 
ATOM     71  C   UNL A   1      41.706  27.193  25.526  1.00  0.00     0.040 A 
ATOM     72  F   UNL A   1      42.029  29.423  26.119  1.00  0.00    -0.206 F 
ATOM     73  C   UNL A   1      41.151  25.941  25.763  1.00  0.00     0.006 A 
ENDBRANCH  45  66
BRANCH  57  74
ATOM     74  C   UNL A   1      43.374  33.077  29.872  1.00  0.00     0.057 A 
ATOM     75  C   UNL A   1      44.594  33.457  29.298  1.00  0.00     0.134 A 
ATOM     76  C   UNL A   1      42.261  33.878  29.564  1.00  0.00     0.134 A 
ATOM     77  F   UNL A   1      45.717  32.777  29.583  1.00  0.00    -0.206 F 
ATOM     78  C   UNL A   1      44.706  34.568  28.458  1.00  0.00     0.040 A 
ATOM     79  C   UNL A   1      42.353  34.969  28.691  1.00  0.00     0.040 A 
ATOM     80  F   UNL A   1      41.071  33.672  30.139  1.00  0.00    -0.206 F 
ATOM     81  C   UNL A   1      43.580  35.323  28.143  1.00  0.00     0.006 A 
ENDBRANCH  57  74
ENDBRANCH  31  32
ENDBRANCH  24  26
ENDBRANCH  23  24
ENDBRANCH   1  23
TORSDOF 12
ENDMDL
MODEL 3
REMARK VINA RESULT:     -12.3      2.012      6.250
REMARK SMILES Cc1ccnc(-n2c(C)nc3c(C(=O)OCCOC(=O)c4ccc(-c5c6nc(c(-c7c(F)cccc7F)c7ccc([nH]7)c(-c7c(F)cccc7F)c7nc(c(-c8c(F)cccc8F)c8ccc5[nH]8)C=C7)C=C6)cc4)cccc32)c1
REMARK SMILES IDX 17 1 16 2 15 3 13 4 14 5 12 6 7 7 8 8 78 9 9 10 10 11 11 12
REMARK SMILES IDX 77 13 76 14 75 15 6 16 1 17 2 18 3 19 79 20 4 21 5 22 18 23
REMARK SMILES IDX 19 24 20 25 21 26 22 27 74 28 23 29 73 30 24 31 25 32 26 33
REMARK SMILES IDX 67 34 27 35 72 36 66 37 68 38 28 39 71 40 65 41 64 42 29 44
REMARK SMILES IDX 55 45 38 46 54 47 39 48 42 49 53 50 69 51 40 52 41 53 52 55
REMARK SMILES IDX 70 56 43 57 30 58 31 59 36 60 32 61 33 62 35 63 37 64 34 65
REMARK SMILES IDX 56 66 57 67 62 68 58 69 59 70 61 71 63 72 60 73 44 74 45 75
REMARK SMILES IDX 50 76 46 77 47 78 49 79 51 80 48 81
REMARK H PARENT 68 43 42 54
REMARK Flexibility Score: inf
ROOT
ATOM      1  C   UNL A   1      34.428  30.748  27.634  1.00  0.00     0.275 C 
ENDROOT
BRANCH   1   2
ATOM      2  C   UNL A   1      33.362  30.081  26.752  1.00  0.00     0.275 C 
BRANCH   2   3
ATOM      3  O   UNL A   1      33.663  28.691  26.445  1.00  0.00    -0.458 OA
BRANCH   3   4
ATOM      4  C   UNL A   1      32.941  28.162  25.425  1.00  0.00     0.340 C 
ATOM      5  O   UNL A   1      32.590  28.780  24.434  1.00  0.00    -0.246 OA
BRANCH   4   6
ATOM      6  C   UNL A   1      32.386  26.822  25.717  1.00  0.00     0.087 A 
ATOM      7  N   UNL A   1      33.306  23.537  24.696  1.00  0.00    -0.281 N 
ATOM      8  C   UNL A   1      34.534  24.187  24.728  1.00  0.00     0.112 A 
ATOM      9  C   UNL A   1      32.376  24.436  25.220  1.00  0.00     0.075 A 
ATOM     10  C   UNL A   1      35.798  23.607  24.183  1.00  0.00     0.088 C 
ATOM     11  N   UNL A   1      34.402  25.440  25.112  1.00  0.00    -0.232 NA
ATOM     12  C   UNL A   1      33.073  25.645  25.350  1.00  0.00     0.104 A 
ATOM     13  C   UNL A   1      31.038  24.320  25.626  1.00  0.00     0.029 A 
ATOM     14  C   UNL A   1      30.405  25.475  26.114  1.00  0.00     0.003 A 
ATOM     15  C   UNL A   1      31.048  26.717  26.118  1.00  0.00     0.018 A 
BRANCH   7  16
ATOM     16  C   UNL A   1      33.125  22.240  24.127  1.00  0.00     0.138 A 
ATOM     17  C   UNL A   1      32.759  18.623  25.222  1.00  0.00     0.044 C 
ATOM     18  C   UNL A   1      32.756  19.884  24.409  1.00  0.00    -0.046 A 
ATOM     19  C   UNL A   1      32.204  19.852  23.125  1.00  0.00     0.023 A 
ATOM     20  C   UNL A   1      33.266  21.097  24.910  1.00  0.00     0.051 A 
ATOM     21  C   UNL A   1      32.153  21.023  22.400  1.00  0.00     0.114 A 
ATOM     22  N   UNL A   1      32.585  22.204  22.878  1.00  0.00    -0.239 NA
ENDBRANCH   7  16
ENDBRANCH   4   6
ENDBRANCH   3   4
ENDBRANCH   2   3
ENDBRANCH   1   2
BRANCH   1  23
ATOM     23  O   UNL A   1      35.410  29.763  27.993  1.00  0.00    -0.458 OA
BRANCH  23  24
ATOM     24  C   UNL A   1      36.290  30.133  28.948  1.00  0.00     0.338 C 
ATOM     25  O   UNL A   1      36.055  30.803  29.945  1.00  0.00    -0.246 OA
BRANCH  24  26
ATOM     26  C   UNL A   1      37.461  29.255  28.770  1.00  0.00     0.060 A 
ATOM     27  C   UNL A   1      37.997  28.472  29.804  1.00  0.00     0.016 A 
ATOM     28  C   UNL A   1      38.186  29.469  27.608  1.00  0.00     0.016 A 
ATOM     29  C   UNL A   1      39.318  28.006  29.716  1.00  0.00     0.010 A 
ATOM     30  C   UNL A   1      39.500  29.036  27.559  1.00  0.00     0.010 A 
ATOM     31  C   UNL A   1      40.099  28.348  28.610  1.00  0.00    -0.014 A 
BRANCH  31  32
ATOM     32  C   UNL A   1      41.506  27.957  28.446  1.00  0.00     0.031 A 
ATOM     33  C   UNL A   1      41.751  26.659  27.744  1.00  0.00     0.074 A 
ATOM     34  C   UNL A   1      42.584  28.762  28.621  1.00  0.00     0.049 A 
ATOM     35  N   UNL A   1      42.404  25.638  28.197  1.00  0.00    -0.248 NA
ATOM     36  C   UNL A   1      41.231  26.462  26.380  1.00  0.00     0.031 C 
ATOM     37  C   UNL A   1      42.641  30.184  28.950  1.00  0.00     0.029 A 
ATOM     38  N   UNL A   1      43.912  28.444  28.470  1.00  0.00    -0.354 N 
ATOM     39  C   UNL A   1      42.508  24.740  27.139  1.00  0.00     0.074 A 
ATOM     40  C   UNL A   1      41.720  25.266  26.061  1.00  0.00     0.031 C 
ATOM     41  C   UNL A   1      43.911  30.643  28.839  1.00  0.00     0.029 A 
ATOM     42  C   UNL A   1      44.793  29.519  28.581  1.00  0.00     0.049 A 
ATOM     43  H   UNL A   1      44.218  27.525  28.296  1.00  0.00     0.167 HD
ATOM     44  C   UNL A   1      43.367  23.689  27.163  1.00  0.00     0.037 A 
ATOM     45  C   UNL A   1      46.149  29.490  28.517  1.00  0.00     0.037 A 
ATOM     46  C   UNL A   1      43.721  23.316  28.504  1.00  0.00     0.049 A 
ATOM     47  C   UNL A   1      46.564  28.092  28.757  1.00  0.00     0.074 A 
ATOM     48  C   UNL A   1      42.983  23.015  29.636  1.00  0.00     0.029 A 
ATOM     49  N   UNL A   1      44.984  23.581  28.968  1.00  0.00    -0.354 N 
ATOM     50  N   UNL A   1      46.550  27.510  29.919  1.00  0.00    -0.248 NA
ATOM     51  C   UNL A   1      46.712  27.212  27.610  1.00  0.00     0.031 C 
ATOM     52  C   UNL A   1      43.672  23.665  30.702  1.00  0.00     0.029 A 
ATOM     53  C   UNL A   1      44.807  24.259  30.150  1.00  0.00     0.049 A 
ATOM     54  H   UNL A   1      45.839  23.337  28.544  1.00  0.00     0.167 HD
ATOM     55  C   UNL A   1      46.253  26.189  29.642  1.00  0.00     0.074 A 
ATOM     56  C   UNL A   1      46.491  26.040  28.208  1.00  0.00     0.031 C 
ATOM     57  C   UNL A   1      45.580  25.412  30.538  1.00  0.00     0.037 A 
BRANCH  44  58
ATOM     58  C   UNL A   1      44.092  23.198  25.943  1.00  0.00     0.057 A 
ATOM     59  C   UNL A   1      45.004  23.989  25.214  1.00  0.00     0.134 A 
ATOM     60  C   UNL A   1      44.104  21.827  25.640  1.00  0.00     0.134 A 
ATOM     61  F   UNL A   1      45.170  25.296  25.464  1.00  0.00    -0.206 F 
ATOM     62  C   UNL A   1      45.864  23.456  24.251  1.00  0.00     0.040 A 
ATOM     63  C   UNL A   1      44.992  21.276  24.710  1.00  0.00     0.040 A 
ATOM     64  F   UNL A   1      43.302  20.973  26.292  1.00  0.00    -0.206 F 
ATOM     65  C   UNL A   1      45.880  22.090  24.015  1.00  0.00     0.006 A 
ENDBRANCH  44  58
BRANCH  45  66
ATOM     66  C   UNL A   1      47.181  30.517  28.243  1.00  0.00     0.057 A 
ATOM     67  C   UNL A   1      48.009  31.016  29.258  1.00  0.00     0.134 A 
ATOM     68  C   UNL A   1      47.174  31.249  27.040  1.00  0.00     0.134 A 
ATOM     69  F   UNL A   1      48.046  30.430  30.465  1.00  0.00    -0.206 F 
ATOM     70  C   UNL A   1      48.752  32.195  29.102  1.00  0.00     0.040 A 
ATOM     71  C   UNL A   1      47.902  32.432  26.875  1.00  0.00     0.040 A 
ATOM     72  F   UNL A   1      46.403  30.871  26.010  1.00  0.00    -0.206 F 
ATOM     73  C   UNL A   1      48.683  32.918  27.915  1.00  0.00     0.006 A 
ENDBRANCH  45  66
BRANCH  57  74
ATOM     74  C   UNL A   1      45.380  25.932  31.939  1.00  0.00     0.057 A 
ATOM     75  C   UNL A   1      46.297  25.560  32.931  1.00  0.00     0.134 A 
ATOM     76  C   UNL A   1      44.250  26.648  32.368  1.00  0.00     0.134 A 
ATOM     77  F   UNL A   1      47.378  24.828  32.613  1.00  0.00    -0.206 F 
ATOM     78  C   UNL A   1      46.108  25.884  34.277  1.00  0.00     0.040 A 
ATOM     79  C   UNL A   1      44.071  27.015  33.707  1.00  0.00     0.040 A 
ATOM     80  F   UNL A   1      43.259  26.961  31.525  1.00  0.00    -0.206 F 
ATOM     81  C   UNL A   1      44.997  26.625  34.668  1.00  0.00     0.006 A 
ENDBRANCH  57  74
ENDBRANCH  31  32
ENDBRANCH  24  26
ENDBRANCH  23  24
ENDBRANCH   1  23
TORSDOF 12
ENDMDL
