MODEL 1
REMARK VINA RESULT:     -11.2      0.000      0.000
REMARK SMILES CCCc1cc(-n2ccc(C(=O)OCCOC(=O)c3ccc(-c4c5nc(c(-c6c(F)cccc6F)c6ccc([nH]6)c(-c6c(F)cccc6F)c6nc(c(-c7c(F)cccc7F)c7ccc4[nH]7)C=C6)C=C5)cc3)n2)nc(C(C)C)n1
REMARK SMILES IDX 14 1 13 2 11 3 12 4 10 5 7 6 8 7 73 8 9 9 6 10 4 11 5 12
REMARK SMILES IDX 79 13 75 14 74 15 3 16 2 17 1 18 76 19 77 20 78 21 15 22
REMARK SMILES IDX 16 23 17 24 18 25 19 26 20 27 72 28 21 29 71 30 22 31 23 32
REMARK SMILES IDX 24 33 65 34 25 35 70 36 64 37 66 38 26 39 69 40 63 41 62 42
REMARK SMILES IDX 27 44 53 45 36 46 52 47 37 48 40 49 51 50 67 51 38 52 39 53
REMARK SMILES IDX 50 55 68 56 41 57 28 58 29 59 34 60 30 61 31 62 33 63 35 64
REMARK SMILES IDX 32 65 54 66 55 67 60 68 56 69 57 70 59 71 61 72 58 73 42 74
REMARK SMILES IDX 43 75 48 76 44 77 45 78 47 79 49 80 46 81
REMARK H PARENT 66 43 40 54
REMARK Flexibility Score: inf
ROOT
ATOM      1  C   UNL A   1      41.718  19.592  26.985  1.00  0.00     0.275 C 
ENDROOT
BRANCH   1   2
ATOM      2  O   UNL A   1      41.051  20.544  26.142  1.00  0.00    -0.457 OA
BRANCH   2   3
ATOM      3  C   UNL A   1      39.780  20.227  25.744  1.00  0.00     0.358 C 
ATOM      4  O   UNL A   1      39.407  19.088  25.467  1.00  0.00    -0.244 OA
BRANCH   3   5
ATOM      5  C   UNL A   1      38.852  21.359  25.861  1.00  0.00     0.170 A 
ATOM      6  N   UNL A   1      37.159  22.610  25.468  1.00  0.00    -0.222 N 
ATOM      7  C   UNL A   1      38.075  23.424  26.098  1.00  0.00     0.118 A 
ATOM      8  N   UNL A   1      37.597  21.329  25.387  1.00  0.00    -0.159 NA
ATOM      9  C   UNL A   1      39.153  22.632  26.413  1.00  0.00     0.058 A 
BRANCH   6  10
ATOM     10  C   UNL A   1      35.880  22.974  24.954  1.00  0.00     0.157 A 
ATOM     11  C   UNL A   1      34.261  24.569  24.368  1.00  0.00     0.046 A 
ATOM     12  C   UNL A   1      35.509  24.306  24.904  1.00  0.00     0.073 A 
ATOM     13  N   UNL A   1      33.432  23.581  23.976  1.00  0.00    -0.238 NA
ATOM     14  C   UNL A   1      33.857  22.313  24.110  1.00  0.00     0.133 A 
ATOM     15  N   UNL A   1      35.073  21.972  24.544  1.00  0.00    -0.213 NA
BRANCH  11  16
ATOM     16  C   UNL A   1      33.813  26.001  24.178  1.00  0.00     0.056 C 
BRANCH  16  17
ATOM     17  C   UNL A   1      32.755  26.512  25.166  1.00  0.00     0.003 C 
ATOM     18  C   UNL A   1      33.344  27.284  26.340  1.00  0.00     0.004 C 
ENDBRANCH  16  17
ENDBRANCH  11  16
BRANCH  14  19
ATOM     19  C   UNL A   1      32.877  21.191  23.865  1.00  0.00     0.051 C 
ATOM     20  C   UNL A   1      31.924  21.047  25.053  1.00  0.00     0.016 C 
ATOM     21  C   UNL A   1      32.117  21.398  22.560  1.00  0.00     0.016 C 
ENDBRANCH  14  19
ENDBRANCH   6  10
ENDBRANCH   3   5
ENDBRANCH   2   3
ENDBRANCH   1   2
BRANCH   1  22
ATOM     22  C   UNL A   1      42.851  18.888  26.245  1.00  0.00     0.275 C 
BRANCH  22  23
ATOM     23  O   UNL A   1      43.001  19.401  24.920  1.00  0.00    -0.458 OA
BRANCH  23  24
ATOM     24  C   UNL A   1      44.269  19.667  24.535  1.00  0.00     0.338 C 
ATOM     25  O   UNL A   1      45.113  18.865  24.176  1.00  0.00    -0.246 OA
BRANCH  24  26
ATOM     26  C   UNL A   1      44.564  21.086  24.775  1.00  0.00     0.060 A 
ATOM     27  C   UNL A   1      45.624  21.380  25.640  1.00  0.00     0.016 A 
ATOM     28  C   UNL A   1      43.650  22.070  24.373  1.00  0.00     0.016 A 
ATOM     29  C   UNL A   1      45.653  22.614  26.257  1.00  0.00     0.010 A 
ATOM     30  C   UNL A   1      43.675  23.299  24.994  1.00  0.00     0.010 A 
ATOM     31  C   UNL A   1      44.623  23.520  25.992  1.00  0.00    -0.014 A 
BRANCH  31  32
ATOM     32  C   UNL A   1      44.522  24.697  26.826  1.00  0.00     0.031 A 
ATOM     33  C   UNL A   1      45.655  25.642  26.744  1.00  0.00     0.074 A 
ATOM     34  C   UNL A   1      43.411  24.960  27.537  1.00  0.00     0.049 A 
ATOM     35  N   UNL A   1      46.452  26.008  27.692  1.00  0.00    -0.248 NA
ATOM     36  C   UNL A   1      45.997  26.182  25.421  1.00  0.00     0.031 C 
ATOM     37  C   UNL A   1      42.119  24.271  27.499  1.00  0.00     0.029 A 
ATOM     38  N   UNL A   1      43.181  26.003  28.377  1.00  0.00    -0.354 N 
ATOM     39  C   UNL A   1      47.309  26.944  27.127  1.00  0.00     0.074 A 
ATOM     40  C   UNL A   1      47.065  26.924  25.707  1.00  0.00     0.031 C 
ATOM     41  C   UNL A   1      41.188  25.047  28.099  1.00  0.00     0.029 A 
ATOM     42  C   UNL A   1      41.843  26.217  28.659  1.00  0.00     0.049 A 
ATOM     43  H   UNL A   1      43.902  26.557  28.753  1.00  0.00     0.167 HD
ATOM     44  C   UNL A   1      48.034  27.809  27.885  1.00  0.00     0.037 A 
ATOM     45  C   UNL A   1      41.318  27.328  29.228  1.00  0.00     0.037 A 
ATOM     46  C   UNL A   1      48.088  27.412  29.265  1.00  0.00     0.049 A 
ATOM     47  C   UNL A   1      42.418  28.036  29.935  1.00  0.00     0.074 A 
ATOM     48  C   UNL A   1      48.579  26.309  29.936  1.00  0.00     0.029 A 
ATOM     49  N   UNL A   1      47.265  28.055  30.156  1.00  0.00    -0.354 N 
ATOM     50  N   UNL A   1      43.001  27.579  31.010  1.00  0.00    -0.248 NA
ATOM     51  C   UNL A   1      43.179  29.034  29.196  1.00  0.00     0.031 C 
ATOM     52  C   UNL A   1      47.661  26.086  31.003  1.00  0.00     0.029 A 
ATOM     53  C   UNL A   1      46.688  27.083  30.933  1.00  0.00     0.049 A 
ATOM     54  H   UNL A   1      47.117  29.027  30.224  1.00  0.00     0.167 HD
ATOM     55  C   UNL A   1      44.343  27.903  30.854  1.00  0.00     0.074 A 
ATOM     56  C   UNL A   1      44.375  28.885  29.774  1.00  0.00     0.031 C 
ATOM     57  C   UNL A   1      45.327  27.137  31.411  1.00  0.00     0.037 A 
BRANCH  44  58
ATOM     58  C   UNL A   1      48.434  29.180  27.430  1.00  0.00     0.057 A 
ATOM     59  C   UNL A   1      49.791  29.542  27.404  1.00  0.00     0.134 A 
ATOM     60  C   UNL A   1      47.517  30.239  27.281  1.00  0.00     0.134 A 
ATOM     61  F   UNL A   1      50.751  28.618  27.567  1.00  0.00    -0.206 F 
ATOM     62  C   UNL A   1      50.203  30.872  27.280  1.00  0.00     0.040 A 
ATOM     63  C   UNL A   1      47.919  31.563  27.105  1.00  0.00     0.040 A 
ATOM     64  F   UNL A   1      46.195  30.052  27.399  1.00  0.00    -0.206 F 
ATOM     65  C   UNL A   1      49.266  31.888  27.131  1.00  0.00     0.006 A 
ENDBRANCH  44  58
BRANCH  45  66
ATOM     66  C   UNL A   1      40.001  27.942  28.952  1.00  0.00     0.057 A 
ATOM     67  C   UNL A   1      38.999  27.996  29.930  1.00  0.00     0.134 A 
ATOM     68  C   UNL A   1      39.766  28.702  27.790  1.00  0.00     0.134 A 
ATOM     69  F   UNL A   1      39.149  27.349  31.095  1.00  0.00    -0.206 F 
ATOM     70  C   UNL A   1      37.837  28.764  29.764  1.00  0.00     0.040 A 
ATOM     71  C   UNL A   1      38.607  29.460  27.605  1.00  0.00     0.040 A 
ATOM     72  F   UNL A   1      40.692  28.805  26.825  1.00  0.00    -0.206 F 
ATOM     73  C   UNL A   1      37.641  29.503  28.600  1.00  0.00     0.006 A 
ENDBRANCH  45  66
BRANCH  57  74
ATOM     74  C   UNL A   1      44.911  26.070  32.384  1.00  0.00     0.057 A 
ATOM     75  C   UNL A   1      44.580  24.762  31.998  1.00  0.00     0.134 A 
ATOM     76  C   UNL A   1      44.996  26.320  33.757  1.00  0.00     0.134 A 
ATOM     77  F   UNL A   1      44.587  24.398  30.711  1.00  0.00    -0.206 F 
ATOM     78  C   UNL A   1      44.293  23.764  32.933  1.00  0.00     0.040 A 
ATOM     79  C   UNL A   1      44.746  25.323  34.702  1.00  0.00     0.040 A 
ATOM     80  F   UNL A   1      45.376  27.528  34.201  1.00  0.00    -0.206 F 
ATOM     81  C   UNL A   1      44.381  24.043  34.292  1.00  0.00     0.006 A 
ENDBRANCH  57  74
ENDBRANCH  31  32
ENDBRANCH  24  26
ENDBRANCH  23  24
ENDBRANCH  22  23
ENDBRANCH   1  22
TORSDOF 15
ENDMDL
MODEL 2
REMARK VINA RESULT:     -10.9      5.445      9.687
REMARK SMILES CCCc1cc(-n2ccc(C(=O)OCCOC(=O)c3ccc(-c4c5nc(c(-c6c(F)cccc6F)c6ccc([nH]6)c(-c6c(F)cccc6F)c6nc(c(-c7c(F)cccc7F)c7ccc4[nH]7)C=C6)C=C5)cc3)n2)nc(C(C)C)n1
REMARK SMILES IDX 14 1 13 2 11 3 12 4 10 5 7 6 8 7 73 8 9 9 6 10 4 11 5 12
REMARK SMILES IDX 79 13 75 14 74 15 3 16 2 17 1 18 76 19 77 20 78 21 15 22
REMARK SMILES IDX 16 23 17 24 18 25 19 26 20 27 72 28 21 29 71 30 22 31 23 32
REMARK SMILES IDX 24 33 65 34 25 35 70 36 64 37 66 38 26 39 69 40 63 41 62 42
REMARK SMILES IDX 27 44 53 45 36 46 52 47 37 48 40 49 51 50 67 51 38 52 39 53
REMARK SMILES IDX 50 55 68 56 41 57 28 58 29 59 34 60 30 61 31 62 33 63 35 64
REMARK SMILES IDX 32 65 54 66 55 67 60 68 56 69 57 70 59 71 61 72 58 73 42 74
REMARK SMILES IDX 43 75 48 76 44 77 45 78 47 79 49 80 46 81
REMARK H PARENT 66 43 40 54
REMARK Flexibility Score: inf
ROOT
ATOM      1  C   UNL A   1      33.909  35.758  32.940  1.00  0.00     0.275 C 
ENDROOT
BRANCH   1   2
ATOM      2  O   UNL A   1      33.059  35.156  31.951  1.00  0.00    -0.457 OA
BRANCH   2   3
ATOM      3  C   UNL A   1      32.898  35.845  30.779  1.00  0.00     0.358 C 
ATOM      4  O   UNL A   1      32.486  37.002  30.709  1.00  0.00    -0.244 OA
BRANCH   3   5
ATOM      5  C   UNL A   1      33.445  35.125  29.622  1.00  0.00     0.170 A 
ATOM      6  N   UNL A   1      34.274  33.521  28.469  1.00  0.00    -0.222 N 
ATOM      7  C   UNL A   1      34.603  34.671  27.784  1.00  0.00     0.118 A 
ATOM      8  N   UNL A   1      33.502  33.786  29.553  1.00  0.00    -0.159 NA
ATOM      9  C   UNL A   1      34.034  35.715  28.473  1.00  0.00     0.058 A 
BRANCH   6  10
ATOM     10  C   UNL A   1      34.634  32.181  28.144  1.00  0.00     0.157 A 
ATOM     11  C   UNL A   1      36.196  30.435  27.988  1.00  0.00     0.046 A 
ATOM     12  C   UNL A   1      35.941  31.759  28.304  1.00  0.00     0.073 A 
ATOM     13  N   UNL A   1      35.239  29.625  27.494  1.00  0.00    -0.238 NA
ATOM     14  C   UNL A   1      34.007  30.137  27.324  1.00  0.00     0.133 A 
ATOM     15  N   UNL A   1      33.655  31.377  27.674  1.00  0.00    -0.213 NA
BRANCH  11  16
ATOM     16  C   UNL A   1      37.572  29.858  28.229  1.00  0.00     0.056 C 
BRANCH  16  17
ATOM     17  C   UNL A   1      37.692  28.865  29.394  1.00  0.00     0.003 C 
ATOM     18  C   UNL A   1      37.109  29.390  30.700  1.00  0.00     0.004 C 
ENDBRANCH  16  17
ENDBRANCH  11  16
BRANCH  14  19
ATOM     19  C   UNL A   1      32.975  29.313  26.593  1.00  0.00     0.051 C 
ATOM     20  C   UNL A   1      32.190  28.447  27.580  1.00  0.00     0.016 C 
ATOM     21  C   UNL A   1      32.050  30.195  25.764  1.00  0.00     0.016 C 
ENDBRANCH  14  19
ENDBRANCH   6  10
ENDBRANCH   3   5
ENDBRANCH   2   3
ENDBRANCH   1   2
BRANCH   1  22
ATOM     22  C   UNL A   1      35.066  34.837  33.314  1.00  0.00     0.275 C 
BRANCH  22  23
ATOM     23  O   UNL A   1      35.868  34.523  32.175  1.00  0.00    -0.458 OA
BRANCH  23  24
ATOM     24  C   UNL A   1      36.127  33.211  31.983  1.00  0.00     0.338 C 
ATOM     25  O   UNL A   1      35.331  32.289  32.028  1.00  0.00    -0.246 OA
BRANCH  24  26
ATOM     26  C   UNL A   1      37.579  33.010  31.878  1.00  0.00     0.060 A 
ATOM     27  C   UNL A   1      38.120  32.929  30.590  1.00  0.00     0.016 A 
ATOM     28  C   UNL A   1      38.320  32.645  33.011  1.00  0.00     0.016 A 
ATOM     29  C   UNL A   1      39.335  32.295  30.421  1.00  0.00     0.010 A 
ATOM     30  C   UNL A   1      39.528  32.006  32.840  1.00  0.00     0.010 A 
ATOM     31  C   UNL A   1      39.974  31.762  31.543  1.00  0.00    -0.014 A 
BRANCH  31  32
ATOM     32  C   UNL A   1      41.106  30.888  31.328  1.00  0.00     0.031 A 
ATOM     33  C   UNL A   1      42.183  31.428  30.473  1.00  0.00     0.074 A 
ATOM     34  C   UNL A   1      41.212  29.708  31.966  1.00  0.00     0.049 A 
ATOM     35  N   UNL A   1      42.615  30.957  29.350  1.00  0.00    -0.248 NA
ATOM     36  C   UNL A   1      42.798  32.700  30.876  1.00  0.00     0.031 C 
ATOM     37  C   UNL A   1      40.373  29.174  33.042  1.00  0.00     0.029 A 
ATOM     38  N   UNL A   1      42.195  28.777  31.848  1.00  0.00    -0.354 N 
ATOM     39  C   UNL A   1      43.664  31.786  28.971  1.00  0.00     0.074 A 
ATOM     40  C   UNL A   1      43.656  32.906  29.877  1.00  0.00     0.031 C 
ATOM     41  C   UNL A   1      41.013  28.135  33.624  1.00  0.00     0.029 A 
ATOM     42  C   UNL A   1      42.237  27.866  32.889  1.00  0.00     0.049 A 
ATOM     43  H   UNL A   1      42.820  28.752  31.089  1.00  0.00     0.167 HD
ATOM     44  C   UNL A   1      44.587  31.404  28.049  1.00  0.00     0.037 A 
ATOM     45  C   UNL A   1      43.259  27.022  33.166  1.00  0.00     0.037 A 
ATOM     46  C   UNL A   1      44.160  30.262  27.289  1.00  0.00     0.049 A 
ATOM     47  C   UNL A   1      44.074  26.879  31.929  1.00  0.00     0.074 A 
ATOM     48  C   UNL A   1      43.105  30.009  26.433  1.00  0.00     0.029 A 
ATOM     49  N   UNL A   1      44.673  29.033  27.624  1.00  0.00    -0.354 N 
ATOM     50  N   UNL A   1      43.660  26.265  30.856  1.00  0.00    -0.248 NA
ATOM     51  C   UNL A   1      45.178  27.807  31.724  1.00  0.00     0.031 C 
ATOM     52  C   UNL A   1      42.742  28.654  26.685  1.00  0.00     0.029 A 
ATOM     53  C   UNL A   1      43.616  28.159  27.653  1.00  0.00     0.049 A 
ATOM     54  H   UNL A   1      45.617  28.820  27.807  1.00  0.00     0.167 HD
ATOM     55  C   UNL A   1      44.148  27.023  29.799  1.00  0.00     0.074 A 
ATOM     56  C   UNL A   1      45.158  27.896  30.390  1.00  0.00     0.031 C 
ATOM     57  C   UNL A   1      43.491  27.079  28.603  1.00  0.00     0.037 A 
BRANCH  44  58
ATOM     58  C   UNL A   1      46.010  31.878  28.051  1.00  0.00     0.057 A 
ATOM     59  C   UNL A   1      46.535  32.523  26.919  1.00  0.00     0.134 A 
ATOM     60  C   UNL A   1      46.952  31.478  29.018  1.00  0.00     0.134 A 
ATOM     61  F   UNL A   1      45.731  32.919  25.920  1.00  0.00    -0.206 F 
ATOM     62  C   UNL A   1      47.908  32.717  26.745  1.00  0.00     0.040 A 
ATOM     63  C   UNL A   1      48.320  31.713  28.878  1.00  0.00     0.040 A 
ATOM     64  F   UNL A   1      46.602  30.755  30.091  1.00  0.00    -0.206 F 
ATOM     65  C   UNL A   1      48.806  32.311  27.726  1.00  0.00     0.006 A 
ENDBRANCH  44  58
BRANCH  45  66
ATOM     66  C   UNL A   1      43.717  26.572  34.499  1.00  0.00     0.057 A 
ATOM     67  C   UNL A   1      44.147  27.485  35.471  1.00  0.00     0.134 A 
ATOM     68  C   UNL A   1      43.529  25.249  34.940  1.00  0.00     0.134 A 
ATOM     69  F   UNL A   1      44.307  28.781  35.165  1.00  0.00    -0.206 F 
ATOM     70  C   UNL A   1      44.369  27.105  36.802  1.00  0.00     0.040 A 
ATOM     71  C   UNL A   1      43.761  24.853  36.260  1.00  0.00     0.040 A 
ATOM     72  F   UNL A   1      43.031  24.307  34.125  1.00  0.00    -0.206 F 
ATOM     73  C   UNL A   1      44.172  25.786  37.201  1.00  0.00     0.006 A 
ENDBRANCH  45  66
BRANCH  57  74
ATOM     74  C   UNL A   1      42.354  26.120  28.389  1.00  0.00     0.057 A 
ATOM     75  C   UNL A   1      41.021  26.421  28.712  1.00  0.00     0.134 A 
ATOM     76  C   UNL A   1      42.581  24.928  27.696  1.00  0.00     0.134 A 
ATOM     77  F   UNL A   1      40.692  27.591  29.270  1.00  0.00    -0.206 F 
ATOM     78  C   UNL A   1      39.972  25.550  28.410  1.00  0.00     0.040 A 
ATOM     79  C   UNL A   1      41.537  24.064  27.358  1.00  0.00     0.040 A 
ATOM     80  F   UNL A   1      43.820  24.607  27.291  1.00  0.00    -0.206 F 
ATOM     81  C   UNL A   1      40.228  24.367  27.726  1.00  0.00     0.006 A 
ENDBRANCH  57  74
ENDBRANCH  31  32
ENDBRANCH  24  26
ENDBRANCH  23  24
ENDBRANCH  22  23
ENDBRANCH   1  22
TORSDOF 15
ENDMDL
MODEL 3
REMARK VINA RESULT:     -10.8      0.614      2.016
REMARK SMILES CCCc1cc(-n2ccc(C(=O)OCCOC(=O)c3ccc(-c4c5nc(c(-c6c(F)cccc6F)c6ccc([nH]6)c(-c6c(F)cccc6F)c6nc(c(-c7c(F)cccc7F)c7ccc4[nH]7)C=C6)C=C5)cc3)n2)nc(C(C)C)n1
REMARK SMILES IDX 14 1 13 2 11 3 12 4 10 5 7 6 8 7 73 8 9 9 6 10 4 11 5 12
REMARK SMILES IDX 79 13 75 14 74 15 3 16 2 17 1 18 76 19 77 20 78 21 15 22
REMARK SMILES IDX 16 23 17 24 18 25 19 26 20 27 72 28 21 29 71 30 22 31 23 32
REMARK SMILES IDX 24 33 65 34 25 35 70 36 64 37 66 38 26 39 69 40 63 41 62 42
REMARK SMILES IDX 27 44 53 45 36 46 52 47 37 48 40 49 51 50 67 51 38 52 39 53
REMARK SMILES IDX 50 55 68 56 41 57 28 58 29 59 34 60 30 61 31 62 33 63 35 64
REMARK SMILES IDX 32 65 54 66 55 67 60 68 56 69 57 70 59 71 61 72 58 73 42 74
REMARK SMILES IDX 43 75 48 76 44 77 45 78 47 79 49 80 46 81
REMARK H PARENT 66 43 40 54
REMARK Flexibility Score: inf
ROOT
ATOM      1  C   UNL A   1      42.335  19.877  26.750  1.00  0.00     0.275 C 
ENDROOT
BRANCH   1   2
ATOM      2  O   UNL A   1      41.481  20.792  26.046  1.00  0.00    -0.457 OA
BRANCH   2   3
ATOM      3  C   UNL A   1      40.192  20.385  25.830  1.00  0.00     0.358 C 
ATOM      4  O   UNL A   1      39.859  19.217  25.640  1.00  0.00    -0.244 OA
BRANCH   3   5
ATOM      5  C   UNL A   1      39.218  21.465  26.034  1.00  0.00     0.170 A 
ATOM      6  N   UNL A   1      37.441  22.634  25.782  1.00  0.00    -0.222 N 
ATOM      7  C   UNL A   1      38.354  23.482  26.370  1.00  0.00     0.118 A 
ATOM      8  N   UNL A   1      37.937  21.379  25.643  1.00  0.00    -0.159 NA
ATOM      9  C   UNL A   1      39.489  22.741  26.595  1.00  0.00     0.058 A 
BRANCH   6  10
ATOM     10  C   UNL A   1      36.113  22.940  25.362  1.00  0.00     0.157 A 
ATOM     11  C   UNL A   1      34.052  22.343  24.411  1.00  0.00     0.046 A 
ATOM     12  C   UNL A   1      35.336  21.965  24.764  1.00  0.00     0.073 A 
ATOM     13  N   UNL A   1      33.609  23.604  24.583  1.00  0.00    -0.238 NA
ATOM     14  C   UNL A   1      34.453  24.499  25.126  1.00  0.00     0.133 A 
ATOM     15  N   UNL A   1      35.678  24.203  25.566  1.00  0.00    -0.213 NA
BRANCH  11  16
ATOM     16  C   UNL A   1      33.097  21.316  23.845  1.00  0.00     0.056 C 
BRANCH  16  17
ATOM     17  C   UNL A   1      32.129  21.820  22.766  1.00  0.00     0.003 C 
ATOM     18  C   UNL A   1      31.794  20.770  21.714  1.00  0.00     0.004 C 
ENDBRANCH  16  17
ENDBRANCH  11  16
BRANCH  14  19
ATOM     19  C   UNL A   1      34.050  25.954  25.147  1.00  0.00     0.051 C 
ATOM     20  C   UNL A   1      33.645  26.414  23.745  1.00  0.00     0.016 C 
ATOM     21  C   UNL A   1      32.940  26.204  26.161  1.00  0.00     0.016 C 
ENDBRANCH  14  19
ENDBRANCH   6  10
ENDBRANCH   3   5
ENDBRANCH   2   3
ENDBRANCH   1   2
BRANCH   1  22
ATOM     22  C   UNL A   1      43.298  19.170  25.801  1.00  0.00     0.275 C 
BRANCH  22  23
ATOM     23  O   UNL A   1      43.495  19.925  24.604  1.00  0.00    -0.458 OA
BRANCH  23  24
ATOM     24  C   UNL A   1      44.775  20.250  24.319  1.00  0.00     0.338 C 
ATOM     25  O   UNL A   1      45.663  19.497  23.959  1.00  0.00    -0.246 OA
BRANCH  24  26
ATOM     26  C   UNL A   1      45.013  21.655  24.677  1.00  0.00     0.060 A 
ATOM     27  C   UNL A   1      46.000  21.911  25.636  1.00  0.00     0.016 A 
ATOM     28  C   UNL A   1      44.104  22.644  24.277  1.00  0.00     0.016 A 
ATOM     29  C   UNL A   1      45.950  23.100  26.337  1.00  0.00     0.010 A 
ATOM     30  C   UNL A   1      44.050  23.826  24.981  1.00  0.00     0.010 A 
ATOM     31  C   UNL A   1      44.917  23.998  26.058  1.00  0.00    -0.014 A 
BRANCH  31  32
ATOM     32  C   UNL A   1      44.724  25.112  26.961  1.00  0.00     0.031 A 
ATOM     33  C   UNL A   1      45.816  26.107  26.997  1.00  0.00     0.074 A 
ATOM     34  C   UNL A   1      43.570  25.279  27.632  1.00  0.00     0.049 A 
ATOM     35  N   UNL A   1      46.550  26.442  28.005  1.00  0.00    -0.248 NA
ATOM     36  C   UNL A   1      46.193  26.749  25.730  1.00  0.00     0.031 C 
ATOM     37  C   UNL A   1      42.314  24.540  27.486  1.00  0.00     0.029 A 
ATOM     38  N   UNL A   1      43.255  26.253  28.526  1.00  0.00    -0.354 N 
ATOM     39  C   UNL A   1      47.389  27.449  27.545  1.00  0.00     0.074 A 
ATOM     40  C   UNL A   1      47.213  27.514  26.116  1.00  0.00     0.031 C 
ATOM     41  C   UNL A   1      41.323  25.233  28.088  1.00  0.00     0.029 A 
ATOM     42  C   UNL A   1      41.897  26.391  28.754  1.00  0.00     0.049 A 
ATOM     43  H   UNL A   1      43.932  26.810  28.972  1.00  0.00     0.167 HD
ATOM     44  C   UNL A   1      48.038  28.291  28.392  1.00  0.00     0.037 A 
ATOM     45  C   UNL A   1      41.295  27.438  29.368  1.00  0.00     0.037 A 
ATOM     46  C   UNL A   1      48.046  27.805  29.744  1.00  0.00     0.049 A 
ATOM     47  C   UNL A   1      42.329  28.142  30.173  1.00  0.00     0.074 A 
ATOM     48  C   UNL A   1      48.555  26.682  30.365  1.00  0.00     0.029 A 
ATOM     49  N   UNL A   1      47.154  28.352  30.633  1.00  0.00    -0.354 N 
ATOM     50  N   UNL A   1      42.881  27.639  31.243  1.00  0.00    -0.248 NA
ATOM     51  C   UNL A   1      43.077  29.219  29.539  1.00  0.00     0.031 C 
ATOM     52  C   UNL A   1      47.600  26.349  31.369  1.00  0.00     0.029 A 
ATOM     53  C   UNL A   1      46.586  27.307  31.317  1.00  0.00     0.049 A 
ATOM     54  H   UNL A   1      46.959  29.309  30.757  1.00  0.00     0.167 HD
ATOM     55  C   UNL A   1      44.212  28.030  31.175  1.00  0.00     0.074 A 
ATOM     56  C   UNL A   1      44.250  29.082  30.165  1.00  0.00     0.031 C 
ATOM     57  C   UNL A   1      45.204  27.270  31.729  1.00  0.00     0.037 A 
BRANCH  44  58
ATOM     58  C   UNL A   1      48.396  29.706  28.048  1.00  0.00     0.057 A 
ATOM     59  C   UNL A   1      47.391  30.611  27.671  1.00  0.00     0.134 A 
ATOM     60  C   UNL A   1      49.719  30.128  27.811  1.00  0.00     0.134 A 
ATOM     61  F   UNL A   1      46.094  30.300  27.823  1.00  0.00    -0.206 F 
ATOM     62  C   UNL A   1      47.684  31.835  27.062  1.00  0.00     0.040 A 
ATOM     63  C   UNL A   1      50.024  31.369  27.250  1.00  0.00     0.040 A 
ATOM     64  F   UNL A   1      50.767  29.320  28.019  1.00  0.00    -0.206 F 
ATOM     65  C   UNL A   1      49.003  32.217  26.848  1.00  0.00     0.006 A 
ENDBRANCH  44  58
BRANCH  45  66
ATOM     66  C   UNL A   1      39.966  28.012  29.068  1.00  0.00     0.057 A 
ATOM     67  C   UNL A   1      38.952  28.056  30.034  1.00  0.00     0.134 A 
ATOM     68  C   UNL A   1      39.725  28.747  27.891  1.00  0.00     0.134 A 
ATOM     69  F   UNL A   1      39.107  27.432  31.211  1.00  0.00    -0.206 F 
ATOM     70  C   UNL A   1      37.773  28.791  29.843  1.00  0.00     0.040 A 
ATOM     71  C   UNL A   1      38.548  29.471  27.681  1.00  0.00     0.040 A 
ATOM     72  F   UNL A   1      40.658  28.858  26.935  1.00  0.00    -0.206 F 
ATOM     73  C   UNL A   1      37.570  29.505  28.665  1.00  0.00     0.006 A 
ENDBRANCH  45  66
BRANCH  57  74
ATOM     74  C   UNL A   1      44.791  26.124  32.609  1.00  0.00     0.057 A 
ATOM     75  C   UNL A   1      44.552  24.828  32.125  1.00  0.00     0.134 A 
ATOM     76  C   UNL A   1      44.788  26.289  33.997  1.00  0.00     0.134 A 
ATOM     77  F   UNL A   1      44.650  24.548  30.820  1.00  0.00    -0.206 F 
ATOM     78  C   UNL A   1      44.268  23.760  32.978  1.00  0.00     0.040 A 
ATOM     79  C   UNL A   1      44.539  25.222  34.864  1.00  0.00     0.040 A 
ATOM     80  F   UNL A   1      45.078  27.484  34.536  1.00  0.00    -0.206 F 
ATOM     81  C   UNL A   1      44.265  23.954  34.355  1.00  0.00     0.006 A 
ENDBRANCH  57  74
ENDBRANCH  31  32
ENDBRANCH  24  26
ENDBRANCH  23  24
ENDBRANCH  22  23
ENDBRANCH   1  22
TORSDOF 15
ENDMDL
