MODEL 1
REMARK VINA RESULT:      -9.9      0.000      0.000
REMARK SMILES CC(C)[C@H](NS(=O)(=O)c1cccc(F)c1)C(=O)OCCOC(=O)c1ccc(-c2c3nc(c(-c4c(F)cccc4F)c4ccc([nH]4)c(-c4c(F)cccc4F)c4nc(c(-c5c(F)cccc5F)c5ccc2[nH]5)C=C4)C=C3)cc1
REMARK SMILES IDX 19 1 18 2 16 3 17 4 4 5 2 6 1 7 3 8 5 9 6 11 7 12 8 13 9 14
REMARK SMILES IDX 10 15 15 16 11 17 13 18 12 19 14 20 20 21 21 22 22 23 23 24
REMARK SMILES IDX 24 25 25 26 77 27 26 28 76 29 27 30 28 31 29 32 70 33 30 34
REMARK SMILES IDX 75 35 69 36 71 37 31 38 74 39 68 40 67 41 32 43 58 44 41 45
REMARK SMILES IDX 57 46 42 47 45 48 56 49 72 50 43 51 44 52 55 54 73 55 46 56
REMARK SMILES IDX 33 57 34 58 39 59 35 60 36 61 38 62 40 63 37 64 59 65 60 66
REMARK SMILES IDX 65 67 61 68 62 69 64 70 66 71 63 72 47 73 48 74 53 75 49 76
REMARK SMILES IDX 50 77 52 78 54 79 51 80
REMARK H PARENT 5 10 71 42 45 53
REMARK Flexibility Score: inf
ROOT
ATOM      1  C   UNL A   1      33.273  34.385  28.320  1.00  0.00     0.274 C 
ENDROOT
BRANCH   1   2
ATOM      2  O   UNL A   1      33.846  35.440  29.122  1.00  0.00    -0.461 OA
BRANCH   2   3
ATOM      3  C   UNL A   1      33.185  35.733  30.280  1.00  0.00     0.324 C 
ATOM      4  O   UNL A   1      32.154  36.399  30.330  1.00  0.00    -0.250 OA
BRANCH   3   5
ATOM      5  C   UNL A   1      33.883  35.195  31.533  1.00  0.00     0.182 C 
BRANCH   5   6
ATOM      6  C   UNL A   1      33.684  36.140  32.763  1.00  0.00     0.012 C 
ATOM      7  C   UNL A   1      34.404  35.703  34.046  1.00  0.00     0.009 C 
ATOM      8  C   UNL A   1      34.028  37.615  32.507  1.00  0.00     0.009 C 
ENDBRANCH   5   6
BRANCH   5   9
ATOM      9  N   UNL A   1      35.298  34.855  31.306  1.00  0.00    -0.197 NA
ATOM     10  H   UNL A   1      35.837  35.403  31.976  1.00  0.00     0.142 HD
BRANCH   9  11
ATOM     11  S   UNL A   1      35.842  33.282  31.432  1.00  0.00     0.241 S 
ATOM     12  O   UNL A   1      34.684  32.475  31.749  1.00  0.00    -0.207 OA
ATOM     13  O   UNL A   1      36.675  32.992  30.286  1.00  0.00    -0.207 OA
BRANCH  11  14
ATOM     14  C   UNL A   1      36.879  33.298  32.865  1.00  0.00     0.085 A 
ATOM     15  C   UNL A   1      36.833  32.227  33.768  1.00  0.00     0.022 A 
ATOM     16  C   UNL A   1      37.785  34.341  33.048  1.00  0.00     0.061 A 
ATOM     17  C   UNL A   1      37.651  32.238  34.901  1.00  0.00     0.004 A 
ATOM     18  C   UNL A   1      38.596  34.325  34.173  1.00  0.00     0.124 A 
ATOM     19  C   UNL A   1      38.529  33.299  35.111  1.00  0.00     0.039 A 
ATOM     20  F   UNL A   1      39.457  35.328  34.356  1.00  0.00    -0.207 F 
ENDBRANCH  11  14
ENDBRANCH   9  11
ENDBRANCH   5   9
ENDBRANCH   3   5
ENDBRANCH   2   3
ENDBRANCH   1   2
BRANCH   1  21
ATOM     21  C   UNL A   1      34.287  33.312  27.890  1.00  0.00     0.275 C 
BRANCH  21  22
ATOM     22  O   UNL A   1      34.158  32.074  28.620  1.00  0.00    -0.458 OA
BRANCH  22  23
ATOM     23  C   UNL A   1      34.308  30.983  27.837  1.00  0.00     0.338 C 
ATOM     24  O   UNL A   1      33.579  30.670  26.910  1.00  0.00    -0.246 OA
BRANCH  23  25
ATOM     25  C   UNL A   1      35.519  30.206  28.134  1.00  0.00     0.060 A 
ATOM     26  C   UNL A   1      35.662  29.712  29.432  1.00  0.00     0.016 A 
ATOM     27  C   UNL A   1      36.601  30.196  27.252  1.00  0.00     0.016 A 
ATOM     28  C   UNL A   1      36.905  29.280  29.882  1.00  0.00     0.010 A 
ATOM     29  C   UNL A   1      37.845  29.724  27.696  1.00  0.00     0.010 A 
ATOM     30  C   UNL A   1      38.016  29.302  29.025  1.00  0.00    -0.014 A 
BRANCH  30  31
ATOM     31  C   UNL A   1      39.337  28.866  29.547  1.00  0.00     0.031 A 
ATOM     32  C   UNL A   1      40.006  29.575  30.694  1.00  0.00     0.074 A 
ATOM     33  C   UNL A   1      39.898  27.755  29.033  1.00  0.00     0.049 A 
ATOM     34  N   UNL A   1      41.087  29.237  31.352  1.00  0.00    -0.248 NA
ATOM     35  C   UNL A   1      39.365  30.796  31.197  1.00  0.00     0.031 C 
ATOM     36  C   UNL A   1      39.319  26.936  27.967  1.00  0.00     0.029 A 
ATOM     37  N   UNL A   1      41.076  27.126  29.339  1.00  0.00    -0.354 N 
ATOM     38  C   UNL A   1      41.200  30.150  32.394  1.00  0.00     0.074 A 
ATOM     39  C   UNL A   1      40.101  31.079  32.264  1.00  0.00     0.031 C 
ATOM     40  C   UNL A   1      40.149  25.918  27.702  1.00  0.00     0.029 A 
ATOM     41  C   UNL A   1      41.340  26.047  28.535  1.00  0.00     0.049 A 
ATOM     42  H   UNL A   1      41.674  27.420  30.064  1.00  0.00     0.167 HD
ATOM     43  C   UNL A   1      42.143  30.214  33.363  1.00  0.00     0.037 A 
ATOM     44  C   UNL A   1      42.439  25.275  28.443  1.00  0.00     0.037 A 
ATOM     45  C   UNL A   1      43.322  29.391  33.399  1.00  0.00     0.049 A 
ATOM     46  C   UNL A   1      43.593  25.529  29.365  1.00  0.00     0.074 A 
ATOM     47  C   UNL A   1      44.389  29.450  34.278  1.00  0.00     0.029 A 
ATOM     48  N   UNL A   1      43.617  28.398  32.478  1.00  0.00    -0.354 N 
ATOM     49  N   UNL A   1      43.680  26.382  30.356  1.00  0.00    -0.248 NA
ATOM     50  C   UNL A   1      44.803  24.725  29.153  1.00  0.00     0.031 C 
ATOM     51  C   UNL A   1      45.365  28.550  33.839  1.00  0.00     0.029 A 
ATOM     52  C   UNL A   1      44.877  27.882  32.727  1.00  0.00     0.049 A 
ATOM     53  H   UNL A   1      43.019  28.105  31.753  1.00  0.00     0.167 HD
ATOM     54  C   UNL A   1      44.947  26.212  30.896  1.00  0.00     0.074 A 
ATOM     55  C   UNL A   1      45.592  25.168  30.124  1.00  0.00     0.031 C 
ATOM     56  C   UNL A   1      45.517  26.858  31.941  1.00  0.00     0.037 A 
BRANCH  43  57
ATOM     57  C   UNL A   1      41.983  31.252  34.432  1.00  0.00     0.057 A 
ATOM     58  C   UNL A   1      42.502  32.542  34.263  1.00  0.00     0.134 A 
ATOM     59  C   UNL A   1      41.391  30.947  35.664  1.00  0.00     0.134 A 
ATOM     60  F   UNL A   1      43.082  32.895  33.106  1.00  0.00    -0.206 F 
ATOM     61  C   UNL A   1      42.457  33.486  35.290  1.00  0.00     0.040 A 
ATOM     62  C   UNL A   1      41.330  31.888  36.695  1.00  0.00     0.040 A 
ATOM     63  F   UNL A   1      40.872  29.731  35.887  1.00  0.00    -0.206 F 
ATOM     64  C   UNL A   1      41.871  33.159  36.512  1.00  0.00     0.006 A 
ENDBRANCH  43  57
BRANCH  44  65
ATOM     65  C   UNL A   1      42.495  24.237  27.387  1.00  0.00     0.057 A 
ATOM     66  C   UNL A   1      42.140  22.910  27.669  1.00  0.00     0.134 A 
ATOM     67  C   UNL A   1      42.969  24.522  26.105  1.00  0.00     0.134 A 
ATOM     68  F   UNL A   1      41.679  22.574  28.883  1.00  0.00    -0.206 F 
ATOM     69  C   UNL A   1      42.293  21.896  26.724  1.00  0.00     0.040 A 
ATOM     70  C   UNL A   1      43.104  23.521  25.141  1.00  0.00     0.040 A 
ATOM     71  F   UNL A   1      43.304  25.777  25.771  1.00  0.00    -0.206 F 
ATOM     72  C   UNL A   1      42.778  22.201  25.455  1.00  0.00     0.006 A 
ENDBRANCH  44  65
BRANCH  56  73
ATOM     73  C   UNL A   1      46.909  26.458  32.324  1.00  0.00     0.057 A 
ATOM     74  C   UNL A   1      47.124  25.429  33.249  1.00  0.00     0.134 A 
ATOM     75  C   UNL A   1      48.031  27.130  31.827  1.00  0.00     0.134 A 
ATOM     76  F   UNL A   1      46.089  24.753  33.770  1.00  0.00    -0.206 F 
ATOM     77  C   UNL A   1      48.408  25.089  33.675  1.00  0.00     0.040 A 
ATOM     78  C   UNL A   1      49.322  26.784  32.228  1.00  0.00     0.040 A 
ATOM     79  F   UNL A   1      47.889  28.119  30.931  1.00  0.00    -0.206 F 
ATOM     80  C   UNL A   1      49.512  25.766  33.161  1.00  0.00     0.006 A 
ENDBRANCH  56  73
ENDBRANCH  30  31
ENDBRANCH  23  25
ENDBRANCH  22  23
ENDBRANCH  21  22
ENDBRANCH   1  21
TORSDOF 15
ENDMDL
MODEL 2
REMARK VINA RESULT:      -9.9      0.814      6.363
REMARK SMILES CC(C)[C@H](NS(=O)(=O)c1cccc(F)c1)C(=O)OCCOC(=O)c1ccc(-c2c3nc(c(-c4c(F)cccc4F)c4ccc([nH]4)c(-c4c(F)cccc4F)c4nc(c(-c5c(F)cccc5F)c5ccc2[nH]5)C=C4)C=C3)cc1
REMARK SMILES IDX 19 1 18 2 16 3 17 4 4 5 2 6 1 7 3 8 5 9 6 11 7 12 8 13 9 14
REMARK SMILES IDX 10 15 15 16 11 17 13 18 12 19 14 20 20 21 21 22 22 23 23 24
REMARK SMILES IDX 24 25 25 26 77 27 26 28 76 29 27 30 28 31 29 32 70 33 30 34
REMARK SMILES IDX 75 35 69 36 71 37 31 38 74 39 68 40 67 41 32 43 58 44 41 45
REMARK SMILES IDX 57 46 42 47 45 48 56 49 72 50 43 51 44 52 55 54 73 55 46 56
REMARK SMILES IDX 33 57 34 58 39 59 35 60 36 61 38 62 40 63 37 64 59 65 60 66
REMARK SMILES IDX 65 67 61 68 62 69 64 70 66 71 63 72 47 73 48 74 53 75 49 76
REMARK SMILES IDX 50 77 52 78 54 79 51 80
REMARK H PARENT 5 10 71 42 45 53
REMARK Flexibility Score: inf
ROOT
ATOM      1  C   UNL A   1      33.218  34.244  27.827  1.00  0.00     0.274 C 
ENDROOT
BRANCH   1   2
ATOM      2  O   UNL A   1      32.527  34.574  29.051  1.00  0.00    -0.461 OA
BRANCH   2   3
ATOM      3  C   UNL A   1      32.992  35.668  29.721  1.00  0.00     0.324 C 
ATOM      4  O   UNL A   1      33.147  36.773  29.207  1.00  0.00    -0.250 OA
BRANCH   3   5
ATOM      5  C   UNL A   1      33.362  35.378  31.180  1.00  0.00     0.182 C 
BRANCH   5   6
ATOM      6  C   UNL A   1      32.786  36.456  32.155  1.00  0.00     0.012 C 
ATOM      7  C   UNL A   1      31.477  36.071  32.856  1.00  0.00     0.009 C 
ATOM      8  C   UNL A   1      33.770  36.949  33.227  1.00  0.00     0.009 C 
ENDBRANCH   5   6
BRANCH   5   9
ATOM      9  N   UNL A   1      34.804  35.152  31.377  1.00  0.00    -0.197 NA
ATOM     10  H   UNL A   1      35.084  35.741  32.160  1.00  0.00     0.142 HD
BRANCH   9  11
ATOM     11  S   UNL A   1      35.408  33.627  31.691  1.00  0.00     0.241 S 
ATOM     12  O   UNL A   1      34.284  32.827  32.131  1.00  0.00    -0.207 OA
ATOM     13  O   UNL A   1      36.232  33.222  30.575  1.00  0.00    -0.207 OA
BRANCH  11  14
ATOM     14  C   UNL A   1      36.465  33.862  33.089  1.00  0.00     0.085 A 
ATOM     15  C   UNL A   1      35.993  33.563  34.375  1.00  0.00     0.022 A 
ATOM     16  C   UNL A   1      37.782  34.274  32.896  1.00  0.00     0.061 A 
ATOM     17  C   UNL A   1      36.827  33.747  35.481  1.00  0.00     0.004 A 
ATOM     18  C   UNL A   1      38.595  34.439  34.007  1.00  0.00     0.124 A 
ATOM     19  C   UNL A   1      38.131  34.200  35.297  1.00  0.00     0.039 A 
ATOM     20  F   UNL A   1      39.853  34.844  33.826  1.00  0.00    -0.207 F 
ENDBRANCH  11  14
ENDBRANCH   9  11
ENDBRANCH   5   9
ENDBRANCH   3   5
ENDBRANCH   2   3
ENDBRANCH   1   2
BRANCH   1  21
ATOM     21  C   UNL A   1      34.401  33.281  28.021  1.00  0.00     0.275 C 
BRANCH  21  22
ATOM     22  O   UNL A   1      34.017  32.004  28.573  1.00  0.00    -0.458 OA
BRANCH  22  23
ATOM     23  C   UNL A   1      34.291  30.970  27.747  1.00  0.00     0.338 C 
ATOM     24  O   UNL A   1      33.684  30.701  26.722  1.00  0.00    -0.246 OA
BRANCH  23  25
ATOM     25  C   UNL A   1      35.483  30.205  28.135  1.00  0.00     0.060 A 
ATOM     26  C   UNL A   1      35.536  29.720  29.443  1.00  0.00     0.016 A 
ATOM     27  C   UNL A   1      36.626  30.198  27.332  1.00  0.00     0.016 A 
ATOM     28  C   UNL A   1      36.748  29.301  29.983  1.00  0.00     0.010 A 
ATOM     29  C   UNL A   1      37.837  29.738  27.867  1.00  0.00     0.010 A 
ATOM     30  C   UNL A   1      37.917  29.326  29.208  1.00  0.00    -0.014 A 
BRANCH  30  31
ATOM     31  C   UNL A   1      39.200  28.904  29.826  1.00  0.00     0.031 A 
ATOM     32  C   UNL A   1      39.991  27.743  29.288  1.00  0.00     0.074 A 
ATOM     33  C   UNL A   1      39.702  29.640  30.835  1.00  0.00     0.049 A 
ATOM     34  N   UNL A   1      41.191  27.337  29.626  1.00  0.00    -0.248 NA
ATOM     35  C   UNL A   1      39.385  26.958  28.205  1.00  0.00     0.031 C 
ATOM     36  C   UNL A   1      39.068  30.831  31.404  1.00  0.00     0.029 A 
ATOM     37  N   UNL A   1      40.857  29.496  31.558  1.00  0.00    -0.354 N 
ATOM     38  C   UNL A   1      41.510  26.314  28.741  1.00  0.00     0.074 A 
ATOM     39  C   UNL A   1      40.369  26.133  27.873  1.00  0.00     0.031 C 
ATOM     40  C   UNL A   1      39.838  31.303  32.394  1.00  0.00     0.029 A 
ATOM     41  C   UNL A   1      40.985  30.416  32.567  1.00  0.00     0.049 A 
ATOM     42  H   UNL A   1      41.528  28.800  31.372  1.00  0.00     0.167 HD
ATOM     43  C   UNL A   1      42.647  25.582  28.669  1.00  0.00     0.037 A 
ATOM     44  C   UNL A   1      41.896  30.509  33.553  1.00  0.00     0.037 A 
ATOM     45  C   UNL A   1      43.715  25.653  29.631  1.00  0.00     0.049 A 
ATOM     46  C   UNL A   1      43.022  29.521  33.608  1.00  0.00     0.074 A 
ATOM     47  C   UNL A   1      44.860  24.880  29.706  1.00  0.00     0.029 A 
ATOM     48  N   UNL A   1      43.736  26.508  30.721  1.00  0.00    -0.354 N 
ATOM     49  N   UNL A   1      43.322  28.570  32.756  1.00  0.00    -0.248 NA
ATOM     50  C   UNL A   1      43.927  29.607  34.761  1.00  0.00     0.031 C 
ATOM     51  C   UNL A   1      45.532  25.211  30.887  1.00  0.00     0.029 A 
ATOM     52  C   UNL A   1      44.841  26.237  31.511  1.00  0.00     0.049 A 
ATOM     53  H   UNL A   1      43.065  27.203  30.907  1.00  0.00     0.167 HD
ATOM     54  C   UNL A   1      44.457  27.952  33.260  1.00  0.00     0.074 A 
ATOM     55  C   UNL A   1      44.795  28.639  34.491  1.00  0.00     0.031 C 
ATOM     56  C   UNL A   1      45.157  26.914  32.743  1.00  0.00     0.037 A 
BRANCH  43  57
ATOM     57  C   UNL A   1      42.776  24.591  27.553  1.00  0.00     0.057 A 
ATOM     58  C   UNL A   1      43.255  24.983  26.297  1.00  0.00     0.134 A 
ATOM     59  C   UNL A   1      42.343  23.267  27.697  1.00  0.00     0.134 A 
ATOM     60  F   UNL A   1      43.684  26.239  26.095  1.00  0.00    -0.206 F 
ATOM     61  C   UNL A   1      43.280  24.099  25.217  1.00  0.00     0.040 A 
ATOM     62  C   UNL A   1      42.374  22.370  26.627  1.00  0.00     0.040 A 
ATOM     63  F   UNL A   1      41.877  22.828  28.876  1.00  0.00    -0.206 F 
ATOM     64  C   UNL A   1      42.836  22.788  25.380  1.00  0.00     0.006 A 
ENDBRANCH  43  57
BRANCH  44  65
ATOM     65  C   UNL A   1      41.721  31.553  34.591  1.00  0.00     0.057 A 
ATOM     66  C   UNL A   1      42.407  32.772  34.504  1.00  0.00     0.134 A 
ATOM     67  C   UNL A   1      40.930  31.334  35.721  1.00  0.00     0.134 A 
ATOM     68  F   UNL A   1      43.182  33.039  33.442  1.00  0.00    -0.206 F 
ATOM     69  C   UNL A   1      42.345  33.721  35.524  1.00  0.00     0.040 A 
ATOM     70  C   UNL A   1      40.840  32.285  36.739  1.00  0.00     0.040 A 
ATOM     71  F   UNL A   1      40.234  30.195  35.850  1.00  0.00    -0.206 F 
ATOM     72  C   UNL A   1      41.560  33.476  36.647  1.00  0.00     0.006 A 
ENDBRANCH  44  65
BRANCH  56  73
ATOM     73  C   UNL A   1      46.367  26.453  33.497  1.00  0.00     0.057 A 
ATOM     74  C   UNL A   1      46.257  25.464  34.482  1.00  0.00     0.134 A 
ATOM     75  C   UNL A   1      47.625  27.030  33.292  1.00  0.00     0.134 A 
ATOM     76  F   UNL A   1      45.076  24.880  34.733  1.00  0.00    -0.206 F 
ATOM     77  C   UNL A   1      47.356  25.072  35.246  1.00  0.00     0.040 A 
ATOM     78  C   UNL A   1      48.737  26.631  34.034  1.00  0.00     0.040 A 
ATOM     79  F   UNL A   1      47.795  27.976  32.356  1.00  0.00    -0.206 F 
ATOM     80  C   UNL A   1      48.603  25.655  35.019  1.00  0.00     0.006 A 
ENDBRANCH  56  73
ENDBRANCH  30  31
ENDBRANCH  23  25
ENDBRANCH  22  23
ENDBRANCH  21  22
ENDBRANCH   1  21
TORSDOF 15
ENDMDL
MODEL 3
REMARK VINA RESULT:      -9.5      4.974     11.298
REMARK SMILES CC(C)[C@H](NS(=O)(=O)c1cccc(F)c1)C(=O)OCCOC(=O)c1ccc(-c2c3nc(c(-c4c(F)cccc4F)c4ccc([nH]4)c(-c4c(F)cccc4F)c4nc(c(-c5c(F)cccc5F)c5ccc2[nH]5)C=C4)C=C3)cc1
REMARK SMILES IDX 19 1 18 2 16 3 17 4 4 5 2 6 1 7 3 8 5 9 6 11 7 12 8 13 9 14
REMARK SMILES IDX 10 15 15 16 11 17 13 18 12 19 14 20 20 21 21 22 22 23 23 24
REMARK SMILES IDX 24 25 25 26 77 27 26 28 76 29 27 30 28 31 29 32 70 33 30 34
REMARK SMILES IDX 75 35 69 36 71 37 31 38 74 39 68 40 67 41 32 43 58 44 41 45
REMARK SMILES IDX 57 46 42 47 45 48 56 49 72 50 43 51 44 52 55 54 73 55 46 56
REMARK SMILES IDX 33 57 34 58 39 59 35 60 36 61 38 62 40 63 37 64 59 65 60 66
REMARK SMILES IDX 65 67 61 68 62 69 64 70 66 71 63 72 47 73 48 74 53 75 49 76
REMARK SMILES IDX 50 77 52 78 54 79 51 80
REMARK H PARENT 5 10 71 42 45 53
REMARK Flexibility Score: inf
ROOT
ATOM      1  C   UNL A   1      40.699  20.233  26.433  1.00  0.00     0.274 C 
ENDROOT
BRANCH   1   2
ATOM      2  O   UNL A   1      41.515  19.432  25.552  1.00  0.00    -0.461 OA
BRANCH   2   3
ATOM      3  C   UNL A   1      42.816  19.271  25.929  1.00  0.00     0.324 C 
ATOM      4  O   UNL A   1      43.225  18.319  26.589  1.00  0.00    -0.250 OA
BRANCH   3   5
ATOM      5  C   UNL A   1      43.724  20.426  25.495  1.00  0.00     0.182 C 
BRANCH   5   6
ATOM      6  C   UNL A   1      45.068  19.914  24.880  1.00  0.00     0.012 C 
ATOM      7  C   UNL A   1      44.935  19.183  23.537  1.00  0.00     0.009 C 
ATOM      8  C   UNL A   1      46.159  20.985  24.729  1.00  0.00     0.009 C 
ENDBRANCH   5   6
BRANCH   5   9
ATOM      9  N   UNL A   1      43.935  21.426  26.556  1.00  0.00    -0.197 NA
ATOM     10  H   UNL A   1      44.942  21.484  26.702  1.00  0.00     0.142 HD
BRANCH   9  11
ATOM     11  S   UNL A   1      43.390  22.995  26.388  1.00  0.00     0.241 S 
ATOM     12  O   UNL A   1      42.857  23.100  25.046  1.00  0.00    -0.207 OA
ATOM     13  O   UNL A   1      42.591  23.329  27.546  1.00  0.00    -0.207 OA
BRANCH  11  14
ATOM     14  C   UNL A   1      44.864  23.972  26.446  1.00  0.00     0.085 A 
ATOM     15  C   UNL A   1      45.228  24.746  25.336  1.00  0.00     0.022 A 
ATOM     16  C   UNL A   1      45.614  24.018  27.619  1.00  0.00     0.061 A 
ATOM     17  C   UNL A   1      46.391  25.519  25.379  1.00  0.00     0.004 A 
ATOM     18  C   UNL A   1      46.758  24.801  27.643  1.00  0.00     0.124 A 
ATOM     19  C   UNL A   1      47.168  25.536  26.535  1.00  0.00     0.039 A 
ATOM     20  F   UNL A   1      47.484  24.840  28.762  1.00  0.00    -0.207 F 
ENDBRANCH  11  14
ENDBRANCH   9  11
ENDBRANCH   5   9
ENDBRANCH   3   5
ENDBRANCH   2   3
ENDBRANCH   1   2
BRANCH   1  21
ATOM     21  C   UNL A   1      39.864  21.301  25.708  1.00  0.00     0.275 C 
BRANCH  21  22
ATOM     22  O   UNL A   1      38.793  21.838  26.513  1.00  0.00    -0.458 OA
BRANCH  22  23
ATOM     23  C   UNL A   1      38.433  23.087  26.143  1.00  0.00     0.338 C 
ATOM     24  O   UNL A   1      37.444  23.376  25.489  1.00  0.00    -0.246 OA
BRANCH  23  25
ATOM     25  C   UNL A   1      39.305  24.138  26.685  1.00  0.00     0.060 A 
ATOM     26  C   UNL A   1      39.204  24.415  28.050  1.00  0.00     0.016 A 
ATOM     27  C   UNL A   1      39.996  25.007  25.838  1.00  0.00     0.016 A 
ATOM     28  C   UNL A   1      39.723  25.599  28.562  1.00  0.00     0.010 A 
ATOM     29  C   UNL A   1      40.551  26.182  26.364  1.00  0.00     0.010 A 
ATOM     30  C   UNL A   1      40.384  26.507  27.721  1.00  0.00    -0.014 A 
BRANCH  30  31
ATOM     31  C   UNL A   1      40.896  27.778  28.293  1.00  0.00     0.031 A 
ATOM     32  C   UNL A   1      42.371  28.054  28.409  1.00  0.00     0.074 A 
ATOM     33  C   UNL A   1      40.011  28.735  28.631  1.00  0.00     0.049 A 
ATOM     34  N   UNL A   1      42.975  29.164  28.756  1.00  0.00    -0.248 NA
ATOM     35  C   UNL A   1      43.290  26.967  28.053  1.00  0.00     0.031 C 
ATOM     36  C   UNL A   1      38.557  28.620  28.503  1.00  0.00     0.029 A 
ATOM     37  N   UNL A   1      40.205  29.989  29.149  1.00  0.00    -0.354 N 
ATOM     38  C   UNL A   1      44.333  28.931  28.574  1.00  0.00     0.074 A 
ATOM     39  C   UNL A   1      44.472  27.566  28.121  1.00  0.00     0.031 C 
ATOM     40  C   UNL A   1      37.992  29.754  28.939  1.00  0.00     0.029 A 
ATOM     41  C   UNL A   1      39.036  30.647  29.431  1.00  0.00     0.049 A 
ATOM     42  H   UNL A   1      41.096  30.379  29.303  1.00  0.00     0.167 HD
ATOM     43  C   UNL A   1      45.371  29.776  28.780  1.00  0.00     0.037 A 
ATOM     44  C   UNL A   1      38.823  31.818  30.060  1.00  0.00     0.037 A 
ATOM     45  C   UNL A   1      45.247  31.076  29.382  1.00  0.00     0.049 A 
ATOM     46  C   UNL A   1      39.997  32.630  30.516  1.00  0.00     0.074 A 
ATOM     47  C   UNL A   1      46.249  31.965  29.729  1.00  0.00     0.029 A 
ATOM     48  N   UNL A   1      44.049  31.647  29.781  1.00  0.00    -0.354 N 
ATOM     49  N   UNL A   1      41.274  32.407  30.323  1.00  0.00    -0.248 NA
ATOM     50  C   UNL A   1      39.706  33.846  31.286  1.00  0.00     0.031 C 
ATOM     51  C   UNL A   1      45.663  33.035  30.414  1.00  0.00     0.029 A 
ATOM     52  C   UNL A   1      44.291  32.846  30.431  1.00  0.00     0.049 A 
ATOM     53  H   UNL A   1      43.158  31.257  29.627  1.00  0.00     0.167 HD
ATOM     54  C   UNL A   1      41.941  33.459  30.933  1.00  0.00     0.074 A 
ATOM     55  C   UNL A   1      40.926  34.324  31.500  1.00  0.00     0.031 C 
ATOM     56  C   UNL A   1      43.274  33.688  31.008  1.00  0.00     0.037 A 
BRANCH  43  57
ATOM     57  C   UNL A   1      46.746  29.302  28.417  1.00  0.00     0.057 A 
ATOM     58  C   UNL A   1      47.528  28.596  29.338  1.00  0.00     0.134 A 
ATOM     59  C   UNL A   1      47.327  29.623  27.184  1.00  0.00     0.134 A 
ATOM     60  F   UNL A   1      47.028  28.259  30.537  1.00  0.00    -0.206 F 
ATOM     61  C   UNL A   1      48.848  28.242  29.055  1.00  0.00     0.040 A 
ATOM     62  C   UNL A   1      48.644  29.264  26.884  1.00  0.00     0.040 A 
ATOM     63  F   UNL A   1      46.629  30.295  26.256  1.00  0.00    -0.206 F 
ATOM     64  C   UNL A   1      49.411  28.579  27.825  1.00  0.00     0.006 A 
ENDBRANCH  43  57
BRANCH  44  65
ATOM     65  C   UNL A   1      37.428  32.236  30.336  1.00  0.00     0.057 A 
ATOM     66  C   UNL A   1      36.768  31.807  31.496  1.00  0.00     0.134 A 
ATOM     67  C   UNL A   1      36.702  33.006  29.425  1.00  0.00     0.134 A 
ATOM     68  F   UNL A   1      37.413  31.064  32.408  1.00  0.00    -0.206 F 
ATOM     69  C   UNL A   1      35.422  32.094  31.721  1.00  0.00     0.040 A 
ATOM     70  C   UNL A   1      35.360  33.322  29.649  1.00  0.00     0.040 A 
ATOM     71  F   UNL A   1      37.286  33.462  28.308  1.00  0.00    -0.206 F 
ATOM     72  C   UNL A   1      34.714  32.853  30.793  1.00  0.00     0.006 A 
ENDBRANCH  44  65
BRANCH  56  73
ATOM     73  C   UNL A   1      43.723  34.926  31.723  1.00  0.00     0.057 A 
ATOM     74  C   UNL A   1      43.821  36.145  31.042  1.00  0.00     0.134 A 
ATOM     75  C   UNL A   1      44.118  34.898  33.065  1.00  0.00     0.134 A 
ATOM     76  F   UNL A   1      43.469  36.234  29.751  1.00  0.00    -0.206 F 
ATOM     77  C   UNL A   1      44.306  37.293  31.669  1.00  0.00     0.040 A 
ATOM     78  C   UNL A   1      44.582  36.044  33.710  1.00  0.00     0.040 A 
ATOM     79  F   UNL A   1      44.038  33.761  33.774  1.00  0.00    -0.206 F 
ATOM     80  C   UNL A   1      44.685  37.244  33.009  1.00  0.00     0.006 A 
ENDBRANCH  56  73
ENDBRANCH  30  31
ENDBRANCH  23  25
ENDBRANCH  22  23
ENDBRANCH  21  22
ENDBRANCH   1  21
TORSDOF 15
ENDMDL
