MODEL 1
REMARK VINA RESULT:     -11.2      0.000      0.000
REMARK SMILES Cc1nonc1C[C@@H](C(=O)OCCOC(=O)c1ccc(-c2c3nc(c(-c4c(F)cccc4F)c4ccc([nH]4)c(-c4c(F)cccc4F)c4nc(c(-c5c(F)cccc5F)c5ccc2[nH]5)C=C4)C=C3)cc1)c1ccccc1Br
REMARK SMILES IDX 12 1 11 2 9 3 10 4 8 5 7 6 6 7 1 8 2 9 3 10 4 11 5 12 71 13
REMARK SMILES IDX 72 14 76 15 73 16 75 17 77 18 74 19 13 20 14 21 15 22 16 23
REMARK SMILES IDX 17 24 18 25 70 26 19 27 69 28 20 29 21 30 22 31 63 32 23 33
REMARK SMILES IDX 68 34 62 35 64 36 24 37 67 38 61 39 60 40 25 42 51 43 34 44
REMARK SMILES IDX 50 45 35 46 38 47 49 48 65 49 36 50 37 51 48 53 66 54 39 55
REMARK SMILES IDX 26 56 27 57 32 58 28 59 29 60 31 61 33 62 30 63 52 64 53 65
REMARK SMILES IDX 58 66 54 67 55 68 57 69 59 70 56 71 40 72 41 73 46 74 42 75
REMARK SMILES IDX 43 76 45 77 47 78 44 79
REMARK H PARENT 64 41 38 52
REMARK Flexibility Score: inf
ROOT
ATOM      1  C   UNL A   1      34.326  21.641  25.573  1.00  0.00     0.274 C 
ENDROOT
BRANCH   1   2
ATOM      2  O   UNL A   1      34.356  22.993  26.078  1.00  0.00    -0.462 OA
BRANCH   2   3
ATOM      3  C   UNL A   1      33.164  23.615  26.253  1.00  0.00     0.313 C 
ATOM      4  O   UNL A   1      32.409  23.351  27.180  1.00  0.00    -0.252 OA
BRANCH   3   5
ATOM      5  C   UNL A   1      32.875  24.652  25.140  1.00  0.00     0.136 C 
BRANCH   5   6
ATOM      6  C   UNL A   1      33.979  24.569  24.048  1.00  0.00     0.082 C 
BRANCH   6   7
ATOM      7  C   UNL A   1      33.573  24.721  22.615  1.00  0.00     0.109 A 
ATOM      8  C   UNL A   1      33.164  27.302  22.335  1.00  0.00     0.073 C 
ATOM      9  C   UNL A   1      33.246  25.893  21.897  1.00  0.00     0.105 A 
ATOM     10  N   UNL A   1      33.036  25.585  20.615  1.00  0.00    -0.055 NA
ATOM     11  O   UNL A   1      33.278  24.222  20.526  1.00  0.00    -0.244 OA
ATOM     12  N   UNL A   1      33.645  23.701  21.757  1.00  0.00    -0.055 NA
ENDBRANCH   6   7
ENDBRANCH   5   6
BRANCH   5  13
ATOM     13  C   UNL A   1      32.735  26.080  25.760  1.00  0.00    -0.019 A 
ATOM     14  C   UNL A   1      33.862  26.898  26.009  1.00  0.00     0.006 A 
ATOM     15  C   UNL A   1      31.486  26.599  26.177  1.00  0.00     0.022 A 
ATOM     16  C   UNL A   1      33.766  28.115  26.693  1.00  0.00     0.000 A 
ATOM     17  C   UNL A   1      31.403  27.792  26.915  1.00  0.00     0.016 A 
ATOM     18  Br  UNL A   1      29.822  25.774  25.752  1.00  0.00    -0.051 Br
ATOM     19  C   UNL A   1      32.542  28.545  27.180  1.00  0.00     0.001 A 
ENDBRANCH   5  13
ENDBRANCH   3   5
ENDBRANCH   2   3
ENDBRANCH   1   2
BRANCH   1  20
ATOM     20  C   UNL A   1      35.712  21.138  25.137  1.00  0.00     0.275 C 
BRANCH  20  21
ATOM     21  O   UNL A   1      36.720  21.452  26.122  1.00  0.00    -0.458 OA
BRANCH  21  22
ATOM     22  C   UNL A   1      38.002  21.227  25.752  1.00  0.00     0.338 C 
ATOM     23  O   UNL A   1      38.409  20.358  24.993  1.00  0.00    -0.246 OA
BRANCH  22  24
ATOM     24  C   UNL A   1      38.858  22.343  26.195  1.00  0.00     0.060 A 
ATOM     25  C   UNL A   1      38.407  23.625  25.878  1.00  0.00     0.016 A 
ATOM     26  C   UNL A   1      40.064  22.178  26.878  1.00  0.00     0.016 A 
ATOM     27  C   UNL A   1      39.112  24.748  26.283  1.00  0.00     0.010 A 
ATOM     28  C   UNL A   1      40.803  23.316  27.249  1.00  0.00     0.010 A 
ATOM     29  C   UNL A   1      40.323  24.605  26.962  1.00  0.00    -0.014 A 
BRANCH  29  30
ATOM     30  C   UNL A   1      41.094  25.836  27.252  1.00  0.00     0.031 A 
ATOM     31  C   UNL A   1      40.482  26.892  28.124  1.00  0.00     0.074 A 
ATOM     32  C   UNL A   1      42.380  25.945  26.873  1.00  0.00     0.049 A 
ATOM     33  N   UNL A   1      40.974  28.043  28.504  1.00  0.00    -0.248 NA
ATOM     34  C   UNL A   1      39.146  26.596  28.665  1.00  0.00     0.031 C 
ATOM     35  C   UNL A   1      43.140  24.923  26.156  1.00  0.00     0.029 A 
ATOM     36  N   UNL A   1      43.280  26.965  27.062  1.00  0.00    -0.354 N 
ATOM     37  C   UNL A   1      40.010  28.613  29.321  1.00  0.00     0.074 A 
ATOM     38  C   UNL A   1      38.903  27.682  29.385  1.00  0.00     0.031 C 
ATOM     39  C   UNL A   1      44.392  25.371  25.957  1.00  0.00     0.029 A 
ATOM     40  C   UNL A   1      44.507  26.727  26.492  1.00  0.00     0.049 A 
ATOM     41  H   UNL A   1      43.066  27.787  27.559  1.00  0.00     0.167 HD
ATOM     42  C   UNL A   1      40.039  29.810  29.953  1.00  0.00     0.037 A 
ATOM     43  C   UNL A   1      45.585  27.530  26.384  1.00  0.00     0.037 A 
ATOM     44  C   UNL A   1      41.130  30.744  29.876  1.00  0.00     0.049 A 
ATOM     45  C   UNL A   1      45.533  28.919  26.967  1.00  0.00     0.074 A 
ATOM     46  C   UNL A   1      41.226  32.006  30.436  1.00  0.00     0.029 A 
ATOM     47  N   UNL A   1      42.313  30.520  29.189  1.00  0.00    -0.354 N 
ATOM     48  N   UNL A   1      44.594  29.480  27.689  1.00  0.00    -0.248 NA
ATOM     49  C   UNL A   1      46.687  29.793  26.702  1.00  0.00     0.031 C 
ATOM     50  C   UNL A   1      42.448  32.566  30.046  1.00  0.00     0.029 A 
ATOM     51  C   UNL A   1      43.134  31.632  29.285  1.00  0.00     0.049 A 
ATOM     52  H   UNL A   1      42.537  29.693  28.704  1.00  0.00     0.167 HD
ATOM     53  C   UNL A   1      45.050  30.761  27.979  1.00  0.00     0.074 A 
ATOM     54  C   UNL A   1      46.357  30.888  27.372  1.00  0.00     0.031 C 
ATOM     55  C   UNL A   1      44.437  31.746  28.682  1.00  0.00     0.037 A 
BRANCH  42  56
ATOM     56  C   UNL A   1      38.817  30.202  30.725  1.00  0.00     0.057 A 
ATOM     57  C   UNL A   1      38.645  29.860  32.071  1.00  0.00     0.134 A 
ATOM     58  C   UNL A   1      37.799  30.939  30.107  1.00  0.00     0.134 A 
ATOM     59  F   UNL A   1      39.574  29.135  32.713  1.00  0.00    -0.206 F 
ATOM     60  C   UNL A   1      37.493  30.223  32.772  1.00  0.00     0.040 A 
ATOM     61  C   UNL A   1      36.654  31.326  30.801  1.00  0.00     0.040 A 
ATOM     62  F   UNL A   1      37.905  31.296  28.817  1.00  0.00    -0.206 F 
ATOM     63  C   UNL A   1      36.495  30.963  32.136  1.00  0.00     0.006 A 
ENDBRANCH  42  56
BRANCH  43  64
ATOM     64  C   UNL A   1      46.788  27.077  25.640  1.00  0.00     0.057 A 
ATOM     65  C   UNL A   1      47.783  26.312  26.258  1.00  0.00     0.134 A 
ATOM     66  C   UNL A   1      46.999  27.452  24.307  1.00  0.00     0.134 A 
ATOM     67  F   UNL A   1      47.656  25.947  27.543  1.00  0.00    -0.206 F 
ATOM     68  C   UNL A   1      48.954  25.952  25.585  1.00  0.00     0.040 A 
ATOM     69  C   UNL A   1      48.150  27.076  23.613  1.00  0.00     0.040 A 
ATOM     70  F   UNL A   1      46.090  28.196  23.660  1.00  0.00    -0.206 F 
ATOM     71  C   UNL A   1      49.136  26.332  24.256  1.00  0.00     0.006 A 
ENDBRANCH  43  64
BRANCH  55  72
ATOM     72  C   UNL A   1      45.180  33.039  28.854  1.00  0.00     0.057 A 
ATOM     73  C   UNL A   1      45.010  34.113  27.971  1.00  0.00     0.134 A 
ATOM     74  C   UNL A   1      46.039  33.229  29.944  1.00  0.00     0.134 A 
ATOM     75  F   UNL A   1      44.210  33.991  26.900  1.00  0.00    -0.206 F 
ATOM     76  C   UNL A   1      45.681  35.322  28.156  1.00  0.00     0.040 A 
ATOM     77  C   UNL A   1      46.697  34.442  30.153  1.00  0.00     0.040 A 
ATOM     78  F   UNL A   1      46.241  32.244  30.832  1.00  0.00    -0.206 F 
ATOM     79  C   UNL A   1      46.522  35.492  29.254  1.00  0.00     0.006 A 
ENDBRANCH  55  72
ENDBRANCH  29  30
ENDBRANCH  22  24
ENDBRANCH  21  22
ENDBRANCH  20  21
ENDBRANCH   1  20
TORSDOF 14
ENDMDL
MODEL 2
REMARK VINA RESULT:     -11.2      3.333      6.496
REMARK SMILES Cc1nonc1C[C@@H](C(=O)OCCOC(=O)c1ccc(-c2c3nc(c(-c4c(F)cccc4F)c4ccc([nH]4)c(-c4c(F)cccc4F)c4nc(c(-c5c(F)cccc5F)c5ccc2[nH]5)C=C4)C=C3)cc1)c1ccccc1Br
REMARK SMILES IDX 12 1 11 2 9 3 10 4 8 5 7 6 6 7 1 8 2 9 3 10 4 11 5 12 71 13
REMARK SMILES IDX 72 14 76 15 73 16 75 17 77 18 74 19 13 20 14 21 15 22 16 23
REMARK SMILES IDX 17 24 18 25 70 26 19 27 69 28 20 29 21 30 22 31 63 32 23 33
REMARK SMILES IDX 68 34 62 35 64 36 24 37 67 38 61 39 60 40 25 42 51 43 34 44
REMARK SMILES IDX 50 45 35 46 38 47 49 48 65 49 36 50 37 51 48 53 66 54 39 55
REMARK SMILES IDX 26 56 27 57 32 58 28 59 29 60 31 61 33 62 30 63 52 64 53 65
REMARK SMILES IDX 58 66 54 67 55 68 57 69 59 70 56 71 40 72 41 73 46 74 42 75
REMARK SMILES IDX 43 76 45 77 47 78 44 79
REMARK H PARENT 64 41 38 52
REMARK Flexibility Score: inf
ROOT
ATOM      1  C   UNL A   1      33.104  28.899  24.897  1.00  0.00     0.274 C 
ENDROOT
BRANCH   1   2
ATOM      2  O   UNL A   1      33.826  27.663  25.084  1.00  0.00    -0.462 OA
BRANCH   2   3
ATOM      3  C   UNL A   1      33.707  26.724  24.115  1.00  0.00     0.313 C 
ATOM      4  O   UNL A   1      33.821  26.983  22.924  1.00  0.00    -0.252 OA
BRANCH   3   5
ATOM      5  C   UNL A   1      33.384  25.323  24.692  1.00  0.00     0.136 C 
BRANCH   5   6
ATOM      6  C   UNL A   1      32.929  25.460  26.173  1.00  0.00     0.082 C 
BRANCH   6   7
ATOM      7  C   UNL A   1      31.589  24.916  26.556  1.00  0.00     0.109 A 
ATOM      8  C   UNL A   1      29.896  26.285  25.084  1.00  0.00     0.073 C 
ATOM      9  C   UNL A   1      30.308  25.266  26.072  1.00  0.00     0.105 A 
ATOM     10  N   UNL A   1      29.391  24.463  26.618  1.00  0.00    -0.055 NA
ATOM     11  O   UNL A   1      30.110  23.580  27.410  1.00  0.00    -0.244 OA
ATOM     12  N   UNL A   1      31.469  23.842  27.340  1.00  0.00    -0.055 NA
ENDBRANCH   6   7
ENDBRANCH   5   6
BRANCH   5  13
ATOM     13  C   UNL A   1      34.613  24.373  24.515  1.00  0.00    -0.019 A 
ATOM     14  C   UNL A   1      35.687  24.365  25.436  1.00  0.00     0.006 A 
ATOM     15  C   UNL A   1      34.755  23.531  23.387  1.00  0.00     0.022 A 
ATOM     16  C   UNL A   1      36.855  23.627  25.215  1.00  0.00     0.000 A 
ATOM     17  C   UNL A   1      35.953  22.840  23.140  1.00  0.00     0.016 A 
ATOM     18  Br  UNL A   1      33.351  23.221  22.136  1.00  0.00    -0.051 Br
ATOM     19  C   UNL A   1      37.005  22.893  24.049  1.00  0.00     0.001 A 
ENDBRANCH   5  13
ENDBRANCH   3   5
ENDBRANCH   2   3
ENDBRANCH   1   2
BRANCH   1  20
ATOM     20  C   UNL A   1      33.170  29.819  26.127  1.00  0.00     0.275 C 
BRANCH  20  21
ATOM     21  O   UNL A   1      34.193  29.389  27.052  1.00  0.00    -0.458 OA
BRANCH  21  22
ATOM     22  C   UNL A   1      34.744  30.358  27.819  1.00  0.00     0.338 C 
ATOM     23  O   UNL A   1      34.182  31.340  28.286  1.00  0.00    -0.246 OA
BRANCH  22  24
ATOM     24  C   UNL A   1      36.098  29.955  28.245  1.00  0.00     0.060 A 
ATOM     25  C   UNL A   1      37.104  30.079  27.286  1.00  0.00     0.016 A 
ATOM     26  C   UNL A   1      36.401  29.458  29.513  1.00  0.00     0.016 A 
ATOM     27  C   UNL A   1      38.420  29.769  27.591  1.00  0.00     0.010 A 
ATOM     28  C   UNL A   1      37.729  29.100  29.809  1.00  0.00     0.010 A 
ATOM     29  C   UNL A   1      38.744  29.265  28.851  1.00  0.00    -0.014 A 
BRANCH  29  30
ATOM     30  C   UNL A   1      40.142  28.829  29.075  1.00  0.00     0.031 A 
ATOM     31  C   UNL A   1      41.065  29.712  29.863  1.00  0.00     0.074 A 
ATOM     32  C   UNL A   1      40.542  27.596  28.716  1.00  0.00     0.049 A 
ATOM     33  N   UNL A   1      42.322  29.529  30.175  1.00  0.00    -0.248 NA
ATOM     34  C   UNL A   1      40.482  30.953  30.395  1.00  0.00     0.031 C 
ATOM     35  C   UNL A   1      39.697  26.583  28.084  1.00  0.00     0.029 A 
ATOM     36  N   UNL A   1      41.761  26.980  28.855  1.00  0.00    -0.354 N 
ATOM     37  C   UNL A   1      42.684  30.633  30.933  1.00  0.00     0.074 A 
ATOM     38  C   UNL A   1      41.515  31.480  31.036  1.00  0.00     0.031 C 
ATOM     39  C   UNL A   1      40.427  25.473  27.881  1.00  0.00     0.029 A 
ATOM     40  C   UNL A   1      41.799  25.712  28.327  1.00  0.00     0.049 A 
ATOM     41  H   UNL A   1      42.533  27.405  29.293  1.00  0.00     0.167 HD
ATOM     42  C   UNL A   1      43.887  30.920  31.485  1.00  0.00     0.037 A 
ATOM     43  C   UNL A   1      42.835  24.860  28.189  1.00  0.00     0.037 A 
ATOM     44  C   UNL A   1      45.055  30.088  31.368  1.00  0.00     0.049 A 
ATOM     45  C   UNL A   1      44.200  25.270  28.677  1.00  0.00     0.074 A 
ATOM     46  C   UNL A   1      46.332  30.323  31.845  1.00  0.00     0.029 A 
ATOM     47  N   UNL A   1      45.088  28.861  30.722  1.00  0.00    -0.354 N 
ATOM     48  N   UNL A   1      44.555  26.343  29.341  1.00  0.00    -0.248 NA
ATOM     49  C   UNL A   1      45.314  24.356  28.379  1.00  0.00     0.031 C 
ATOM     50  C   UNL A   1      47.151  29.262  31.443  1.00  0.00     0.029 A 
ATOM     51  C   UNL A   1      46.372  28.341  30.761  1.00  0.00     0.049 A 
ATOM     52  H   UNL A   1      44.315  28.425  30.297  1.00  0.00     0.167 HD
ATOM     53  C   UNL A   1      45.923  26.225  29.555  1.00  0.00     0.074 A 
ATOM     54  C   UNL A   1      46.332  24.967  28.967  1.00  0.00     0.031 C 
ATOM     55  C   UNL A   1      46.767  27.085  30.178  1.00  0.00     0.037 A 
BRANCH  42  56
ATOM     56  C   UNL A   1      44.011  32.228  32.204  1.00  0.00     0.057 A 
ATOM     57  C   UNL A   1      43.819  32.339  33.586  1.00  0.00     0.134 A 
ATOM     58  C   UNL A   1      44.335  33.392  31.497  1.00  0.00     0.134 A 
ATOM     59  F   UNL A   1      43.484  31.263  34.315  1.00  0.00    -0.206 F 
ATOM     60  C   UNL A   1      43.925  33.568  34.238  1.00  0.00     0.040 A 
ATOM     61  C   UNL A   1      44.466  34.622  32.140  1.00  0.00     0.040 A 
ATOM     62  F   UNL A   1      44.531  33.350  30.170  1.00  0.00    -0.206 F 
ATOM     63  C   UNL A   1      44.255  34.714  33.513  1.00  0.00     0.006 A 
ENDBRANCH  42  56
BRANCH  43  64
ATOM     64  C   UNL A   1      42.649  23.557  27.501  1.00  0.00     0.057 A 
ATOM     65  C   UNL A   1      42.747  23.445  26.109  1.00  0.00     0.134 A 
ATOM     66  C   UNL A   1      42.307  22.402  28.216  1.00  0.00     0.134 A 
ATOM     67  F   UNL A   1      43.039  24.522  25.364  1.00  0.00    -0.206 F 
ATOM     68  C   UNL A   1      42.494  22.238  25.452  1.00  0.00     0.040 A 
ATOM     69  C   UNL A   1      42.080  21.182  27.576  1.00  0.00     0.040 A 
ATOM     70  F   UNL A   1      42.185  22.443  29.551  1.00  0.00    -0.206 F 
ATOM     71  C   UNL A   1      42.163  21.102  26.188  1.00  0.00     0.006 A 
ENDBRANCH  43  64
BRANCH  55  72
ATOM     72  C   UNL A   1      48.211  26.687  30.279  1.00  0.00     0.057 A 
ATOM     73  C   UNL A   1      48.689  25.907  31.341  1.00  0.00     0.134 A 
ATOM     74  C   UNL A   1      49.123  27.045  29.279  1.00  0.00     0.134 A 
ATOM     75  F   UNL A   1      47.869  25.541  32.338  1.00  0.00    -0.206 F 
ATOM     76  C   UNL A   1      50.027  25.514  31.412  1.00  0.00     0.040 A 
ATOM     77  C   UNL A   1      50.457  26.637  29.327  1.00  0.00     0.040 A 
ATOM     78  F   UNL A   1      48.729  27.784  28.230  1.00  0.00    -0.206 F 
ATOM     79  C   UNL A   1      50.914  25.873  30.399  1.00  0.00     0.006 A 
ENDBRANCH  55  72
ENDBRANCH  29  30
ENDBRANCH  22  24
ENDBRANCH  21  22
ENDBRANCH  20  21
ENDBRANCH   1  20
TORSDOF 14
ENDMDL
MODEL 3
REMARK VINA RESULT:     -11.2      4.262      6.980
REMARK SMILES Cc1nonc1C[C@@H](C(=O)OCCOC(=O)c1ccc(-c2c3nc(c(-c4c(F)cccc4F)c4ccc([nH]4)c(-c4c(F)cccc4F)c4nc(c(-c5c(F)cccc5F)c5ccc2[nH]5)C=C4)C=C3)cc1)c1ccccc1Br
REMARK SMILES IDX 12 1 11 2 9 3 10 4 8 5 7 6 6 7 1 8 2 9 3 10 4 11 5 12 71 13
REMARK SMILES IDX 72 14 76 15 73 16 75 17 77 18 74 19 13 20 14 21 15 22 16 23
REMARK SMILES IDX 17 24 18 25 70 26 19 27 69 28 20 29 21 30 22 31 63 32 23 33
REMARK SMILES IDX 68 34 62 35 64 36 24 37 67 38 61 39 60 40 25 42 51 43 34 44
REMARK SMILES IDX 50 45 35 46 38 47 49 48 65 49 36 50 37 51 48 53 66 54 39 55
REMARK SMILES IDX 26 56 27 57 32 58 28 59 29 60 31 61 33 62 30 63 52 64 53 65
REMARK SMILES IDX 58 66 54 67 55 68 57 69 59 70 56 71 40 72 41 73 46 74 42 75
REMARK SMILES IDX 43 76 45 77 47 78 44 79
REMARK H PARENT 64 41 38 52
REMARK Flexibility Score: inf
ROOT
ATOM      1  C   UNL A   1      31.790  30.360  26.746  1.00  0.00     0.274 C 
ENDROOT
BRANCH   1   2
ATOM      2  O   UNL A   1      31.459  29.779  25.466  1.00  0.00    -0.462 OA
BRANCH   2   3
ATOM      3  C   UNL A   1      32.481  29.269  24.735  1.00  0.00     0.313 C 
ATOM      4  O   UNL A   1      33.637  29.650  24.858  1.00  0.00    -0.252 OA
BRANCH   3   5
ATOM      5  C   UNL A   1      32.002  28.194  23.728  1.00  0.00     0.136 C 
BRANCH   5   6
ATOM      6  C   UNL A   1      33.126  27.912  22.691  1.00  0.00     0.082 C 
BRANCH   6   7
ATOM      7  C   UNL A   1      33.372  26.494  22.280  1.00  0.00     0.109 A 
ATOM      8  C   UNL A   1      33.913  25.257  24.535  1.00  0.00     0.073 C 
ATOM      9  C   UNL A   1      33.689  25.372  23.079  1.00  0.00     0.105 A 
ATOM     10  N   UNL A   1      33.729  24.278  22.314  1.00  0.00    -0.055 NA
ATOM     11  O   UNL A   1      33.390  24.715  21.041  1.00  0.00    -0.244 OA
ATOM     12  N   UNL A   1      33.135  26.077  21.035  1.00  0.00    -0.055 NA
ENDBRANCH   6   7
ENDBRANCH   5   6
BRANCH   5  13
ATOM     13  C   UNL A   1      30.657  28.640  23.066  1.00  0.00    -0.019 A 
ATOM     14  C   UNL A   1      30.578  29.787  22.241  1.00  0.00     0.006 A 
ATOM     15  C   UNL A   1      29.438  27.970  23.319  1.00  0.00     0.022 A 
ATOM     16  C   UNL A   1      29.359  30.279  21.760  1.00  0.00     0.000 A 
ATOM     17  C   UNL A   1      28.211  28.501  22.884  1.00  0.00     0.016 A 
ATOM     18  Br  UNL A   1      29.338  26.293  24.218  1.00  0.00    -0.051 Br
ATOM     19  C   UNL A   1      28.171  29.658  22.112  1.00  0.00     0.001 A 
ENDBRANCH   5  13
ENDBRANCH   3   5
ENDBRANCH   2   3
ENDBRANCH   1   2
BRANCH   1  20
ATOM     20  C   UNL A   1      31.558  31.879  26.787  1.00  0.00     0.275 C 
BRANCH  20  21
ATOM     21  O   UNL A   1      32.793  32.605  26.603  1.00  0.00    -0.458 OA
BRANCH  21  22
ATOM     22  C   UNL A   1      33.181  33.390  27.635  1.00  0.00     0.338 C 
ATOM     23  O   UNL A   1      32.515  34.246  28.202  1.00  0.00    -0.246 OA
BRANCH  22  24
ATOM     24  C   UNL A   1      34.466  32.911  28.178  1.00  0.00     0.060 A 
ATOM     25  C   UNL A   1      34.459  31.629  28.729  1.00  0.00     0.016 A 
ATOM     26  C   UNL A   1      35.641  33.664  28.180  1.00  0.00     0.016 A 
ATOM     27  C   UNL A   1      35.621  31.063  29.229  1.00  0.00     0.010 A 
ATOM     28  C   UNL A   1      36.810  33.108  28.730  1.00  0.00     0.010 A 
ATOM     29  C   UNL A   1      36.806  31.800  29.246  1.00  0.00    -0.014 A 
BRANCH  29  30
ATOM     30  C   UNL A   1      37.981  31.192  29.912  1.00  0.00     0.031 A 
ATOM     31  C   UNL A   1      38.235  31.492  31.359  1.00  0.00     0.074 A 
ATOM     32  C   UNL A   1      38.723  30.264  29.281  1.00  0.00     0.049 A 
ATOM     33  N   UNL A   1      39.200  31.072  32.137  1.00  0.00    -0.248 NA
ATOM     34  C   UNL A   1      37.252  32.358  32.029  1.00  0.00     0.031 C 
ATOM     35  C   UNL A   1      38.485  29.769  27.926  1.00  0.00     0.029 A 
ATOM     36  N   UNL A   1      39.818  29.557  29.712  1.00  0.00    -0.354 N 
ATOM     37  C   UNL A   1      38.947  31.626  33.383  1.00  0.00     0.074 A 
ATOM     38  C   UNL A   1      37.736  32.411  33.261  1.00  0.00     0.031 C 
ATOM     39  C   UNL A   1      39.414  28.843  27.632  1.00  0.00     0.029 A 
ATOM     40  C   UNL A   1      40.336  28.713  28.759  1.00  0.00     0.049 A 
ATOM     41  H   UNL A   1      40.194  29.645  30.617  1.00  0.00     0.167 HD
ATOM     42  C   UNL A   1      39.665  31.501  34.524  1.00  0.00     0.037 A 
ATOM     43  C   UNL A   1      41.449  27.953  28.786  1.00  0.00     0.037 A 
ATOM     44  C   UNL A   1      40.878  30.736  34.643  1.00  0.00     0.049 A 
ATOM     45  C   UNL A   1      42.314  27.952  30.020  1.00  0.00     0.074 A 
ATOM     46  C   UNL A   1      41.705  30.597  35.743  1.00  0.00     0.029 A 
ATOM     47  N   UNL A   1      41.440  29.987  33.620  1.00  0.00    -0.354 N 
ATOM     48  N   UNL A   1      42.105  28.526  31.180  1.00  0.00    -0.248 NA
ATOM     49  C   UNL A   1      43.582  27.210  29.941  1.00  0.00     0.031 C 
ATOM     50  C   UNL A   1      42.796  29.803  35.372  1.00  0.00     0.029 A 
ATOM     51  C   UNL A   1      42.621  29.406  34.055  1.00  0.00     0.049 A 
ATOM     52  H   UNL A   1      41.058  29.884  32.719  1.00  0.00     0.167 HD
ATOM     53  C   UNL A   1      43.201  28.201  31.971  1.00  0.00     0.074 A 
ATOM     54  C   UNL A   1      44.064  27.364  31.166  1.00  0.00     0.031 C 
ATOM     55  C   UNL A   1      43.471  28.569  33.248  1.00  0.00     0.037 A 
BRANCH  42  56
ATOM     56  C   UNL A   1      39.188  32.272  35.716  1.00  0.00     0.057 A 
ATOM     57  C   UNL A   1      39.558  33.603  35.939  1.00  0.00     0.134 A 
ATOM     58  C   UNL A   1      38.337  31.669  36.651  1.00  0.00     0.134 A 
ATOM     59  F   UNL A   1      40.389  34.230  35.092  1.00  0.00    -0.206 F 
ATOM     60  C   UNL A   1      39.114  34.302  37.062  1.00  0.00     0.040 A 
ATOM     61  C   UNL A   1      37.869  32.363  37.765  1.00  0.00     0.040 A 
ATOM     62  F   UNL A   1      37.947  30.394  36.492  1.00  0.00    -0.206 F 
ATOM     63  C   UNL A   1      38.261  33.683  37.977  1.00  0.00     0.006 A 
ENDBRANCH  42  56
BRANCH  43  64
ATOM     64  C   UNL A   1      41.858  27.177  27.588  1.00  0.00     0.057 A 
ATOM     65  C   UNL A   1      42.582  27.768  26.546  1.00  0.00     0.134 A 
ATOM     66  C   UNL A   1      41.479  25.837  27.428  1.00  0.00     0.134 A 
ATOM     67  F   UNL A   1      42.947  29.057  26.624  1.00  0.00    -0.206 F 
ATOM     68  C   UNL A   1      42.899  27.063  25.382  1.00  0.00     0.040 A 
ATOM     69  C   UNL A   1      41.813  25.112  26.284  1.00  0.00     0.040 A 
ATOM     70  F   UNL A   1      40.773  25.215  28.383  1.00  0.00    -0.206 F 
ATOM     71  C   UNL A   1      42.516  25.729  25.252  1.00  0.00     0.006 A 
ENDBRANCH  43  64
BRANCH  55  72
ATOM     72  C   UNL A   1      44.736  28.049  33.865  1.00  0.00     0.057 A 
ATOM     73  C   UNL A   1      45.932  28.778  33.824  1.00  0.00     0.134 A 
ATOM     74  C   UNL A   1      44.748  26.829  34.551  1.00  0.00     0.134 A 
ATOM     75  F   UNL A   1      45.991  29.950  33.172  1.00  0.00    -0.206 F 
ATOM     76  C   UNL A   1      47.097  28.303  34.427  1.00  0.00     0.040 A 
ATOM     77  C   UNL A   1      45.900  26.355  35.180  1.00  0.00     0.040 A 
ATOM     78  F   UNL A   1      43.635  26.084  34.636  1.00  0.00    -0.206 F 
ATOM     79  C   UNL A   1      47.082  27.090  35.114  1.00  0.00     0.006 A 
ENDBRANCH  55  72
ENDBRANCH  29  30
ENDBRANCH  22  24
ENDBRANCH  21  22
ENDBRANCH  20  21
ENDBRANCH   1  20
TORSDOF 14
ENDMDL
