MODEL 1
REMARK VINA RESULT:     -10.1      0.000      0.000
REMARK SMILES O=C(OCCOC(=O)c1cc([C@@H]2C=NN=C2c2ccc(F)cc2)c2c(ccc3ccccc32)n1)c1ccc(-c2c3nc(c(-c4c(F)cccc4F)c4ccc([nH]4)c(-c4c(F)cccc4F)c4nc(c(-c5c(F)cccc5F)c5ccc2[nH]5)C=C4)C=C3)cc1
REMARK SMILES IDX 4 1 3 2 2 3 1 4 35 5 36 6 88 7 37 8 87 9 38 10 39 11 40 12
REMARK SMILES IDX 81 13 41 14 86 15 80 16 82 17 42 18 85 19 79 20 78 21 43 23
REMARK SMILES IDX 69 24 52 25 68 26 53 27 56 28 67 29 83 30 54 31 55 32 66 34
REMARK SMILES IDX 84 35 57 36 44 37 45 38 50 39 46 40 47 41 49 42 51 43 48 44
REMARK SMILES IDX 70 45 71 46 76 47 72 48 73 49 75 50 77 51 74 52 58 53 59 54
REMARK SMILES IDX 64 55 60 56 61 57 63 58 65 59 62 60 5 61 6 62 7 63 8 64 9 65
REMARK SMILES IDX 10 66 34 67 11 68 25 69 24 70 26 71 33 72 27 73 28 74 32 75
REMARK SMILES IDX 29 76 31 77 30 78 12 79 13 80 16 81 14 82 15 83 17 84 18 85
REMARK SMILES IDX 23 86 19 87 22 88 20 89 21 90
REMARK H PARENT 82 22 56 33
REMARK Flexibility Score: inf
ROOT
ATOM      1  C   UNL A   1      34.439  33.840  30.682  1.00  0.00     0.275 C 
ENDROOT
BRANCH   1   2
ATOM      2  O   UNL A   1      35.107  32.574  30.858  1.00  0.00    -0.458 OA
BRANCH   2   3
ATOM      3  C   UNL A   1      35.438  31.860  29.762  1.00  0.00     0.338 C 
ATOM      4  O   UNL A   1      34.848  31.929  28.693  1.00  0.00    -0.246 OA
BRANCH   3   5
ATOM      5  C   UNL A   1      36.684  31.084  29.984  1.00  0.00     0.060 A 
ATOM      6  C   UNL A   1      37.939  31.578  29.598  1.00  0.00     0.016 A 
ATOM      7  C   UNL A   1      36.588  29.838  30.610  1.00  0.00     0.016 A 
ATOM      8  C   UNL A   1      39.081  30.808  29.771  1.00  0.00     0.010 A 
ATOM      9  C   UNL A   1      37.733  29.070  30.786  1.00  0.00     0.010 A 
ATOM     10  C   UNL A   1      38.972  29.532  30.320  1.00  0.00    -0.014 A 
BRANCH  10  11
ATOM     11  C   UNL A   1      40.161  28.675  30.308  1.00  0.00     0.031 A 
ATOM     12  C   UNL A   1      40.936  28.465  31.574  1.00  0.00     0.074 A 
ATOM     13  C   UNL A   1      40.473  27.956  29.212  1.00  0.00     0.049 A 
ATOM     14  N   UNL A   1      42.211  28.562  31.799  1.00  0.00    -0.248 NA
ATOM     15  C   UNL A   1      40.171  28.059  32.753  1.00  0.00     0.031 C 
ATOM     16  C   UNL A   1      39.695  27.792  27.978  1.00  0.00     0.029 A 
ATOM     17  N   UNL A   1      41.528  27.118  29.027  1.00  0.00    -0.354 N 
ATOM     18  C   UNL A   1      42.420  28.082  33.098  1.00  0.00     0.074 A 
ATOM     19  C   UNL A   1      41.119  27.833  33.659  1.00  0.00     0.031 C 
ATOM     20  C   UNL A   1      40.187  26.748  27.280  1.00  0.00     0.029 A 
ATOM     21  C   UNL A   1      41.391  26.276  27.939  1.00  0.00     0.049 A 
ATOM     22  H   UNL A   1      42.318  27.110  29.616  1.00  0.00     0.167 HD
ATOM     23  C   UNL A   1      43.648  27.787  33.609  1.00  0.00     0.037 A 
ATOM     24  C   UNL A   1      42.174  25.219  27.637  1.00  0.00     0.037 A 
ATOM     25  C   UNL A   1      44.709  28.433  32.897  1.00  0.00     0.049 A 
ATOM     26  C   UNL A   1      43.466  25.391  28.341  1.00  0.00     0.074 A 
ATOM     27  C   UNL A   1      45.066  29.745  32.658  1.00  0.00     0.029 A 
ATOM     28  N   UNL A   1      45.479  27.689  32.040  1.00  0.00    -0.354 N 
ATOM     29  N   UNL A   1      44.329  26.333  28.079  1.00  0.00    -0.248 NA
ATOM     30  C   UNL A   1      43.645  24.717  29.617  1.00  0.00     0.031 C 
ATOM     31  C   UNL A   1      45.623  29.741  31.346  1.00  0.00     0.029 A 
ATOM     32  C   UNL A   1      45.572  28.424  30.887  1.00  0.00     0.049 A 
ATOM     33  H   UNL A   1      45.882  26.809  32.217  1.00  0.00     0.167 HD
ATOM     34  C   UNL A   1      44.917  26.632  29.299  1.00  0.00     0.074 A 
ATOM     35  C   UNL A   1      44.542  25.530  30.179  1.00  0.00     0.031 C 
ATOM     36  C   UNL A   1      45.432  27.869  29.561  1.00  0.00     0.037 A 
BRANCH  23  37
ATOM     37  C   UNL A   1      43.906  26.717  34.637  1.00  0.00     0.057 A 
ATOM     38  C   UNL A   1      43.936  26.977  36.022  1.00  0.00     0.134 A 
ATOM     39  C   UNL A   1      43.860  25.357  34.280  1.00  0.00     0.134 A 
ATOM     40  F   UNL A   1      43.865  28.225  36.505  1.00  0.00    -0.206 F 
ATOM     41  C   UNL A   1      43.947  25.960  36.982  1.00  0.00     0.040 A 
ATOM     42  C   UNL A   1      43.824  24.332  35.235  1.00  0.00     0.040 A 
ATOM     43  F   UNL A   1      43.786  24.985  32.994  1.00  0.00    -0.206 F 
ATOM     44  C   UNL A   1      43.868  24.631  36.591  1.00  0.00     0.006 A 
ENDBRANCH  23  37
BRANCH  24  45
ATOM     45  C   UNL A   1      41.739  23.947  27.027  1.00  0.00     0.057 A 
ATOM     46  C   UNL A   1      40.580  23.279  27.469  1.00  0.00     0.134 A 
ATOM     47  C   UNL A   1      42.570  23.233  26.158  1.00  0.00     0.134 A 
ATOM     48  F   UNL A   1      39.762  23.832  28.376  1.00  0.00    -0.206 F 
ATOM     49  C   UNL A   1      40.263  21.981  27.062  1.00  0.00     0.040 A 
ATOM     50  C   UNL A   1      42.270  21.927  25.752  1.00  0.00     0.040 A 
ATOM     51  F   UNL A   1      43.721  23.769  25.727  1.00  0.00    -0.206 F 
ATOM     52  C   UNL A   1      41.115  21.296  26.208  1.00  0.00     0.006 A 
ENDBRANCH  24  45
BRANCH  36  53
ATOM     53  C   UNL A   1      45.553  28.842  28.421  1.00  0.00     0.057 A 
ATOM     54  C   UNL A   1      46.789  29.014  27.789  1.00  0.00     0.134 A 
ATOM     55  C   UNL A   1      44.536  29.745  28.077  1.00  0.00     0.134 A 
ATOM     56  F   UNL A   1      47.832  28.237  28.121  1.00  0.00    -0.206 F 
ATOM     57  C   UNL A   1      47.001  30.029  26.852  1.00  0.00     0.040 A 
ATOM     58  C   UNL A   1      44.724  30.743  27.117  1.00  0.00     0.040 A 
ATOM     59  F   UNL A   1      43.360  29.733  28.714  1.00  0.00    -0.206 F 
ATOM     60  C   UNL A   1      45.964  30.893  26.506  1.00  0.00     0.006 A 
ENDBRANCH  36  53
ENDBRANCH  10  11
ENDBRANCH   3   5
ENDBRANCH   2   3
ENDBRANCH   1   2
BRANCH   1  61
ATOM     61  C   UNL A   1      33.976  34.580  31.938  1.00  0.00     0.275 C 
BRANCH  61  62
ATOM     62  O   UNL A   1      35.074  35.308  32.527  1.00  0.00    -0.457 OA
BRANCH  62  63
ATOM     63  C   UNL A   1      35.721  34.661  33.527  1.00  0.00     0.357 C 
ATOM     64  O   UNL A   1      35.279  34.373  34.631  1.00  0.00    -0.244 OA
BRANCH  63  65
ATOM     65  C   UNL A   1      37.142  34.465  33.167  1.00  0.00     0.149 A 
ATOM     66  C   UNL A   1      37.836  33.522  33.882  1.00  0.00     0.041 A 
ATOM     67  N   UNL A   1      37.546  34.910  31.965  1.00  0.00    -0.241 NA
ATOM     68  C   UNL A   1      38.998  32.957  33.310  1.00  0.00    -0.021 A 
ATOM     69  C   UNL A   1      38.720  34.488  31.482  1.00  0.00     0.072 A 
ATOM     70  C   UNL A   1      39.585  33.554  32.123  1.00  0.00     0.012 A 
ATOM     71  C   UNL A   1      39.014  34.968  30.223  1.00  0.00     0.029 A 
ATOM     72  C   UNL A   1      40.868  33.283  31.456  1.00  0.00    -0.009 A 
ATOM     73  C   UNL A   1      40.195  34.655  29.565  1.00  0.00     0.011 A 
ATOM     74  C   UNL A   1      41.137  33.841  30.175  1.00  0.00    -0.018 A 
ATOM     75  C   UNL A   1      41.936  32.531  31.996  1.00  0.00     0.009 A 
ATOM     76  C   UNL A   1      42.344  33.602  29.496  1.00  0.00     0.009 A 
ATOM     77  C   UNL A   1      43.132  32.276  31.312  1.00  0.00     0.001 A 
ATOM     78  C   UNL A   1      43.335  32.809  30.055  1.00  0.00     0.001 A 
BRANCH  68  79
ATOM     79  C   UNL A   1      39.233  31.546  33.829  1.00  0.00     0.115 C 
ATOM     80  C   UNL A   1      38.062  30.690  34.117  1.00  0.00     0.123 C 
ATOM     81  C   UNL A   1      39.986  31.342  35.111  1.00  0.00     0.083 C 
ATOM     82  N   UNL A   1      38.154  30.079  35.254  1.00  0.00    -0.162 NA
ATOM     83  N   UNL A   1      39.376  30.490  35.887  1.00  0.00    -0.154 NA
BRANCH  81  84
ATOM     84  C   UNL A   1      41.350  31.873  35.387  1.00  0.00    -0.001 A 
ATOM     85  C   UNL A   1      42.430  30.984  35.311  1.00  0.00     0.013 A 
ATOM     86  C   UNL A   1      41.613  33.215  35.686  1.00  0.00     0.013 A 
ATOM     87  C   UNL A   1      43.738  31.436  35.523  1.00  0.00     0.040 A 
ATOM     88  C   UNL A   1      42.915  33.665  35.920  1.00  0.00     0.040 A 
ATOM     89  C   UNL A   1      43.968  32.773  35.831  1.00  0.00     0.123 A 
ATOM     90  F   UNL A   1      45.218  33.204  36.043  1.00  0.00    -0.207 F 
ENDBRANCH  81  84
ENDBRANCH  68  79
ENDBRANCH  63  65
ENDBRANCH  62  63
ENDBRANCH  61  62
ENDBRANCH   1  61
TORSDOF 13
ENDMDL
MODEL 2
REMARK VINA RESULT:     -10.0      5.659     10.929
REMARK SMILES O=C(OCCOC(=O)c1cc([C@@H]2C=NN=C2c2ccc(F)cc2)c2c(ccc3ccccc32)n1)c1ccc(-c2c3nc(c(-c4c(F)cccc4F)c4ccc([nH]4)c(-c4c(F)cccc4F)c4nc(c(-c5c(F)cccc5F)c5ccc2[nH]5)C=C4)C=C3)cc1
REMARK SMILES IDX 4 1 3 2 2 3 1 4 35 5 36 6 88 7 37 8 87 9 38 10 39 11 40 12
REMARK SMILES IDX 81 13 41 14 86 15 80 16 82 17 42 18 85 19 79 20 78 21 43 23
REMARK SMILES IDX 69 24 52 25 68 26 53 27 56 28 67 29 83 30 54 31 55 32 66 34
REMARK SMILES IDX 84 35 57 36 44 37 45 38 50 39 46 40 47 41 49 42 51 43 48 44
REMARK SMILES IDX 70 45 71 46 76 47 72 48 73 49 75 50 77 51 74 52 58 53 59 54
REMARK SMILES IDX 64 55 60 56 61 57 63 58 65 59 62 60 5 61 6 62 7 63 8 64 9 65
REMARK SMILES IDX 10 66 34 67 11 68 25 69 24 70 26 71 33 72 27 73 28 74 32 75
REMARK SMILES IDX 29 76 31 77 30 78 12 79 13 80 16 81 14 82 15 83 17 84 18 85
REMARK SMILES IDX 23 86 19 87 22 88 20 89 21 90
REMARK H PARENT 82 22 56 33
REMARK Flexibility Score: inf
ROOT
ATOM      1  C   UNL A   1      38.119  21.305  25.332  1.00  0.00     0.275 C 
ENDROOT
BRANCH   1   2
ATOM      2  O   UNL A   1      38.487  22.456  26.119  1.00  0.00    -0.458 OA
BRANCH   2   3
ATOM      3  C   UNL A   1      39.666  22.439  26.776  1.00  0.00     0.338 C 
ATOM      4  O   UNL A   1      40.379  21.452  26.884  1.00  0.00    -0.246 OA
BRANCH   3   5
ATOM      5  C   UNL A   1      40.042  23.799  27.236  1.00  0.00     0.060 A 
ATOM      6  C   UNL A   1      41.154  24.016  28.063  1.00  0.00     0.016 A 
ATOM      7  C   UNL A   1      39.269  24.883  26.810  1.00  0.00     0.016 A 
ATOM      8  C   UNL A   1      41.453  25.294  28.519  1.00  0.00     0.010 A 
ATOM      9  C   UNL A   1      39.571  26.162  27.264  1.00  0.00     0.010 A 
ATOM     10  C   UNL A   1      40.632  26.360  28.160  1.00  0.00    -0.014 A 
BRANCH  10  11
ATOM     11  C   UNL A   1      40.858  27.652  28.814  1.00  0.00     0.031 A 
ATOM     12  C   UNL A   1      42.092  28.440  28.488  1.00  0.00     0.074 A 
ATOM     13  C   UNL A   1      39.901  28.206  29.583  1.00  0.00     0.049 A 
ATOM     14  N   UNL A   1      42.961  28.996  29.277  1.00  0.00    -0.248 NA
ATOM     15  C   UNL A   1      42.375  28.662  27.070  1.00  0.00     0.031 C 
ATOM     16  C   UNL A   1      38.524  27.745  29.795  1.00  0.00     0.029 A 
ATOM     17  N   UNL A   1      39.941  29.386  30.258  1.00  0.00    -0.354 N 
ATOM     18  C   UNL A   1      43.805  29.759  28.459  1.00  0.00     0.074 A 
ATOM     19  C   UNL A   1      43.428  29.475  27.100  1.00  0.00     0.031 C 
ATOM     20  C   UNL A   1      37.805  28.741  30.354  1.00  0.00     0.029 A 
ATOM     21  C   UNL A   1      38.702  29.838  30.671  1.00  0.00     0.049 A 
ATOM     22  H   UNL A   1      40.777  29.875  30.435  1.00  0.00     0.167 HD
ATOM     23  C   UNL A   1      44.684  30.685  28.933  1.00  0.00     0.037 A 
ATOM     24  C   UNL A   1      38.418  31.057  31.175  1.00  0.00     0.037 A 
ATOM     25  C   UNL A   1      45.002  30.485  30.314  1.00  0.00     0.049 A 
ATOM     26  C   UNL A   1      39.678  31.648  31.680  1.00  0.00     0.074 A 
ATOM     27  C   UNL A   1      45.596  29.473  31.042  1.00  0.00     0.029 A 
ATOM     28  N   UNL A   1      44.446  31.321  31.248  1.00  0.00    -0.354 N 
ATOM     29  N   UNL A   1      40.355  31.188  32.696  1.00  0.00    -0.248 NA
ATOM     30  C   UNL A   1      40.403  32.560  30.810  1.00  0.00     0.031 C 
ATOM     31  C   UNL A   1      44.926  29.482  32.300  1.00  0.00     0.029 A 
ATOM     32  C   UNL A   1      43.979  30.507  32.247  1.00  0.00     0.049 A 
ATOM     33  H   UNL A   1      44.393  32.303  31.210  1.00  0.00     0.167 HD
ATOM     34  C   UNL A   1      41.683  31.440  32.389  1.00  0.00     0.074 A 
ATOM     35  C   UNL A   1      41.641  32.386  31.279  1.00  0.00     0.031 C 
ATOM     36  C   UNL A   1      42.692  30.664  32.883  1.00  0.00     0.037 A 
BRANCH  23  37
ATOM     37  C   UNL A   1      45.092  31.927  28.186  1.00  0.00     0.057 A 
ATOM     38  C   UNL A   1      46.224  31.980  27.348  1.00  0.00     0.134 A 
ATOM     39  C   UNL A   1      44.211  33.018  28.077  1.00  0.00     0.134 A 
ATOM     40  F   UNL A   1      47.085  30.957  27.264  1.00  0.00    -0.206 F 
ATOM     41  C   UNL A   1      46.476  33.050  26.484  1.00  0.00     0.040 A 
ATOM     42  C   UNL A   1      44.430  34.073  27.181  1.00  0.00     0.040 A 
ATOM     43  F   UNL A   1      43.078  33.061  28.793  1.00  0.00    -0.206 F 
ATOM     44  C   UNL A   1      45.565  34.092  26.381  1.00  0.00     0.006 A 
ENDBRANCH  23  37
BRANCH  24  45
ATOM     45  C   UNL A   1      37.181  31.834  30.958  1.00  0.00     0.057 A 
ATOM     46  C   UNL A   1      36.157  31.869  31.923  1.00  0.00     0.134 A 
ATOM     47  C   UNL A   1      36.868  32.369  29.704  1.00  0.00     0.134 A 
ATOM     48  F   UNL A   1      36.316  31.301  33.127  1.00  0.00    -0.206 F 
ATOM     49  C   UNL A   1      34.898  32.416  31.660  1.00  0.00     0.040 A 
ATOM     50  C   UNL A   1      35.607  32.909  29.423  1.00  0.00     0.040 A 
ATOM     51  F   UNL A   1      37.763  32.332  28.707  1.00  0.00    -0.206 F 
ATOM     52  C   UNL A   1      34.616  32.929  30.402  1.00  0.00     0.006 A 
ENDBRANCH  24  45
BRANCH  36  53
ATOM     53  C   UNL A   1      42.355  29.660  33.951  1.00  0.00     0.057 A 
ATOM     54  C   UNL A   1      42.649  29.949  35.287  1.00  0.00     0.134 A 
ATOM     55  C   UNL A   1      41.939  28.351  33.664  1.00  0.00     0.134 A 
ATOM     56  F   UNL A   1      43.125  31.157  35.629  1.00  0.00    -0.206 F 
ATOM     57  C   UNL A   1      42.526  28.986  36.293  1.00  0.00     0.040 A 
ATOM     58  C   UNL A   1      41.779  27.388  34.664  1.00  0.00     0.040 A 
ATOM     59  F   UNL A   1      41.750  27.949  32.402  1.00  0.00    -0.206 F 
ATOM     60  C   UNL A   1      42.082  27.702  35.984  1.00  0.00     0.006 A 
ENDBRANCH  36  53
ENDBRANCH  10  11
ENDBRANCH   3   5
ENDBRANCH   2   3
ENDBRANCH   1   2
BRANCH   1  61
ATOM     61  C   UNL A   1      36.681  21.226  24.817  1.00  0.00     0.275 C 
BRANCH  61  62
ATOM     62  O   UNL A   1      36.118  22.549  24.691  1.00  0.00    -0.457 OA
BRANCH  62  63
ATOM     63  C   UNL A   1      35.906  22.964  23.418  1.00  0.00     0.357 C 
ATOM     64  O   UNL A   1      36.717  22.989  22.502  1.00  0.00    -0.244 OA
BRANCH  63  65
ATOM     65  C   UNL A   1      34.556  23.553  23.296  1.00  0.00     0.149 A 
ATOM     66  C   UNL A   1      33.645  23.215  24.266  1.00  0.00     0.041 A 
ATOM     67  N   UNL A   1      34.417  24.636  22.514  1.00  0.00    -0.241 NA
ATOM     68  C   UNL A   1      32.541  24.068  24.486  1.00  0.00    -0.021 A 
ATOM     69  C   UNL A   1      33.302  25.369  22.617  1.00  0.00     0.072 A 
ATOM     70  C   UNL A   1      32.238  25.122  23.533  1.00  0.00     0.012 A 
ATOM     71  C   UNL A   1      33.285  26.483  21.804  1.00  0.00     0.029 A 
ATOM     72  C   UNL A   1      31.065  26.004  23.429  1.00  0.00    -0.009 A 
ATOM     73  C   UNL A   1      32.206  27.354  21.759  1.00  0.00     0.011 A 
ATOM     74  C   UNL A   1      31.086  27.115  22.540  1.00  0.00    -0.018 A 
ATOM     75  C   UNL A   1      29.841  25.834  24.115  1.00  0.00     0.009 A 
ATOM     76  C   UNL A   1      29.994  27.990  22.415  1.00  0.00     0.009 A 
ATOM     77  C   UNL A   1      28.758  26.716  24.005  1.00  0.00     0.001 A 
ATOM     78  C   UNL A   1      28.836  27.802  23.156  1.00  0.00     0.001 A 
BRANCH  68  79
ATOM     79  C   UNL A   1      32.059  23.980  25.925  1.00  0.00     0.115 C 
ATOM     80  C   UNL A   1      31.026  22.977  26.270  1.00  0.00     0.123 C 
ATOM     81  C   UNL A   1      31.436  25.181  26.576  1.00  0.00     0.083 C 
ATOM     82  N   UNL A   1      30.080  23.464  27.006  1.00  0.00    -0.162 NA
ATOM     83  N   UNL A   1      30.338  24.863  27.203  1.00  0.00    -0.154 NA
BRANCH  81  84
ATOM     84  C   UNL A   1      32.080  26.520  26.676  1.00  0.00    -0.001 A 
ATOM     85  C   UNL A   1      31.321  27.578  27.192  1.00  0.00     0.013 A 
ATOM     86  C   UNL A   1      33.409  26.770  26.313  1.00  0.00     0.013 A 
ATOM     87  C   UNL A   1      31.887  28.850  27.344  1.00  0.00     0.040 A 
ATOM     88  C   UNL A   1      33.970  28.043  26.444  1.00  0.00     0.040 A 
ATOM     89  C   UNL A   1      33.206  29.072  26.964  1.00  0.00     0.123 A 
ATOM     90  F   UNL A   1      33.745  30.289  27.101  1.00  0.00    -0.207 F 
ENDBRANCH  81  84
ENDBRANCH  68  79
ENDBRANCH  63  65
ENDBRANCH  62  63
ENDBRANCH  61  62
ENDBRANCH   1  61
TORSDOF 13
ENDMDL
MODEL 3
REMARK VINA RESULT:      -9.9      1.938      2.607
REMARK SMILES O=C(OCCOC(=O)c1cc([C@@H]2C=NN=C2c2ccc(F)cc2)c2c(ccc3ccccc32)n1)c1ccc(-c2c3nc(c(-c4c(F)cccc4F)c4ccc([nH]4)c(-c4c(F)cccc4F)c4nc(c(-c5c(F)cccc5F)c5ccc2[nH]5)C=C4)C=C3)cc1
REMARK SMILES IDX 4 1 3 2 2 3 1 4 35 5 36 6 88 7 37 8 87 9 38 10 39 11 40 12
REMARK SMILES IDX 81 13 41 14 86 15 80 16 82 17 42 18 85 19 79 20 78 21 43 23
REMARK SMILES IDX 69 24 52 25 68 26 53 27 56 28 67 29 83 30 54 31 55 32 66 34
REMARK SMILES IDX 84 35 57 36 44 37 45 38 50 39 46 40 47 41 49 42 51 43 48 44
REMARK SMILES IDX 70 45 71 46 76 47 72 48 73 49 75 50 77 51 74 52 58 53 59 54
REMARK SMILES IDX 64 55 60 56 61 57 63 58 65 59 62 60 5 61 6 62 7 63 8 64 9 65
REMARK SMILES IDX 10 66 34 67 11 68 25 69 24 70 26 71 33 72 27 73 28 74 32 75
REMARK SMILES IDX 29 76 31 77 30 78 12 79 13 80 16 81 14 82 15 83 17 84 18 85
REMARK SMILES IDX 23 86 19 87 22 88 20 89 21 90
REMARK H PARENT 82 22 56 33
REMARK Flexibility Score: inf
ROOT
ATOM      1  C   UNL A   1      33.709  33.567  28.456  1.00  0.00     0.275 C 
ENDROOT
BRANCH   1   2
ATOM      2  O   UNL A   1      34.755  32.886  27.733  1.00  0.00    -0.458 OA
BRANCH   2   3
ATOM      3  C   UNL A   1      34.697  31.542  27.627  1.00  0.00     0.338 C 
ATOM      4  O   UNL A   1      33.794  30.934  27.070  1.00  0.00    -0.246 OA
BRANCH   3   5
ATOM      5  C   UNL A   1      35.931  30.910  28.156  1.00  0.00     0.060 A 
ATOM      6  C   UNL A   1      36.953  31.668  28.746  1.00  0.00     0.016 A 
ATOM      7  C   UNL A   1      36.054  29.520  28.074  1.00  0.00     0.016 A 
ATOM      8  C   UNL A   1      38.119  31.055  29.186  1.00  0.00     0.010 A 
ATOM      9  C   UNL A   1      37.220  28.907  28.519  1.00  0.00     0.010 A 
ATOM     10  C   UNL A   1      38.274  29.680  29.027  1.00  0.00    -0.014 A 
BRANCH  10  11
ATOM     11  C   UNL A   1      39.586  29.098  29.320  1.00  0.00     0.031 A 
ATOM     12  C   UNL A   1      39.977  28.832  30.743  1.00  0.00     0.074 A 
ATOM     13  C   UNL A   1      40.377  28.660  28.322  1.00  0.00     0.049 A 
ATOM     14  N   UNL A   1      41.063  29.145  31.384  1.00  0.00    -0.248 NA
ATOM     15  C   UNL A   1      39.023  28.080  31.559  1.00  0.00     0.031 C 
ATOM     16  C   UNL A   1      40.067  28.559  26.891  1.00  0.00     0.029 A 
ATOM     17  N   UNL A   1      41.613  28.098  28.411  1.00  0.00    -0.354 N 
ATOM     18  C   UNL A   1      40.989  28.499  32.625  1.00  0.00     0.074 A 
ATOM     19  C   UNL A   1      39.684  27.897  32.698  1.00  0.00     0.031 C 
ATOM     20  C   UNL A   1      40.986  27.774  26.292  1.00  0.00     0.029 A 
ATOM     21  C   UNL A   1      42.018  27.449  27.260  1.00  0.00     0.049 A 
ATOM     22  H   UNL A   1      42.169  28.149  29.223  1.00  0.00     0.167 HD
ATOM     23  C   UNL A   1      42.043  28.375  33.478  1.00  0.00     0.037 A 
ATOM     24  C   UNL A   1      43.092  26.642  27.128  1.00  0.00     0.037 A 
ATOM     25  C   UNL A   1      43.073  29.337  33.224  1.00  0.00     0.049 A 
ATOM     26  C   UNL A   1      44.032  26.947  28.231  1.00  0.00     0.074 A 
ATOM     27  C   UNL A   1      43.147  30.715  33.249  1.00  0.00     0.029 A 
ATOM     28  N   UNL A   1      44.221  28.926  32.598  1.00  0.00    -0.354 N 
ATOM     29  N   UNL A   1      44.672  28.076  28.365  1.00  0.00    -0.248 NA
ATOM     30  C   UNL A   1      43.986  26.112  29.420  1.00  0.00     0.031 C 
ATOM     31  C   UNL A   1      44.051  31.054  32.200  1.00  0.00     0.029 A 
ATOM     32  C   UNL A   1      44.466  29.854  31.620  1.00  0.00     0.049 A 
ATOM     33  H   UNL A   1      44.759  28.129  32.808  1.00  0.00     0.167 HD
ATOM     34  C   UNL A   1      44.778  28.271  29.733  1.00  0.00     0.074 A 
ATOM     35  C   UNL A   1      44.444  26.980  30.325  1.00  0.00     0.031 C 
ATOM     36  C   UNL A   1      44.869  29.522  30.273  1.00  0.00     0.037 A 
BRANCH  23  37
ATOM     37  C   UNL A   1      42.241  27.218  34.421  1.00  0.00     0.057 A 
ATOM     38  C   UNL A   1      43.021  26.090  34.096  1.00  0.00     0.134 A 
ATOM     39  C   UNL A   1      41.877  27.328  35.775  1.00  0.00     0.134 A 
ATOM     40  F   UNL A   1      43.534  25.919  32.870  1.00  0.00    -0.206 F 
ATOM     41  C   UNL A   1      43.391  25.128  35.041  1.00  0.00     0.040 A 
ATOM     42  C   UNL A   1      42.281  26.395  36.739  1.00  0.00     0.040 A 
ATOM     43  F   UNL A   1      41.170  28.380  36.214  1.00  0.00    -0.206 F 
ATOM     44  C   UNL A   1      43.040  25.290  36.374  1.00  0.00     0.006 A 
ENDBRANCH  23  37
BRANCH  24  45
ATOM     45  C   UNL A   1      43.187  25.434  26.284  1.00  0.00     0.057 A 
ATOM     46  C   UNL A   1      42.444  24.274  26.577  1.00  0.00     0.134 A 
ATOM     47  C   UNL A   1      44.181  25.303  25.309  1.00  0.00     0.134 A 
ATOM     48  F   UNL A   1      41.531  24.262  27.559  1.00  0.00    -0.206 F 
ATOM     49  C   UNL A   1      42.670  23.057  25.929  1.00  0.00     0.040 A 
ATOM     50  C   UNL A   1      44.426  24.086  24.661  1.00  0.00     0.040 A 
ATOM     51  F   UNL A   1      44.973  26.340  25.002  1.00  0.00    -0.206 F 
ATOM     52  C   UNL A   1      43.672  22.957  24.974  1.00  0.00     0.006 A 
ENDBRANCH  24  45
BRANCH  36  53
ATOM     53  C   UNL A   1      45.077  30.683  29.340  1.00  0.00     0.057 A 
ATOM     54  C   UNL A   1      43.969  31.316  28.769  1.00  0.00     0.134 A 
ATOM     55  C   UNL A   1      46.338  31.048  28.845  1.00  0.00     0.134 A 
ATOM     56  F   UNL A   1      42.726  30.966  29.137  1.00  0.00    -0.206 F 
ATOM     57  C   UNL A   1      44.107  32.275  27.761  1.00  0.00     0.040 A 
ATOM     58  C   UNL A   1      46.493  32.029  27.862  1.00  0.00     0.040 A 
ATOM     59  F   UNL A   1      47.446  30.412  29.245  1.00  0.00    -0.206 F 
ATOM     60  C   UNL A   1      45.373  32.640  27.310  1.00  0.00     0.006 A 
ENDBRANCH  36  53
ENDBRANCH  10  11
ENDBRANCH   3   5
ENDBRANCH   2   3
ENDBRANCH   1   2
BRANCH   1  61
ATOM     61  C   UNL A   1      34.039  34.100  29.851  1.00  0.00     0.275 C 
BRANCH  61  62
ATOM     62  O   UNL A   1      34.524  33.035  30.695  1.00  0.00    -0.457 OA
BRANCH  62  63
ATOM     63  C   UNL A   1      34.832  33.402  31.964  1.00  0.00     0.357 C 
ATOM     64  O   UNL A   1      34.066  33.505  32.911  1.00  0.00    -0.244 OA
BRANCH  63  65
ATOM     65  C   UNL A   1      36.246  33.827  32.038  1.00  0.00     0.149 A 
ATOM     66  C   UNL A   1      36.938  33.475  33.170  1.00  0.00     0.041 A 
ATOM     67  N   UNL A   1      36.855  34.168  30.890  1.00  0.00    -0.241 NA
ATOM     68  C   UNL A   1      38.349  33.420  33.112  1.00  0.00    -0.021 A 
ATOM     69  C   UNL A   1      38.190  34.259  30.869  1.00  0.00     0.072 A 
ATOM     70  C   UNL A   1      39.050  33.981  31.970  1.00  0.00     0.012 A 
ATOM     71  C   UNL A   1      38.711  34.569  29.630  1.00  0.00     0.029 A 
ATOM     72  C   UNL A   1      40.486  34.218  31.757  1.00  0.00    -0.009 A 
ATOM     73  C   UNL A   1      40.073  34.723  29.414  1.00  0.00     0.011 A 
ATOM     74  C   UNL A   1      40.965  34.579  30.466  1.00  0.00    -0.018 A 
ATOM     75  C   UNL A   1      41.487  34.171  32.753  1.00  0.00     0.009 A 
ATOM     76  C   UNL A   1      42.328  34.805  30.213  1.00  0.00     0.009 A 
ATOM     77  C   UNL A   1      42.850  34.379  32.499  1.00  0.00     0.001 A 
ATOM     78  C   UNL A   1      43.273  34.692  31.222  1.00  0.00     0.001 A 
BRANCH  68  79
ATOM     79  C   UNL A   1      38.899  32.412  34.110  1.00  0.00     0.115 C 
ATOM     80  C   UNL A   1      38.483  30.997  33.995  1.00  0.00     0.123 C 
ATOM     81  C   UNL A   1      38.646  32.605  35.576  1.00  0.00     0.083 C 
ATOM     82  N   UNL A   1      38.148  30.478  35.131  1.00  0.00    -0.162 NA
ATOM     83  N   UNL A   1      38.251  31.497  36.138  1.00  0.00    -0.154 NA
BRANCH  81  84
ATOM     84  C   UNL A   1      38.993  33.835  36.342  1.00  0.00    -0.001 A 
ATOM     85  C   UNL A   1      38.701  33.861  37.712  1.00  0.00     0.013 A 
ATOM     86  C   UNL A   1      39.621  34.950  35.775  1.00  0.00     0.013 A 
ATOM     87  C   UNL A   1      39.039  34.976  38.489  1.00  0.00     0.040 A 
ATOM     88  C   UNL A   1      39.941  36.072  36.542  1.00  0.00     0.040 A 
ATOM     89  C   UNL A   1      39.652  36.074  37.895  1.00  0.00     0.123 A 
ATOM     90  F   UNL A   1      39.967  37.144  38.635  1.00  0.00    -0.207 F 
ENDBRANCH  81  84
ENDBRANCH  68  79
ENDBRANCH  63  65
ENDBRANCH  62  63
ENDBRANCH  61  62
ENDBRANCH   1  61
TORSDOF 13
ENDMDL
