MODEL 1
REMARK VINA RESULT:     -11.1      0.000      0.000
REMARK SMILES O=C(C[NH+]1CC(c2nc(-c3cccs3)no2)C1)OCCOC(=O)c1ccc(-c2c3nc(c(-c4c(F)cccc4F)c4ccc([nH]4)c(-c4c(F)cccc4F)c4nc(c(-c5c(F)cccc5F)c5ccc2[nH]5)C=C4)C=C3)cc1
REMARK SMILES IDX 19 1 18 2 2 3 1 4 3 5 4 6 5 7 17 8 6 10 7 11 8 12 16 13 9 14
REMARK SMILES IDX 15 15 10 16 11 17 14 18 12 19 13 20 20 21 21 22 22 23 23 24
REMARK SMILES IDX 24 25 25 26 77 27 26 28 76 29 27 30 28 31 29 32 70 33 30 34
REMARK SMILES IDX 75 35 69 36 71 37 31 38 74 39 68 40 67 41 32 43 58 44 41 45
REMARK SMILES IDX 57 46 42 47 45 48 56 49 72 50 43 51 44 52 55 54 73 55 46 56
REMARK SMILES IDX 33 57 34 58 39 59 35 60 36 61 38 62 40 63 37 64 59 65 60 66
REMARK SMILES IDX 65 67 61 68 62 69 64 70 66 71 63 72 47 73 48 74 53 75 49 76
REMARK SMILES IDX 50 77 52 78 54 79 51 80
REMARK H PARENT 4 9 71 42 45 53
REMARK Flexibility Score: inf
ROOT
ATOM      1  C   UNL A   1      43.215  20.902  25.673  1.00  0.00     0.274 C 
ENDROOT
BRANCH   1   2
ATOM      2  O   UNL A   1      41.848  21.369  25.626  1.00  0.00    -0.458 OA
BRANCH   2   3
ATOM      3  C   UNL A   1      40.887  21.102  26.547  1.00  0.00     0.361 C 
ATOM      4  O   UNL A   1      40.850  20.000  27.093  1.00  0.00    -0.245 OA
BRANCH   3   5
ATOM      5  C   UNL A   1      39.855  22.175  26.869  1.00  0.00     0.386 C 
BRANCH   5   6
ATOM      6  N   UNL A   1      39.088  22.753  25.755  1.00  0.00    -0.324 N 
ATOM      7  C   UNL A   1      37.876  21.976  25.393  1.00  0.00     0.282 C 
ATOM      8  C   UNL A   1      38.215  23.883  26.127  1.00  0.00     0.282 C 
ATOM      9  H   UNL A   1      39.854  22.882  25.094  1.00  0.00     0.348 HD
ATOM     10  C   UNL A   1      37.195  23.334  25.091  1.00  0.00     0.188 C 
BRANCH  10  11
ATOM     11  C   UNL A   1      35.784  23.543  25.577  1.00  0.00     0.241 A 
ATOM     12  N   UNL A   1      35.025  24.518  25.130  1.00  0.00    -0.190 NA
ATOM     13  O   UNL A   1      35.215  22.855  26.610  1.00  0.00    -0.338 OA
ATOM     14  C   UNL A   1      33.953  24.478  25.992  1.00  0.00     0.212 A 
ATOM     15  N   UNL A   1      33.988  23.462  26.866  1.00  0.00    -0.056 NA
BRANCH  14  16
ATOM     16  C   UNL A   1      32.912  25.547  25.998  1.00  0.00     0.075 A 
ATOM     17  C   UNL A   1      31.571  25.300  25.780  1.00  0.00     0.024 A 
ATOM     18  S   UNL A   1      33.230  27.210  26.209  1.00  0.00    -0.140 S 
ATOM     19  C   UNL A   1      30.802  26.500  25.757  1.00  0.00     0.012 A 
ATOM     20  C   UNL A   1      31.584  27.614  25.974  1.00  0.00     0.065 A 
ENDBRANCH  14  16
ENDBRANCH  10  11
ENDBRANCH   5   6
ENDBRANCH   3   5
ENDBRANCH   2   3
ENDBRANCH   1   2
BRANCH   1  21
ATOM     21  C   UNL A   1      44.190  21.932  25.103  1.00  0.00     0.275 C 
BRANCH  21  22
ATOM     22  O   UNL A   1      43.519  23.189  24.916  1.00  0.00    -0.458 OA
BRANCH  22  23
ATOM     23  C   UNL A   1      44.261  24.290  25.190  1.00  0.00     0.338 C 
ATOM     24  O   UNL A   1      45.276  24.646  24.618  1.00  0.00    -0.246 OA
BRANCH  23  25
ATOM     25  C   UNL A   1      43.543  25.125  26.179  1.00  0.00     0.060 A 
ATOM     26  C   UNL A   1      43.870  26.484  26.244  1.00  0.00     0.016 A 
ATOM     27  C   UNL A   1      42.544  24.602  27.007  1.00  0.00     0.016 A 
ATOM     28  C   UNL A   1      43.228  27.317  27.160  1.00  0.00     0.010 A 
ATOM     29  C   UNL A   1      41.901  25.437  27.926  1.00  0.00     0.010 A 
ATOM     30  C   UNL A   1      42.261  26.791  28.027  1.00  0.00    -0.014 A 
BRANCH  30  31
ATOM     31  C   UNL A   1      41.742  27.615  29.144  1.00  0.00     0.031 A 
ATOM     32  C   UNL A   1      42.433  27.539  30.476  1.00  0.00     0.074 A 
ATOM     33  C   UNL A   1      40.684  28.428  28.978  1.00  0.00     0.049 A 
ATOM     34  N   UNL A   1      42.157  28.162  31.593  1.00  0.00    -0.248 NA
ATOM     35  C   UNL A   1      43.593  26.636  30.561  1.00  0.00     0.031 C 
ATOM     36  C   UNL A   1      39.939  28.609  27.735  1.00  0.00     0.029 A 
ATOM     37  N   UNL A   1      40.050  29.251  29.877  1.00  0.00    -0.354 N 
ATOM     38  C   UNL A   1      43.111  27.736  32.508  1.00  0.00     0.074 A 
ATOM     39  C   UNL A   1      43.948  26.769  31.830  1.00  0.00     0.031 C 
ATOM     40  C   UNL A   1      38.943  29.487  27.950  1.00  0.00     0.029 A 
ATOM     41  C   UNL A   1      38.969  29.913  29.349  1.00  0.00     0.049 A 
ATOM     42  H   UNL A   1      40.344  29.357  30.811  1.00  0.00     0.167 HD
ATOM     43  C   UNL A   1      43.287  28.127  33.791  1.00  0.00     0.037 A 
ATOM     44  C   UNL A   1      38.098  30.757  29.933  1.00  0.00     0.037 A 
ATOM     45  C   UNL A   1      42.452  29.077  34.474  1.00  0.00     0.049 A 
ATOM     46  C   UNL A   1      38.266  31.113  31.388  1.00  0.00     0.074 A 
ATOM     47  C   UNL A   1      42.560  29.542  35.773  1.00  0.00     0.029 A 
ATOM     48  N   UNL A   1      41.347  29.698  33.916  1.00  0.00    -0.354 N 
ATOM     49  N   UNL A   1      39.197  30.737  32.231  1.00  0.00    -0.248 NA
ATOM     50  C   UNL A   1      37.262  32.017  31.970  1.00  0.00     0.031 C 
ATOM     51  C   UNL A   1      41.494  30.415  36.014  1.00  0.00     0.029 A 
ATOM     52  C   UNL A   1      40.749  30.526  34.851  1.00  0.00     0.049 A 
ATOM     53  H   UNL A   1      41.034  29.572  32.991  1.00  0.00     0.167 HD
ATOM     54  C   UNL A   1      38.910  31.382  33.429  1.00  0.00     0.074 A 
ATOM     55  C   UNL A   1      37.723  32.178  33.202  1.00  0.00     0.031 C 
ATOM     56  C   UNL A   1      39.574  31.324  34.609  1.00  0.00     0.037 A 
BRANCH  43  57
ATOM     57  C   UNL A   1      44.428  27.509  34.542  1.00  0.00     0.057 A 
ATOM     58  C   UNL A   1      44.277  26.312  35.253  1.00  0.00     0.134 A 
ATOM     59  C   UNL A   1      45.694  28.107  34.539  1.00  0.00     0.134 A 
ATOM     60  F   UNL A   1      43.084  25.700  35.309  1.00  0.00    -0.206 F 
ATOM     61  C   UNL A   1      45.341  25.740  35.952  1.00  0.00     0.040 A 
ATOM     62  C   UNL A   1      46.772  27.533  35.214  1.00  0.00     0.040 A 
ATOM     63  F   UNL A   1      45.905  29.253  33.875  1.00  0.00    -0.206 F 
ATOM     64  C   UNL A   1      46.595  26.349  35.928  1.00  0.00     0.006 A 
ENDBRANCH  43  57
BRANCH  44  65
ATOM     65  C   UNL A   1      36.978  31.336  29.149  1.00  0.00     0.057 A 
ATOM     66  C   UNL A   1      37.019  32.663  28.703  1.00  0.00     0.134 A 
ATOM     67  C   UNL A   1      35.829  30.592  28.861  1.00  0.00     0.134 A 
ATOM     68  F   UNL A   1      38.083  33.432  28.973  1.00  0.00    -0.206 F 
ATOM     69  C   UNL A   1      35.948  33.235  28.016  1.00  0.00     0.040 A 
ATOM     70  C   UNL A   1      34.759  31.145  28.155  1.00  0.00     0.040 A 
ATOM     71  F   UNL A   1      35.729  29.316  29.264  1.00  0.00    -0.206 F 
ATOM     72  C   UNL A   1      34.814  32.473  27.737  1.00  0.00     0.006 A 
ENDBRANCH  44  65
BRANCH  56  73
ATOM     73  C   UNL A   1      39.059  32.169  35.738  1.00  0.00     0.057 A 
ATOM     74  C   UNL A   1      38.208  31.652  36.721  1.00  0.00     0.134 A 
ATOM     75  C   UNL A   1      39.464  33.504  35.869  1.00  0.00     0.134 A 
ATOM     76  F   UNL A   1      37.776  30.384  36.648  1.00  0.00    -0.206 F 
ATOM     77  C   UNL A   1      37.763  32.438  37.786  1.00  0.00     0.040 A 
ATOM     78  C   UNL A   1      39.045  34.293  36.940  1.00  0.00     0.040 A 
ATOM     79  F   UNL A   1      40.287  34.058  34.965  1.00  0.00    -0.206 F 
ATOM     80  C   UNL A   1      38.188  33.760  37.902  1.00  0.00     0.006 A 
ENDBRANCH  56  73
ENDBRANCH  30  31
ENDBRANCH  23  25
ENDBRANCH  22  23
ENDBRANCH  21  22
ENDBRANCH   1  21
TORSDOF 14
ENDMDL
MODEL 2
REMARK VINA RESULT:     -11.0      2.171      3.448
REMARK SMILES O=C(C[NH+]1CC(c2nc(-c3cccs3)no2)C1)OCCOC(=O)c1ccc(-c2c3nc(c(-c4c(F)cccc4F)c4ccc([nH]4)c(-c4c(F)cccc4F)c4nc(c(-c5c(F)cccc5F)c5ccc2[nH]5)C=C4)C=C3)cc1
REMARK SMILES IDX 19 1 18 2 2 3 1 4 3 5 4 6 5 7 17 8 6 10 7 11 8 12 16 13 9 14
REMARK SMILES IDX 15 15 10 16 11 17 14 18 12 19 13 20 20 21 21 22 22 23 23 24
REMARK SMILES IDX 24 25 25 26 77 27 26 28 76 29 27 30 28 31 29 32 70 33 30 34
REMARK SMILES IDX 75 35 69 36 71 37 31 38 74 39 68 40 67 41 32 43 58 44 41 45
REMARK SMILES IDX 57 46 42 47 45 48 56 49 72 50 43 51 44 52 55 54 73 55 46 56
REMARK SMILES IDX 33 57 34 58 39 59 35 60 36 61 38 62 40 63 37 64 59 65 60 66
REMARK SMILES IDX 65 67 61 68 62 69 64 70 66 71 63 72 47 73 48 74 53 75 49 76
REMARK SMILES IDX 50 77 52 78 54 79 51 80
REMARK H PARENT 4 9 71 42 45 53
REMARK Flexibility Score: inf
ROOT
ATOM      1  C   UNL A   1      46.040  21.761  24.625  1.00  0.00     0.274 C 
ENDROOT
BRANCH   1   2
ATOM      2  O   UNL A   1      46.706  20.489  24.794  1.00  0.00    -0.458 OA
BRANCH   2   3
ATOM      3  C   UNL A   1      46.160  19.271  24.550  1.00  0.00     0.361 C 
ATOM      4  O   UNL A   1      46.125  18.832  23.401  1.00  0.00    -0.245 OA
BRANCH   3   5
ATOM      5  C   UNL A   1      45.580  18.476  25.714  1.00  0.00     0.386 C 
BRANCH   5   6
ATOM      6  N   UNL A   1      44.164  18.085  25.644  1.00  0.00    -0.324 N 
ATOM      7  C   UNL A   1      43.437  18.228  26.931  1.00  0.00     0.282 C 
ATOM      8  C   UNL A   1      43.269  19.105  25.062  1.00  0.00     0.282 C 
ATOM      9  H   UNL A   1      44.279  17.176  25.196  1.00  0.00     0.348 HD
ATOM     10  C   UNL A   1      42.202  18.645  26.095  1.00  0.00     0.188 C 
BRANCH  10  11
ATOM     11  C   UNL A   1      41.388  19.820  26.571  1.00  0.00     0.241 A 
ATOM     12  N   UNL A   1      40.214  20.114  26.059  1.00  0.00    -0.190 NA
ATOM     13  O   UNL A   1      41.836  20.762  27.451  1.00  0.00    -0.338 OA
ATOM     14  C   UNL A   1      39.956  21.352  26.600  1.00  0.00     0.212 A 
ATOM     15  N   UNL A   1      40.871  21.765  27.487  1.00  0.00    -0.056 NA
BRANCH  14  16
ATOM     16  C   UNL A   1      38.806  22.184  26.140  1.00  0.00     0.075 A 
ATOM     17  C   UNL A   1      38.614  23.494  26.531  1.00  0.00     0.024 A 
ATOM     18  S   UNL A   1      37.547  21.628  25.131  1.00  0.00    -0.140 S 
ATOM     19  C   UNL A   1      37.399  24.035  26.016  1.00  0.00     0.012 A 
ATOM     20  C   UNL A   1      36.720  23.121  25.240  1.00  0.00     0.065 A 
ENDBRANCH  14  16
ENDBRANCH  10  11
ENDBRANCH   5   6
ENDBRANCH   3   5
ENDBRANCH   2   3
ENDBRANCH   1   2
BRANCH   1  21
ATOM     21  C   UNL A   1      45.257  22.166  25.874  1.00  0.00     0.275 C 
BRANCH  21  22
ATOM     22  O   UNL A   1      44.234  23.112  25.524  1.00  0.00    -0.458 OA
BRANCH  22  23
ATOM     23  C   UNL A   1      44.644  24.401  25.425  1.00  0.00     0.338 C 
ATOM     24  O   UNL A   1      45.381  24.868  24.576  1.00  0.00    -0.246 OA
BRANCH  23  25
ATOM     25  C   UNL A   1      43.897  25.223  26.403  1.00  0.00     0.060 A 
ATOM     26  C   UNL A   1      44.201  26.588  26.473  1.00  0.00     0.016 A 
ATOM     27  C   UNL A   1      42.895  24.683  27.217  1.00  0.00     0.016 A 
ATOM     28  C   UNL A   1      43.531  27.409  27.380  1.00  0.00     0.010 A 
ATOM     29  C   UNL A   1      42.224  25.507  28.126  1.00  0.00     0.010 A 
ATOM     30  C   UNL A   1      42.560  26.867  28.233  1.00  0.00    -0.014 A 
BRANCH  30  31
ATOM     31  C   UNL A   1      42.011  27.681  29.342  1.00  0.00     0.031 A 
ATOM     32  C   UNL A   1      42.686  27.619  30.684  1.00  0.00     0.074 A 
ATOM     33  C   UNL A   1      40.940  28.474  29.162  1.00  0.00     0.049 A 
ATOM     34  N   UNL A   1      42.383  28.237  31.796  1.00  0.00    -0.248 NA
ATOM     35  C   UNL A   1      43.861  26.738  30.784  1.00  0.00     0.031 C 
ATOM     36  C   UNL A   1      40.208  28.640  27.909  1.00  0.00     0.029 A 
ATOM     37  N   UNL A   1      40.279  29.285  30.051  1.00  0.00    -0.354 N 
ATOM     38  C   UNL A   1      43.332  27.830  32.723  1.00  0.00     0.074 A 
ATOM     39  C   UNL A   1      44.197  26.879  32.057  1.00  0.00     0.031 C 
ATOM     40  C   UNL A   1      39.193  29.500  28.109  1.00  0.00     0.029 A 
ATOM     41  C   UNL A   1      39.193  29.927  29.509  1.00  0.00     0.049 A 
ATOM     42  H   UNL A   1      40.558  29.397  30.989  1.00  0.00     0.167 HD
ATOM     43  C   UNL A   1      43.485  28.224  34.009  1.00  0.00     0.037 A 
ATOM     44  C   UNL A   1      38.298  30.755  30.081  1.00  0.00     0.037 A 
ATOM     45  C   UNL A   1      42.623  29.159  34.680  1.00  0.00     0.049 A 
ATOM     46  C   UNL A   1      38.440  31.114  31.538  1.00  0.00     0.074 A 
ATOM     47  C   UNL A   1      42.705  29.627  35.980  1.00  0.00     0.029 A 
ATOM     48  N   UNL A   1      41.514  29.759  34.107  1.00  0.00    -0.354 N 
ATOM     49  N   UNL A   1      39.367  30.757  32.393  1.00  0.00    -0.248 NA
ATOM     50  C   UNL A   1      37.411  32.000  32.105  1.00  0.00     0.031 C 
ATOM     51  C   UNL A   1      41.619  30.479  36.206  1.00  0.00     0.029 A 
ATOM     52  C   UNL A   1      40.888  30.576  35.033  1.00  0.00     0.049 A 
ATOM     53  H   UNL A   1      41.216  29.626  33.178  1.00  0.00     0.167 HD
ATOM     54  C   UNL A   1      39.052  31.397  33.587  1.00  0.00     0.074 A 
ATOM     55  C   UNL A   1      37.853  32.170  33.343  1.00  0.00     0.031 C 
ATOM     56  C   UNL A   1      39.702  31.351  34.775  1.00  0.00     0.037 A 
BRANCH  43  57
ATOM     57  C   UNL A   1      44.627  27.629  34.775  1.00  0.00     0.057 A 
ATOM     58  C   UNL A   1      44.495  26.418  35.468  1.00  0.00     0.134 A 
ATOM     59  C   UNL A   1      45.876  28.261  34.805  1.00  0.00     0.134 A 
ATOM     60  F   UNL A   1      43.319  25.774  35.492  1.00  0.00    -0.206 F 
ATOM     61  C   UNL A   1      45.560  25.867  36.182  1.00  0.00     0.040 A 
ATOM     62  C   UNL A   1      46.955  27.708  35.496  1.00  0.00     0.040 A 
ATOM     63  F   UNL A   1      46.068  29.421  34.161  1.00  0.00    -0.206 F 
ATOM     64  C   UNL A   1      46.797  26.510  36.191  1.00  0.00     0.006 A 
ENDBRANCH  43  57
BRANCH  44  65
ATOM     65  C   UNL A   1      37.179  31.312  29.281  1.00  0.00     0.057 A 
ATOM     66  C   UNL A   1      37.228  32.619  28.782  1.00  0.00     0.134 A 
ATOM     67  C   UNL A   1      36.020  30.568  29.031  1.00  0.00     0.134 A 
ATOM     68  F   UNL A   1      38.301  33.389  29.013  1.00  0.00    -0.206 F 
ATOM     69  C   UNL A   1      36.158  33.173  28.079  1.00  0.00     0.040 A 
ATOM     70  C   UNL A   1      34.951  31.102  28.310  1.00  0.00     0.040 A 
ATOM     71  F   UNL A   1      35.911  29.310  29.485  1.00  0.00    -0.206 F 
ATOM     72  C   UNL A   1      35.015  32.412  27.839  1.00  0.00     0.006 A 
ENDBRANCH  44  65
BRANCH  56  73
ATOM     73  C   UNL A   1      39.156  32.188  35.896  1.00  0.00     0.057 A 
ATOM     74  C   UNL A   1      39.500  33.536  36.049  1.00  0.00     0.134 A 
ATOM     75  C   UNL A   1      38.234  31.648  36.802  1.00  0.00     0.134 A 
ATOM     76  F   UNL A   1      40.385  34.110  35.221  1.00  0.00    -0.206 F 
ATOM     77  C   UNL A   1      38.959  34.314  37.075  1.00  0.00     0.040 A 
ATOM     78  C   UNL A   1      37.669  32.420  37.817  1.00  0.00     0.040 A 
ATOM     79  F   UNL A   1      37.854  30.364  36.705  1.00  0.00    -0.206 F 
ATOM     80  C   UNL A   1      38.035  33.758  37.958  1.00  0.00     0.006 A 
ENDBRANCH  56  73
ENDBRANCH  30  31
ENDBRANCH  23  25
ENDBRANCH  22  23
ENDBRANCH  21  22
ENDBRANCH   1  21
TORSDOF 14
ENDMDL
MODEL 3
REMARK VINA RESULT:     -10.9      4.791     10.042
REMARK SMILES O=C(C[NH+]1CC(c2nc(-c3cccs3)no2)C1)OCCOC(=O)c1ccc(-c2c3nc(c(-c4c(F)cccc4F)c4ccc([nH]4)c(-c4c(F)cccc4F)c4nc(c(-c5c(F)cccc5F)c5ccc2[nH]5)C=C4)C=C3)cc1
REMARK SMILES IDX 19 1 18 2 2 3 1 4 3 5 4 6 5 7 17 8 6 10 7 11 8 12 16 13 9 14
REMARK SMILES IDX 15 15 10 16 11 17 14 18 12 19 13 20 20 21 21 22 22 23 23 24
REMARK SMILES IDX 24 25 25 26 77 27 26 28 76 29 27 30 28 31 29 32 70 33 30 34
REMARK SMILES IDX 75 35 69 36 71 37 31 38 74 39 68 40 67 41 32 43 58 44 41 45
REMARK SMILES IDX 57 46 42 47 45 48 56 49 72 50 43 51 44 52 55 54 73 55 46 56
REMARK SMILES IDX 33 57 34 58 39 59 35 60 36 61 38 62 40 63 37 64 59 65 60 66
REMARK SMILES IDX 65 67 61 68 62 69 64 70 66 71 63 72 47 73 48 74 53 75 49 76
REMARK SMILES IDX 50 77 52 78 54 79 51 80
REMARK H PARENT 4 9 71 42 45 53
REMARK Flexibility Score: inf
ROOT
ATOM      1  C   UNL A   1      34.361  34.473  30.605  1.00  0.00     0.274 C 
ENDROOT
BRANCH   1   2
ATOM      2  O   UNL A   1      34.812  33.523  29.614  1.00  0.00    -0.458 OA
BRANCH   2   3
ATOM      3  C   UNL A   1      34.133  33.161  28.496  1.00  0.00     0.361 C 
ATOM      4  O   UNL A   1      33.131  33.789  28.156  1.00  0.00    -0.245 OA
BRANCH   3   5
ATOM      5  C   UNL A   1      34.621  31.962  27.692  1.00  0.00     0.386 C 
BRANCH   5   6
ATOM      6  N   UNL A   1      34.107  30.632  28.056  1.00  0.00    -0.324 N 
ATOM      7  C   UNL A   1      32.951  30.190  27.236  1.00  0.00     0.282 C 
ATOM      8  C   UNL A   1      34.884  29.501  27.512  1.00  0.00     0.282 C 
ATOM      9  H   UNL A   1      34.024  30.771  29.062  1.00  0.00     0.348 HD
ATOM     10  C   UNL A   1      33.530  28.758  27.337  1.00  0.00     0.188 C 
BRANCH  10  11
ATOM     11  C   UNL A   1      33.550  27.912  26.089  1.00  0.00     0.241 A 
ATOM     12  N   UNL A   1      33.551  26.599  26.132  1.00  0.00    -0.190 NA
ATOM     13  O   UNL A   1      33.717  28.405  24.827  1.00  0.00    -0.338 OA
ATOM     14  C   UNL A   1      33.810  26.260  24.824  1.00  0.00     0.212 A 
ATOM     15  N   UNL A   1      33.864  27.305  23.986  1.00  0.00    -0.056 NA
BRANCH  14  16
ATOM     16  C   UNL A   1      34.108  24.854  24.423  1.00  0.00     0.075 A 
ATOM     17  C   UNL A   1      34.110  24.424  23.110  1.00  0.00     0.024 A 
ATOM     18  S   UNL A   1      34.421  23.580  25.513  1.00  0.00    -0.140 S 
ATOM     19  C   UNL A   1      34.343  23.022  23.006  1.00  0.00     0.012 A 
ATOM     20  C   UNL A   1      34.525  22.439  24.241  1.00  0.00     0.065 A 
ENDBRANCH  14  16
ENDBRANCH  10  11
ENDBRANCH   5   6
ENDBRANCH   3   5
ENDBRANCH   2   3
ENDBRANCH   1   2
BRANCH   1  21
ATOM     21  C   UNL A   1      34.285  33.851  32.000  1.00  0.00     0.275 C 
BRANCH  21  22
ATOM     22  O   UNL A   1      34.816  32.516  31.969  1.00  0.00    -0.458 OA
BRANCH  22  23
ATOM     23  C   UNL A   1      35.873  32.294  32.788  1.00  0.00     0.338 C 
ATOM     24  O   UNL A   1      35.912  32.472  33.992  1.00  0.00    -0.246 OA
BRANCH  23  25
ATOM     25  C   UNL A   1      36.939  31.602  32.028  1.00  0.00     0.060 A 
ATOM     26  C   UNL A   1      37.998  31.043  32.753  1.00  0.00     0.016 A 
ATOM     27  C   UNL A   1      36.892  31.469  30.636  1.00  0.00     0.016 A 
ATOM     28  C   UNL A   1      39.032  30.384  32.088  1.00  0.00     0.010 A 
ATOM     29  C   UNL A   1      37.929  30.808  29.970  1.00  0.00     0.010 A 
ATOM     30  C   UNL A   1      39.017  30.289  30.690  1.00  0.00    -0.014 A 
BRANCH  30  31
ATOM     31  C   UNL A   1      40.213  29.792  29.969  1.00  0.00     0.031 A 
ATOM     32  C   UNL A   1      41.360  30.735  29.739  1.00  0.00     0.074 A 
ATOM     33  C   UNL A   1      40.288  28.521  29.537  1.00  0.00     0.049 A 
ATOM     34  N   UNL A   1      42.500  30.526  29.134  1.00  0.00    -0.248 NA
ATOM     35  C   UNL A   1      41.197  32.102  30.262  1.00  0.00     0.031 C 
ATOM     36  C   UNL A   1      39.257  27.502  29.714  1.00  0.00     0.029 A 
ATOM     37  N   UNL A   1      41.287  27.877  28.849  1.00  0.00    -0.354 N 
ATOM     38  C   UNL A   1      43.193  31.727  29.212  1.00  0.00     0.074 A 
ATOM     39  C   UNL A   1      42.330  32.674  29.884  1.00  0.00     0.031 C 
ATOM     40  C   UNL A   1      39.675  26.357  29.143  1.00  0.00     0.029 A 
ATOM     41  C   UNL A   1      40.993  26.571  28.545  1.00  0.00     0.049 A 
ATOM     42  H   UNL A   1      42.135  28.311  28.597  1.00  0.00     0.167 HD
ATOM     43  C   UNL A   1      44.444  32.013  28.779  1.00  0.00     0.037 A 
ATOM     44  C   UNL A   1      41.704  25.659  27.855  1.00  0.00     0.037 A 
ATOM     45  C   UNL A   1      45.301  31.080  28.099  1.00  0.00     0.049 A 
ATOM     46  C   UNL A   1      43.060  26.027  27.310  1.00  0.00     0.074 A 
ATOM     47  C   UNL A   1      46.589  31.278  27.632  1.00  0.00     0.029 A 
ATOM     48  N   UNL A   1      44.953  29.778  27.780  1.00  0.00    -0.354 N 
ATOM     49  N   UNL A   1      43.723  27.151  27.426  1.00  0.00    -0.248 NA
ATOM     50  C   UNL A   1      43.768  24.991  26.541  1.00  0.00     0.031 C 
ATOM     51  C   UNL A   1      47.005  30.105  26.992  1.00  0.00     0.029 A 
ATOM     52  C   UNL A   1      45.993  29.165  27.101  1.00  0.00     0.049 A 
ATOM     53  H   UNL A   1      44.095  29.351  28.004  1.00  0.00     0.167 HD
ATOM     54  C   UNL A   1      44.935  26.949  26.776  1.00  0.00     0.074 A 
ATOM     55  C   UNL A   1      44.919  25.592  26.273  1.00  0.00     0.031 C 
ATOM     56  C   UNL A   1      45.970  27.809  26.616  1.00  0.00     0.037 A 
BRANCH  43  57
ATOM     57  C   UNL A   1      44.949  33.403  29.022  1.00  0.00     0.057 A 
ATOM     58  C   UNL A   1      45.633  33.740  30.197  1.00  0.00     0.134 A 
ATOM     59  C   UNL A   1      44.767  34.408  28.065  1.00  0.00     0.134 A 
ATOM     60  F   UNL A   1      45.822  32.825  31.160  1.00  0.00    -0.206 F 
ATOM     61  C   UNL A   1      46.100  35.036  30.421  1.00  0.00     0.040 A 
ATOM     62  C   UNL A   1      45.251  35.701  28.267  1.00  0.00     0.040 A 
ATOM     63  F   UNL A   1      44.122  34.149  26.918  1.00  0.00    -0.206 F 
ATOM     64  C   UNL A   1      45.915  36.019  29.450  1.00  0.00     0.006 A 
ENDBRANCH  43  57
BRANCH  44  65
ATOM     65  C   UNL A   1      41.156  24.297  27.633  1.00  0.00     0.057 A 
ATOM     66  C   UNL A   1      41.652  23.195  28.340  1.00  0.00     0.134 A 
ATOM     67  C   UNL A   1      40.154  24.060  26.685  1.00  0.00     0.134 A 
ATOM     68  F   UNL A   1      42.630  23.357  29.242  1.00  0.00    -0.206 F 
ATOM     69  C   UNL A   1      41.185  21.903  28.099  1.00  0.00     0.040 A 
ATOM     70  C   UNL A   1      39.662  22.775  26.449  1.00  0.00     0.040 A 
ATOM     71  F   UNL A   1      39.640  25.074  25.973  1.00  0.00    -0.206 F 
ATOM     72  C   UNL A   1      40.184  21.690  27.152  1.00  0.00     0.006 A 
ENDBRANCH  44  65
BRANCH  56  73
ATOM     73  C   UNL A   1      47.188  27.303  25.899  1.00  0.00     0.057 A 
ATOM     74  C   UNL A   1      48.218  26.635  26.572  1.00  0.00     0.134 A 
ATOM     75  C   UNL A   1      47.305  27.440  24.510  1.00  0.00     0.134 A 
ATOM     76  F   UNL A   1      48.172  26.480  27.904  1.00  0.00    -0.206 F 
ATOM     77  C   UNL A   1      49.331  26.137  25.890  1.00  0.00     0.040 A 
ATOM     78  C   UNL A   1      48.400  26.927  23.814  1.00  0.00     0.040 A 
ATOM     79  F   UNL A   1      46.348  28.061  23.804  1.00  0.00    -0.206 F 
ATOM     80  C   UNL A   1      49.420  26.276  24.507  1.00  0.00     0.006 A 
ENDBRANCH  56  73
ENDBRANCH  30  31
ENDBRANCH  23  25
ENDBRANCH  22  23
ENDBRANCH  21  22
ENDBRANCH   1  21
TORSDOF 14
ENDMDL
