MODEL 1
REMARK VINA RESULT:     -11.2      0.000      0.000
REMARK SMILES O=C(Cc1ccn(-c2ccccc2F)c1)OCCOC(=O)c1ccc(-c2c3nc(c(-c4c(F)cccc4F)c4ccc([nH]4)c(-c4c(F)cccc4F)c4nc(c(-c5c(F)cccc5F)c5ccc2[nH]5)C=C4)C=C3)cc1
REMARK SMILES IDX 17 1 16 2 2 3 1 4 3 5 4 6 5 7 15 8 6 9 7 10 8 11 9 12 13 13
REMARK SMILES IDX 10 14 12 15 14 16 11 17 18 18 19 19 20 20 21 21 22 22 23 23
REMARK SMILES IDX 75 24 24 25 74 26 25 27 26 28 27 29 68 30 28 31 73 32 67 33
REMARK SMILES IDX 69 34 29 35 72 36 66 37 65 38 30 40 56 41 39 42 55 43 40 44
REMARK SMILES IDX 43 45 54 46 70 47 41 48 42 49 53 51 71 52 44 53 31 54 32 55
REMARK SMILES IDX 37 56 33 57 34 58 36 59 38 60 35 61 57 62 58 63 63 64 59 65
REMARK SMILES IDX 60 66 62 67 64 68 61 69 45 70 46 71 51 72 47 73 48 74 50 75
REMARK SMILES IDX 52 76 49 77
REMARK H PARENT 69 39 43 50
REMARK Flexibility Score: inf
ROOT
ATOM      1  C   UNL A   1      38.470  21.409  25.429  1.00  0.00     0.274 C 
ENDROOT
BRANCH   1   2
ATOM      2  O   UNL A   1      37.475  21.570  24.403  1.00  0.00    -0.462 OA
BRANCH   2   3
ATOM      3  C   UNL A   1      36.849  22.719  24.049  1.00  0.00     0.310 C 
ATOM      4  O   UNL A   1      36.617  22.933  22.859  1.00  0.00    -0.252 OA
BRANCH   3   5
ATOM      5  C   UNL A   1      36.539  23.779  25.083  1.00  0.00     0.159 C 
BRANCH   5   6
ATOM      6  C   UNL A   1      35.114  24.151  25.269  1.00  0.00    -0.019 A 
ATOM      7  C   UNL A   1      34.207  23.722  26.271  1.00  0.00     0.024 A 
ATOM      8  C   UNL A   1      34.462  25.144  24.567  1.00  0.00     0.095 A 
ATOM      9  C   UNL A   1      33.038  24.427  26.111  1.00  0.00     0.091 A 
ATOM     10  N   UNL A   1      33.198  25.326  25.077  1.00  0.00    -0.321 N 
BRANCH  10  11
ATOM     11  C   UNL A   1      32.269  26.309  24.665  1.00  0.00     0.081 A 
ATOM     12  C   UNL A   1      31.264  25.981  23.744  1.00  0.00     0.030 A 
ATOM     13  C   UNL A   1      32.320  27.601  25.196  1.00  0.00     0.147 A 
ATOM     14  C   UNL A   1      30.315  26.939  23.383  1.00  0.00     0.002 A 
ATOM     15  C   UNL A   1      31.385  28.558  24.819  1.00  0.00     0.041 A 
ATOM     16  F   UNL A   1      33.293  27.983  26.034  1.00  0.00    -0.205 F 
ATOM     17  C   UNL A   1      30.377  28.226  23.917  1.00  0.00     0.003 A 
ENDBRANCH  10  11
ENDBRANCH   5   6
ENDBRANCH   3   5
ENDBRANCH   2   3
ENDBRANCH   1   2
BRANCH   1  18
ATOM     18  C   UNL A   1      39.199  20.071  25.430  1.00  0.00     0.275 C 
BRANCH  18  19
ATOM     19  O   UNL A   1      40.088  19.943  26.528  1.00  0.00    -0.458 OA
BRANCH  19  20
ATOM     20  C   UNL A   1      41.319  19.502  26.170  1.00  0.00     0.338 C 
ATOM     21  O   UNL A   1      41.621  18.408  25.746  1.00  0.00    -0.246 OA
BRANCH  20  22
ATOM     22  C   UNL A   1      42.305  20.527  26.505  1.00  0.00     0.060 A 
ATOM     23  C   UNL A   1      42.323  20.931  27.842  1.00  0.00     0.016 A 
ATOM     24  C   UNL A   1      42.813  21.309  25.461  1.00  0.00     0.016 A 
ATOM     25  C   UNL A   1      42.606  22.246  28.103  1.00  0.00     0.010 A 
ATOM     26  C   UNL A   1      43.026  22.638  25.712  1.00  0.00     0.010 A 
ATOM     27  C   UNL A   1      42.867  23.095  27.021  1.00  0.00    -0.014 A 
BRANCH  27  28
ATOM     28  C   UNL A   1      43.160  24.488  27.321  1.00  0.00     0.031 A 
ATOM     29  C   UNL A   1      41.815  25.235  27.465  1.00  0.00     0.074 A 
ATOM     30  C   UNL A   1      44.500  24.795  27.338  1.00  0.00     0.049 A 
ATOM     31  N   UNL A   1      41.533  26.475  27.237  1.00  0.00    -0.248 NA
ATOM     32  C   UNL A   1      40.570  24.487  27.839  1.00  0.00     0.031 C 
ATOM     33  C   UNL A   1      45.619  23.819  27.202  1.00  0.00     0.029 A 
ATOM     34  N   UNL A   1      45.212  25.967  27.463  1.00  0.00    -0.354 N 
ATOM     35  C   UNL A   1      40.208  26.705  27.671  1.00  0.00     0.074 A 
ATOM     36  C   UNL A   1      39.624  25.426  27.900  1.00  0.00     0.031 C 
ATOM     37  C   UNL A   1      46.817  24.446  27.135  1.00  0.00     0.029 A 
ATOM     38  C   UNL A   1      46.620  25.878  27.244  1.00  0.00     0.049 A 
ATOM     39  H   UNL A   1      44.774  26.819  27.689  1.00  0.00     0.167 HD
ATOM     40  C   UNL A   1      39.755  27.958  27.968  1.00  0.00     0.037 A 
ATOM     41  C   UNL A   1      47.528  26.902  27.105  1.00  0.00     0.037 A 
ATOM     42  C   UNL A   1      40.779  28.900  27.667  1.00  0.00     0.049 A 
ATOM     43  C   UNL A   1      46.750  28.102  27.432  1.00  0.00     0.074 A 
ATOM     44  C   UNL A   1      41.302  29.307  26.468  1.00  0.00     0.029 A 
ATOM     45  N   UNL A   1      41.678  29.153  28.676  1.00  0.00    -0.354 N 
ATOM     46  N   UNL A   1      46.337  28.413  28.624  1.00  0.00    -0.248 NA
ATOM     47  C   UNL A   1      46.270  28.938  26.326  1.00  0.00     0.031 C 
ATOM     48  C   UNL A   1      42.688  29.287  26.723  1.00  0.00     0.029 A 
ATOM     49  C   UNL A   1      42.921  29.212  28.102  1.00  0.00     0.049 A 
ATOM     50  H   UNL A   1      41.469  29.270  29.631  1.00  0.00     0.167 HD
ATOM     51  C   UNL A   1      45.278  29.239  28.348  1.00  0.00     0.074 A 
ATOM     52  C   UNL A   1      45.495  29.768  27.015  1.00  0.00     0.031 C 
ATOM     53  C   UNL A   1      44.076  29.009  28.938  1.00  0.00     0.037 A 
BRANCH  40  54
ATOM     54  C   UNL A   1      38.588  28.459  28.766  1.00  0.00     0.057 A 
ATOM     55  C   UNL A   1      38.402  28.203  30.127  1.00  0.00     0.134 A 
ATOM     56  C   UNL A   1      37.859  29.552  28.238  1.00  0.00     0.134 A 
ATOM     57  F   UNL A   1      39.028  27.192  30.743  1.00  0.00    -0.206 F 
ATOM     58  C   UNL A   1      37.632  29.052  30.935  1.00  0.00     0.040 A 
ATOM     59  C   UNL A   1      37.136  30.433  29.042  1.00  0.00     0.040 A 
ATOM     60  F   UNL A   1      37.910  29.852  26.929  1.00  0.00    -0.206 F 
ATOM     61  C   UNL A   1      37.042  30.197  30.404  1.00  0.00     0.006 A 
ENDBRANCH  40  54
BRANCH  41  62
ATOM     62  C   UNL A   1      48.945  27.155  26.624  1.00  0.00     0.057 A 
ATOM     63  C   UNL A   1      49.301  26.843  25.276  1.00  0.00     0.134 A 
ATOM     64  C   UNL A   1      50.030  27.569  27.398  1.00  0.00     0.134 A 
ATOM     65  F   UNL A   1      48.376  26.613  24.333  1.00  0.00    -0.206 F 
ATOM     66  C   UNL A   1      50.614  26.734  24.807  1.00  0.00     0.040 A 
ATOM     67  C   UNL A   1      51.361  27.528  26.917  1.00  0.00     0.040 A 
ATOM     68  F   UNL A   1      49.855  28.037  28.640  1.00  0.00    -0.206 F 
ATOM     69  C   UNL A   1      51.660  27.055  25.641  1.00  0.00     0.006 A 
ENDBRANCH  41  62
BRANCH  53  70
ATOM     70  C   UNL A   1      44.125  28.251  30.254  1.00  0.00     0.057 A 
ATOM     71  C   UNL A   1      43.606  26.964  30.466  1.00  0.00     0.134 A 
ATOM     72  C   UNL A   1      44.801  28.804  31.349  1.00  0.00     0.134 A 
ATOM     73  F   UNL A   1      42.917  26.338  29.517  1.00  0.00    -0.206 F 
ATOM     74  C   UNL A   1      43.764  26.257  31.669  1.00  0.00     0.040 A 
ATOM     75  C   UNL A   1      44.966  28.117  32.561  1.00  0.00     0.040 A 
ATOM     76  F   UNL A   1      45.313  30.041  31.265  1.00  0.00    -0.206 F 
ATOM     77  C   UNL A   1      44.453  26.835  32.725  1.00  0.00     0.006 A 
ENDBRANCH  53  70
ENDBRANCH  27  28
ENDBRANCH  20  22
ENDBRANCH  19  20
ENDBRANCH  18  19
ENDBRANCH   1  18
TORSDOF 13
ENDMDL
MODEL 2
REMARK VINA RESULT:     -11.2      2.115      3.073
REMARK SMILES O=C(Cc1ccn(-c2ccccc2F)c1)OCCOC(=O)c1ccc(-c2c3nc(c(-c4c(F)cccc4F)c4ccc([nH]4)c(-c4c(F)cccc4F)c4nc(c(-c5c(F)cccc5F)c5ccc2[nH]5)C=C4)C=C3)cc1
REMARK SMILES IDX 17 1 16 2 2 3 1 4 3 5 4 6 5 7 15 8 6 9 7 10 8 11 9 12 13 13
REMARK SMILES IDX 10 14 12 15 14 16 11 17 18 18 19 19 20 20 21 21 22 22 23 23
REMARK SMILES IDX 75 24 24 25 74 26 25 27 26 28 27 29 68 30 28 31 73 32 67 33
REMARK SMILES IDX 69 34 29 35 72 36 66 37 65 38 30 40 56 41 39 42 55 43 40 44
REMARK SMILES IDX 43 45 54 46 70 47 41 48 42 49 53 51 71 52 44 53 31 54 32 55
REMARK SMILES IDX 37 56 33 57 34 58 36 59 38 60 35 61 57 62 58 63 63 64 59 65
REMARK SMILES IDX 60 66 62 67 64 68 61 69 45 70 46 71 51 72 47 73 48 74 50 75
REMARK SMILES IDX 52 76 49 77
REMARK H PARENT 69 39 43 50
REMARK Flexibility Score: inf
ROOT
ATOM      1  C   UNL A   1      39.117  21.802  26.125  1.00  0.00     0.274 C 
ENDROOT
BRANCH   1   2
ATOM      2  O   UNL A   1      37.855  22.226  25.581  1.00  0.00    -0.462 OA
BRANCH   2   3
ATOM      3  C   UNL A   1      37.273  23.442  25.729  1.00  0.00     0.310 C 
ATOM      4  O   UNL A   1      37.984  24.448  25.748  1.00  0.00    -0.252 OA
BRANCH   3   5
ATOM      5  C   UNL A   1      35.787  23.561  25.980  1.00  0.00     0.159 C 
BRANCH   5   6
ATOM      6  C   UNL A   1      34.995  22.305  25.994  1.00  0.00    -0.019 A 
ATOM      7  C   UNL A   1      33.949  21.924  26.871  1.00  0.00     0.024 A 
ATOM      8  C   UNL A   1      35.040  21.336  25.012  1.00  0.00     0.095 A 
ATOM      9  C   UNL A   1      33.437  20.730  26.421  1.00  0.00     0.091 A 
ATOM     10  N   UNL A   1      34.088  20.375  25.259  1.00  0.00    -0.321 N 
BRANCH  10  11
ATOM     11  C   UNL A   1      33.786  19.272  24.427  1.00  0.00     0.081 A 
ATOM     12  C   UNL A   1      34.578  18.117  24.479  1.00  0.00     0.030 A 
ATOM     13  C   UNL A   1      32.678  19.309  23.574  1.00  0.00     0.147 A 
ATOM     14  C   UNL A   1      34.242  17.010  23.698  1.00  0.00     0.002 A 
ATOM     15  C   UNL A   1      32.359  18.212  22.783  1.00  0.00     0.041 A 
ATOM     16  F   UNL A   1      31.923  20.408  23.443  1.00  0.00    -0.205 F 
ATOM     17  C   UNL A   1      33.136  17.059  22.849  1.00  0.00     0.003 A 
ENDBRANCH  10  11
ENDBRANCH   5   6
ENDBRANCH   3   5
ENDBRANCH   2   3
ENDBRANCH   1   2
BRANCH   1  18
ATOM     18  C   UNL A   1      39.563  20.401  25.729  1.00  0.00     0.275 C 
BRANCH  18  19
ATOM     19  O   UNL A   1      40.401  19.805  26.706  1.00  0.00    -0.458 OA
BRANCH  19  20
ATOM     20  C   UNL A   1      41.621  19.460  26.226  1.00  0.00     0.338 C 
ATOM     21  O   UNL A   1      41.944  18.418  25.699  1.00  0.00    -0.246 OA
BRANCH  20  22
ATOM     22  C   UNL A   1      42.577  20.512  26.564  1.00  0.00     0.060 A 
ATOM     23  C   UNL A   1      42.558  20.939  27.893  1.00  0.00     0.016 A 
ATOM     24  C   UNL A   1      43.090  21.288  25.517  1.00  0.00     0.016 A 
ATOM     25  C   UNL A   1      42.806  22.265  28.137  1.00  0.00     0.010 A 
ATOM     26  C   UNL A   1      43.269  22.625  25.748  1.00  0.00     0.010 A 
ATOM     27  C   UNL A   1      43.071  23.101  27.046  1.00  0.00    -0.014 A 
BRANCH  27  28
ATOM     28  C   UNL A   1      43.328  24.505  27.327  1.00  0.00     0.031 A 
ATOM     29  C   UNL A   1      41.964  25.210  27.504  1.00  0.00     0.074 A 
ATOM     30  C   UNL A   1      44.656  24.855  27.304  1.00  0.00     0.049 A 
ATOM     31  N   UNL A   1      41.635  26.438  27.276  1.00  0.00    -0.248 NA
ATOM     32  C   UNL A   1      40.755  24.425  27.919  1.00  0.00     0.031 C 
ATOM     33  C   UNL A   1      45.802  23.915  27.143  1.00  0.00     0.029 A 
ATOM     34  N   UNL A   1      45.334  26.051  27.400  1.00  0.00    -0.354 N 
ATOM     35  C   UNL A   1      40.316  26.628  27.745  1.00  0.00     0.074 A 
ATOM     36  C   UNL A   1      39.781  25.333  28.000  1.00  0.00     0.031 C 
ATOM     37  C   UNL A   1      46.977  24.580  27.038  1.00  0.00     0.029 A 
ATOM     38  C   UNL A   1      46.737  26.005  27.142  1.00  0.00     0.049 A 
ATOM     39  H   UNL A   1      44.875  26.890  27.633  1.00  0.00     0.167 HD
ATOM     40  C   UNL A   1      39.831  27.869  28.046  1.00  0.00     0.037 A 
ATOM     41  C   UNL A   1      47.607  27.056  26.970  1.00  0.00     0.037 A 
ATOM     42  C   UNL A   1      40.816  28.841  27.709  1.00  0.00     0.049 A 
ATOM     43  C   UNL A   1      46.800  28.234  27.310  1.00  0.00     0.074 A 
ATOM     44  C   UNL A   1      41.291  29.254  26.493  1.00  0.00     0.029 A 
ATOM     45  N   UNL A   1      41.734  29.131  28.690  1.00  0.00    -0.354 N 
ATOM     46  N   UNL A   1      46.411  28.540  28.511  1.00  0.00    -0.248 NA
ATOM     47  C   UNL A   1      46.262  29.044  26.213  1.00  0.00     0.031 C 
ATOM     48  C   UNL A   1      42.683  29.281  26.708  1.00  0.00     0.029 A 
ATOM     49  C   UNL A   1      42.957  29.225  28.080  1.00  0.00     0.049 A 
ATOM     50  H   UNL A   1      41.548  29.249  29.650  1.00  0.00     0.167 HD
ATOM     51  C   UNL A   1      45.318  29.330  28.259  1.00  0.00     0.074 A 
ATOM     52  C   UNL A   1      45.480  29.855  26.917  1.00  0.00     0.031 C 
ATOM     53  C   UNL A   1      44.141  29.066  28.885  1.00  0.00     0.037 A 
BRANCH  40  54
ATOM     54  C   UNL A   1      38.672  28.339  28.872  1.00  0.00     0.057 A 
ATOM     55  C   UNL A   1      38.521  28.068  30.235  1.00  0.00     0.134 A 
ATOM     56  C   UNL A   1      37.908  29.419  28.370  1.00  0.00     0.134 A 
ATOM     57  F   UNL A   1      39.181  27.066  30.829  1.00  0.00    -0.206 F 
ATOM     58  C   UNL A   1      37.751  28.894  31.067  1.00  0.00     0.040 A 
ATOM     59  C   UNL A   1      37.184  30.278  29.197  1.00  0.00     0.040 A 
ATOM     60  F   UNL A   1      37.924  29.730  27.063  1.00  0.00    -0.206 F 
ATOM     61  C   UNL A   1      37.125  30.029  30.559  1.00  0.00     0.006 A 
ENDBRANCH  40  54
BRANCH  41  62
ATOM     62  C   UNL A   1      49.001  27.351  26.447  1.00  0.00     0.057 A 
ATOM     63  C   UNL A   1      49.391  26.866  25.161  1.00  0.00     0.134 A 
ATOM     64  C   UNL A   1      50.042  27.969  27.142  1.00  0.00     0.134 A 
ATOM     65  F   UNL A   1      48.496  26.417  24.270  1.00  0.00    -0.206 F 
ATOM     66  C   UNL A   1      50.712  26.798  24.706  1.00  0.00     0.040 A 
ATOM     67  C   UNL A   1      51.375  27.967  26.664  1.00  0.00     0.040 A 
ATOM     68  F   UNL A   1      49.820  28.606  28.298  1.00  0.00    -0.206 F 
ATOM     69  C   UNL A   1      51.722  27.331  25.474  1.00  0.00     0.006 A 
ENDBRANCH  41  62
BRANCH  53  70
ATOM     70  C   UNL A   1      44.252  28.321  30.204  1.00  0.00     0.057 A 
ATOM     71  C   UNL A   1      43.768  27.025  30.445  1.00  0.00     0.134 A 
ATOM     72  C   UNL A   1      44.955  28.897  31.270  1.00  0.00     0.134 A 
ATOM     73  F   UNL A   1      43.060  26.377  29.525  1.00  0.00    -0.206 F 
ATOM     74  C   UNL A   1      43.982  26.332  31.647  1.00  0.00     0.040 A 
ATOM     75  C   UNL A   1      45.176  28.224  32.481  1.00  0.00     0.040 A 
ATOM     76  F   UNL A   1      45.437  30.144  31.159  1.00  0.00    -0.206 F 
ATOM     77  C   UNL A   1      44.695  26.933  32.674  1.00  0.00     0.006 A 
ENDBRANCH  53  70
ENDBRANCH  27  28
ENDBRANCH  20  22
ENDBRANCH  19  20
ENDBRANCH  18  19
ENDBRANCH   1  18
TORSDOF 13
ENDMDL
MODEL 3
REMARK VINA RESULT:     -11.2      5.057     10.140
REMARK SMILES O=C(Cc1ccn(-c2ccccc2F)c1)OCCOC(=O)c1ccc(-c2c3nc(c(-c4c(F)cccc4F)c4ccc([nH]4)c(-c4c(F)cccc4F)c4nc(c(-c5c(F)cccc5F)c5ccc2[nH]5)C=C4)C=C3)cc1
REMARK SMILES IDX 17 1 16 2 2 3 1 4 3 5 4 6 5 7 15 8 6 9 7 10 8 11 9 12 13 13
REMARK SMILES IDX 10 14 12 15 14 16 11 17 18 18 19 19 20 20 21 21 22 22 23 23
REMARK SMILES IDX 75 24 24 25 74 26 25 27 26 28 27 29 68 30 28 31 73 32 67 33
REMARK SMILES IDX 69 34 29 35 72 36 66 37 65 38 30 40 56 41 39 42 55 43 40 44
REMARK SMILES IDX 43 45 54 46 70 47 41 48 42 49 53 51 71 52 44 53 31 54 32 55
REMARK SMILES IDX 37 56 33 57 34 58 36 59 38 60 35 61 57 62 58 63 63 64 59 65
REMARK SMILES IDX 60 66 62 67 64 68 61 69 45 70 46 71 51 72 47 73 48 74 50 75
REMARK SMILES IDX 52 76 49 77
REMARK H PARENT 69 39 43 50
REMARK Flexibility Score: inf
ROOT
ATOM      1  C   UNL A   1      33.687  31.469  27.677  1.00  0.00     0.274 C 
ENDROOT
BRANCH   1   2
ATOM      2  O   UNL A   1      33.485  30.460  26.672  1.00  0.00    -0.462 OA
BRANCH   2   3
ATOM      3  C   UNL A   1      32.324  29.823  26.382  1.00  0.00     0.310 C 
ATOM      4  O   UNL A   1      31.630  30.237  25.452  1.00  0.00    -0.252 OA
BRANCH   3   5
ATOM      5  C   UNL A   1      31.826  28.690  27.251  1.00  0.00     0.159 C 
BRANCH   5   6
ATOM      6  C   UNL A   1      31.877  27.321  26.680  1.00  0.00    -0.019 A 
ATOM      7  C   UNL A   1      30.815  26.527  26.177  1.00  0.00     0.024 A 
ATOM      8  C   UNL A   1      33.037  26.636  26.381  1.00  0.00     0.095 A 
ATOM      9  C   UNL A   1      31.361  25.384  25.642  1.00  0.00     0.091 A 
ATOM     10  N   UNL A   1      32.734  25.458  25.741  1.00  0.00    -0.321 N 
BRANCH  10  11
ATOM     11  C   UNL A   1      33.667  24.535  25.213  1.00  0.00     0.081 A 
ATOM     12  C   UNL A   1      34.086  24.648  23.880  1.00  0.00     0.030 A 
ATOM     13  C   UNL A   1      34.205  23.529  26.020  1.00  0.00     0.147 A 
ATOM     14  C   UNL A   1      35.049  23.770  23.380  1.00  0.00     0.002 A 
ATOM     15  C   UNL A   1      35.149  22.644  25.512  1.00  0.00     0.041 A 
ATOM     16  F   UNL A   1      33.797  23.342  27.283  1.00  0.00    -0.205 F 
ATOM     17  C   UNL A   1      35.578  22.768  24.193  1.00  0.00     0.003 A 
ENDBRANCH  10  11
ENDBRANCH   5   6
ENDBRANCH   3   5
ENDBRANCH   2   3
ENDBRANCH   1   2
BRANCH   1  18
ATOM     18  C   UNL A   1      32.744  32.664  27.604  1.00  0.00     0.275 C 
BRANCH  18  19
ATOM     19  O   UNL A   1      33.439  33.894  27.494  1.00  0.00    -0.458 OA
BRANCH  19  20
ATOM     20  C   UNL A   1      33.227  34.724  28.544  1.00  0.00     0.338 C 
ATOM     21  O   UNL A   1      32.319  35.513  28.695  1.00  0.00    -0.246 OA
BRANCH  20  22
ATOM     22  C   UNL A   1      34.364  34.634  29.458  1.00  0.00     0.060 A 
ATOM     23  C   UNL A   1      35.623  34.739  28.863  1.00  0.00     0.016 A 
ATOM     24  C   UNL A   1      34.153  34.034  30.704  1.00  0.00     0.016 A 
ATOM     25  C   UNL A   1      36.642  33.995  29.399  1.00  0.00     0.010 A 
ATOM     26  C   UNL A   1      35.148  33.236  31.200  1.00  0.00     0.010 A 
ATOM     27  C   UNL A   1      36.360  33.188  30.507  1.00  0.00    -0.014 A 
BRANCH  27  28
ATOM     28  C   UNL A   1      37.454  32.403  31.057  1.00  0.00     0.031 A 
ATOM     29  C   UNL A   1      37.601  31.127  30.197  1.00  0.00     0.074 A 
ATOM     30  C   UNL A   1      38.020  32.934  32.192  1.00  0.00     0.049 A 
ATOM     31  N   UNL A   1      38.036  29.957  30.528  1.00  0.00    -0.248 NA
ATOM     32  C   UNL A   1      37.122  31.114  28.776  1.00  0.00     0.031 C 
ATOM     33  C   UNL A   1      37.687  34.257  32.794  1.00  0.00     0.029 A 
ATOM     34  N   UNL A   1      38.974  32.493  33.082  1.00  0.00    -0.354 N 
ATOM     35  C   UNL A   1      38.125  29.179  29.351  1.00  0.00     0.074 A 
ATOM     36  C   UNL A   1      37.424  29.891  28.335  1.00  0.00     0.031 C 
ATOM     37  C   UNL A   1      38.326  34.438  33.974  1.00  0.00     0.029 A 
ATOM     38  C   UNL A   1      39.153  33.284  34.258  1.00  0.00     0.049 A 
ATOM     39  H   UNL A   1      39.501  31.679  32.918  1.00  0.00     0.167 HD
ATOM     40  C   UNL A   1      38.927  28.077  29.276  1.00  0.00     0.037 A 
ATOM     41  C   UNL A   1      39.874  32.977  35.389  1.00  0.00     0.037 A 
ATOM     42  C   UNL A   1      39.510  27.845  30.554  1.00  0.00     0.049 A 
ATOM     43  C   UNL A   1      40.578  31.742  35.028  1.00  0.00     0.074 A 
ATOM     44  C   UNL A   1      38.950  27.433  31.735  1.00  0.00     0.029 A 
ATOM     45  N   UNL A   1      40.693  28.498  30.803  1.00  0.00    -0.354 N 
ATOM     46  N   UNL A   1      41.563  31.672  34.184  1.00  0.00    -0.248 NA
ATOM     47  C   UNL A   1      40.046  30.470  35.530  1.00  0.00     0.031 C 
ATOM     48  C   UNL A   1      39.531  28.316  32.666  1.00  0.00     0.029 A 
ATOM     49  C   UNL A   1      40.631  28.964  32.091  1.00  0.00     0.049 A 
ATOM     50  H   UNL A   1      41.443  28.611  30.176  1.00  0.00     0.167 HD
ATOM     51  C   UNL A   1      41.508  30.358  33.795  1.00  0.00     0.074 A 
ATOM     52  C   UNL A   1      40.826  29.636  34.852  1.00  0.00     0.031 C 
ATOM     53  C   UNL A   1      41.498  30.049  32.472  1.00  0.00     0.037 A 
BRANCH  40  54
ATOM     54  C   UNL A   1      39.497  27.306  28.122  1.00  0.00     0.057 A 
ATOM     55  C   UNL A   1      40.293  27.869  27.121  1.00  0.00     0.134 A 
ATOM     56  C   UNL A   1      39.573  25.899  28.253  1.00  0.00     0.134 A 
ATOM     57  F   UNL A   1      40.303  29.188  26.891  1.00  0.00    -0.206 F 
ATOM     58  C   UNL A   1      41.195  27.094  26.378  1.00  0.00     0.040 A 
ATOM     59  C   UNL A   1      40.505  25.128  27.558  1.00  0.00     0.040 A 
ATOM     60  F   UNL A   1      38.805  25.242  29.139  1.00  0.00    -0.206 F 
ATOM     61  C   UNL A   1      41.340  25.732  26.632  1.00  0.00     0.006 A 
ENDBRANCH  40  54
BRANCH  41  62
ATOM     62  C   UNL A   1      40.043  33.426  36.829  1.00  0.00     0.057 A 
ATOM     63  C   UNL A   1      38.894  33.567  37.665  1.00  0.00     0.134 A 
ATOM     64  C   UNL A   1      41.225  33.849  37.440  1.00  0.00     0.134 A 
ATOM     65  F   UNL A   1      37.706  33.042  37.333  1.00  0.00    -0.206 F 
ATOM     66  C   UNL A   1      38.878  34.256  38.882  1.00  0.00     0.040 A 
ATOM     67  C   UNL A   1      41.234  34.490  38.703  1.00  0.00     0.040 A 
ATOM     68  F   UNL A   1      42.413  33.656  36.857  1.00  0.00    -0.206 F 
ATOM     69  C   UNL A   1      40.055  34.747  39.398  1.00  0.00     0.006 A 
ENDBRANCH  41  62
BRANCH  53  70
ATOM     70  C   UNL A   1      42.115  31.089  31.551  1.00  0.00     0.057 A 
ATOM     71  C   UNL A   1      41.418  31.823  30.578  1.00  0.00     0.134 A 
ATOM     72  C   UNL A   1      43.464  31.435  31.700  1.00  0.00     0.134 A 
ATOM     73  F   UNL A   1      40.139  31.573  30.318  1.00  0.00    -0.206 F 
ATOM     74  C   UNL A   1      42.005  32.849  29.819  1.00  0.00     0.040 A 
ATOM     75  C   UNL A   1      44.071  32.453  30.949  1.00  0.00     0.040 A 
ATOM     76  F   UNL A   1      44.231  30.777  32.583  1.00  0.00    -0.206 F 
ATOM     77  C   UNL A   1      43.341  33.170  30.006  1.00  0.00     0.006 A 
ENDBRANCH  53  70
ENDBRANCH  27  28
ENDBRANCH  20  22
ENDBRANCH  19  20
ENDBRANCH  18  19
ENDBRANCH   1  18
TORSDOF 13
ENDMDL
