MODEL 1
REMARK VINA RESULT:     -12.4      0.000      0.000
REMARK SMILES C[N@@H+]1CCN(C(=O)c2ccc3[nH]c4c(c3c2)CSCC4)C[C@H]1C(=O)OCCOC(=O)c1ccc(-c2c3nc(c(-c4c(F)cccc4F)c4ccc([nH]4)c(-c4c(F)cccc4F)c4nc(c(-c5c(F)cccc5F)c5ccc2[nH]5)C=C4)C=C3)cc1
REMARK SMILES IDX 26 1 25 2 23 3 24 4 22 5 1 6 2 7 3 8 4 10 21 11 5 12 6 13
REMARK SMILES IDX 7 14 8 15 9 16 16 17 10 18 15 19 11 20 14 21 12 22 13 23
REMARK SMILES IDX 17 24 20 26 18 27 19 28 27 29 28 30 29 31 30 32 31 33 32 34
REMARK SMILES IDX 84 35 33 36 83 37 34 38 35 39 36 40 77 41 37 42 82 43 76 44
REMARK SMILES IDX 78 45 38 46 81 47 75 48 74 49 39 51 65 52 48 53 64 54 49 55
REMARK SMILES IDX 52 56 63 57 79 58 50 59 51 60 62 62 80 63 53 64 40 65 41 66
REMARK SMILES IDX 46 67 42 68 43 69 45 70 47 71 44 72 66 73 67 74 72 75 68 76
REMARK SMILES IDX 69 77 71 78 73 79 70 80 54 81 55 82 60 83 56 84 57 85 59 86
REMARK SMILES IDX 61 87 58 88
REMARK H PARENT 2 9 12 25 78 50 52 61
REMARK Flexibility Score: inf
ROOT
ATOM      1  C   UNL A   1      33.507  29.059  26.808  1.00  0.00     0.274 C 
ENDROOT
BRANCH   1   2
ATOM      2  O   UNL A   1      32.767  29.765  25.783  1.00  0.00    -0.458 OA
BRANCH   2   3
ATOM      3  C   UNL A   1      32.706  29.072  24.631  1.00  0.00     0.366 C 
ATOM      4  O   UNL A   1      33.476  29.287  23.694  1.00  0.00    -0.245 OA
BRANCH   3   5
ATOM      5  C   UNL A   1      31.611  28.057  24.452  1.00  0.00     0.314 C 
ATOM      6  C   UNL A   1      29.866  29.483  23.370  1.00  0.00     0.333 C 
ATOM      7  N   UNL A   1      30.466  28.168  23.513  1.00  0.00    -0.323 N 
ATOM      8  C   UNL A   1      29.456  27.162  23.999  1.00  0.00     0.284 C 
ATOM      9  H   UNL A   1      30.811  27.989  22.570  1.00  0.00     0.348 HD
ATOM     10  C   UNL A   1      30.018  25.715  24.275  1.00  0.00     0.181 C 
ATOM     11  C   UNL A   1      32.259  26.713  24.123  1.00  0.00     0.197 C 
ATOM     12  N   UNL A   1      31.422  25.695  24.738  1.00  0.00    -0.326 N 
BRANCH  12  13
ATOM     13  C   UNL A   1      31.871  24.778  25.677  1.00  0.00     0.254 C 
ATOM     14  O   UNL A   1      31.470  24.795  26.841  1.00  0.00    -0.269 OA
BRANCH  13  15
ATOM     15  C   UNL A   1      32.957  23.794  25.322  1.00  0.00     0.040 A 
ATOM     16  C   UNL A   1      34.152  23.728  26.057  1.00  0.00     0.016 A 
ATOM     17  C   UNL A   1      32.624  22.729  24.482  1.00  0.00     0.024 A 
ATOM     18  C   UNL A   1      35.001  22.620  26.049  1.00  0.00     0.027 A 
ATOM     19  C   UNL A   1      33.404  21.554  24.534  1.00  0.00     0.004 A 
ATOM     20  C   UNL A   1      34.538  21.518  25.344  1.00  0.00     0.046 A 
ATOM     21  C   UNL A   1      33.236  20.248  23.993  1.00  0.00    -0.009 A 
ATOM     22  N   UNL A   1      34.983  20.219  25.374  1.00  0.00    -0.358 N 
ATOM     23  C   UNL A   1      34.142  19.431  24.644  1.00  0.00     0.021 A 
ATOM     24  C   UNL A   1      32.170  19.806  23.051  1.00  0.00     0.107 C 
ATOM     25  H   UNL A   1      35.786  19.904  25.848  1.00  0.00     0.166 HD
ATOM     26  C   UNL A   1      34.209  17.944  24.627  1.00  0.00     0.065 C 
ATOM     27  S   UNL A   1      32.412  18.087  22.477  1.00  0.00    -0.157 SA
ATOM     28  C   UNL A   1      32.908  17.343  24.077  1.00  0.00     0.076 C 
ENDBRANCH  13  15
ENDBRANCH  12  13
ENDBRANCH   3   5
ENDBRANCH   2   3
ENDBRANCH   1   2
BRANCH   1  29
ATOM     29  C   UNL A   1      34.593  29.940  27.446  1.00  0.00     0.275 C 
BRANCH  29  30
ATOM     30  O   UNL A   1      35.842  29.232  27.569  1.00  0.00    -0.458 OA
BRANCH  30  31
ATOM     31  C   UNL A   1      36.562  29.462  28.691  1.00  0.00     0.338 C 
ATOM     32  O   UNL A   1      36.126  29.828  29.780  1.00  0.00    -0.246 OA
BRANCH  31  33
ATOM     33  C   UNL A   1      37.911  28.882  28.518  1.00  0.00     0.060 A 
ATOM     34  C   UNL A   1      38.541  28.134  29.512  1.00  0.00     0.016 A 
ATOM     35  C   UNL A   1      38.620  29.273  27.373  1.00  0.00     0.016 A 
ATOM     36  C   UNL A   1      39.899  27.859  29.385  1.00  0.00     0.010 A 
ATOM     37  C   UNL A   1      39.984  29.064  27.278  1.00  0.00     0.010 A 
ATOM     38  C   UNL A   1      40.623  28.363  28.291  1.00  0.00    -0.014 A 
BRANCH  38  39
ATOM     39  C   UNL A   1      41.996  27.919  28.121  1.00  0.00     0.031 A 
ATOM     40  C   UNL A   1      42.116  26.662  27.379  1.00  0.00     0.074 A 
ATOM     41  C   UNL A   1      43.118  28.589  28.422  1.00  0.00     0.049 A 
ATOM     42  N   UNL A   1      42.244  25.476  27.866  1.00  0.00    -0.248 NA
ATOM     43  C   UNL A   1      41.916  26.715  25.927  1.00  0.00     0.031 C 
ATOM     44  C   UNL A   1      43.219  30.012  28.631  1.00  0.00     0.029 A 
ATOM     45  N   UNL A   1      44.406  28.153  28.547  1.00  0.00    -0.354 N 
ATOM     46  C   UNL A   1      42.430  24.662  26.760  1.00  0.00     0.074 A 
ATOM     47  C   UNL A   1      41.964  25.417  25.626  1.00  0.00     0.031 C 
ATOM     48  C   UNL A   1      44.504  30.363  28.819  1.00  0.00     0.029 A 
ATOM     49  C   UNL A   1      45.322  29.170  28.770  1.00  0.00     0.049 A 
ATOM     50  H   UNL A   1      44.661  27.205  28.484  1.00  0.00     0.167 HD
ATOM     51  C   UNL A   1      43.268  23.595  26.845  1.00  0.00     0.037 A 
ATOM     52  C   UNL A   1      46.673  29.112  28.859  1.00  0.00     0.037 A 
ATOM     53  C   UNL A   1      43.492  23.224  28.231  1.00  0.00     0.049 A 
ATOM     54  C   UNL A   1      47.050  27.704  29.117  1.00  0.00     0.074 A 
ATOM     55  C   UNL A   1      42.670  22.956  29.312  1.00  0.00     0.029 A 
ATOM     56  N   UNL A   1      44.734  23.455  28.777  1.00  0.00    -0.354 N 
ATOM     57  N   UNL A   1      46.747  27.068  30.222  1.00  0.00    -0.248 NA
ATOM     58  C   UNL A   1      47.258  26.851  27.953  1.00  0.00     0.031 C 
ATOM     59  C   UNL A   1      43.337  23.524  30.440  1.00  0.00     0.029 A 
ATOM     60  C   UNL A   1      44.546  24.059  29.993  1.00  0.00     0.049 A 
ATOM     61  H   UNL A   1      45.600  23.227  28.369  1.00  0.00     0.167 HD
ATOM     62  C   UNL A   1      46.312  25.813  29.806  1.00  0.00     0.074 A 
ATOM     63  C   UNL A   1      46.713  25.718  28.404  1.00  0.00     0.031 C 
ATOM     64  C   UNL A   1      45.417  25.081  30.534  1.00  0.00     0.037 A 
BRANCH  51  65
ATOM     65  C   UNL A   1      44.215  23.192  25.733  1.00  0.00     0.057 A 
ATOM     66  C   UNL A   1      45.263  23.986  25.216  1.00  0.00     0.134 A 
ATOM     67  C   UNL A   1      44.278  21.834  25.378  1.00  0.00     0.134 A 
ATOM     68  F   UNL A   1      45.382  25.295  25.453  1.00  0.00    -0.206 F 
ATOM     69  C   UNL A   1      46.325  23.457  24.481  1.00  0.00     0.040 A 
ATOM     70  C   UNL A   1      45.364  21.286  24.686  1.00  0.00     0.040 A 
ATOM     71  F   UNL A   1      43.333  20.972  25.784  1.00  0.00    -0.206 F 
ATOM     72  C   UNL A   1      46.403  22.095  24.252  1.00  0.00     0.006 A 
ENDBRANCH  51  65
BRANCH  52  73
ATOM     73  C   UNL A   1      47.544  30.250  28.480  1.00  0.00     0.057 A 
ATOM     74  C   UNL A   1      48.142  31.028  29.497  1.00  0.00     0.134 A 
ATOM     75  C   UNL A   1      47.840  30.631  27.172  1.00  0.00     0.134 A 
ATOM     76  F   UNL A   1      47.801  30.847  30.783  1.00  0.00    -0.206 F 
ATOM     77  C   UNL A   1      49.094  32.015  29.242  1.00  0.00     0.040 A 
ATOM     78  C   UNL A   1      48.768  31.654  26.897  1.00  0.00     0.040 A 
ATOM     79  F   UNL A   1      47.252  30.023  26.133  1.00  0.00    -0.206 F 
ATOM     80  C   UNL A   1      49.423  32.323  27.932  1.00  0.00     0.006 A 
ENDBRANCH  52  73
BRANCH  64  81
ATOM     81  C   UNL A   1      45.108  25.519  31.934  1.00  0.00     0.057 A 
ATOM     82  C   UNL A   1      44.077  26.442  32.139  1.00  0.00     0.134 A 
ATOM     83  C   UNL A   1      45.960  25.256  33.017  1.00  0.00     0.134 A 
ATOM     84  F   UNL A   1      43.271  26.788  31.124  1.00  0.00    -0.206 F 
ATOM     85  C   UNL A   1      43.906  27.088  33.365  1.00  0.00     0.040 A 
ATOM     86  C   UNL A   1      45.803  25.908  34.245  1.00  0.00     0.040 A 
ATOM     87  F   UNL A   1      47.013  24.437  32.883  1.00  0.00    -0.206 F 
ATOM     88  C   UNL A   1      44.774  26.828  34.423  1.00  0.00     0.006 A 
ENDBRANCH  64  81
ENDBRANCH  38  39
ENDBRANCH  31  33
ENDBRANCH  30  31
ENDBRANCH  29  30
ENDBRANCH   1  29
TORSDOF 13
ENDMDL
MODEL 2
REMARK VINA RESULT:     -12.4      3.777      8.244
REMARK SMILES C[N@@H+]1CCN(C(=O)c2ccc3[nH]c4c(c3c2)CSCC4)C[C@H]1C(=O)OCCOC(=O)c1ccc(-c2c3nc(c(-c4c(F)cccc4F)c4ccc([nH]4)c(-c4c(F)cccc4F)c4nc(c(-c5c(F)cccc5F)c5ccc2[nH]5)C=C4)C=C3)cc1
REMARK SMILES IDX 26 1 25 2 23 3 24 4 22 5 1 6 2 7 3 8 4 10 21 11 5 12 6 13
REMARK SMILES IDX 7 14 8 15 9 16 16 17 10 18 15 19 11 20 14 21 12 22 13 23
REMARK SMILES IDX 17 24 20 26 18 27 19 28 27 29 28 30 29 31 30 32 31 33 32 34
REMARK SMILES IDX 84 35 33 36 83 37 34 38 35 39 36 40 77 41 37 42 82 43 76 44
REMARK SMILES IDX 78 45 38 46 81 47 75 48 74 49 39 51 65 52 48 53 64 54 49 55
REMARK SMILES IDX 52 56 63 57 79 58 50 59 51 60 62 62 80 63 53 64 40 65 41 66
REMARK SMILES IDX 46 67 42 68 43 69 45 70 47 71 44 72 66 73 67 74 72 75 68 76
REMARK SMILES IDX 69 77 71 78 73 79 70 80 54 81 55 82 60 83 56 84 57 85 59 86
REMARK SMILES IDX 61 87 58 88
REMARK H PARENT 2 9 12 25 78 50 52 61
REMARK Flexibility Score: inf
ROOT
ATOM      1  C   UNL A   1      37.745  22.491  25.463  1.00  0.00     0.274 C 
ENDROOT
BRANCH   1   2
ATOM      2  O   UNL A   1      36.662  21.827  24.769  1.00  0.00    -0.458 OA
BRANCH   2   3
ATOM      3  C   UNL A   1      35.455  22.189  25.243  1.00  0.00     0.366 C 
ATOM      4  O   UNL A   1      35.312  22.687  26.361  1.00  0.00    -0.245 OA
BRANCH   3   5
ATOM      5  C   UNL A   1      34.234  21.903  24.413  1.00  0.00     0.314 C 
ATOM      6  C   UNL A   1      33.824  19.519  25.047  1.00  0.00     0.333 C 
ATOM      7  N   UNL A   1      33.268  20.798  24.639  1.00  0.00    -0.323 N 
ATOM      8  C   UNL A   1      32.505  20.668  23.347  1.00  0.00     0.284 C 
ATOM      9  H   UNL A   1      32.688  21.042  25.442  1.00  0.00     0.348 HD
ATOM     10  C   UNL A   1      31.929  22.015  22.761  1.00  0.00     0.181 C 
ATOM     11  C   UNL A   1      33.379  23.169  24.376  1.00  0.00     0.197 C 
ATOM     12  N   UNL A   1      32.758  23.202  23.062  1.00  0.00    -0.326 N 
BRANCH  12  13
ATOM     13  C   UNL A   1      32.911  24.238  22.151  1.00  0.00     0.254 C 
ATOM     14  O   UNL A   1      33.277  24.033  20.994  1.00  0.00    -0.269 OA
BRANCH  13  15
ATOM     15  C   UNL A   1      32.738  25.670  22.590  1.00  0.00     0.040 A 
ATOM     16  C   UNL A   1      33.753  26.621  22.398  1.00  0.00     0.016 A 
ATOM     17  C   UNL A   1      31.445  26.114  22.874  1.00  0.00     0.024 A 
ATOM     18  C   UNL A   1      33.528  27.999  22.405  1.00  0.00     0.027 A 
ATOM     19  C   UNL A   1      31.165  27.494  22.783  1.00  0.00     0.004 A 
ATOM     20  C   UNL A   1      32.200  28.387  22.509  1.00  0.00     0.046 A 
ATOM     21  C   UNL A   1      29.957  28.248  22.799  1.00  0.00    -0.009 A 
ATOM     22  N   UNL A   1      31.633  29.615  22.269  1.00  0.00    -0.358 N 
ATOM     23  C   UNL A   1      30.274  29.513  22.342  1.00  0.00     0.021 A 
ATOM     24  C   UNL A   1      28.589  27.728  23.071  1.00  0.00     0.107 C 
ATOM     25  H   UNL A   1      32.130  30.442  22.075  1.00  0.00     0.166 HD
ATOM     26  C   UNL A   1      29.342  30.601  21.939  1.00  0.00     0.065 C 
ATOM     27  S   UNL A   1      27.338  29.058  23.153  1.00  0.00    -0.157 SA
ATOM     28  C   UNL A   1      27.922  30.056  21.731  1.00  0.00     0.076 C 
ENDBRANCH  13  15
ENDBRANCH  12  13
ENDBRANCH   3   5
ENDBRANCH   2   3
ENDBRANCH   1   2
BRANCH   1  29
ATOM     29  C   UNL A   1      38.907  21.534  25.769  1.00  0.00     0.275 C 
BRANCH  29  30
ATOM     30  O   UNL A   1      39.694  21.997  26.884  1.00  0.00    -0.458 OA
BRANCH  30  31
ATOM     31  C   UNL A   1      40.810  22.703  26.589  1.00  0.00     0.338 C 
ATOM     32  O   UNL A   1      41.663  22.411  25.755  1.00  0.00    -0.246 OA
BRANCH  31  33
ATOM     33  C   UNL A   1      40.685  24.055  27.175  1.00  0.00     0.060 A 
ATOM     34  C   UNL A   1      40.037  25.101  26.519  1.00  0.00     0.016 A 
ATOM     35  C   UNL A   1      41.414  24.301  28.347  1.00  0.00     0.016 A 
ATOM     36  C   UNL A   1      40.198  26.396  27.001  1.00  0.00     0.010 A 
ATOM     37  C   UNL A   1      41.635  25.594  28.787  1.00  0.00     0.010 A 
ATOM     38  C   UNL A   1      41.031  26.641  28.106  1.00  0.00    -0.014 A 
BRANCH  38  39
ATOM     39  C   UNL A   1      41.042  27.982  28.666  1.00  0.00     0.031 A 
ATOM     40  C   UNL A   1      42.245  28.747  28.327  1.00  0.00     0.074 A 
ATOM     41  C   UNL A   1      40.043  28.616  29.298  1.00  0.00     0.049 A 
ATOM     42  N   UNL A   1      43.302  28.899  29.046  1.00  0.00    -0.248 NA
ATOM     43  C   UNL A   1      42.344  29.276  26.962  1.00  0.00     0.031 C 
ATOM     44  C   UNL A   1      38.648  28.257  29.239  1.00  0.00     0.029 A 
ATOM     45  N   UNL A   1      40.055  29.739  30.074  1.00  0.00    -0.354 N 
ATOM     46  C   UNL A   1      44.086  29.791  28.331  1.00  0.00     0.074 A 
ATOM     47  C   UNL A   1      43.580  29.775  26.984  1.00  0.00     0.031 C 
ATOM     48  C   UNL A   1      37.909  29.159  29.911  1.00  0.00     0.029 A 
ATOM     49  C   UNL A   1      38.794  30.154  30.476  1.00  0.00     0.049 A 
ATOM     50  H   UNL A   1      40.881  30.210  30.325  1.00  0.00     0.167 HD
ATOM     51  C   UNL A   1      44.837  30.708  28.998  1.00  0.00     0.037 A 
ATOM     52  C   UNL A   1      38.430  31.258  31.173  1.00  0.00     0.037 A 
ATOM     53  C   UNL A   1      45.036  30.307  30.378  1.00  0.00     0.049 A 
ATOM     54  C   UNL A   1      39.636  31.785  31.851  1.00  0.00     0.074 A 
ATOM     55  C   UNL A   1      45.477  29.153  31.002  1.00  0.00     0.029 A 
ATOM     56  N   UNL A   1      44.403  31.026  31.366  1.00  0.00    -0.354 N 
ATOM     57  N   UNL A   1      40.266  31.142  32.803  1.00  0.00    -0.248 NA
ATOM     58  C   UNL A   1      40.453  32.733  31.103  1.00  0.00     0.031 C 
ATOM     59  C   UNL A   1      44.665  29.025  32.170  1.00  0.00     0.029 A 
ATOM     60  C   UNL A   1      43.813  30.129  32.218  1.00  0.00     0.049 A 
ATOM     61  H   UNL A   1      44.379  32.007  31.447  1.00  0.00     0.167 HD
ATOM     62  C   UNL A   1      41.617  31.282  32.498  1.00  0.00     0.074 A 
ATOM     63  C   UNL A   1      41.669  32.326  31.478  1.00  0.00     0.031 C 
ATOM     64  C   UNL A   1      42.542  30.350  32.875  1.00  0.00     0.037 A 
BRANCH  51  65
ATOM     65  C   UNL A   1      44.997  32.143  28.537  1.00  0.00     0.057 A 
ATOM     66  C   UNL A   1      43.997  33.140  28.585  1.00  0.00     0.134 A 
ATOM     67  C   UNL A   1      46.299  32.628  28.325  1.00  0.00     0.134 A 
ATOM     68  F   UNL A   1      42.703  32.876  28.789  1.00  0.00    -0.206 F 
ATOM     69  C   UNL A   1      44.281  34.504  28.514  1.00  0.00     0.040 A 
ATOM     70  C   UNL A   1      46.599  33.994  28.304  1.00  0.00     0.040 A 
ATOM     71  F   UNL A   1      47.341  31.787  28.237  1.00  0.00    -0.206 F 
ATOM     72  C   UNL A   1      45.590  34.939  28.418  1.00  0.00     0.006 A 
ENDBRANCH  51  65
BRANCH  52  73
ATOM     73  C   UNL A   1      37.105  31.902  31.007  1.00  0.00     0.057 A 
ATOM     74  C   UNL A   1      36.221  31.955  32.109  1.00  0.00     0.134 A 
ATOM     75  C   UNL A   1      36.638  32.481  29.828  1.00  0.00     0.134 A 
ATOM     76  F   UNL A   1      36.506  31.292  33.242  1.00  0.00    -0.206 F 
ATOM     77  C   UNL A   1      35.025  32.670  32.094  1.00  0.00     0.040 A 
ATOM     78  C   UNL A   1      35.413  33.173  29.784  1.00  0.00     0.040 A 
ATOM     79  F   UNL A   1      37.353  32.402  28.698  1.00  0.00    -0.206 F 
ATOM     80  C   UNL A   1      34.621  33.299  30.927  1.00  0.00     0.006 A 
ENDBRANCH  52  73
BRANCH  64  81
ATOM     81  C   UNL A   1      42.135  29.301  33.866  1.00  0.00     0.057 A 
ATOM     82  C   UNL A   1      42.474  29.478  35.211  1.00  0.00     0.134 A 
ATOM     83  C   UNL A   1      41.665  28.037  33.482  1.00  0.00     0.134 A 
ATOM     84  F   UNL A   1      42.994  30.642  35.627  1.00  0.00    -0.206 F 
ATOM     85  C   UNL A   1      42.364  28.438  36.137  1.00  0.00     0.040 A 
ATOM     86  C   UNL A   1      41.563  26.985  34.400  1.00  0.00     0.040 A 
ATOM     87  F   UNL A   1      41.384  27.764  32.199  1.00  0.00    -0.206 F 
ATOM     88  C   UNL A   1      41.913  27.184  35.732  1.00  0.00     0.006 A 
ENDBRANCH  64  81
ENDBRANCH  38  39
ENDBRANCH  31  33
ENDBRANCH  30  31
ENDBRANCH  29  30
ENDBRANCH   1  29
TORSDOF 13
ENDMDL
MODEL 3
REMARK VINA RESULT:     -12.4      1.989      6.181
REMARK SMILES C[N@@H+]1CCN(C(=O)c2ccc3[nH]c4c(c3c2)CSCC4)C[C@H]1C(=O)OCCOC(=O)c1ccc(-c2c3nc(c(-c4c(F)cccc4F)c4ccc([nH]4)c(-c4c(F)cccc4F)c4nc(c(-c5c(F)cccc5F)c5ccc2[nH]5)C=C4)C=C3)cc1
REMARK SMILES IDX 26 1 25 2 23 3 24 4 22 5 1 6 2 7 3 8 4 10 21 11 5 12 6 13
REMARK SMILES IDX 7 14 8 15 9 16 16 17 10 18 15 19 11 20 14 21 12 22 13 23
REMARK SMILES IDX 17 24 20 26 18 27 19 28 27 29 28 30 29 31 30 32 31 33 32 34
REMARK SMILES IDX 84 35 33 36 83 37 34 38 35 39 36 40 77 41 37 42 82 43 76 44
REMARK SMILES IDX 78 45 38 46 81 47 75 48 74 49 39 51 65 52 48 53 64 54 49 55
REMARK SMILES IDX 52 56 63 57 79 58 50 59 51 60 62 62 80 63 53 64 40 65 41 66
REMARK SMILES IDX 46 67 42 68 43 69 45 70 47 71 44 72 66 73 67 74 72 75 68 76
REMARK SMILES IDX 69 77 71 78 73 79 70 80 54 81 55 82 60 83 56 84 57 85 59 86
REMARK SMILES IDX 61 87 58 88
REMARK H PARENT 2 9 12 25 78 50 52 61
REMARK Flexibility Score: inf
ROOT
ATOM      1  C   UNL A   1      32.316  30.052  26.968  1.00  0.00     0.274 C 
ENDROOT
BRANCH   1   2
ATOM      2  O   UNL A   1      31.627  30.154  25.699  1.00  0.00    -0.458 OA
BRANCH   2   3
ATOM      3  C   UNL A   1      32.056  29.236  24.813  1.00  0.00     0.366 C 
ATOM      4  O   UNL A   1      33.144  29.333  24.242  1.00  0.00    -0.245 OA
BRANCH   3   5
ATOM      5  C   UNL A   1      31.143  28.098  24.447  1.00  0.00     0.314 C 
ATOM      6  C   UNL A   1      29.403  29.335  23.146  1.00  0.00     0.333 C 
ATOM      7  N   UNL A   1      30.145  28.102  23.348  1.00  0.00    -0.323 N 
ATOM      8  C   UNL A   1      29.216  26.956  23.652  1.00  0.00     0.284 C 
ATOM      9  H   UNL A   1      30.644  28.010  22.464  1.00  0.00     0.348 HD
ATOM     10  C   UNL A   1      29.919  25.582  23.977  1.00  0.00     0.181 C 
ATOM     11  C   UNL A   1      32.005  26.864  24.188  1.00  0.00     0.197 C 
ATOM     12  N   UNL A   1      31.230  25.722  24.646  1.00  0.00    -0.326 N 
BRANCH  12  13
ATOM     13  C   UNL A   1      31.653  24.830  25.621  1.00  0.00     0.254 C 
ATOM     14  O   UNL A   1      31.202  24.861  26.765  1.00  0.00    -0.269 OA
BRANCH  13  15
ATOM     15  C   UNL A   1      32.770  23.859  25.331  1.00  0.00     0.040 A 
ATOM     16  C   UNL A   1      33.920  23.807  26.136  1.00  0.00     0.016 A 
ATOM     17  C   UNL A   1      32.501  22.792  24.472  1.00  0.00     0.024 A 
ATOM     18  C   UNL A   1      34.781  22.710  26.178  1.00  0.00     0.027 A 
ATOM     19  C   UNL A   1      33.291  21.627  24.569  1.00  0.00     0.004 A 
ATOM     20  C   UNL A   1      34.375  21.603  25.447  1.00  0.00     0.046 A 
ATOM     21  C   UNL A   1      33.172  20.319  24.018  1.00  0.00    -0.009 A 
ATOM     22  N   UNL A   1      34.832  20.309  25.502  1.00  0.00    -0.358 N 
ATOM     23  C   UNL A   1      34.046  19.512  24.721  1.00  0.00     0.021 A 
ATOM     24  C   UNL A   1      32.170  19.866  23.013  1.00  0.00     0.107 C 
ATOM     25  H   UNL A   1      35.609  20.003  26.023  1.00  0.00     0.166 HD
ATOM     26  C   UNL A   1      34.133  18.026  24.708  1.00  0.00     0.065 C 
ATOM     27  S   UNL A   1      32.467  18.151  22.453  1.00  0.00    -0.157 SA
ATOM     28  C   UNL A   1      32.875  17.411  24.080  1.00  0.00     0.076 C 
ENDBRANCH  13  15
ENDBRANCH  12  13
ENDBRANCH   3   5
ENDBRANCH   2   3
ENDBRANCH   1   2
BRANCH   1  29
ATOM     29  C   UNL A   1      33.099  31.331  27.304  1.00  0.00     0.275 C 
BRANCH  29  30
ATOM     30  O   UNL A   1      34.522  31.105  27.269  1.00  0.00    -0.458 OA
BRANCH  30  31
ATOM     31  C   UNL A   1      35.289  31.943  28.003  1.00  0.00     0.338 C 
ATOM     32  O   UNL A   1      34.969  33.055  28.418  1.00  0.00    -0.246 OA
BRANCH  31  33
ATOM     33  C   UNL A   1      36.450  31.192  28.523  1.00  0.00     0.060 A 
ATOM     34  C   UNL A   1      37.619  31.819  28.954  1.00  0.00     0.016 A 
ATOM     35  C   UNL A   1      36.406  29.797  28.391  1.00  0.00     0.016 A 
ATOM     36  C   UNL A   1      38.755  31.045  29.168  1.00  0.00     0.010 A 
ATOM     37  C   UNL A   1      37.551  29.034  28.532  1.00  0.00     0.010 A 
ATOM     38  C   UNL A   1      38.727  29.663  28.914  1.00  0.00    -0.014 A 
BRANCH  38  39
ATOM     39  C   UNL A   1      39.887  28.877  29.300  1.00  0.00     0.031 A 
ATOM     40  C   UNL A   1      40.214  28.980  30.724  1.00  0.00     0.074 A 
ATOM     41  C   UNL A   1      40.560  27.987  28.556  1.00  0.00     0.049 A 
ATOM     42  N   UNL A   1      41.089  29.752  31.271  1.00  0.00    -0.248 NA
ATOM     43  C   UNL A   1      39.360  28.250  31.667  1.00  0.00     0.031 C 
ATOM     44  C   UNL A   1      40.072  27.351  27.358  1.00  0.00     0.029 A 
ATOM     45  N   UNL A   1      41.789  27.423  28.743  1.00  0.00    -0.354 N 
ATOM     46  C   UNL A   1      41.090  29.387  32.608  1.00  0.00     0.074 A 
ATOM     47  C   UNL A   1      39.859  28.674  32.828  1.00  0.00     0.031 C 
ATOM     48  C   UNL A   1      40.963  26.443  26.919  1.00  0.00     0.029 A 
ATOM     49  C   UNL A   1      42.109  26.455  27.802  1.00  0.00     0.049 A 
ATOM     50  H   UNL A   1      42.392  27.678  29.477  1.00  0.00     0.167 HD
ATOM     51  C   UNL A   1      42.256  29.402  33.307  1.00  0.00     0.037 A 
ATOM     52  C   UNL A   1      43.194  25.645  27.731  1.00  0.00     0.037 A 
ATOM     53  C   UNL A   1      43.245  30.232  32.643  1.00  0.00     0.049 A 
ATOM     54  C   UNL A   1      44.253  26.229  28.586  1.00  0.00     0.074 A 
ATOM     55  C   UNL A   1      43.257  31.526  32.151  1.00  0.00     0.029 A 
ATOM     56  N   UNL A   1      44.327  29.618  32.056  1.00  0.00    -0.354 N 
ATOM     57  N   UNL A   1      44.837  27.373  28.328  1.00  0.00    -0.248 NA
ATOM     58  C   UNL A   1      44.261  25.835  29.989  1.00  0.00     0.031 C 
ATOM     59  C   UNL A   1      44.023  31.461  30.947  1.00  0.00     0.029 A 
ATOM     60  C   UNL A   1      44.473  30.149  30.801  1.00  0.00     0.049 A 
ATOM     61  H   UNL A   1      44.893  28.923  32.463  1.00  0.00     0.167 HD
ATOM     62  C   UNL A   1      44.899  28.028  29.555  1.00  0.00     0.074 A 
ATOM     63  C   UNL A   1      44.589  27.003  30.549  1.00  0.00     0.031 C 
ATOM     64  C   UNL A   1      44.906  29.391  29.646  1.00  0.00     0.037 A 
BRANCH  51  65
ATOM     65  C   UNL A   1      42.635  28.334  34.313  1.00  0.00     0.057 A 
ATOM     66  C   UNL A   1      42.996  27.003  34.004  1.00  0.00     0.134 A 
ATOM     67  C   UNL A   1      42.952  28.739  35.620  1.00  0.00     0.134 A 
ATOM     68  F   UNL A   1      42.788  26.441  32.810  1.00  0.00    -0.206 F 
ATOM     69  C   UNL A   1      43.689  26.179  34.892  1.00  0.00     0.040 A 
ATOM     70  C   UNL A   1      43.690  27.939  36.499  1.00  0.00     0.040 A 
ATOM     71  F   UNL A   1      42.645  29.972  36.052  1.00  0.00    -0.206 F 
ATOM     72  C   UNL A   1      44.079  26.660  36.128  1.00  0.00     0.006 A 
ENDBRANCH  51  65
BRANCH  52  73
ATOM     73  C   UNL A   1      43.143  24.302  27.106  1.00  0.00     0.057 A 
ATOM     74  C   UNL A   1      42.677  23.205  27.866  1.00  0.00     0.134 A 
ATOM     75  C   UNL A   1      43.521  24.014  25.795  1.00  0.00     0.134 A 
ATOM     76  F   UNL A   1      42.437  23.340  29.180  1.00  0.00    -0.206 F 
ATOM     77  C   UNL A   1      42.449  21.942  27.321  1.00  0.00     0.040 A 
ATOM     78  C   UNL A   1      43.335  22.733  25.242  1.00  0.00     0.040 A 
ATOM     79  F   UNL A   1      44.066  24.959  25.017  1.00  0.00    -0.206 F 
ATOM     80  C   UNL A   1      42.766  21.704  25.994  1.00  0.00     0.006 A 
ENDBRANCH  52  73
BRANCH  64  81
ATOM     81  C   UNL A   1      45.125  30.189  28.395  1.00  0.00     0.057 A 
ATOM     82  C   UNL A   1      46.407  30.676  28.123  1.00  0.00     0.134 A 
ATOM     83  C   UNL A   1      44.069  30.689  27.620  1.00  0.00     0.134 A 
ATOM     84  F   UNL A   1      47.449  30.288  28.873  1.00  0.00    -0.206 F 
ATOM     85  C   UNL A   1      46.632  31.634  27.130  1.00  0.00     0.040 A 
ATOM     86  C   UNL A   1      44.282  31.657  26.632  1.00  0.00     0.040 A 
ATOM     87  F   UNL A   1      42.801  30.325  27.862  1.00  0.00    -0.206 F 
ATOM     88  C   UNL A   1      45.567  32.133  26.384  1.00  0.00     0.006 A 
ENDBRANCH  64  81
ENDBRANCH  38  39
ENDBRANCH  31  33
ENDBRANCH  30  31
ENDBRANCH  29  30
ENDBRANCH   1  29
TORSDOF 13
ENDMDL
