MODEL 1
REMARK VINA RESULT:     -10.4      0.000      0.000
REMARK SMILES C=CC[N@H+](CC(=O)OCCOC(=O)c1ccc(-c2c3nc(c(-c4c(F)cccc4F)c4ccc([nH]4)c(-c4c(F)cccc4F)c4nc(c(-c5c(F)cccc5F)c5ccc2[nH]5)C=C4)C=C3)cc1)Cc1ccc(C(F)(F)F)cc1
REMARK SMILES IDX 9 1 8 2 6 3 7 4 5 5 4 6 3 8 2 9 1 10 68 11 69 12 70 13 78 14
REMARK SMILES IDX 71 15 77 16 72 17 73 18 74 19 75 20 76 21 10 22 11 23 12 24
REMARK SMILES IDX 13 25 14 26 15 27 67 28 16 29 66 30 17 31 18 32 19 33 60 34
REMARK SMILES IDX 20 35 65 36 59 37 61 38 21 39 64 40 58 41 57 42 22 44 48 45
REMARK SMILES IDX 31 46 47 47 32 48 35 49 46 50 62 51 33 52 34 53 45 55 63 56
REMARK SMILES IDX 36 57 23 58 24 59 29 60 25 61 26 62 28 63 30 64 27 65 49 66
REMARK SMILES IDX 50 67 55 68 51 69 52 70 54 71 56 72 53 73 37 74 38 75 43 76
REMARK SMILES IDX 39 77 40 78 42 79 44 80 41 81
REMARK H PARENT 4 7 61 43 35 54
REMARK Flexibility Score: inf
ROOT
ATOM      1  C   UNL A   1      31.249  31.201  25.978  1.00  0.00     0.274 C 
ENDROOT
BRANCH   1   2
ATOM      2  O   UNL A   1      31.768  30.026  26.629  1.00  0.00    -0.458 OA
BRANCH   2   3
ATOM      3  C   UNL A   1      32.351  29.094  25.826  1.00  0.00     0.361 C 
ATOM      4  O   UNL A   1      33.220  29.345  24.995  1.00  0.00    -0.245 OA
BRANCH   3   5
ATOM      5  C   UNL A   1      31.814  27.674  26.024  1.00  0.00     0.387 C 
BRANCH   5   6
ATOM      6  N   UNL A   1      31.779  26.893  24.794  1.00  0.00    -0.319 N 
ATOM      7  H   UNL A   1      32.028  27.594  24.096  1.00  0.00     0.349 HD
BRANCH   6   8
ATOM      8  C   UNL A   1      32.915  26.043  24.506  1.00  0.00     0.291 C 
BRANCH   8   9
ATOM      9  C   UNL A   1      33.600  26.344  23.206  1.00  0.00     0.025 C 
ATOM     10  C   UNL A   1      33.183  25.862  22.026  1.00  0.00     0.010 C 
ENDBRANCH   8   9
ENDBRANCH   6   8
BRANCH   6  11
ATOM     11  C   UNL A   1      30.480  26.620  24.199  1.00  0.00     0.299 C 
BRANCH  11  12
ATOM     12  C   UNL A   1      29.886  27.712  23.327  1.00  0.00     0.006 A 
ATOM     13  C   UNL A   1      30.667  28.601  22.579  1.00  0.00     0.010 A 
ATOM     14  C   UNL A   1      28.505  27.956  23.413  1.00  0.00     0.010 A 
ATOM     15  C   UNL A   1      30.111  29.748  22.012  1.00  0.00     0.013 A 
ATOM     16  C   UNL A   1      27.944  29.107  22.851  1.00  0.00     0.013 A 
ATOM     17  C   UNL A   1      28.751  30.034  22.178  1.00  0.00     0.056 A 
BRANCH  17  18
ATOM     18  C   UNL A   1      28.198  31.369  21.755  1.00  0.00     0.416 C 
ATOM     19  F   UNL A   1      27.602  31.319  20.530  1.00  0.00    -0.166 F 
ATOM     20  F   UNL A   1      27.252  31.860  22.606  1.00  0.00    -0.166 F 
ATOM     21  F   UNL A   1      29.151  32.339  21.662  1.00  0.00    -0.166 F 
ENDBRANCH  17  18
ENDBRANCH  11  12
ENDBRANCH   6  11
ENDBRANCH   5   6
ENDBRANCH   3   5
ENDBRANCH   2   3
ENDBRANCH   1   2
BRANCH   1  22
ATOM     22  C   UNL A   1      31.405  32.434  26.862  1.00  0.00     0.275 C 
BRANCH  22  23
ATOM     23  O   UNL A   1      32.752  32.940  26.777  1.00  0.00    -0.458 OA
BRANCH  23  24
ATOM     24  C   UNL A   1      33.177  33.574  27.888  1.00  0.00     0.338 C 
ATOM     25  O   UNL A   1      32.708  34.589  28.384  1.00  0.00    -0.246 OA
BRANCH  24  26
ATOM     26  C   UNL A   1      34.390  32.977  28.437  1.00  0.00     0.060 A 
ATOM     27  C   UNL A   1      35.542  33.730  28.664  1.00  0.00     0.016 A 
ATOM     28  C   UNL A   1      34.387  31.589  28.608  1.00  0.00     0.016 A 
ATOM     29  C   UNL A   1      36.704  33.079  29.075  1.00  0.00     0.010 A 
ATOM     30  C   UNL A   1      35.532  30.947  29.062  1.00  0.00     0.010 A 
ATOM     31  C   UNL A   1      36.693  31.691  29.308  1.00  0.00    -0.014 A 
BRANCH  31  32
ATOM     32  C   UNL A   1      37.830  31.058  30.005  1.00  0.00     0.031 A 
ATOM     33  C   UNL A   1      38.763  30.115  29.318  1.00  0.00     0.074 A 
ATOM     34  C   UNL A   1      37.971  31.348  31.312  1.00  0.00     0.049 A 
ATOM     35  N   UNL A   1      39.814  29.506  29.805  1.00  0.00    -0.248 NA
ATOM     36  C   UNL A   1      38.483  29.804  27.909  1.00  0.00     0.031 C 
ATOM     37  C   UNL A   1      37.078  32.227  32.073  1.00  0.00     0.029 A 
ATOM     38  N   UNL A   1      38.910  30.953  32.224  1.00  0.00    -0.354 N 
ATOM     39  C   UNL A   1      40.323  28.737  28.769  1.00  0.00     0.074 A 
ATOM     40  C   UNL A   1      39.454  28.943  27.626  1.00  0.00     0.031 C 
ATOM     41  C   UNL A   1      37.538  32.341  33.326  1.00  0.00     0.029 A 
ATOM     42  C   UNL A   1      38.731  31.515  33.462  1.00  0.00     0.049 A 
ATOM     43  H   UNL A   1      39.641  30.328  32.012  1.00  0.00     0.167 HD
ATOM     44  C   UNL A   1      41.416  27.937  28.780  1.00  0.00     0.037 A 
ATOM     45  C   UNL A   1      39.454  31.383  34.586  1.00  0.00     0.037 A 
ATOM     46  C   UNL A   1      42.261  27.738  29.932  1.00  0.00     0.049 A 
ATOM     47  C   UNL A   1      40.669  30.511  34.561  1.00  0.00     0.074 A 
ATOM     48  C   UNL A   1      43.402  26.961  30.045  1.00  0.00     0.029 A 
ATOM     49  N   UNL A   1      42.051  28.320  31.175  1.00  0.00    -0.354 N 
ATOM     50  N   UNL A   1      41.160  29.815  33.565  1.00  0.00    -0.248 NA
ATOM     51  C   UNL A   1      41.429  30.404  35.811  1.00  0.00     0.031 C 
ATOM     52  C   UNL A   1      43.865  27.051  31.364  1.00  0.00     0.029 A 
ATOM     53  C   UNL A   1      43.032  27.909  32.064  1.00  0.00     0.049 A 
ATOM     54  H   UNL A   1      41.314  28.935  31.393  1.00  0.00     0.167 HD
ATOM     55  C   UNL A   1      42.286  29.184  34.064  1.00  0.00     0.074 A 
ATOM     56  C   UNL A   1      42.421  29.604  35.446  1.00  0.00     0.031 C 
ATOM     57  C   UNL A   1      43.128  28.326  33.440  1.00  0.00     0.037 A 
BRANCH  44  58
ATOM     58  C   UNL A   1      41.755  27.204  27.517  1.00  0.00     0.057 A 
ATOM     59  C   UNL A   1      42.538  27.789  26.514  1.00  0.00     0.134 A 
ATOM     60  C   UNL A   1      41.341  25.880  27.323  1.00  0.00     0.134 A 
ATOM     61  F   UNL A   1      42.959  29.057  26.634  1.00  0.00    -0.206 F 
ATOM     62  C   UNL A   1      42.890  27.086  25.360  1.00  0.00     0.040 A 
ATOM     63  C   UNL A   1      41.699  25.161  26.181  1.00  0.00     0.040 A 
ATOM     64  F   UNL A   1      40.591  25.259  28.246  1.00  0.00    -0.206 F 
ATOM     65  C   UNL A   1      42.476  25.766  25.194  1.00  0.00     0.006 A 
ENDBRANCH  44  58
BRANCH  45  66
ATOM     66  C   UNL A   1      39.050  32.130  35.798  1.00  0.00     0.057 A 
ATOM     67  C   UNL A   1      39.436  33.461  35.983  1.00  0.00     0.134 A 
ATOM     68  C   UNL A   1      38.208  31.558  36.759  1.00  0.00     0.134 A 
ATOM     69  F   UNL A   1      40.247  34.057  35.097  1.00  0.00    -0.206 F 
ATOM     70  C   UNL A   1      39.000  34.199  37.084  1.00  0.00     0.040 A 
ATOM     71  C   UNL A   1      37.747  32.290  37.853  1.00  0.00     0.040 A 
ATOM     72  F   UNL A   1      37.790  30.290  36.624  1.00  0.00    -0.206 F 
ATOM     73  C   UNL A   1      38.146  33.616  38.017  1.00  0.00     0.006 A 
ENDBRANCH  45  66
BRANCH  57  74
ATOM     74  C   UNL A   1      44.255  27.789  34.266  1.00  0.00     0.057 A 
ATOM     75  C   UNL A   1      45.482  28.458  34.347  1.00  0.00     0.134 A 
ATOM     76  C   UNL A   1      44.118  26.587  34.970  1.00  0.00     0.134 A 
ATOM     77  F   UNL A   1      45.677  29.605  33.678  1.00  0.00    -0.206 F 
ATOM     78  C   UNL A   1      46.547  27.936  35.082  1.00  0.00     0.040 A 
ATOM     79  C   UNL A   1      45.170  26.065  35.723  1.00  0.00     0.040 A 
ATOM     80  F   UNL A   1      42.967  25.901  34.930  1.00  0.00    -0.206 F 
ATOM     81  C   UNL A   1      46.391  26.736  35.774  1.00  0.00     0.006 A 
ENDBRANCH  57  74
ENDBRANCH  31  32
ENDBRANCH  24  26
ENDBRANCH  23  24
ENDBRANCH  22  23
ENDBRANCH   1  22
TORSDOF 17
ENDMDL
MODEL 2
REMARK VINA RESULT:     -10.3      5.497      8.605
REMARK SMILES C=CC[N@H+](CC(=O)OCCOC(=O)c1ccc(-c2c3nc(c(-c4c(F)cccc4F)c4ccc([nH]4)c(-c4c(F)cccc4F)c4nc(c(-c5c(F)cccc5F)c5ccc2[nH]5)C=C4)C=C3)cc1)Cc1ccc(C(F)(F)F)cc1
REMARK SMILES IDX 9 1 8 2 6 3 7 4 5 5 4 6 3 8 2 9 1 10 68 11 69 12 70 13 78 14
REMARK SMILES IDX 71 15 77 16 72 17 73 18 74 19 75 20 76 21 10 22 11 23 12 24
REMARK SMILES IDX 13 25 14 26 15 27 67 28 16 29 66 30 17 31 18 32 19 33 60 34
REMARK SMILES IDX 20 35 65 36 59 37 61 38 21 39 64 40 58 41 57 42 22 44 48 45
REMARK SMILES IDX 31 46 47 47 32 48 35 49 46 50 62 51 33 52 34 53 45 55 63 56
REMARK SMILES IDX 36 57 23 58 24 59 29 60 25 61 26 62 28 63 30 64 27 65 49 66
REMARK SMILES IDX 50 67 55 68 51 69 52 70 54 71 56 72 53 73 37 74 38 75 43 76
REMARK SMILES IDX 39 77 40 78 42 79 44 80 41 81
REMARK H PARENT 4 7 61 43 35 54
REMARK Flexibility Score: inf
ROOT
ATOM      1  C   UNL A   1      35.901  20.926  24.725  1.00  0.00     0.274 C 
ENDROOT
BRANCH   1   2
ATOM      2  O   UNL A   1      35.538  21.984  25.631  1.00  0.00    -0.458 OA
BRANCH   2   3
ATOM      3  C   UNL A   1      35.231  23.187  25.070  1.00  0.00     0.361 C 
ATOM      4  O   UNL A   1      35.661  24.265  25.471  1.00  0.00    -0.245 OA
BRANCH   3   5
ATOM      5  C   UNL A   1      34.267  23.095  23.884  1.00  0.00     0.387 C 
BRANCH   5   6
ATOM      6  N   UNL A   1      32.902  22.762  24.273  1.00  0.00    -0.319 N 
ATOM      7  H   UNL A   1      33.059  22.077  25.012  1.00  0.00     0.349 HD
BRANCH   6   8
ATOM      8  C   UNL A   1      32.203  23.693  25.133  1.00  0.00     0.291 C 
BRANCH   8   9
ATOM      9  C   UNL A   1      31.670  23.089  26.398  1.00  0.00     0.025 C 
ATOM     10  C   UNL A   1      30.390  23.193  26.780  1.00  0.00     0.010 C 
ENDBRANCH   8   9
ENDBRANCH   6   8
BRANCH   6  11
ATOM     11  C   UNL A   1      32.164  21.832  23.433  1.00  0.00     0.299 C 
BRANCH  11  12
ATOM     12  C   UNL A   1      32.280  20.359  23.780  1.00  0.00     0.006 A 
ATOM     13  C   UNL A   1      32.579  19.899  25.069  1.00  0.00     0.010 A 
ATOM     14  C   UNL A   1      32.266  19.424  22.731  1.00  0.00     0.010 A 
ATOM     15  C   UNL A   1      32.943  18.571  25.294  1.00  0.00     0.013 A 
ATOM     16  C   UNL A   1      32.635  18.094  22.951  1.00  0.00     0.013 A 
ATOM     17  C   UNL A   1      33.015  17.665  24.231  1.00  0.00     0.056 A 
BRANCH  17  18
ATOM     18  C   UNL A   1      33.612  16.297  24.436  1.00  0.00     0.416 C 
ATOM     19  F   UNL A   1      34.313  15.868  23.349  1.00  0.00    -0.166 F 
ATOM     20  F   UNL A   1      34.481  16.236  25.485  1.00  0.00    -0.166 F 
ATOM     21  F   UNL A   1      32.677  15.335  24.675  1.00  0.00    -0.166 F 
ENDBRANCH  17  18
ENDBRANCH  11  12
ENDBRANCH   6  11
ENDBRANCH   5   6
ENDBRANCH   3   5
ENDBRANCH   2   3
ENDBRANCH   1   2
BRANCH   1  22
ATOM     22  C   UNL A   1      37.369  20.543  24.884  1.00  0.00     0.275 C 
BRANCH  22  23
ATOM     23  O   UNL A   1      37.908  21.130  26.085  1.00  0.00    -0.458 OA
BRANCH  23  24
ATOM     24  C   UNL A   1      39.249  21.040  26.191  1.00  0.00     0.338 C 
ATOM     25  O   UNL A   1      39.936  20.038  26.047  1.00  0.00    -0.246 OA
BRANCH  24  26
ATOM     26  C   UNL A   1      39.855  22.294  26.627  1.00  0.00     0.060 A 
ATOM     27  C   UNL A   1      40.883  22.325  27.570  1.00  0.00     0.016 A 
ATOM     28  C   UNL A   1      39.273  23.472  26.151  1.00  0.00     0.016 A 
ATOM     29  C   UNL A   1      41.337  23.558  28.033  1.00  0.00     0.010 A 
ATOM     30  C   UNL A   1      39.757  24.702  26.579  1.00  0.00     0.010 A 
ATOM     31  C   UNL A   1      40.798  24.751  27.514  1.00  0.00    -0.014 A 
BRANCH  31  32
ATOM     32  C   UNL A   1      41.467  26.037  27.794  1.00  0.00     0.031 A 
ATOM     33  C   UNL A   1      42.852  26.336  27.320  1.00  0.00     0.074 A 
ATOM     34  C   UNL A   1      40.776  26.927  28.530  1.00  0.00     0.049 A 
ATOM     35  N   UNL A   1      43.550  27.432  27.476  1.00  0.00    -0.248 NA
ATOM     36  C   UNL A   1      43.553  25.273  26.586  1.00  0.00     0.031 C 
ATOM     37  C   UNL A   1      39.432  26.699  29.070  1.00  0.00     0.029 A 
ATOM     38  N   UNL A   1      41.093  28.192  28.942  1.00  0.00    -0.354 N 
ATOM     39  C   UNL A   1      44.772  27.196  26.865  1.00  0.00     0.074 A 
ATOM     40  C   UNL A   1      44.729  25.842  26.348  1.00  0.00     0.031 C 
ATOM     41  C   UNL A   1      39.021  27.805  29.703  1.00  0.00     0.029 A 
ATOM     42  C   UNL A   1      40.085  28.800  29.645  1.00  0.00     0.049 A 
ATOM     43  H   UNL A   1      41.957  28.623  28.751  1.00  0.00     0.167 HD
ATOM     44  C   UNL A   1      45.828  28.038  26.752  1.00  0.00     0.037 A 
ATOM     45  C   UNL A   1      40.023  30.029  30.182  1.00  0.00     0.037 A 
ATOM     46  C   UNL A   1      45.853  29.379  27.284  1.00  0.00     0.049 A 
ATOM     47  C   UNL A   1      41.194  30.945  30.020  1.00  0.00     0.074 A 
ATOM     48  C   UNL A   1      46.866  30.320  27.209  1.00  0.00     0.029 A 
ATOM     49  N   UNL A   1      44.816  29.965  27.996  1.00  0.00    -0.354 N 
ATOM     50  N   UNL A   1      42.332  30.722  29.409  1.00  0.00    -0.248 NA
ATOM     51  C   UNL A   1      41.075  32.278  30.618  1.00  0.00     0.031 C 
ATOM     52  C   UNL A   1      46.452  31.466  27.901  1.00  0.00     0.029 A 
ATOM     53  C   UNL A   1      45.169  31.250  28.378  1.00  0.00     0.049 A 
ATOM     54  H   UNL A   1      43.955  29.532  28.198  1.00  0.00     0.167 HD
ATOM     55  C   UNL A   1      43.070  31.884  29.550  1.00  0.00     0.074 A 
ATOM     56  C   UNL A   1      42.236  32.821  30.280  1.00  0.00     0.031 C 
ATOM     57  C   UNL A   1      44.327  32.152  29.123  1.00  0.00     0.037 A 
BRANCH  44  58
ATOM     58  C   UNL A   1      47.046  27.535  26.038  1.00  0.00     0.057 A 
ATOM     59  C   UNL A   1      47.169  27.614  24.645  1.00  0.00     0.134 A 
ATOM     60  C   UNL A   1      48.132  27.015  26.754  1.00  0.00     0.134 A 
ATOM     61  F   UNL A   1      46.162  28.094  23.901  1.00  0.00    -0.206 F 
ATOM     62  C   UNL A   1      48.326  27.187  23.990  1.00  0.00     0.040 A 
ATOM     63  C   UNL A   1      49.300  26.598  26.112  1.00  0.00     0.040 A 
ATOM     64  F   UNL A   1      48.081  26.914  28.091  1.00  0.00    -0.206 F 
ATOM     65  C   UNL A   1      49.398  26.683  24.724  1.00  0.00     0.006 A 
ENDBRANCH  44  58
BRANCH  45  66
ATOM     66  C   UNL A   1      38.788  30.451  30.882  1.00  0.00     0.057 A 
ATOM     67  C   UNL A   1      37.742  31.063  30.186  1.00  0.00     0.134 A 
ATOM     68  C   UNL A   1      38.595  30.183  32.243  1.00  0.00     0.134 A 
ATOM     69  F   UNL A   1      37.875  31.349  28.883  1.00  0.00    -0.206 F 
ATOM     70  C   UNL A   1      36.544  31.398  30.819  1.00  0.00     0.040 A 
ATOM     71  C   UNL A   1      37.396  30.492  32.883  1.00  0.00     0.040 A 
ATOM     72  F   UNL A   1      39.558  29.580  32.957  1.00  0.00    -0.206 F 
ATOM     73  C   UNL A   1      36.366  31.103  32.169  1.00  0.00     0.006 A 
ENDBRANCH  45  66
BRANCH  57  74
ATOM     74  C   UNL A   1      44.862  33.510  29.454  1.00  0.00     0.057 A 
ATOM     75  C   UNL A   1      45.585  33.741  30.630  1.00  0.00     0.134 A 
ATOM     76  C   UNL A   1      44.638  34.596  28.600  1.00  0.00     0.134 A 
ATOM     77  F   UNL A   1      45.814  32.741  31.495  1.00  0.00    -0.206 F 
ATOM     78  C   UNL A   1      46.048  35.015  30.960  1.00  0.00     0.040 A 
ATOM     79  C   UNL A   1      45.111  35.871  28.911  1.00  0.00     0.040 A 
ATOM     80  F   UNL A   1      43.952  34.436  27.460  1.00  0.00    -0.206 F 
ATOM     81  C   UNL A   1      45.811  36.085  30.098  1.00  0.00     0.006 A 
ENDBRANCH  57  74
ENDBRANCH  31  32
ENDBRANCH  24  26
ENDBRANCH  23  24
ENDBRANCH  22  23
ENDBRANCH   1  22
TORSDOF 17
ENDMDL
MODEL 3
REMARK VINA RESULT:     -10.2      0.261      6.381
REMARK SMILES C=CC[N@H+](CC(=O)OCCOC(=O)c1ccc(-c2c3nc(c(-c4c(F)cccc4F)c4ccc([nH]4)c(-c4c(F)cccc4F)c4nc(c(-c5c(F)cccc5F)c5ccc2[nH]5)C=C4)C=C3)cc1)Cc1ccc(C(F)(F)F)cc1
REMARK SMILES IDX 9 1 8 2 6 3 7 4 5 5 4 6 3 8 2 9 1 10 68 11 69 12 70 13 78 14
REMARK SMILES IDX 71 15 77 16 72 17 73 18 74 19 75 20 76 21 10 22 11 23 12 24
REMARK SMILES IDX 13 25 14 26 15 27 67 28 16 29 66 30 17 31 18 32 19 33 60 34
REMARK SMILES IDX 20 35 65 36 59 37 61 38 21 39 64 40 58 41 57 42 22 44 48 45
REMARK SMILES IDX 31 46 47 47 32 48 35 49 46 50 62 51 33 52 34 53 45 55 63 56
REMARK SMILES IDX 36 57 23 58 24 59 29 60 25 61 26 62 28 63 30 64 27 65 49 66
REMARK SMILES IDX 50 67 55 68 51 69 52 70 54 71 56 72 53 73 37 74 38 75 43 76
REMARK SMILES IDX 39 77 40 78 42 79 44 80 41 81
REMARK H PARENT 4 7 61 43 35 54
REMARK Flexibility Score: inf
ROOT
ATOM      1  C   UNL A   1      31.099  31.321  26.033  1.00  0.00     0.274 C 
ENDROOT
BRANCH   1   2
ATOM      2  O   UNL A   1      31.651  30.154  26.671  1.00  0.00    -0.458 OA
BRANCH   2   3
ATOM      3  C   UNL A   1      32.172  29.201  25.849  1.00  0.00     0.361 C 
ATOM      4  O   UNL A   1      32.990  29.428  24.961  1.00  0.00    -0.245 OA
BRANCH   3   5
ATOM      5  C   UNL A   1      31.634  27.792  26.106  1.00  0.00     0.387 C 
BRANCH   5   6
ATOM      6  N   UNL A   1      31.687  26.930  24.931  1.00  0.00    -0.319 N 
ATOM      7  H   UNL A   1      31.995  27.582  24.210  1.00  0.00     0.349 HD
BRANCH   6   8
ATOM      8  C   UNL A   1      32.835  26.059  24.789  1.00  0.00     0.291 C 
BRANCH   8   9
ATOM      9  C   UNL A   1      33.649  26.304  23.554  1.00  0.00     0.025 C 
ATOM     10  C   UNL A   1      33.223  25.999  22.320  1.00  0.00     0.010 C 
ENDBRANCH   8   9
ENDBRANCH   6   8
BRANCH   6  11
ATOM     11  C   UNL A   1      30.435  26.623  24.257  1.00  0.00     0.299 C 
BRANCH  11  12
ATOM     12  C   UNL A   1      29.854  27.709  23.370  1.00  0.00     0.006 A 
ATOM     13  C   UNL A   1      30.644  28.564  22.591  1.00  0.00     0.010 A 
ATOM     14  C   UNL A   1      28.480  27.987  23.471  1.00  0.00     0.010 A 
ATOM     15  C   UNL A   1      30.105  29.711  22.008  1.00  0.00     0.013 A 
ATOM     16  C   UNL A   1      27.937  29.138  22.893  1.00  0.00     0.013 A 
ATOM     17  C   UNL A   1      28.755  30.032  22.187  1.00  0.00     0.056 A 
BRANCH  17  18
ATOM     18  C   UNL A   1      28.226  31.370  21.743  1.00  0.00     0.416 C 
ATOM     19  F   UNL A   1      29.202  32.319  21.678  1.00  0.00    -0.166 F 
ATOM     20  F   UNL A   1      27.652  31.344  20.506  1.00  0.00    -0.166 F 
ATOM     21  F   UNL A   1      27.277  31.876  22.580  1.00  0.00    -0.166 F 
ENDBRANCH  17  18
ENDBRANCH  11  12
ENDBRANCH   6  11
ENDBRANCH   5   6
ENDBRANCH   3   5
ENDBRANCH   2   3
ENDBRANCH   1   2
BRANCH   1  22
ATOM     22  C   UNL A   1      31.401  32.582  26.835  1.00  0.00     0.275 C 
BRANCH  22  23
ATOM     23  O   UNL A   1      32.817  32.846  26.833  1.00  0.00    -0.458 OA
BRANCH  23  24
ATOM     24  C   UNL A   1      33.249  33.561  27.892  1.00  0.00     0.338 C 
ATOM     25  O   UNL A   1      32.793  34.617  28.305  1.00  0.00    -0.246 OA
BRANCH  24  26
ATOM     26  C   UNL A   1      34.455  32.994  28.488  1.00  0.00     0.060 A 
ATOM     27  C   UNL A   1      35.622  33.743  28.638  1.00  0.00     0.016 A 
ATOM     28  C   UNL A   1      34.426  31.628  28.787  1.00  0.00     0.016 A 
ATOM     29  C   UNL A   1      36.774  33.111  29.103  1.00  0.00     0.010 A 
ATOM     30  C   UNL A   1      35.563  31.010  29.293  1.00  0.00     0.010 A 
ATOM     31  C   UNL A   1      36.738  31.750  29.463  1.00  0.00    -0.014 A 
BRANCH  31  32
ATOM     32  C   UNL A   1      37.868  31.163  30.211  1.00  0.00     0.031 A 
ATOM     33  C   UNL A   1      38.121  31.475  31.650  1.00  0.00     0.074 A 
ATOM     34  C   UNL A   1      38.687  30.348  29.521  1.00  0.00     0.049 A 
ATOM     35  N   UNL A   1      39.062  31.012  32.433  1.00  0.00    -0.248 NA
ATOM     36  C   UNL A   1      37.214  32.434  32.297  1.00  0.00     0.031 C 
ATOM     37  C   UNL A   1      38.537  30.022  28.099  1.00  0.00     0.029 A 
ATOM     38  N   UNL A   1      39.790  29.641  29.913  1.00  0.00    -0.354 N 
ATOM     39  C   UNL A   1      38.867  31.621  33.664  1.00  0.00     0.074 A 
ATOM     40  C   UNL A   1      37.725  32.503  33.520  1.00  0.00     0.031 C 
ATOM     41  C   UNL A   1      39.485  29.143  27.749  1.00  0.00     0.029 A 
ATOM     42  C   UNL A   1      40.327  28.877  28.908  1.00  0.00     0.049 A 
ATOM     43  H   UNL A   1      40.161  29.677  30.824  1.00  0.00     0.167 HD
ATOM     44  C   UNL A   1      39.582  31.453  34.802  1.00  0.00     0.037 A 
ATOM     45  C   UNL A   1      41.383  28.047  28.922  1.00  0.00     0.037 A 
ATOM     46  C   UNL A   1      40.723  30.578  34.920  1.00  0.00     0.049 A 
ATOM     47  C   UNL A   1      42.137  27.863  30.200  1.00  0.00     0.074 A 
ATOM     48  C   UNL A   1      41.506  30.322  36.032  1.00  0.00     0.029 A 
ATOM     49  N   UNL A   1      41.245  29.819  33.882  1.00  0.00    -0.354 N 
ATOM     50  N   UNL A   1      41.922  28.419  31.367  1.00  0.00    -0.248 NA
ATOM     51  C   UNL A   1      43.278  26.942  30.165  1.00  0.00     0.031 C 
ATOM     52  C   UNL A   1      42.520  29.430  35.659  1.00  0.00     0.029 A 
ATOM     53  C   UNL A   1      42.348  29.105  34.323  1.00  0.00     0.049 A 
ATOM     54  H   UNL A   1      40.884  29.791  32.966  1.00  0.00     0.167 HD
ATOM     55  C   UNL A   1      42.900  27.919  32.210  1.00  0.00     0.074 A 
ATOM     56  C   UNL A   1      43.692  26.991  31.423  1.00  0.00     0.031 C 
ATOM     57  C   UNL A   1      43.130  28.207  33.513  1.00  0.00     0.037 A 
BRANCH  44  58
ATOM     58  C   UNL A   1      39.163  32.238  36.009  1.00  0.00     0.057 A 
ATOM     59  C   UNL A   1      39.616  33.545  36.231  1.00  0.00     0.134 A 
ATOM     60  C   UNL A   1      38.254  31.705  36.931  1.00  0.00     0.134 A 
ATOM     61  F   UNL A   1      40.494  34.111  35.390  1.00  0.00    -0.206 F 
ATOM     62  C   UNL A   1      39.186  34.289  37.331  1.00  0.00     0.040 A 
ATOM     63  C   UNL A   1      37.805  32.444  38.027  1.00  0.00     0.040 A 
ATOM     64  F   UNL A   1      37.778  30.460  36.776  1.00  0.00    -0.206 F 
ATOM     65  C   UNL A   1      38.273  33.741  38.230  1.00  0.00     0.006 A 
ENDBRANCH  44  58
BRANCH  45  66
ATOM     66  C   UNL A   1      41.742  27.314  27.687  1.00  0.00     0.057 A 
ATOM     67  C   UNL A   1      41.239  26.033  27.440  1.00  0.00     0.134 A 
ATOM     68  C   UNL A   1      42.531  27.905  26.692  1.00  0.00     0.134 A 
ATOM     69  F   UNL A   1      40.484  25.416  28.360  1.00  0.00    -0.206 F 
ATOM     70  C   UNL A   1      41.510  25.362  26.247  1.00  0.00     0.040 A 
ATOM     71  C   UNL A   1      42.792  27.256  25.487  1.00  0.00     0.040 A 
ATOM     72  F   UNL A   1      43.026  29.141  26.866  1.00  0.00    -0.206 F 
ATOM     73  C   UNL A   1      42.281  25.978  25.263  1.00  0.00     0.006 A 
ENDBRANCH  45  66
BRANCH  57  74
ATOM     74  C   UNL A   1      44.293  27.510  34.147  1.00  0.00     0.057 A 
ATOM     75  C   UNL A   1      44.148  26.258  34.757  1.00  0.00     0.134 A 
ATOM     76  C   UNL A   1      45.561  28.102  34.165  1.00  0.00     0.134 A 
ATOM     77  F   UNL A   1      42.952  25.652  34.787  1.00  0.00    -0.206 F 
ATOM     78  C   UNL A   1      45.222  25.628  35.386  1.00  0.00     0.040 A 
ATOM     79  C   UNL A   1      46.646  27.473  34.775  1.00  0.00     0.040 A 
ATOM     80  F   UNL A   1      45.762  29.300  33.598  1.00  0.00    -0.206 F 
ATOM     81  C   UNL A   1      46.476  26.235  35.395  1.00  0.00     0.006 A 
ENDBRANCH  57  74
ENDBRANCH  31  32
ENDBRANCH  24  26
ENDBRANCH  23  24
ENDBRANCH  22  23
ENDBRANCH   1  22
TORSDOF 17
ENDMDL
