MODEL 1
REMARK VINA RESULT:      -9.9      0.000      0.000
REMARK SMILES C[C@@H](c1ccccc1)[C@@H]1[NH2+][C@@H](C(=O)OCCOC(=O)c2ccc(-c3c4nc(c(-c5c(F)cccc5F)c5ccc([nH]5)c(-c5c(F)cccc5F)c5nc(c(-c6c(F)cccc6F)c6ccc3[nH]6)C=C5)C=C4)cc2)CS1
REMARK SMILES IDX 15 1 14 2 12 3 13 4 11 5 9 6 10 7 75 8 74 11 2 12 1 13 3 14
REMARK SMILES IDX 4 15 8 16 5 17 7 18 6 19 16 20 17 21 18 22 19 23 20 24 21 25
REMARK SMILES IDX 73 26 22 27 72 28 23 29 24 30 25 31 66 32 26 33 71 34 65 35
REMARK SMILES IDX 67 36 27 37 70 38 64 39 63 40 28 42 54 43 37 44 53 45 38 46
REMARK SMILES IDX 41 47 52 48 68 49 39 50 40 51 51 53 69 54 42 55 29 56 30 57
REMARK SMILES IDX 35 58 31 59 32 60 34 61 36 62 33 63 55 64 56 65 61 66 57 67
REMARK SMILES IDX 58 68 60 69 62 70 59 71 43 72 44 73 49 74 45 75 46 76 48 77
REMARK SMILES IDX 50 78 47 79
REMARK H PARENT 10 9 10 10 67 41 41 52
REMARK Flexibility Score: inf
ROOT
ATOM      1  C   UNL A   1      41.964  19.172  26.218  1.00  0.00     0.274 C 
ENDROOT
BRANCH   1   2
ATOM      2  O   UNL A   1      42.644  19.763  25.092  1.00  0.00    -0.458 OA
BRANCH   2   3
ATOM      3  C   UNL A   1      43.973  19.486  24.984  1.00  0.00     0.365 C 
ATOM      4  O   UNL A   1      44.444  18.393  24.685  1.00  0.00    -0.245 OA
BRANCH   3   5
ATOM      5  C   UNL A   1      44.828  20.727  25.281  1.00  0.00     0.304 C 
ATOM      6  C   UNL A   1      44.436  22.899  26.281  1.00  0.00     0.249 C 
ATOM      7  N   UNL A   1      44.230  21.458  26.441  1.00  0.00    -0.322 N 
ATOM      8  S   UNL A   1      44.216  23.201  24.503  1.00  0.00    -0.092 SA
ATOM      9  H   UNL A   1      43.229  21.262  26.484  1.00  0.00     0.348 HD
ATOM     10  H   UNL A   1      44.680  21.148  27.302  1.00  0.00     0.348 HD
ATOM     11  C   UNL A   1      44.913  21.603  24.035  1.00  0.00     0.153 C 
BRANCH   6  12
ATOM     12  C   UNL A   1      45.799  23.385  26.869  1.00  0.00     0.085 C 
ATOM     13  C   UNL A   1      46.534  24.375  25.947  1.00  0.00     0.020 C 
BRANCH  12  14
ATOM     14  C   UNL A   1      45.631  24.021  28.253  1.00  0.00    -0.038 A 
ATOM     15  C   UNL A   1      46.589  24.931  28.728  1.00  0.00     0.004 A 
ATOM     16  C   UNL A   1      44.515  23.744  29.061  1.00  0.00     0.004 A 
ATOM     17  C   UNL A   1      46.430  25.550  29.972  1.00  0.00     0.000 A 
ATOM     18  C   UNL A   1      44.359  24.365  30.302  1.00  0.00     0.000 A 
ATOM     19  C   UNL A   1      45.316  25.269  30.758  1.00  0.00     0.000 A 
ENDBRANCH  12  14
ENDBRANCH   6  12
ENDBRANCH   3   5
ENDBRANCH   2   3
ENDBRANCH   1   2
BRANCH   1  20
ATOM     20  C   UNL A   1      40.805  20.051  26.700  1.00  0.00     0.275 C 
BRANCH  20  21
ATOM     21  O   UNL A   1      41.002  21.436  26.357  1.00  0.00    -0.458 OA
BRANCH  21  22
ATOM     22  C   UNL A   1      39.872  22.182  26.329  1.00  0.00     0.338 C 
ATOM     23  O   UNL A   1      38.755  21.814  25.993  1.00  0.00    -0.246 OA
BRANCH  22  24
ATOM     24  C   UNL A   1      40.126  23.503  26.925  1.00  0.00     0.060 A 
ATOM     25  C   UNL A   1      39.877  24.620  26.128  1.00  0.00     0.016 A 
ATOM     26  C   UNL A   1      40.657  23.658  28.208  1.00  0.00     0.016 A 
ATOM     27  C   UNL A   1      40.141  25.900  26.603  1.00  0.00     0.010 A 
ATOM     28  C   UNL A   1      40.946  24.945  28.680  1.00  0.00     0.010 A 
ATOM     29  C   UNL A   1      40.697  26.072  27.874  1.00  0.00    -0.014 A 
BRANCH  29  30
ATOM     30  C   UNL A   1      41.097  27.432  28.303  1.00  0.00     0.031 A 
ATOM     31  C   UNL A   1      42.527  27.864  28.161  1.00  0.00     0.074 A 
ATOM     32  C   UNL A   1      40.172  28.300  28.750  1.00  0.00     0.049 A 
ATOM     33  N   UNL A   1      43.090  28.994  28.501  1.00  0.00    -0.248 NA
ATOM     34  C   UNL A   1      43.445  26.891  27.551  1.00  0.00     0.031 C 
ATOM     35  C   UNL A   1      38.740  28.027  28.859  1.00  0.00     0.029 A 
ATOM     36  N   UNL A   1      40.302  29.596  29.184  1.00  0.00    -0.354 N 
ATOM     37  C   UNL A   1      44.432  28.862  28.172  1.00  0.00     0.074 A 
ATOM     38  C   UNL A   1      44.601  27.538  27.610  1.00  0.00     0.031 C 
ATOM     39  C   UNL A   1      38.120  29.129  29.312  1.00  0.00     0.029 A 
ATOM     40  C   UNL A   1      39.114  30.167  29.567  1.00  0.00     0.049 A 
ATOM     41  H   UNL A   1      41.164  30.069  29.217  1.00  0.00     0.167 HD
ATOM     42  C   UNL A   1      45.433  29.762  28.325  1.00  0.00     0.037 A 
ATOM     43  C   UNL A   1      38.864  31.386  30.080  1.00  0.00     0.037 A 
ATOM     44  C   UNL A   1      45.260  31.085  28.864  1.00  0.00     0.049 A 
ATOM     45  C   UNL A   1      40.002  32.341  30.307  1.00  0.00     0.074 A 
ATOM     46  C   UNL A   1      46.211  32.075  29.046  1.00  0.00     0.029 A 
ATOM     47  N   UNL A   1      44.054  31.603  29.308  1.00  0.00    -0.354 N 
ATOM     48  N   UNL A   1      41.272  32.200  30.010  1.00  0.00    -0.248 NA
ATOM     49  C   UNL A   1      39.674  33.620  30.955  1.00  0.00     0.031 C 
ATOM     50  C   UNL A   1      45.586  33.179  29.636  1.00  0.00     0.029 A 
ATOM     51  C   UNL A   1      44.239  32.891  29.786  1.00  0.00     0.049 A 
ATOM     52  H   UNL A   1      43.192  31.128  29.288  1.00  0.00     0.167 HD
ATOM     53  C   UNL A   1      41.889  33.377  30.414  1.00  0.00     0.074 A 
ATOM     54  C   UNL A   1      40.854  34.225  30.968  1.00  0.00     0.031 C 
ATOM     55  C   UNL A   1      43.198  33.723  30.332  1.00  0.00     0.037 A 
BRANCH  42  56
ATOM     56  C   UNL A   1      46.812  29.318  27.941  1.00  0.00     0.057 A 
ATOM     57  C   UNL A   1      47.276  29.383  26.622  1.00  0.00     0.134 A 
ATOM     58  C   UNL A   1      47.688  28.815  28.912  1.00  0.00     0.134 A 
ATOM     59  F   UNL A   1      46.480  29.838  25.643  1.00  0.00    -0.206 F 
ATOM     60  C   UNL A   1      48.554  28.936  26.277  1.00  0.00     0.040 A 
ATOM     61  C   UNL A   1      48.974  28.387  28.583  1.00  0.00     0.040 A 
ATOM     62  F   UNL A   1      47.306  28.729  30.195  1.00  0.00    -0.206 F 
ATOM     63  C   UNL A   1      49.408  28.440  27.260  1.00  0.00     0.006 A 
ENDBRANCH  42  56
BRANCH  43  64
ATOM     64  C   UNL A   1      37.474  31.772  30.426  1.00  0.00     0.057 A 
ATOM     65  C   UNL A   1      36.935  31.476  31.683  1.00  0.00     0.134 A 
ATOM     66  C   UNL A   1      36.652  32.439  29.510  1.00  0.00     0.134 A 
ATOM     67  F   UNL A   1      37.666  30.815  32.592  1.00  0.00    -0.206 F 
ATOM     68  C   UNL A   1      35.625  31.824  32.015  1.00  0.00     0.040 A 
ATOM     69  C   UNL A   1      35.348  32.812  29.836  1.00  0.00     0.040 A 
ATOM     70  F   UNL A   1      37.109  32.747  28.288  1.00  0.00    -0.206 F 
ATOM     71  C   UNL A   1      34.830  32.500  31.092  1.00  0.00     0.006 A 
ENDBRANCH  43  64
BRANCH  55  72
ATOM     72  C   UNL A   1      43.575  35.088  30.826  1.00  0.00     0.057 A 
ATOM     73  C   UNL A   1      43.561  36.207  29.983  1.00  0.00     0.134 A 
ATOM     74  C   UNL A   1      43.926  35.290  32.167  1.00  0.00     0.134 A 
ATOM     75  F   UNL A   1      43.248  36.077  28.686  1.00  0.00    -0.206 F 
ATOM     76  C   UNL A   1      43.899  37.477  30.455  1.00  0.00     0.040 A 
ATOM     77  C   UNL A   1      44.245  36.557  32.654  1.00  0.00     0.040 A 
ATOM     78  F   UNL A   1      43.953  34.259  33.025  1.00  0.00    -0.206 F 
ATOM     79  C   UNL A   1      44.237  37.655  31.796  1.00  0.00     0.006 A 
ENDBRANCH  55  72
ENDBRANCH  29  30
ENDBRANCH  22  24
ENDBRANCH  21  22
ENDBRANCH  20  21
ENDBRANCH   1  20
TORSDOF 13
ENDMDL
MODEL 2
REMARK VINA RESULT:      -9.5      4.927     11.097
REMARK SMILES C[C@@H](c1ccccc1)[C@@H]1[NH2+][C@@H](C(=O)OCCOC(=O)c2ccc(-c3c4nc(c(-c5c(F)cccc5F)c5ccc([nH]5)c(-c5c(F)cccc5F)c5nc(c(-c6c(F)cccc6F)c6ccc3[nH]6)C=C5)C=C4)cc2)CS1
REMARK SMILES IDX 15 1 14 2 12 3 13 4 11 5 9 6 10 7 75 8 74 11 2 12 1 13 3 14
REMARK SMILES IDX 4 15 8 16 5 17 7 18 6 19 16 20 17 21 18 22 19 23 20 24 21 25
REMARK SMILES IDX 73 26 22 27 72 28 23 29 24 30 25 31 66 32 26 33 71 34 65 35
REMARK SMILES IDX 67 36 27 37 70 38 64 39 63 40 28 42 54 43 37 44 53 45 38 46
REMARK SMILES IDX 41 47 52 48 68 49 39 50 40 51 51 53 69 54 42 55 29 56 30 57
REMARK SMILES IDX 35 58 31 59 32 60 34 61 36 62 33 63 55 64 56 65 61 66 57 67
REMARK SMILES IDX 58 68 60 69 62 70 59 71 43 72 44 73 49 74 45 75 46 76 48 77
REMARK SMILES IDX 50 78 47 79
REMARK H PARENT 10 9 10 10 67 41 41 52
REMARK Flexibility Score: inf
ROOT
ATOM      1  C   UNL A   1      33.416  34.993  28.741  1.00  0.00     0.274 C 
ENDROOT
BRANCH   1   2
ATOM      2  O   UNL A   1      32.887  34.761  30.062  1.00  0.00    -0.458 OA
BRANCH   2   3
ATOM      3  C   UNL A   1      33.110  35.745  30.976  1.00  0.00     0.365 C 
ATOM      4  O   UNL A   1      32.528  36.825  31.007  1.00  0.00    -0.245 OA
BRANCH   3   5
ATOM      5  C   UNL A   1      34.192  35.335  31.986  1.00  0.00     0.304 C 
ATOM      6  C   UNL A   1      36.131  33.882  31.950  1.00  0.00     0.249 C 
ATOM      7  N   UNL A   1      35.430  34.954  31.238  1.00  0.00    -0.322 N 
ATOM      8  S   UNL A   1      34.810  32.815  32.593  1.00  0.00    -0.092 SA
ATOM      9  H   UNL A   1      35.174  34.630  30.305  1.00  0.00     0.348 HD
ATOM     10  H   UNL A   1      36.042  35.766  31.166  1.00  0.00     0.348 HD
ATOM     11  C   UNL A   1      33.676  34.193  32.857  1.00  0.00     0.153 C 
BRANCH   6  12
ATOM     12  C   UNL A   1      37.127  34.422  33.026  1.00  0.00     0.085 C 
ATOM     13  C   UNL A   1      37.061  33.641  34.351  1.00  0.00     0.020 C 
BRANCH  12  14
ATOM     14  C   UNL A   1      38.573  34.423  32.519  1.00  0.00    -0.038 A 
ATOM     15  C   UNL A   1      39.635  34.562  33.426  1.00  0.00     0.004 A 
ATOM     16  C   UNL A   1      38.876  34.255  31.157  1.00  0.00     0.004 A 
ATOM     17  C   UNL A   1      40.961  34.526  32.983  1.00  0.00     0.000 A 
ATOM     18  C   UNL A   1      40.202  34.219  30.719  1.00  0.00     0.000 A 
ATOM     19  C   UNL A   1      41.244  34.353  31.631  1.00  0.00     0.000 A 
ENDBRANCH  12  14
ENDBRANCH   6  12
ENDBRANCH   3   5
ENDBRANCH   2   3
ENDBRANCH   1   2
BRANCH   1  20
ATOM     20  C   UNL A   1      33.758  33.677  28.032  1.00  0.00     0.275 C 
BRANCH  20  21
ATOM     21  O   UNL A   1      34.634  32.852  28.823  1.00  0.00    -0.458 OA
BRANCH  21  22
ATOM     22  C   UNL A   1      34.804  31.592  28.358  1.00  0.00     0.338 C 
ATOM     23  O   UNL A   1      34.154  31.037  27.483  1.00  0.00    -0.246 OA
BRANCH  22  24
ATOM     24  C   UNL A   1      36.015  30.997  28.946  1.00  0.00     0.060 A 
ATOM     25  C   UNL A   1      37.212  31.693  28.778  1.00  0.00     0.016 A 
ATOM     26  C   UNL A   1      36.004  29.757  29.589  1.00  0.00     0.016 A 
ATOM     27  C   UNL A   1      38.406  31.169  29.261  1.00  0.00     0.010 A 
ATOM     28  C   UNL A   1      37.210  29.216  30.055  1.00  0.00     0.010 A 
ATOM     29  C   UNL A   1      38.419  29.918  29.883  1.00  0.00    -0.014 A 
BRANCH  29  30
ATOM     30  C   UNL A   1      39.720  29.320  30.265  1.00  0.00     0.031 A 
ATOM     31  C   UNL A   1      40.422  29.801  31.500  1.00  0.00     0.074 A 
ATOM     32  C   UNL A   1      40.234  28.306  29.548  1.00  0.00     0.049 A 
ATOM     33  N   UNL A   1      41.577  29.435  31.993  1.00  0.00    -0.248 NA
ATOM     34  C   UNL A   1      39.728  30.830  32.288  1.00  0.00     0.031 C 
ATOM     35  C   UNL A   1      39.609  27.697  28.375  1.00  0.00     0.029 A 
ATOM     36  N   UNL A   1      41.399  27.598  29.715  1.00  0.00    -0.354 N 
ATOM     37  C   UNL A   1      41.762  30.206  33.133  1.00  0.00     0.074 A 
ATOM     38  C   UNL A   1      40.603  31.064  33.255  1.00  0.00     0.031 C 
ATOM     39  C   UNL A   1      40.388  26.694  27.937  1.00  0.00     0.029 A 
ATOM     40  C   UNL A   1      41.585  26.619  28.770  1.00  0.00     0.049 A 
ATOM     41  H   UNL A   1      42.038  27.775  30.442  1.00  0.00     0.167 HD
ATOM     42  C   UNL A   1      42.804  30.199  33.998  1.00  0.00     0.037 A 
ATOM     43  C   UNL A   1      42.614  25.771  28.591  1.00  0.00     0.037 A 
ATOM     44  C   UNL A   1      43.946  29.330  33.887  1.00  0.00     0.049 A 
ATOM     45  C   UNL A   1      43.793  25.832  29.524  1.00  0.00     0.074 A 
ATOM     46  C   UNL A   1      45.047  29.239  34.722  1.00  0.00     0.029 A 
ATOM     47  N   UNL A   1      44.134  28.401  32.876  1.00  0.00    -0.354 N 
ATOM     48  N   UNL A   1      43.968  26.577  30.588  1.00  0.00    -0.248 NA
ATOM     49  C   UNL A   1      44.924  24.942  29.219  1.00  0.00     0.031 C 
ATOM     50  C   UNL A   1      45.919  28.280  34.194  1.00  0.00     0.029 A 
ATOM     51  C   UNL A   1      45.344  27.748  33.052  1.00  0.00     0.049 A 
ATOM     52  H   UNL A   1      43.503  28.230  32.140  1.00  0.00     0.167 HD
ATOM     53  C   UNL A   1      45.215  26.233  31.092  1.00  0.00     0.074 A 
ATOM     54  C   UNL A   1      45.750  25.205  30.223  1.00  0.00     0.031 C 
ATOM     55  C   UNL A   1      45.860  26.724  32.179  1.00  0.00     0.037 A 
BRANCH  42  56
ATOM     56  C   UNL A   1      42.769  31.198  35.115  1.00  0.00     0.057 A 
ATOM     57  C   UNL A   1      42.257  30.884  36.379  1.00  0.00     0.134 A 
ATOM     58  C   UNL A   1      43.256  32.497  34.917  1.00  0.00     0.134 A 
ATOM     59  F   UNL A   1      41.759  29.663  36.627  1.00  0.00    -0.206 F 
ATOM     60  C   UNL A   1      42.203  31.836  37.400  1.00  0.00     0.040 A 
ATOM     61  C   UNL A   1      43.228  33.449  35.935  1.00  0.00     0.040 A 
ATOM     62  F   UNL A   1      43.762  32.860  33.729  1.00  0.00    -0.206 F 
ATOM     63  C   UNL A   1      42.692  33.122  37.180  1.00  0.00     0.006 A 
ENDBRANCH  42  56
BRANCH  43  64
ATOM     64  C   UNL A   1      42.584  24.795  27.475  1.00  0.00     0.057 A 
ATOM     65  C   UNL A   1      43.055  25.138  26.204  1.00  0.00     0.134 A 
ATOM     66  C   UNL A   1      42.080  23.500  27.651  1.00  0.00     0.134 A 
ATOM     67  F   UNL A   1      43.525  26.372  25.968  1.00  0.00    -0.206 F 
ATOM     68  C   UNL A   1      43.020  24.231  25.143  1.00  0.00     0.040 A 
ATOM     69  C   UNL A   1      42.060  22.576  26.606  1.00  0.00     0.040 A 
ATOM     70  F   UNL A   1      41.611  23.112  28.846  1.00  0.00    -0.206 F 
ATOM     71  C   UNL A   1      42.528  22.944  25.345  1.00  0.00     0.006 A 
ENDBRANCH  43  64
BRANCH  55  72
ATOM     72  C   UNL A   1      47.200  26.134  32.504  1.00  0.00     0.057 A 
ATOM     73  C   UNL A   1      48.378  26.616  31.921  1.00  0.00     0.134 A 
ATOM     74  C   UNL A   1      47.314  25.094  33.435  1.00  0.00     0.134 A 
ATOM     75  F   UNL A   1      48.334  27.600  31.011  1.00  0.00    -0.206 F 
ATOM     76  C   UNL A   1      49.624  26.071  32.240  1.00  0.00     0.040 A 
ATOM     77  C   UNL A   1      48.554  24.556  33.777  1.00  0.00     0.040 A 
ATOM     78  F   UNL A   1      46.223  24.592  34.033  1.00  0.00    -0.206 F 
ATOM     79  C   UNL A   1      49.714  25.041  33.176  1.00  0.00     0.006 A 
ENDBRANCH  55  72
ENDBRANCH  29  30
ENDBRANCH  22  24
ENDBRANCH  21  22
ENDBRANCH  20  21
ENDBRANCH   1  20
TORSDOF 13
ENDMDL
MODEL 3
REMARK VINA RESULT:      -9.5      6.080     11.590
REMARK SMILES C[C@@H](c1ccccc1)[C@@H]1[NH2+][C@@H](C(=O)OCCOC(=O)c2ccc(-c3c4nc(c(-c5c(F)cccc5F)c5ccc([nH]5)c(-c5c(F)cccc5F)c5nc(c(-c6c(F)cccc6F)c6ccc3[nH]6)C=C5)C=C4)cc2)CS1
REMARK SMILES IDX 15 1 14 2 12 3 13 4 11 5 9 6 10 7 75 8 74 11 2 12 1 13 3 14
REMARK SMILES IDX 4 15 8 16 5 17 7 18 6 19 16 20 17 21 18 22 19 23 20 24 21 25
REMARK SMILES IDX 73 26 22 27 72 28 23 29 24 30 25 31 66 32 26 33 71 34 65 35
REMARK SMILES IDX 67 36 27 37 70 38 64 39 63 40 28 42 54 43 37 44 53 45 38 46
REMARK SMILES IDX 41 47 52 48 68 49 39 50 40 51 51 53 69 54 42 55 29 56 30 57
REMARK SMILES IDX 35 58 31 59 32 60 34 61 36 62 33 63 55 64 56 65 61 66 57 67
REMARK SMILES IDX 58 68 60 69 62 70 59 71 43 72 44 73 49 74 45 75 46 76 48 77
REMARK SMILES IDX 50 78 47 79
REMARK H PARENT 10 9 10 10 67 41 41 52
REMARK Flexibility Score: inf
ROOT
ATOM      1  C   UNL A   1      31.430  32.028  26.564  1.00  0.00     0.274 C 
ENDROOT
BRANCH   1   2
ATOM      2  O   UNL A   1      31.825  30.743  27.086  1.00  0.00    -0.458 OA
BRANCH   2   3
ATOM      3  C   UNL A   1      33.007  30.249  26.626  1.00  0.00     0.365 C 
ATOM      4  O   UNL A   1      34.084  30.343  27.206  1.00  0.00    -0.245 OA
BRANCH   3   5
ATOM      5  C   UNL A   1      32.829  29.542  25.274  1.00  0.00     0.304 C 
ATOM      6  C   UNL A   1      31.538  27.659  24.463  1.00  0.00     0.249 C 
ATOM      7  N   UNL A   1      31.479  28.899  25.240  1.00  0.00    -0.322 N 
ATOM      8  S   UNL A   1      33.144  26.924  24.889  1.00  0.00    -0.092 SA
ATOM      9  H   UNL A   1      31.182  28.688  26.193  1.00  0.00     0.348 HD
ATOM     10  H   UNL A   1      30.814  29.537  24.805  1.00  0.00     0.348 HD
ATOM     11  C   UNL A   1      33.951  28.528  25.073  1.00  0.00     0.153 C 
BRANCH   6  12
ATOM     12  C   UNL A   1      31.301  27.890  22.936  1.00  0.00     0.085 C 
ATOM     13  C   UNL A   1      31.255  26.579  22.129  1.00  0.00     0.020 C 
BRANCH  12  14
ATOM     14  C   UNL A   1      30.020  28.686  22.669  1.00  0.00    -0.038 A 
ATOM     15  C   UNL A   1      28.784  28.201  23.126  1.00  0.00     0.004 A 
ATOM     16  C   UNL A   1      30.046  29.921  21.998  1.00  0.00     0.004 A 
ATOM     17  C   UNL A   1      27.611  28.934  22.924  1.00  0.00     0.000 A 
ATOM     18  C   UNL A   1      28.871  30.651  21.799  1.00  0.00     0.000 A 
ATOM     19  C   UNL A   1      27.654  30.159  22.263  1.00  0.00     0.000 A 
ENDBRANCH  12  14
ENDBRANCH   6  12
ENDBRANCH   3   5
ENDBRANCH   2   3
ENDBRANCH   1   2
BRANCH   1  20
ATOM     20  C   UNL A   1      32.472  33.108  26.877  1.00  0.00     0.275 C 
BRANCH  20  21
ATOM     21  O   UNL A   1      32.153  33.830  28.082  1.00  0.00    -0.458 OA
BRANCH  21  22
ATOM     22  C   UNL A   1      33.130  34.654  28.529  1.00  0.00     0.338 C 
ATOM     23  O   UNL A   1      33.047  35.859  28.720  1.00  0.00    -0.246 OA
BRANCH  22  24
ATOM     24  C   UNL A   1      34.310  33.868  28.922  1.00  0.00     0.060 A 
ATOM     25  C   UNL A   1      34.086  32.723  29.687  1.00  0.00     0.016 A 
ATOM     26  C   UNL A   1      35.613  34.266  28.615  1.00  0.00     0.016 A 
ATOM     27  C   UNL A   1      35.155  31.957  30.140  1.00  0.00     0.010 A 
ATOM     28  C   UNL A   1      36.692  33.509  29.090  1.00  0.00     0.010 A 
ATOM     29  C   UNL A   1      36.466  32.355  29.864  1.00  0.00    -0.014 A 
BRANCH  29  30
ATOM     30  C   UNL A   1      37.586  31.601  30.473  1.00  0.00     0.031 A 
ATOM     31  C   UNL A   1      37.915  31.803  31.923  1.00  0.00     0.074 A 
ATOM     32  C   UNL A   1      38.260  30.689  29.751  1.00  0.00     0.049 A 
ATOM     33  N   UNL A   1      38.869  31.269  32.640  1.00  0.00    -0.248 NA
ATOM     34  C   UNL A   1      37.049  32.732  32.665  1.00  0.00     0.031 C 
ATOM     35  C   UNL A   1      37.984  30.343  28.357  1.00  0.00     0.029 A 
ATOM     36  N   UNL A   1      39.309  29.874  30.099  1.00  0.00    -0.354 N 
ATOM     37  C   UNL A   1      38.737  31.813  33.910  1.00  0.00     0.074 A 
ATOM     38  C   UNL A   1      37.613  32.725  33.864  1.00  0.00     0.031 C 
ATOM     39  C   UNL A   1      38.831  29.374  27.972  1.00  0.00     0.029 A 
ATOM     40  C   UNL A   1      39.735  29.063  29.077  1.00  0.00     0.049 A 
ATOM     41  H   UNL A   1      39.715  29.872  30.995  1.00  0.00     0.167 HD
ATOM     42  C   UNL A   1      39.484  31.575  35.014  1.00  0.00     0.037 A 
ATOM     43  C   UNL A   1      40.750  28.181  29.035  1.00  0.00     0.037 A 
ATOM     44  C   UNL A   1      40.588  30.652  35.065  1.00  0.00     0.049 A 
ATOM     45  C   UNL A   1      41.611  27.986  30.253  1.00  0.00     0.074 A 
ATOM     46  C   UNL A   1      41.398  30.332  36.140  1.00  0.00     0.029 A 
ATOM     47  N   UNL A   1      41.036  29.901  33.989  1.00  0.00    -0.354 N 
ATOM     48  N   UNL A   1      41.491  28.520  31.445  1.00  0.00    -0.248 NA
ATOM     49  C   UNL A   1      42.759  27.078  30.114  1.00  0.00     0.031 C 
ATOM     50  C   UNL A   1      42.361  29.414  35.705  1.00  0.00     0.029 A 
ATOM     51  C   UNL A   1      42.127  29.135  34.369  1.00  0.00     0.049 A 
ATOM     52  H   UNL A   1      40.639  29.910  33.088  1.00  0.00     0.167 HD
ATOM     53  C   UNL A   1      42.531  27.997  32.202  1.00  0.00     0.074 A 
ATOM     54  C   UNL A   1      43.267  27.097  31.339  1.00  0.00     0.031 C 
ATOM     55  C   UNL A   1      42.847  28.241  33.498  1.00  0.00     0.037 A 
BRANCH  42  56
ATOM     56  C   UNL A   1      39.154  32.365  36.244  1.00  0.00     0.057 A 
ATOM     57  C   UNL A   1      38.243  31.905  37.203  1.00  0.00     0.134 A 
ATOM     58  C   UNL A   1      39.758  33.609  36.469  1.00  0.00     0.134 A 
ATOM     59  F   UNL A   1      37.618  30.729  37.037  1.00  0.00    -0.206 F 
ATOM     60  C   UNL A   1      37.923  32.667  38.328  1.00  0.00     0.040 A 
ATOM     61  C   UNL A   1      39.462  34.369  37.601  1.00  0.00     0.040 A 
ATOM     62  F   UNL A   1      40.640  34.106  35.590  1.00  0.00    -0.206 F 
ATOM     63  C   UNL A   1      38.536  33.902  38.531  1.00  0.00     0.006 A 
ENDBRANCH  42  56
BRANCH  43  64
ATOM     64  C   UNL A   1      41.019  27.418  27.792  1.00  0.00     0.057 A 
ATOM     65  C   UNL A   1      40.481  26.141  27.599  1.00  0.00     0.134 A 
ATOM     66  C   UNL A   1      41.822  27.943  26.772  1.00  0.00     0.134 A 
ATOM     67  F   UNL A   1      39.726  25.575  28.552  1.00  0.00    -0.206 F 
ATOM     68  C   UNL A   1      40.737  25.410  26.438  1.00  0.00     0.040 A 
ATOM     69  C   UNL A   1      42.068  27.232  25.597  1.00  0.00     0.040 A 
ATOM     70  F   UNL A   1      42.369  29.160  26.899  1.00  0.00    -0.206 F 
ATOM     71  C   UNL A   1      41.527  25.958  25.430  1.00  0.00     0.006 A 
ENDBRANCH  43  64
BRANCH  55  72
ATOM     72  C   UNL A   1      44.021  27.501  34.066  1.00  0.00     0.057 A 
ATOM     73  C   UNL A   1      43.885  26.228  34.632  1.00  0.00     0.134 A 
ATOM     74  C   UNL A   1      45.306  28.055  34.016  1.00  0.00     0.134 A 
ATOM     75  F   UNL A   1      42.679  25.648  34.723  1.00  0.00    -0.206 F 
ATOM     76  C   UNL A   1      44.986  25.538  35.146  1.00  0.00     0.040 A 
ATOM     77  C   UNL A   1      46.416  27.368  34.506  1.00  0.00     0.040 A 
ATOM     78  F   UNL A   1      45.503  29.270  33.480  1.00  0.00    -0.206 F 
ATOM     79  C   UNL A   1      46.257  26.107  35.077  1.00  0.00     0.006 A 
ENDBRANCH  55  72
ENDBRANCH  29  30
ENDBRANCH  22  24
ENDBRANCH  21  22
ENDBRANCH  20  21
ENDBRANCH   1  20
TORSDOF 13
ENDMDL
