MODEL 1
REMARK VINA RESULT:      -8.9      0.000      0.000
REMARK SMILES CCC[NH2+][C@@]1(C(=O)OCCOC(=O)c2ccc(-c3c4nc(c(-c5c(F)cccc5F)c5ccc([nH]5)c(-c5c(F)cccc5F)c5nc(c(-c6c(F)cccc6F)c6ccc3[nH]6)C=C5)C=C4)cc2)CC[C@@H](SC2CCCC2)C1
REMARK SMILES IDX 9 1 8 2 6 3 7 4 5 5 68 6 77 7 69 8 70 9 4 10 3 13 2 14 1 15
REMARK SMILES IDX 71 16 72 17 73 18 76 19 74 20 75 21 10 22 11 23 12 24 13 25
REMARK SMILES IDX 14 26 15 27 67 28 16 29 66 30 17 31 18 32 19 33 60 34 20 35
REMARK SMILES IDX 65 36 59 37 61 38 21 39 64 40 58 41 57 42 22 44 48 45 31 46
REMARK SMILES IDX 47 47 32 48 35 49 46 50 62 51 33 52 34 53 45 55 63 56 36 57
REMARK SMILES IDX 23 58 24 59 29 60 25 61 26 62 28 63 30 64 27 65 49 66 50 67
REMARK SMILES IDX 55 68 51 69 52 70 54 71 56 72 53 73 37 74 38 75 43 76 39 77
REMARK SMILES IDX 40 78 42 79 44 80 41 81
REMARK H PARENT 4 11 4 12 61 43 35 54
REMARK Flexibility Score: inf
ROOT
ATOM      1  C   UNL A   1      34.019  34.078  29.033  1.00  0.00     0.274 C 
ENDROOT
BRANCH   1   2
ATOM      2  O   UNL A   1      35.219  33.946  29.821  1.00  0.00    -0.457 OA
BRANCH   2   3
ATOM      3  C   UNL A   1      35.054  33.417  31.071  1.00  0.00     0.368 C 
ATOM      4  O   UNL A   1      34.106  32.701  31.375  1.00  0.00    -0.245 OA
BRANCH   3   5
ATOM      5  C   UNL A   1      36.179  33.888  32.056  1.00  0.00     0.195 C 
ATOM      6  C   UNL A   1      37.555  33.754  31.394  1.00  0.00     0.082 C 
ATOM      7  C   UNL A   1      36.251  32.976  33.307  1.00  0.00     0.095 C 
ATOM      8  C   UNL A   1      38.055  32.359  31.748  1.00  0.00     0.022 C 
ATOM      9  C   UNL A   1      37.422  32.017  33.094  1.00  0.00     0.054 C 
BRANCH   5  10
ATOM     10  N   UNL A   1      35.903  35.280  32.514  1.00  0.00    -0.332 N 
ATOM     11  H   UNL A   1      36.742  35.627  32.982  1.00  0.00     0.347 HD
ATOM     12  H   UNL A   1      35.649  35.801  31.675  1.00  0.00     0.347 HD
BRANCH  10  13
ATOM     13  C   UNL A   1      34.776  35.439  33.438  1.00  0.00     0.261 C 
BRANCH  13  14
ATOM     14  C   UNL A   1      33.926  36.656  33.056  1.00  0.00     0.058 C 
ATOM     15  C   UNL A   1      32.933  36.389  31.934  1.00  0.00     0.010 C 
ENDBRANCH  13  14
ENDBRANCH  10  13
ENDBRANCH   5  10
BRANCH   9  16
ATOM     16  S   UNL A   1      38.549  31.702  34.523  1.00  0.00    -0.155 SA
BRANCH  16  17
ATOM     17  C   UNL A   1      39.532  30.183  34.216  1.00  0.00     0.047 C 
ATOM     18  C   UNL A   1      39.072  29.243  33.118  1.00  0.00     0.014 C 
ATOM     19  C   UNL A   1      41.034  30.347  34.023  1.00  0.00     0.014 C 
ATOM     20  C   UNL A   1      40.260  28.320  32.876  1.00  0.00     0.001 C 
ATOM     21  C   UNL A   1      41.505  29.086  33.306  1.00  0.00     0.001 C 
ENDBRANCH  16  17
ENDBRANCH   9  16
ENDBRANCH   3   5
ENDBRANCH   2   3
ENDBRANCH   1   2
BRANCH   1  22
ATOM     22  C   UNL A   1      33.842  32.908  28.059  1.00  0.00     0.275 C 
BRANCH  22  23
ATOM     23  O   UNL A   1      35.061  32.161  27.901  1.00  0.00    -0.458 OA
BRANCH  23  24
ATOM     24  C   UNL A   1      34.948  30.823  28.074  1.00  0.00     0.338 C 
ATOM     25  O   UNL A   1      33.932  30.154  28.001  1.00  0.00    -0.246 OA
BRANCH  24  26
ATOM     26  C   UNL A   1      36.287  30.230  28.246  1.00  0.00     0.060 A 
ATOM     27  C   UNL A   1      36.611  29.698  29.497  1.00  0.00     0.016 A 
ATOM     28  C   UNL A   1      37.228  30.235  27.215  1.00  0.00     0.016 A 
ATOM     29  C   UNL A   1      37.866  29.136  29.718  1.00  0.00     0.010 A 
ATOM     30  C   UNL A   1      38.501  29.703  27.448  1.00  0.00     0.010 A 
ATOM     31  C   UNL A   1      38.824  29.150  28.700  1.00  0.00    -0.014 A 
BRANCH  31  32
ATOM     32  C   UNL A   1      40.200  28.679  28.964  1.00  0.00     0.031 A 
ATOM     33  C   UNL A   1      41.191  29.628  29.567  1.00  0.00     0.074 A 
ATOM     34  C   UNL A   1      40.560  27.419  28.664  1.00  0.00     0.049 A 
ATOM     35  N   UNL A   1      42.480  29.485  29.729  1.00  0.00    -0.248 NA
ATOM     36  C   UNL A   1      40.655  30.904  30.065  1.00  0.00     0.031 C 
ATOM     37  C   UNL A   1      39.660  26.375  28.177  1.00  0.00     0.029 A 
ATOM     38  N   UNL A   1      41.789  26.811  28.712  1.00  0.00    -0.354 N 
ATOM     39  C   UNL A   1      42.912  30.654  30.340  1.00  0.00     0.074 A 
ATOM     40  C   UNL A   1      41.749  31.495  30.522  1.00  0.00     0.031 C 
ATOM     41  C   UNL A   1      40.375  25.261  27.942  1.00  0.00     0.029 A 
ATOM     42  C   UNL A   1      41.786  25.532  28.212  1.00  0.00     0.049 A 
ATOM     43  H   UNL A   1      42.596  27.249  29.071  1.00  0.00     0.167 HD
ATOM     44  C   UNL A   1      44.169  30.999  30.703  1.00  0.00     0.037 A 
ATOM     45  C   UNL A   1      42.815  24.700  27.957  1.00  0.00     0.037 A 
ATOM     46  C   UNL A   1      45.327  30.175  30.482  1.00  0.00     0.049 A 
ATOM     47  C   UNL A   1      44.222  25.162  28.235  1.00  0.00     0.074 A 
ATOM     48  C   UNL A   1      46.654  30.460  30.752  1.00  0.00     0.029 A 
ATOM     49  N   UNL A   1      45.292  28.905  29.928  1.00  0.00    -0.354 N 
ATOM     50  N   UNL A   1      44.633  26.285  28.772  1.00  0.00    -0.248 NA
ATOM     51  C   UNL A   1      45.311  24.249  27.854  1.00  0.00     0.031 C 
ATOM     52  C   UNL A   1      47.426  29.375  30.323  1.00  0.00     0.029 A 
ATOM     53  C   UNL A   1      46.575  28.398  29.830  1.00  0.00     0.049 A 
ATOM     54  H   UNL A   1      44.475  28.434  29.645  1.00  0.00     0.167 HD
ATOM     55  C   UNL A   1      46.020  26.199  28.827  1.00  0.00     0.074 A 
ATOM     56  C   UNL A   1      46.381  24.915  28.266  1.00  0.00     0.031 C 
ATOM     57  C   UNL A   1      46.912  27.103  29.299  1.00  0.00     0.037 A 
BRANCH  44  58
ATOM     58  C   UNL A   1      44.354  32.349  31.323  1.00  0.00     0.057 A 
ATOM     59  C   UNL A   1      44.328  32.534  32.710  1.00  0.00     0.134 A 
ATOM     60  C   UNL A   1      44.569  33.477  30.521  1.00  0.00     0.134 A 
ATOM     61  F   UNL A   1      44.109  31.496  33.531  1.00  0.00    -0.206 F 
ATOM     62  C   UNL A   1      44.490  33.800  33.278  1.00  0.00     0.040 A 
ATOM     63  C   UNL A   1      44.751  34.743  31.078  1.00  0.00     0.040 A 
ATOM     64  F   UNL A   1      44.604  33.365  29.184  1.00  0.00    -0.206 F 
ATOM     65  C   UNL A   1      44.706  34.908  32.460  1.00  0.00     0.006 A 
ENDBRANCH  44  58
BRANCH  45  66
ATOM     66  C   UNL A   1      42.570  23.362  27.359  1.00  0.00     0.057 A 
ATOM     67  C   UNL A   1      42.319  22.245  28.162  1.00  0.00     0.134 A 
ATOM     68  C   UNL A   1      42.630  23.159  25.973  1.00  0.00     0.134 A 
ATOM     69  F   UNL A   1      42.277  22.369  29.497  1.00  0.00    -0.206 F 
ATOM     70  C   UNL A   1      42.153  20.971  27.613  1.00  0.00     0.040 A 
ATOM     71  C   UNL A   1      42.440  21.897  25.410  1.00  0.00     0.040 A 
ATOM     72  F   UNL A   1      42.876  24.186  25.148  1.00  0.00    -0.206 F 
ATOM     73  C   UNL A   1      42.209  20.796  26.232  1.00  0.00     0.006 A 
ENDBRANCH  45  66
BRANCH  57  74
ATOM     74  C   UNL A   1      48.361  26.717  29.297  1.00  0.00     0.057 A 
ATOM     75  C   UNL A   1      48.936  25.992  30.347  1.00  0.00     0.134 A 
ATOM     76  C   UNL A   1      49.166  27.004  28.187  1.00  0.00     0.134 A 
ATOM     77  F   UNL A   1      48.219  25.695  31.442  1.00  0.00    -0.206 F 
ATOM     78  C   UNL A   1      50.265  25.567  30.294  1.00  0.00     0.040 A 
ATOM     79  C   UNL A   1      50.489  26.568  28.114  1.00  0.00     0.040 A 
ATOM     80  F   UNL A   1      48.671  27.689  27.146  1.00  0.00    -0.206 F 
ATOM     81  C   UNL A   1      51.041  25.847  29.170  1.00  0.00     0.006 A 
ENDBRANCH  57  74
ENDBRANCH  31  32
ENDBRANCH  24  26
ENDBRANCH  23  24
ENDBRANCH  22  23
ENDBRANCH   1  22
TORSDOF 16
ENDMDL
MODEL 2
REMARK VINA RESULT:      -8.9      2.159      3.274
REMARK SMILES CCC[NH2+][C@@]1(C(=O)OCCOC(=O)c2ccc(-c3c4nc(c(-c5c(F)cccc5F)c5ccc([nH]5)c(-c5c(F)cccc5F)c5nc(c(-c6c(F)cccc6F)c6ccc3[nH]6)C=C5)C=C4)cc2)CC[C@@H](SC2CCCC2)C1
REMARK SMILES IDX 9 1 8 2 6 3 7 4 5 5 68 6 77 7 69 8 70 9 4 10 3 13 2 14 1 15
REMARK SMILES IDX 71 16 72 17 73 18 76 19 74 20 75 21 10 22 11 23 12 24 13 25
REMARK SMILES IDX 14 26 15 27 67 28 16 29 66 30 17 31 18 32 19 33 60 34 20 35
REMARK SMILES IDX 65 36 59 37 61 38 21 39 64 40 58 41 57 42 22 44 48 45 31 46
REMARK SMILES IDX 47 47 32 48 35 49 46 50 62 51 33 52 34 53 45 55 63 56 36 57
REMARK SMILES IDX 23 58 24 59 29 60 25 61 26 62 28 63 30 64 27 65 49 66 50 67
REMARK SMILES IDX 55 68 51 69 52 70 54 71 56 72 53 73 37 74 38 75 43 76 39 77
REMARK SMILES IDX 40 78 42 79 44 80 41 81
REMARK H PARENT 4 11 4 12 61 43 35 54
REMARK Flexibility Score: inf
ROOT
ATOM      1  C   UNL A   1      34.114  34.240  29.326  1.00  0.00     0.274 C 
ENDROOT
BRANCH   1   2
ATOM      2  O   UNL A   1      34.356  33.549  30.567  1.00  0.00    -0.457 OA
BRANCH   2   3
ATOM      3  C   UNL A   1      34.913  34.300  31.565  1.00  0.00     0.368 C 
ATOM      4  O   UNL A   1      34.332  35.235  32.104  1.00  0.00    -0.245 OA
BRANCH   3   5
ATOM      5  C   UNL A   1      36.383  33.854  31.878  1.00  0.00     0.195 C 
ATOM      6  C   UNL A   1      36.561  32.361  31.580  1.00  0.00     0.082 C 
ATOM      7  C   UNL A   1      36.708  33.998  33.386  1.00  0.00     0.095 C 
ATOM      8  C   UNL A   1      36.238  31.634  32.879  1.00  0.00     0.022 C 
ATOM      9  C   UNL A   1      36.600  32.602  34.001  1.00  0.00     0.054 C 
BRANCH   5  10
ATOM     10  N   UNL A   1      37.344  34.703  31.115  1.00  0.00    -0.332 N 
ATOM     11  H   UNL A   1      36.912  35.617  30.977  1.00  0.00     0.347 HD
ATOM     12  H   UNL A   1      38.197  34.724  31.674  1.00  0.00     0.347 HD
BRANCH  10  13
ATOM     13  C   UNL A   1      37.744  34.193  29.800  1.00  0.00     0.261 C 
BRANCH  13  14
ATOM     14  C   UNL A   1      39.211  34.531  29.507  1.00  0.00     0.058 C 
ATOM     15  C   UNL A   1      40.189  33.983  30.536  1.00  0.00     0.010 C 
ENDBRANCH  13  14
ENDBRANCH  10  13
ENDBRANCH   5  10
BRANCH   9  16
ATOM     16  S   UNL A   1      37.909  32.086  35.198  1.00  0.00    -0.155 SA
BRANCH  16  17
ATOM     17  C   UNL A   1      39.142  33.432  35.388  1.00  0.00     0.047 C 
ATOM     18  C   UNL A   1      39.659  34.111  34.134  1.00  0.00     0.014 C 
ATOM     19  C   UNL A   1      38.812  34.554  36.364  1.00  0.00     0.014 C 
ATOM     20  C   UNL A   1      40.346  35.376  34.633  1.00  0.00     0.001 C 
ATOM     21  C   UNL A   1      39.695  35.732  35.965  1.00  0.00     0.001 C 
ENDBRANCH  16  17
ENDBRANCH   9  16
ENDBRANCH   3   5
ENDBRANCH   2   3
ENDBRANCH   1   2
BRANCH   1  22
ATOM     22  C   UNL A   1      33.786  33.271  28.185  1.00  0.00     0.275 C 
BRANCH  22  23
ATOM     23  O   UNL A   1      34.953  32.551  27.750  1.00  0.00    -0.458 OA
BRANCH  23  24
ATOM     24  C   UNL A   1      34.850  31.201  27.790  1.00  0.00     0.338 C 
ATOM     25  O   UNL A   1      33.969  30.515  27.300  1.00  0.00    -0.246 OA
BRANCH  24  26
ATOM     26  C   UNL A   1      36.054  30.630  28.418  1.00  0.00     0.060 A 
ATOM     27  C   UNL A   1      37.300  31.107  28.000  1.00  0.00     0.016 A 
ATOM     28  C   UNL A   1      35.972  29.609  29.367  1.00  0.00     0.016 A 
ATOM     29  C   UNL A   1      38.471  30.593  28.551  1.00  0.00     0.010 A 
ATOM     30  C   UNL A   1      37.149  29.068  29.894  1.00  0.00     0.010 A 
ATOM     31  C   UNL A   1      38.402  29.559  29.490  1.00  0.00    -0.014 A 
BRANCH  31  32
ATOM     32  C   UNL A   1      39.640  28.916  29.981  1.00  0.00     0.031 A 
ATOM     33  C   UNL A   1      40.333  29.492  31.178  1.00  0.00     0.074 A 
ATOM     34  C   UNL A   1      40.140  27.832  29.362  1.00  0.00     0.049 A 
ATOM     35  N   UNL A   1      41.506  29.198  31.676  1.00  0.00    -0.248 NA
ATOM     36  C   UNL A   1      39.603  30.532  31.919  1.00  0.00     0.031 C 
ATOM     37  C   UNL A   1      39.499  27.118  28.259  1.00  0.00     0.029 A 
ATOM     38  N   UNL A   1      41.315  27.155  29.567  1.00  0.00    -0.354 N 
ATOM     39  C   UNL A   1      41.657  30.021  32.784  1.00  0.00     0.074 A 
ATOM     40  C   UNL A   1      40.458  30.824  32.888  1.00  0.00     0.031 C 
ATOM     41  C   UNL A   1      40.306  26.117  27.864  1.00  0.00     0.029 A 
ATOM     42  C   UNL A   1      41.537  26.157  28.650  1.00  0.00     0.049 A 
ATOM     43  H   UNL A   1      41.938  27.364  30.301  1.00  0.00     0.167 HD
ATOM     44  C   UNL A   1      42.710  30.106  33.631  1.00  0.00     0.037 A 
ATOM     45  C   UNL A   1      42.633  25.399  28.444  1.00  0.00     0.037 A 
ATOM     46  C   UNL A   1      43.916  29.334  33.498  1.00  0.00     0.049 A 
ATOM     47  C   UNL A   1      43.849  25.613  29.308  1.00  0.00     0.074 A 
ATOM     48  C   UNL A   1      45.068  29.392  34.262  1.00  0.00     0.029 A 
ATOM     49  N   UNL A   1      44.125  28.366  32.528  1.00  0.00    -0.354 N 
ATOM     50  N   UNL A   1      44.008  26.421  30.329  1.00  0.00    -0.248 NA
ATOM     51  C   UNL A   1      45.046  24.823  28.981  1.00  0.00     0.031 C 
ATOM     52  C   UNL A   1      45.990  28.486  33.728  1.00  0.00     0.029 A 
ATOM     53  C   UNL A   1      45.394  27.832  32.661  1.00  0.00     0.049 A 
ATOM     54  H   UNL A   1      43.468  28.099  31.844  1.00  0.00     0.167 HD
ATOM     55  C   UNL A   1      45.304  26.212  30.785  1.00  0.00     0.074 A 
ATOM     56  C   UNL A   1      45.890  25.202  29.930  1.00  0.00     0.031 C 
ATOM     57  C   UNL A   1      45.948  26.803  31.820  1.00  0.00     0.037 A 
BRANCH  44  58
ATOM     58  C   UNL A   1      42.617  31.111  34.736  1.00  0.00     0.057 A 
ATOM     59  C   UNL A   1      42.097  30.781  35.993  1.00  0.00     0.134 A 
ATOM     60  C   UNL A   1      43.061  32.425  34.542  1.00  0.00     0.134 A 
ATOM     61  F   UNL A   1      41.639  29.543  36.235  1.00  0.00    -0.206 F 
ATOM     62  C   UNL A   1      42.004  31.729  37.013  1.00  0.00     0.040 A 
ATOM     63  C   UNL A   1      42.991  33.376  35.560  1.00  0.00     0.040 A 
ATOM     64  F   UNL A   1      43.570  32.804  33.359  1.00  0.00    -0.206 F 
ATOM     65  C   UNL A   1      42.455  33.030  36.798  1.00  0.00     0.006 A 
ENDBRANCH  44  58
BRANCH  45  66
ATOM     66  C   UNL A   1      42.662  24.402  27.343  1.00  0.00     0.057 A 
ATOM     67  C   UNL A   1      42.240  23.084  27.548  1.00  0.00     0.134 A 
ATOM     68  C   UNL A   1      43.157  24.729  26.074  1.00  0.00     0.134 A 
ATOM     69  F   UNL A   1      41.782  22.702  28.750  1.00  0.00    -0.206 F 
ATOM     70  C   UNL A   1      42.325  22.123  26.540  1.00  0.00     0.040 A 
ATOM     71  C   UNL A   1      43.223  23.785  25.049  1.00  0.00     0.040 A 
ATOM     72  F   UNL A   1      43.585  25.973  25.813  1.00  0.00    -0.206 F 
ATOM     73  C   UNL A   1      42.814  22.475  25.283  1.00  0.00     0.006 A 
ENDBRANCH  45  66
BRANCH  57  74
ATOM     74  C   UNL A   1      47.336  26.332  32.135  1.00  0.00     0.057 A 
ATOM     75  C   UNL A   1      48.468  26.930  31.569  1.00  0.00     0.134 A 
ATOM     76  C   UNL A   1      47.541  25.323  33.085  1.00  0.00     0.134 A 
ATOM     77  F   UNL A   1      48.337  27.895  30.646  1.00  0.00    -0.206 F 
ATOM     78  C   UNL A   1      49.757  26.538  31.934  1.00  0.00     0.040 A 
ATOM     79  C   UNL A   1      48.824  24.936  33.473  1.00  0.00     0.040 A 
ATOM     80  F   UNL A   1      46.498  24.716  33.670  1.00  0.00    -0.206 F 
ATOM     81  C   UNL A   1      49.937  25.545  32.897  1.00  0.00     0.006 A 
ENDBRANCH  57  74
ENDBRANCH  31  32
ENDBRANCH  24  26
ENDBRANCH  23  24
ENDBRANCH  22  23
ENDBRANCH   1  22
TORSDOF 16
ENDMDL
MODEL 3
REMARK VINA RESULT:      -8.8      4.554      9.257
REMARK SMILES CCC[NH2+][C@@]1(C(=O)OCCOC(=O)c2ccc(-c3c4nc(c(-c5c(F)cccc5F)c5ccc([nH]5)c(-c5c(F)cccc5F)c5nc(c(-c6c(F)cccc6F)c6ccc3[nH]6)C=C5)C=C4)cc2)CC[C@@H](SC2CCCC2)C1
REMARK SMILES IDX 9 1 8 2 6 3 7 4 5 5 68 6 77 7 69 8 70 9 4 10 3 13 2 14 1 15
REMARK SMILES IDX 71 16 72 17 73 18 76 19 74 20 75 21 10 22 11 23 12 24 13 25
REMARK SMILES IDX 14 26 15 27 67 28 16 29 66 30 17 31 18 32 19 33 60 34 20 35
REMARK SMILES IDX 65 36 59 37 61 38 21 39 64 40 58 41 57 42 22 44 48 45 31 46
REMARK SMILES IDX 47 47 32 48 35 49 46 50 62 51 33 52 34 53 45 55 63 56 36 57
REMARK SMILES IDX 23 58 24 59 29 60 25 61 26 62 28 63 30 64 27 65 49 66 50 67
REMARK SMILES IDX 55 68 51 69 52 70 54 71 56 72 53 73 37 74 38 75 43 76 39 77
REMARK SMILES IDX 40 78 42 79 44 80 41 81
REMARK H PARENT 4 11 4 12 61 43 35 54
REMARK Flexibility Score: inf
ROOT
ATOM      1  C   UNL A   1      31.725  28.451  26.461  1.00  0.00     0.274 C 
ENDROOT
BRANCH   1   2
ATOM      2  O   UNL A   1      31.411  27.546  25.384  1.00  0.00    -0.457 OA
BRANCH   2   3
ATOM      3  C   UNL A   1      31.236  26.237  25.740  1.00  0.00     0.368 C 
ATOM      4  O   UNL A   1      30.356  25.864  26.508  1.00  0.00    -0.245 OA
BRANCH   3   5
ATOM      5  C   UNL A   1      32.324  25.309  25.098  1.00  0.00     0.195 C 
ATOM      6  C   UNL A   1      31.665  24.277  24.176  1.00  0.00     0.082 C 
ATOM      7  C   UNL A   1      33.054  24.468  26.176  1.00  0.00     0.095 C 
ATOM      8  C   UNL A   1      31.376  23.061  25.047  1.00  0.00     0.022 C 
ATOM      9  C   UNL A   1      32.441  23.067  26.140  1.00  0.00     0.054 C 
BRANCH   5  10
ATOM     10  N   UNL A   1      33.343  26.135  24.388  1.00  0.00    -0.332 N 
ATOM     11  H   UNL A   1      33.111  27.117  24.542  1.00  0.00     0.347 HD
ATOM     12  H   UNL A   1      34.243  25.854  24.774  1.00  0.00     0.347 HD
BRANCH  10  13
ATOM     13  C   UNL A   1      33.446  25.921  22.941  1.00  0.00     0.261 C 
BRANCH  13  14
ATOM     14  C   UNL A   1      33.634  27.252  22.205  1.00  0.00     0.058 C 
ATOM     15  C   UNL A   1      33.976  28.421  23.118  1.00  0.00     0.010 C 
ENDBRANCH  13  14
ENDBRANCH  10  13
ENDBRANCH   5  10
BRANCH   9  16
ATOM     16  S   UNL A   1      33.587  21.623  26.236  1.00  0.00    -0.155 SA
BRANCH  16  17
ATOM     17  C   UNL A   1      35.065  21.933  25.193  1.00  0.00     0.047 C 
ATOM     18  C   UNL A   1      34.851  22.468  23.789  1.00  0.00     0.014 C 
ATOM     19  C   UNL A   1      36.184  22.773  25.794  1.00  0.00     0.014 C 
ATOM     20  C   UNL A   1      36.225  22.953  23.346  1.00  0.00     0.001 C 
ATOM     21  C   UNL A   1      37.002  23.290  24.613  1.00  0.00     0.001 C 
ENDBRANCH  16  17
ENDBRANCH   9  16
ENDBRANCH   3   5
ENDBRANCH   2   3
ENDBRANCH   1   2
BRANCH   1  22
ATOM     22  C   UNL A   1      31.735  29.911  25.998  1.00  0.00     0.275 C 
BRANCH  22  23
ATOM     23  O   UNL A   1      33.064  30.462  26.014  1.00  0.00    -0.458 OA
BRANCH  23  24
ATOM     24  C   UNL A   1      33.289  31.408  26.956  1.00  0.00     0.338 C 
ATOM     25  O   UNL A   1      32.527  32.292  27.308  1.00  0.00    -0.246 OA
BRANCH  24  26
ATOM     26  C   UNL A   1      34.578  31.150  27.622  1.00  0.00     0.060 A 
ATOM     27  C   UNL A   1      34.871  29.834  27.993  1.00  0.00     0.016 A 
ATOM     28  C   UNL A   1      35.467  32.182  27.924  1.00  0.00     0.016 A 
ATOM     29  C   UNL A   1      36.069  29.535  28.637  1.00  0.00     0.010 A 
ATOM     30  C   UNL A   1      36.654  31.888  28.602  1.00  0.00     0.010 A 
ATOM     31  C   UNL A   1      36.960  30.563  28.960  1.00  0.00    -0.014 A 
BRANCH  31  32
ATOM     32  C   UNL A   1      38.170  30.276  29.760  1.00  0.00     0.031 A 
ATOM     33  C   UNL A   1      39.215  29.362  29.196  1.00  0.00     0.074 A 
ATOM     34  C   UNL A   1      38.329  30.821  30.979  1.00  0.00     0.049 A 
ATOM     35  N   UNL A   1      40.264  28.844  29.780  1.00  0.00    -0.248 NA
ATOM     36  C   UNL A   1      39.066  28.993  27.780  1.00  0.00     0.031 C 
ATOM     37  C   UNL A   1      37.437  31.805  31.588  1.00  0.00     0.029 A 
ATOM     38  N   UNL A   1      39.295  30.606  31.929  1.00  0.00    -0.354 N 
ATOM     39  C   UNL A   1      40.895  28.082  28.806  1.00  0.00     0.074 A 
ATOM     40  C   UNL A   1      40.115  28.206  27.594  1.00  0.00     0.031 C 
ATOM     41  C   UNL A   1      37.882  32.088  32.824  1.00  0.00     0.029 A 
ATOM     42  C   UNL A   1      39.057  31.266  33.109  1.00  0.00     0.049 A 
ATOM     43  H   UNL A   1      40.084  30.035  31.778  1.00  0.00     0.167 HD
ATOM     44  C   UNL A   1      42.018  27.335  28.920  1.00  0.00     0.037 A 
ATOM     45  C   UNL A   1      39.690  31.174  34.296  1.00  0.00     0.037 A 
ATOM     46  C   UNL A   1      42.766  27.183  30.138  1.00  0.00     0.049 A 
ATOM     47  C   UNL A   1      40.851  30.224  34.439  1.00  0.00     0.074 A 
ATOM     48  C   UNL A   1      43.879  26.396  30.378  1.00  0.00     0.029 A 
ATOM     49  N   UNL A   1      42.467  27.829  31.328  1.00  0.00    -0.354 N 
ATOM     50  N   UNL A   1      41.421  29.471  33.530  1.00  0.00    -0.248 NA
ATOM     51  C   UNL A   1      41.446  30.096  35.778  1.00  0.00     0.031 C 
ATOM     52  C   UNL A   1      44.229  26.537  31.724  1.00  0.00     0.029 A 
ATOM     53  C   UNL A   1      43.362  27.446  32.310  1.00  0.00     0.049 A 
ATOM     54  H   UNL A   1      41.726  28.465  31.456  1.00  0.00     0.167 HD
ATOM     55  C   UNL A   1      42.459  28.810  34.175  1.00  0.00     0.074 A 
ATOM     56  C   UNL A   1      42.441  29.249  35.554  1.00  0.00     0.031 C 
ATOM     57  C   UNL A   1      43.348  27.920  33.670  1.00  0.00     0.037 A 
BRANCH  44  58
ATOM     58  C   UNL A   1      42.463  26.583  27.704  1.00  0.00     0.057 A 
ATOM     59  C   UNL A   1      43.345  27.143  26.772  1.00  0.00     0.134 A 
ATOM     60  C   UNL A   1      42.009  25.280  27.467  1.00  0.00     0.134 A 
ATOM     61  F   UNL A   1      43.801  28.394  26.934  1.00  0.00    -0.206 F 
ATOM     62  C   UNL A   1      43.745  26.438  25.635  1.00  0.00     0.040 A 
ATOM     63  C   UNL A   1      42.417  24.559  26.345  1.00  0.00     0.040 A 
ATOM     64  F   UNL A   1      41.162  24.688  28.323  1.00  0.00    -0.206 F 
ATOM     65  C   UNL A   1      43.282  25.140  25.422  1.00  0.00     0.006 A 
ENDBRANCH  44  58
BRANCH  45  66
ATOM     66  C   UNL A   1      39.215  31.959  35.464  1.00  0.00     0.057 A 
ATOM     67  C   UNL A   1      38.279  31.431  36.359  1.00  0.00     0.134 A 
ATOM     68  C   UNL A   1      39.649  33.272  35.687  1.00  0.00     0.134 A 
ATOM     69  F   UNL A   1      37.803  30.189  36.184  1.00  0.00    -0.206 F 
ATOM     70  C   UNL A   1      37.777  32.184  37.423  1.00  0.00     0.040 A 
ATOM     71  C   UNL A   1      39.176  34.028  36.760  1.00  0.00     0.040 A 
ATOM     72  F   UNL A   1      40.540  33.841  34.862  1.00  0.00    -0.206 F 
ATOM     73  C   UNL A   1      38.230  33.486  37.627  1.00  0.00     0.006 A 
ENDBRANCH  45  66
BRANCH  57  74
ATOM     74  C   UNL A   1      44.418  27.408  34.587  1.00  0.00     0.057 A 
ATOM     75  C   UNL A   1      45.622  28.096  34.777  1.00  0.00     0.134 A 
ATOM     76  C   UNL A   1      44.199  26.256  35.353  1.00  0.00     0.134 A 
ATOM     77  F   UNL A   1      45.895  29.200  34.065  1.00  0.00    -0.206 F 
ATOM     78  C   UNL A   1      46.575  27.652  35.696  1.00  0.00     0.040 A 
ATOM     79  C   UNL A   1      45.135  25.815  36.289  1.00  0.00     0.040 A 
ATOM     80  F   UNL A   1      43.061  25.558  35.223  1.00  0.00    -0.206 F 
ATOM     81  C   UNL A   1      46.327  26.514  36.462  1.00  0.00     0.006 A 
ENDBRANCH  57  74
ENDBRANCH  31  32
ENDBRANCH  24  26
ENDBRANCH  23  24
ENDBRANCH  22  23
ENDBRANCH   1  22
TORSDOF 16
ENDMDL
