MODEL 1
REMARK VINA RESULT:     -12.1      0.000      0.000
REMARK SMILES Cc1cscc1C(=O)N1Cc2nc[nH]c2C[C@H]1C(=O)OCCOC(=O)c1ccc(-c2c3nc(c(-c4c(F)cccc4F)c4ccc([nH]4)c(-c4c(F)cccc4F)c4nc(c(-c5c(F)cccc5F)c5ccc2[nH]5)C=C4)C=C3)cc1
REMARK SMILES IDX 21 1 20 2 18 3 19 4 17 5 9 6 10 7 11 8 16 9 12 10 15 11
REMARK SMILES IDX 13 12 14 13 7 15 8 16 6 17 1 18 2 19 3 20 4 21 5 22 22 23
REMARK SMILES IDX 23 24 24 25 25 26 26 27 27 28 79 29 28 30 78 31 29 32 30 33
REMARK SMILES IDX 31 34 72 35 32 36 77 37 71 38 73 39 33 40 76 41 70 42 69 43
REMARK SMILES IDX 34 45 60 46 43 47 59 48 44 49 47 50 58 51 74 52 45 53 46 54
REMARK SMILES IDX 57 56 75 57 48 58 35 59 36 60 41 61 37 62 38 63 40 64 42 65
REMARK SMILES IDX 39 66 61 67 62 68 67 69 63 70 64 71 66 72 68 73 65 74 49 75
REMARK SMILES IDX 50 76 55 77 51 78 52 79 54 80 56 81 53 82
REMARK H PARENT 14 14 73 44 47 55
REMARK Flexibility Score: inf
ROOT
ATOM      1  C   UNL A   1      33.612  30.097  26.845  1.00  0.00     0.274 C 
ENDROOT
BRANCH   1   2
ATOM      2  O   UNL A   1      33.061  29.637  25.586  1.00  0.00    -0.461 OA
BRANCH   2   3
ATOM      3  C   UNL A   1      32.665  28.331  25.518  1.00  0.00     0.329 C 
ATOM      4  O   UNL A   1      31.906  27.806  26.333  1.00  0.00    -0.250 OA
BRANCH   3   5
ATOM      5  C   UNL A   1      33.353  27.507  24.383  1.00  0.00     0.201 C 
ATOM      6  N   UNL A   1      32.756  26.235  23.818  1.00  0.00    -0.318 N 
ATOM      7  C   UNL A   1      31.373  26.345  23.306  1.00  0.00     0.179 C 
ATOM      8  C   UNL A   1      31.171  27.682  22.663  1.00  0.00     0.081 A 
ATOM      9  C   UNL A   1      33.478  28.570  23.239  1.00  0.00     0.093 C 
ATOM     10  N   UNL A   1      29.977  28.147  22.184  1.00  0.00    -0.240 NA
ATOM     11  C   UNL A   1      32.123  28.681  22.635  1.00  0.00     0.042 A 
ATOM     12  C   UNL A   1      30.206  29.404  21.863  1.00  0.00     0.197 A 
ATOM     13  N   UNL A   1      31.500  29.777  22.122  1.00  0.00    -0.348 N 
ATOM     14  H   UNL A   1      31.900  30.663  21.967  1.00  0.00     0.167 HD
BRANCH   6  15
ATOM     15  C   UNL A   1      33.590  25.421  23.026  1.00  0.00     0.256 C 
ATOM     16  O   UNL A   1      33.797  25.697  21.846  1.00  0.00    -0.269 OA
BRANCH  15  17
ATOM     17  C   UNL A   1      34.171  24.194  23.616  1.00  0.00     0.053 A 
ATOM     18  C   UNL A   1      32.678  22.346  22.603  1.00  0.00     0.046 C 
ATOM     19  C   UNL A   1      33.796  22.812  23.443  1.00  0.00    -0.028 A 
ATOM     20  C   UNL A   1      34.563  21.946  24.204  1.00  0.00     0.069 A 
ATOM     21  S   UNL A   1      35.818  22.746  25.025  1.00  0.00    -0.151 S 
ATOM     22  C   UNL A   1      35.314  24.256  24.405  1.00  0.00     0.079 A 
ENDBRANCH  15  17
ENDBRANCH   6  15
ENDBRANCH   3   5
ENDBRANCH   2   3
ENDBRANCH   1   2
BRANCH   1  23
ATOM     23  C   UNL A   1      34.887  29.329  27.227  1.00  0.00     0.275 C 
BRANCH  23  24
ATOM     24  O   UNL A   1      36.073  30.114  27.457  1.00  0.00    -0.458 OA
BRANCH  24  25
ATOM     25  C   UNL A   1      36.435  30.186  28.750  1.00  0.00     0.338 C 
ATOM     26  O   UNL A   1      35.914  30.862  29.610  1.00  0.00    -0.246 OA
BRANCH  25  27
ATOM     27  C   UNL A   1      37.743  29.622  29.051  1.00  0.00     0.060 A 
ATOM     28  C   UNL A   1      38.790  30.096  28.249  1.00  0.00     0.016 A 
ATOM     29  C   UNL A   1      37.853  28.443  29.781  1.00  0.00     0.016 A 
ATOM     30  C   UNL A   1      39.863  29.275  28.004  1.00  0.00     0.010 A 
ATOM     31  C   UNL A   1      38.995  27.680  29.631  1.00  0.00     0.010 A 
ATOM     32  C   UNL A   1      39.965  28.062  28.696  1.00  0.00    -0.014 A 
BRANCH  32  33
ATOM     33  C   UNL A   1      41.272  27.402  28.660  1.00  0.00     0.031 A 
ATOM     34  C   UNL A   1      42.049  27.711  29.898  1.00  0.00     0.074 A 
ATOM     35  C   UNL A   1      41.617  26.484  27.731  1.00  0.00     0.049 A 
ATOM     36  N   UNL A   1      43.233  28.218  29.983  1.00  0.00    -0.248 NA
ATOM     37  C   UNL A   1      41.337  27.667  31.200  1.00  0.00     0.031 C 
ATOM     38  C   UNL A   1      40.776  26.024  26.620  1.00  0.00     0.029 A 
ATOM     39  N   UNL A   1      42.697  25.642  27.658  1.00  0.00    -0.354 N 
ATOM     40  C   UNL A   1      43.507  28.266  31.349  1.00  0.00     0.074 A 
ATOM     41  C   UNL A   1      42.251  28.161  32.033  1.00  0.00     0.031 C 
ATOM     42  C   UNL A   1      41.225  24.830  26.182  1.00  0.00     0.029 A 
ATOM     43  C   UNL A   1      42.454  24.506  26.882  1.00  0.00     0.049 A 
ATOM     44  H   UNL A   1      43.554  25.820  28.108  1.00  0.00     0.167 HD
ATOM     45  C   UNL A   1      44.750  27.936  31.785  1.00  0.00     0.037 A 
ATOM     46  C   UNL A   1      43.165  23.350  26.876  1.00  0.00     0.037 A 
ATOM     47  C   UNL A   1      45.717  28.095  30.733  1.00  0.00     0.049 A 
ATOM     48  C   UNL A   1      44.500  23.639  27.438  1.00  0.00     0.074 A 
ATOM     49  C   UNL A   1      46.373  29.130  30.106  1.00  0.00     0.029 A 
ATOM     50  N   UNL A   1      45.789  27.009  29.909  1.00  0.00    -0.354 N 
ATOM     51  N   UNL A   1      45.394  24.360  26.825  1.00  0.00    -0.248 NA
ATOM     52  C   UNL A   1      44.742  23.408  28.860  1.00  0.00     0.031 C 
ATOM     53  C   UNL A   1      46.809  28.625  28.845  1.00  0.00     0.029 A 
ATOM     54  C   UNL A   1      46.455  27.283  28.751  1.00  0.00     0.049 A 
ATOM     55  H   UNL A   1      45.405  26.128  30.126  1.00  0.00     0.167 HD
ATOM     56  C   UNL A   1      46.035  25.030  27.846  1.00  0.00     0.074 A 
ATOM     57  C   UNL A   1      45.733  24.280  29.059  1.00  0.00     0.031 C 
ATOM     58  C   UNL A   1      46.437  26.321  27.678  1.00  0.00     0.037 A 
BRANCH  45  59
ATOM     59  C   UNL A   1      44.975  26.909  32.883  1.00  0.00     0.057 A 
ATOM     60  C   UNL A   1      44.423  25.625  32.732  1.00  0.00     0.134 A 
ATOM     61  C   UNL A   1      45.407  27.216  34.193  1.00  0.00     0.134 A 
ATOM     62  F   UNL A   1      43.935  25.224  31.549  1.00  0.00    -0.206 F 
ATOM     63  C   UNL A   1      44.275  24.739  33.809  1.00  0.00     0.040 A 
ATOM     64  C   UNL A   1      45.312  26.322  35.262  1.00  0.00     0.040 A 
ATOM     65  F   UNL A   1      45.843  28.429  34.548  1.00  0.00    -0.206 F 
ATOM     66  C   UNL A   1      44.719  25.086  35.079  1.00  0.00     0.006 A 
ENDBRANCH  45  59
BRANCH  46  67
ATOM     67  C   UNL A   1      42.714  21.954  26.644  1.00  0.00     0.057 A 
ATOM     68  C   UNL A   1      43.363  21.129  25.711  1.00  0.00     0.134 A 
ATOM     69  C   UNL A   1      41.832  21.306  27.525  1.00  0.00     0.134 A 
ATOM     70  F   UNL A   1      44.247  21.643  24.844  1.00  0.00    -0.206 F 
ATOM     71  C   UNL A   1      43.180  19.739  25.685  1.00  0.00     0.040 A 
ATOM     72  C   UNL A   1      41.634  19.921  27.504  1.00  0.00     0.040 A 
ATOM     73  F   UNL A   1      41.201  21.980  28.498  1.00  0.00    -0.206 F 
ATOM     74  C   UNL A   1      42.325  19.128  26.595  1.00  0.00     0.006 A 
ENDBRANCH  46  67
BRANCH  58  75
ATOM     75  C   UNL A   1      46.738  26.783  26.293  1.00  0.00     0.057 A 
ATOM     76  C   UNL A   1      45.859  27.508  25.478  1.00  0.00     0.134 A 
ATOM     77  C   UNL A   1      48.018  26.526  25.790  1.00  0.00     0.134 A 
ATOM     78  F   UNL A   1      44.639  27.859  25.910  1.00  0.00    -0.206 F 
ATOM     79  C   UNL A   1      46.235  27.925  24.197  1.00  0.00     0.040 A 
ATOM     80  C   UNL A   1      48.416  26.966  24.531  1.00  0.00     0.040 A 
ATOM     81  F   UNL A   1      48.916  25.863  26.538  1.00  0.00    -0.206 F 
ATOM     82  C   UNL A   1      47.520  27.659  23.724  1.00  0.00     0.006 A 
ENDBRANCH  58  75
ENDBRANCH  32  33
ENDBRANCH  25  27
ENDBRANCH  24  25
ENDBRANCH  23  24
ENDBRANCH   1  23
TORSDOF 13
ENDMDL
MODEL 2
REMARK VINA RESULT:     -11.8      5.049      9.803
REMARK SMILES Cc1cscc1C(=O)N1Cc2nc[nH]c2C[C@H]1C(=O)OCCOC(=O)c1ccc(-c2c3nc(c(-c4c(F)cccc4F)c4ccc([nH]4)c(-c4c(F)cccc4F)c4nc(c(-c5c(F)cccc5F)c5ccc2[nH]5)C=C4)C=C3)cc1
REMARK SMILES IDX 21 1 20 2 18 3 19 4 17 5 9 6 10 7 11 8 16 9 12 10 15 11
REMARK SMILES IDX 13 12 14 13 7 15 8 16 6 17 1 18 2 19 3 20 4 21 5 22 22 23
REMARK SMILES IDX 23 24 24 25 25 26 26 27 27 28 79 29 28 30 78 31 29 32 30 33
REMARK SMILES IDX 31 34 72 35 32 36 77 37 71 38 73 39 33 40 76 41 70 42 69 43
REMARK SMILES IDX 34 45 60 46 43 47 59 48 44 49 47 50 58 51 74 52 45 53 46 54
REMARK SMILES IDX 57 56 75 57 48 58 35 59 36 60 41 61 37 62 38 63 40 64 42 65
REMARK SMILES IDX 39 66 61 67 62 68 67 69 63 70 64 71 66 72 68 73 65 74 49 75
REMARK SMILES IDX 50 76 55 77 51 78 52 79 54 80 56 81 53 82
REMARK H PARENT 14 14 73 44 47 55
REMARK Flexibility Score: inf
ROOT
ATOM      1  C   UNL A   1      38.195  22.327  25.577  1.00  0.00     0.274 C 
ENDROOT
BRANCH   1   2
ATOM      2  O   UNL A   1      37.258  23.407  25.341  1.00  0.00    -0.461 OA
BRANCH   2   3
ATOM      3  C   UNL A   1      36.378  23.254  24.307  1.00  0.00     0.329 C 
ATOM      4  O   UNL A   1      36.654  22.671  23.257  1.00  0.00    -0.250 OA
BRANCH   3   5
ATOM      5  C   UNL A   1      35.013  23.989  24.507  1.00  0.00     0.201 C 
ATOM      6  N   UNL A   1      33.894  23.929  23.489  1.00  0.00    -0.318 N 
ATOM      7  C   UNL A   1      33.445  22.575  23.103  1.00  0.00     0.179 C 
ATOM      8  C   UNL A   1      33.502  21.661  24.289  1.00  0.00     0.081 A 
ATOM      9  C   UNL A   1      34.511  23.380  25.860  1.00  0.00     0.093 C 
ATOM     10  N   UNL A   1      33.257  20.315  24.252  1.00  0.00    -0.240 NA
ATOM     11  C   UNL A   1      33.983  22.028  25.529  1.00  0.00     0.042 A 
ATOM     12  C   UNL A   1      33.574  19.879  25.453  1.00  0.00     0.197 A 
ATOM     13  N   UNL A   1      34.025  20.886  26.267  1.00  0.00    -0.348 N 
ATOM     14  H   UNL A   1      34.321  20.800  27.202  1.00  0.00     0.167 HD
BRANCH   6  15
ATOM     15  C   UNL A   1      32.843  24.857  23.623  1.00  0.00     0.256 C 
ATOM     16  O   UNL A   1      31.677  24.475  23.705  1.00  0.00    -0.269 OA
BRANCH  15  17
ATOM     17  C   UNL A   1      33.151  26.305  23.608  1.00  0.00     0.053 A 
ATOM     18  C   UNL A   1      33.158  26.882  26.126  1.00  0.00     0.046 C 
ATOM     19  C   UNL A   1      33.307  27.233  24.701  1.00  0.00    -0.028 A 
ATOM     20  C   UNL A   1      33.554  28.527  24.279  1.00  0.00     0.069 A 
ATOM     21  S   UNL A   1      33.738  28.632  22.592  1.00  0.00    -0.151 S 
ATOM     22  C   UNL A   1      33.442  26.959  22.417  1.00  0.00     0.079 A 
ENDBRANCH  15  17
ENDBRANCH   6  15
ENDBRANCH   3   5
ENDBRANCH   2   3
ENDBRANCH   1   2
BRANCH   1  23
ATOM     23  C   UNL A   1      39.289  22.727  26.580  1.00  0.00     0.275 C 
BRANCH  23  24
ATOM     24  O   UNL A   1      39.198  24.048  27.148  1.00  0.00    -0.458 OA
BRANCH  24  25
ATOM     25  C   UNL A   1      40.345  24.482  27.698  1.00  0.00     0.338 C 
ATOM     26  O   UNL A   1      41.235  23.796  28.150  1.00  0.00    -0.246 OA
BRANCH  25  27
ATOM     27  C   UNL A   1      40.364  25.899  28.035  1.00  0.00     0.060 A 
ATOM     28  C   UNL A   1      41.207  26.242  29.099  1.00  0.00     0.016 A 
ATOM     29  C   UNL A   1      39.342  26.740  27.607  1.00  0.00     0.016 A 
ATOM     30  C   UNL A   1      40.888  27.327  29.878  1.00  0.00     0.010 A 
ATOM     31  C   UNL A   1      39.103  27.900  28.318  1.00  0.00     0.010 A 
ATOM     32  C   UNL A   1      39.830  28.158  29.487  1.00  0.00    -0.014 A 
BRANCH  32  33
ATOM     33  C   UNL A   1      39.754  29.465  30.144  1.00  0.00     0.031 A 
ATOM     34  C   UNL A   1      41.073  30.164  30.070  1.00  0.00     0.074 A 
ATOM     35  C   UNL A   1      38.597  30.023  30.561  1.00  0.00     0.049 A 
ATOM     36  N   UNL A   1      41.771  30.640  31.047  1.00  0.00    -0.248 NA
ATOM     37  C   UNL A   1      41.815  30.127  28.785  1.00  0.00     0.031 C 
ATOM     38  C   UNL A   1      37.262  29.423  30.452  1.00  0.00     0.029 A 
ATOM     39  N   UNL A   1      38.321  31.289  31.007  1.00  0.00    -0.354 N 
ATOM     40  C   UNL A   1      42.886  31.220  30.443  1.00  0.00     0.074 A 
ATOM     41  C   UNL A   1      42.985  30.666  29.124  1.00  0.00     0.031 C 
ATOM     42  C   UNL A   1      36.328  30.391  30.535  1.00  0.00     0.029 A 
ATOM     43  C   UNL A   1      36.981  31.650  30.837  1.00  0.00     0.049 A 
ATOM     44  H   UNL A   1      38.998  31.883  31.406  1.00  0.00     0.167 HD
ATOM     45  C   UNL A   1      43.345  32.410  30.910  1.00  0.00     0.037 A 
ATOM     46  C   UNL A   1      36.461  32.903  30.861  1.00  0.00     0.037 A 
ATOM     47  C   UNL A   1      42.929  32.618  32.269  1.00  0.00     0.049 A 
ATOM     48  C   UNL A   1      37.419  33.777  31.569  1.00  0.00     0.074 A 
ATOM     49  C   UNL A   1      43.281  32.161  33.519  1.00  0.00     0.029 A 
ATOM     50  N   UNL A   1      41.672  33.140  32.366  1.00  0.00    -0.354 N 
ATOM     51  N   UNL A   1      37.653  33.694  32.847  1.00  0.00    -0.248 NA
ATOM     52  C   UNL A   1      38.395  34.540  30.795  1.00  0.00     0.031 C 
ATOM     53  C   UNL A   1      42.156  32.397  34.366  1.00  0.00     0.029 A 
ATOM     54  C   UNL A   1      41.166  33.036  33.628  1.00  0.00     0.049 A 
ATOM     55  H   UNL A   1      41.185  33.546  31.612  1.00  0.00     0.167 HD
ATOM     56  C   UNL A   1      38.995  33.991  32.956  1.00  0.00     0.074 A 
ATOM     57  C   UNL A   1      39.349  34.676  31.719  1.00  0.00     0.031 C 
ATOM     58  C   UNL A   1      39.775  33.336  33.862  1.00  0.00     0.037 A 
BRANCH  45  59
ATOM     59  C   UNL A   1      43.587  33.598  29.992  1.00  0.00     0.057 A 
ATOM     60  C   UNL A   1      44.824  34.263  30.059  1.00  0.00     0.134 A 
ATOM     61  C   UNL A   1      42.571  34.304  29.309  1.00  0.00     0.134 A 
ATOM     62  F   UNL A   1      45.859  33.720  30.717  1.00  0.00    -0.206 F 
ATOM     63  C   UNL A   1      45.017  35.546  29.526  1.00  0.00     0.040 A 
ATOM     64  C   UNL A   1      42.768  35.559  28.729  1.00  0.00     0.040 A 
ATOM     65  F   UNL A   1      41.305  33.881  29.254  1.00  0.00    -0.206 F 
ATOM     66  C   UNL A   1      43.987  36.199  28.859  1.00  0.00     0.006 A 
ENDBRANCH  45  59
BRANCH  46  67
ATOM     67  C   UNL A   1      35.308  33.470  30.116  1.00  0.00     0.057 A 
ATOM     68  C   UNL A   1      34.276  34.148  30.787  1.00  0.00     0.134 A 
ATOM     69  C   UNL A   1      35.329  33.616  28.719  1.00  0.00     0.134 A 
ATOM     70  F   UNL A   1      34.182  34.099  32.123  1.00  0.00    -0.206 F 
ATOM     71  C   UNL A   1      33.350  34.957  30.114  1.00  0.00     0.040 A 
ATOM     72  C   UNL A   1      34.405  34.413  28.034  1.00  0.00     0.040 A 
ATOM     73  F   UNL A   1      36.301  33.066  27.978  1.00  0.00    -0.206 F 
ATOM     74  C   UNL A   1      33.422  35.104  28.733  1.00  0.00     0.006 A 
ENDBRANCH  46  67
BRANCH  58  75
ATOM     75  C   UNL A   1      39.117  32.790  35.083  1.00  0.00     0.057 A 
ATOM     76  C   UNL A   1      38.720  33.549  36.191  1.00  0.00     0.134 A 
ATOM     77  C   UNL A   1      38.818  31.423  35.099  1.00  0.00     0.134 A 
ATOM     78  F   UNL A   1      38.904  34.877  36.226  1.00  0.00    -0.206 F 
ATOM     79  C   UNL A   1      38.083  32.956  37.286  1.00  0.00     0.040 A 
ATOM     80  C   UNL A   1      38.153  30.828  36.167  1.00  0.00     0.040 A 
ATOM     81  F   UNL A   1      39.144  30.649  34.051  1.00  0.00    -0.206 F 
ATOM     82  C   UNL A   1      37.793  31.593  37.272  1.00  0.00     0.006 A 
ENDBRANCH  58  75
ENDBRANCH  32  33
ENDBRANCH  25  27
ENDBRANCH  24  25
ENDBRANCH  23  24
ENDBRANCH   1  23
TORSDOF 13
ENDMDL
MODEL 3
REMARK VINA RESULT:     -11.7      1.631      3.015
REMARK SMILES Cc1cscc1C(=O)N1Cc2nc[nH]c2C[C@H]1C(=O)OCCOC(=O)c1ccc(-c2c3nc(c(-c4c(F)cccc4F)c4ccc([nH]4)c(-c4c(F)cccc4F)c4nc(c(-c5c(F)cccc5F)c5ccc2[nH]5)C=C4)C=C3)cc1
REMARK SMILES IDX 21 1 20 2 18 3 19 4 17 5 9 6 10 7 11 8 16 9 12 10 15 11
REMARK SMILES IDX 13 12 14 13 7 15 8 16 6 17 1 18 2 19 3 20 4 21 5 22 22 23
REMARK SMILES IDX 23 24 24 25 25 26 26 27 27 28 79 29 28 30 78 31 29 32 30 33
REMARK SMILES IDX 31 34 72 35 32 36 77 37 71 38 73 39 33 40 76 41 70 42 69 43
REMARK SMILES IDX 34 45 60 46 43 47 59 48 44 49 47 50 58 51 74 52 45 53 46 54
REMARK SMILES IDX 57 56 75 57 48 58 35 59 36 60 41 61 37 62 38 63 40 64 42 65
REMARK SMILES IDX 39 66 61 67 62 68 67 69 63 70 64 71 66 72 68 73 65 74 49 75
REMARK SMILES IDX 50 76 55 77 51 78 52 79 54 80 56 81 53 82
REMARK H PARENT 14 14 73 44 47 55
REMARK Flexibility Score: inf
ROOT
ATOM      1  C   UNL A   1      33.699  30.295  27.201  1.00  0.00     0.274 C 
ENDROOT
BRANCH   1   2
ATOM      2  O   UNL A   1      33.071  29.595  26.100  1.00  0.00    -0.461 OA
BRANCH   2   3
ATOM      3  C   UNL A   1      32.261  28.539  26.413  1.00  0.00     0.329 C 
ATOM      4  O   UNL A   1      32.230  28.010  27.525  1.00  0.00    -0.250 OA
BRANCH   3   5
ATOM      5  C   UNL A   1      31.454  27.964  25.204  1.00  0.00     0.201 C 
ATOM      6  N   UNL A   1      32.018  27.899  23.800  1.00  0.00    -0.318 N 
ATOM      7  C   UNL A   1      33.308  27.192  23.656  1.00  0.00     0.179 C 
ATOM      8  C   UNL A   1      33.360  26.028  24.597  1.00  0.00     0.081 A 
ATOM      9  C   UNL A   1      31.124  26.514  25.694  1.00  0.00     0.093 C 
ATOM     10  N   UNL A   1      34.454  25.230  24.794  1.00  0.00    -0.240 NA
ATOM     11  C   UNL A   1      32.373  25.726  25.513  1.00  0.00     0.042 A 
ATOM     12  C   UNL A   1      34.129  24.452  25.806  1.00  0.00     0.197 A 
ATOM     13  N   UNL A   1      32.871  24.719  26.280  1.00  0.00    -0.348 N 
ATOM     14  H   UNL A   1      32.416  24.270  27.029  1.00  0.00     0.167 HD
BRANCH   6  15
ATOM     15  C   UNL A   1      31.115  27.651  22.748  1.00  0.00     0.256 C 
ATOM     16  O   UNL A   1      31.353  26.781  21.911  1.00  0.00    -0.269 OA
BRANCH  15  17
ATOM     17  C   UNL A   1      29.900  28.487  22.626  1.00  0.00     0.053 A 
ATOM     18  C   UNL A   1      28.114  27.017  23.773  1.00  0.00     0.046 C 
ATOM     19  C   UNL A   1      28.552  28.240  23.077  1.00  0.00    -0.028 A 
ATOM     20  C   UNL A   1      27.675  29.254  22.735  1.00  0.00     0.069 A 
ATOM     21  S   UNL A   1      28.462  30.567  21.996  1.00  0.00    -0.151 S 
ATOM     22  C   UNL A   1      29.968  29.767  22.088  1.00  0.00     0.079 A 
ENDBRANCH  15  17
ENDBRANCH   6  15
ENDBRANCH   3   5
ENDBRANCH   2   3
ENDBRANCH   1   2
BRANCH   1  23
ATOM     23  C   UNL A   1      35.011  29.622  27.636  1.00  0.00     0.275 C 
BRANCH  23  24
ATOM     24  O   UNL A   1      36.184  30.457  27.684  1.00  0.00    -0.458 OA
BRANCH  24  25
ATOM     25  C   UNL A   1      36.653  30.662  28.927  1.00  0.00     0.338 C 
ATOM     26  O   UNL A   1      36.322  31.545  29.688  1.00  0.00    -0.246 OA
BRANCH  25  27
ATOM     27  C   UNL A   1      37.869  29.930  29.251  1.00  0.00     0.060 A 
ATOM     28  C   UNL A   1      39.054  30.521  28.797  1.00  0.00     0.016 A 
ATOM     29  C   UNL A   1      37.810  28.587  29.612  1.00  0.00     0.016 A 
ATOM     30  C   UNL A   1      40.125  29.717  28.493  1.00  0.00     0.010 A 
ATOM     31  C   UNL A   1      38.933  27.806  29.425  1.00  0.00     0.010 A 
ATOM     32  C   UNL A   1      40.064  28.353  28.806  1.00  0.00    -0.014 A 
BRANCH  32  33
ATOM     33  C   UNL A   1      41.333  27.623  28.783  1.00  0.00     0.031 A 
ATOM     34  C   UNL A   1      42.100  27.869  30.042  1.00  0.00     0.074 A 
ATOM     35  C   UNL A   1      41.647  26.704  27.845  1.00  0.00     0.049 A 
ATOM     36  N   UNL A   1      43.308  28.309  30.158  1.00  0.00    -0.248 NA
ATOM     37  C   UNL A   1      41.361  27.843  31.329  1.00  0.00     0.031 C 
ATOM     38  C   UNL A   1      40.804  26.309  26.710  1.00  0.00     0.029 A 
ATOM     39  N   UNL A   1      42.680  25.806  27.778  1.00  0.00    -0.354 N 
ATOM     40  C   UNL A   1      43.557  28.319  31.530  1.00  0.00     0.074 A 
ATOM     41  C   UNL A   1      42.284  28.272  32.188  1.00  0.00     0.031 C 
ATOM     42  C   UNL A   1      41.197  25.100  26.260  1.00  0.00     0.029 A 
ATOM     43  C   UNL A   1      42.392  24.698  26.977  1.00  0.00     0.049 A 
ATOM     44  H   UNL A   1      43.536  25.930  28.248  1.00  0.00     0.167 HD
ATOM     45  C   UNL A   1      44.772  27.914  31.984  1.00  0.00     0.037 A 
ATOM     46  C   UNL A   1      43.039  23.505  26.964  1.00  0.00     0.037 A 
ATOM     47  C   UNL A   1      45.766  28.038  30.954  1.00  0.00     0.049 A 
ATOM     48  C   UNL A   1      44.377  23.711  27.557  1.00  0.00     0.074 A 
ATOM     49  C   UNL A   1      46.490  29.046  30.358  1.00  0.00     0.029 A 
ATOM     50  N   UNL A   1      45.796  26.964  30.112  1.00  0.00    -0.354 N 
ATOM     51  N   UNL A   1      45.320  24.394  26.974  1.00  0.00    -0.248 NA
ATOM     52  C   UNL A   1      44.577  23.444  28.979  1.00  0.00     0.031 C 
ATOM     53  C   UNL A   1      46.924  28.540  29.096  1.00  0.00     0.029 A 
ATOM     54  C   UNL A   1      46.499  27.221  28.972  1.00  0.00     0.049 A 
ATOM     55  H   UNL A   1      45.361  26.102  30.306  1.00  0.00     0.167 HD
ATOM     56  C   UNL A   1      45.976  25.009  28.019  1.00  0.00     0.074 A 
ATOM     57  C   UNL A   1      45.609  24.257  29.212  1.00  0.00     0.031 C 
ATOM     58  C   UNL A   1      46.451  26.279  27.882  1.00  0.00     0.037 A 
BRANCH  45  59
ATOM     59  C   UNL A   1      44.918  26.858  33.068  1.00  0.00     0.057 A 
ATOM     60  C   UNL A   1      44.303  25.608  32.882  1.00  0.00     0.134 A 
ATOM     61  C   UNL A   1      45.338  27.120  34.392  1.00  0.00     0.134 A 
ATOM     62  F   UNL A   1      43.820  25.255  31.682  1.00  0.00    -0.206 F 
ATOM     63  C   UNL A   1      44.086  24.713  33.939  1.00  0.00     0.040 A 
ATOM     64  C   UNL A   1      45.173  26.214  35.441  1.00  0.00     0.040 A 
ATOM     65  F   UNL A   1      45.829  28.302  34.777  1.00  0.00    -0.206 F 
ATOM     66  C   UNL A   1      44.520  25.015  35.224  1.00  0.00     0.006 A 
ENDBRANCH  45  59
BRANCH  46  67
ATOM     67  C   UNL A   1      42.518  22.140  26.699  1.00  0.00     0.057 A 
ATOM     68  C   UNL A   1      43.192  21.263  25.834  1.00  0.00     0.134 A 
ATOM     69  C   UNL A   1      41.518  21.562  27.498  1.00  0.00     0.134 A 
ATOM     70  F   UNL A   1      44.184  21.707  25.048  1.00  0.00    -0.206 F 
ATOM     71  C   UNL A   1      42.919  19.889  25.798  1.00  0.00     0.040 A 
ATOM     72  C   UNL A   1      41.229  20.193  27.467  1.00  0.00     0.040 A 
ATOM     73  F   UNL A   1      40.848  22.287  28.406  1.00  0.00    -0.206 F 
ATOM     74  C   UNL A   1      41.945  19.346  26.628  1.00  0.00     0.006 A 
ENDBRANCH  46  67
BRANCH  58  75
ATOM     75  C   UNL A   1      46.804  26.748  26.511  1.00  0.00     0.057 A 
ATOM     76  C   UNL A   1      48.005  26.466  25.849  1.00  0.00     0.134 A 
ATOM     77  C   UNL A   1      45.836  27.475  25.808  1.00  0.00     0.134 A 
ATOM     78  F   UNL A   1      48.957  25.716  26.424  1.00  0.00    -0.206 F 
ATOM     79  C   UNL A   1      48.242  26.926  24.550  1.00  0.00     0.040 A 
ATOM     80  C   UNL A   1      46.047  27.907  24.502  1.00  0.00     0.040 A 
ATOM     81  F   UNL A   1      44.652  27.748  26.378  1.00  0.00    -0.206 F 
ATOM     82  C   UNL A   1      47.258  27.643  23.871  1.00  0.00     0.006 A 
ENDBRANCH  58  75
ENDBRANCH  32  33
ENDBRANCH  25  27
ENDBRANCH  24  25
ENDBRANCH  23  24
ENDBRANCH   1  23
TORSDOF 13
ENDMDL
