MODEL 1
REMARK VINA RESULT:     -11.4      0.000      0.000
REMARK SMILES CC(C)(C)c1cc2c(cc1Cl)C=C(C(=O)OCCOC(=O)c1ccc(-c3c4nc(c(-c5c(F)cccc5F)c5ccc([nH]5)c(-c5c(F)cccc5F)c5nc(c(-c6c(F)cccc6F)c6ccc3[nH]6)C=C5)C=C4)cc1)[C@H](C(F)(F)F)O2
REMARK SMILES IDX 18 1 17 2 16 3 14 4 15 5 13 6 5 7 6 8 10 9 7 10 9 11 11 12
REMARK SMILES IDX 8 13 81 14 12 15 76 16 2 17 1 18 3 19 4 20 77 21 78 22 79 23
REMARK SMILES IDX 80 24 19 25 20 26 21 27 22 28 23 29 75 30 24 31 74 32 25 33
REMARK SMILES IDX 26 34 27 35 68 36 28 37 73 38 67 39 69 40 29 41 72 42 66 43
REMARK SMILES IDX 65 44 30 46 56 47 39 48 55 49 40 50 43 51 54 52 70 53 41 54
REMARK SMILES IDX 42 55 53 57 71 58 44 59 31 60 32 61 37 62 33 63 34 64 36 65
REMARK SMILES IDX 38 66 35 67 57 68 58 69 63 70 59 71 60 72 62 73 64 74 61 75
REMARK SMILES IDX 45 76 46 77 51 78 47 79 48 80 50 81 52 82 49 83
REMARK H PARENT 69 45 43 56
REMARK Flexibility Score: inf
ROOT
ATOM      1  C   UNL A   1      39.307  19.579  25.314  1.00  0.00     0.275 C 
ENDROOT
BRANCH   1   2
ATOM      2  C   UNL A   1      38.514  20.857  25.603  1.00  0.00     0.275 C 
BRANCH   2   3
ATOM      3  O   UNL A   1      37.598  21.150  24.526  1.00  0.00    -0.459 OA
BRANCH   3   4
ATOM      4  C   UNL A   1      36.289  20.952  24.780  1.00  0.00     0.338 C 
ATOM      5  O   UNL A   1      35.756  19.872  24.979  1.00  0.00    -0.246 OA
BRANCH   4   6
ATOM      6  C   UNL A   1      35.578  22.241  24.920  1.00  0.00     0.087 C 
ATOM      7  C   UNL A   1      33.248  26.618  23.867  1.00  0.00    -0.020 A 
ATOM      8  C   UNL A   1      33.861  26.051  25.019  1.00  0.00     0.053 A 
ATOM      9  C   UNL A   1      33.245  25.814  22.701  1.00  0.00     0.045 A 
ATOM     10  C   UNL A   1      34.470  24.792  24.999  1.00  0.00     0.128 A 
ATOM     11  C   UNL A   1      33.885  24.568  22.680  1.00  0.00     0.032 A 
ATOM     12  Cl  UNL A   1      32.503  26.249  21.200  1.00  0.00    -0.084 Cl
ATOM     13  C   UNL A   1      34.522  24.079  23.816  1.00  0.00     0.019 A 
ATOM     14  O   UNL A   1      35.068  24.339  26.148  1.00  0.00    -0.475 OA
ATOM     15  C   UNL A   1      35.282  22.849  23.763  1.00  0.00     0.027 C 
ATOM     16  C   UNL A   1      35.285  22.885  26.253  1.00  0.00     0.316 C 
BRANCH   7  17
ATOM     17  C   UNL A   1      32.683  28.061  23.914  1.00  0.00    -0.012 C 
ATOM     18  C   UNL A   1      33.415  28.951  22.881  1.00  0.00     0.016 C 
ATOM     19  C   UNL A   1      32.894  28.761  25.285  1.00  0.00     0.016 C 
ATOM     20  C   UNL A   1      31.160  28.092  23.665  1.00  0.00     0.016 C 
ENDBRANCH   7  17
BRANCH  16  21
ATOM     21  C   UNL A   1      34.140  22.272  27.081  1.00  0.00     0.430 C 
ATOM     22  F   UNL A   1      33.602  23.149  27.956  1.00  0.00    -0.167 F 
ATOM     23  F   UNL A   1      33.121  21.892  26.265  1.00  0.00    -0.167 F 
ATOM     24  F   UNL A   1      34.530  21.178  27.769  1.00  0.00    -0.167 F 
ENDBRANCH  16  21
ENDBRANCH   4   6
ENDBRANCH   3   4
ENDBRANCH   2   3
ENDBRANCH   1   2
BRANCH   1  25
ATOM     25  O   UNL A   1      40.318  19.365  26.320  1.00  0.00    -0.458 OA
BRANCH  25  26
ATOM     26  C   UNL A   1      41.585  19.659  25.953  1.00  0.00     0.338 C 
ATOM     27  O   UNL A   1      42.322  19.008  25.229  1.00  0.00    -0.246 OA
BRANCH  26  28
ATOM     28  C   UNL A   1      41.936  20.997  26.451  1.00  0.00     0.060 A 
ATOM     29  C   UNL A   1      42.311  22.037  25.605  1.00  0.00     0.016 A 
ATOM     30  C   UNL A   1      41.780  21.229  27.813  1.00  0.00     0.016 A 
ATOM     31  C   UNL A   1      42.563  23.306  26.152  1.00  0.00     0.010 A 
ATOM     32  C   UNL A   1      41.961  22.500  28.347  1.00  0.00     0.010 A 
ATOM     33  C   UNL A   1      42.383  23.554  27.528  1.00  0.00    -0.014 A 
BRANCH  33  34
ATOM     34  C   UNL A   1      42.638  24.891  28.136  1.00  0.00     0.031 A 
ATOM     35  C   UNL A   1      44.022  25.265  28.611  1.00  0.00     0.074 A 
ATOM     36  C   UNL A   1      41.619  25.750  28.337  1.00  0.00     0.049 A 
ATOM     37  N   UNL A   1      44.426  26.349  29.228  1.00  0.00    -0.248 NA
ATOM     38  C   UNL A   1      45.088  24.272  28.398  1.00  0.00     0.031 C 
ATOM     39  C   UNL A   1      40.216  25.495  28.007  1.00  0.00     0.029 A 
ATOM     40  N   UNL A   1      41.608  27.015  28.875  1.00  0.00    -0.354 N 
ATOM     41  C   UNL A   1      45.774  26.152  29.505  1.00  0.00     0.074 A 
ATOM     42  C   UNL A   1      46.108  24.825  29.037  1.00  0.00     0.031 C 
ATOM     43  C   UNL A   1      39.490  26.585  28.305  1.00  0.00     0.029 A 
ATOM     44  C   UNL A   1      40.365  27.601  28.880  1.00  0.00     0.049 A 
ATOM     45  H   UNL A   1      42.415  27.458  29.223  1.00  0.00     0.167 HD
ATOM     46  C   UNL A   1      46.665  27.005  30.067  1.00  0.00     0.037 A 
ATOM     47  C   UNL A   1      39.977  28.821  29.295  1.00  0.00     0.037 A 
ATOM     48  C   UNL A   1      46.355  28.349  30.479  1.00  0.00     0.049 A 
ATOM     49  C   UNL A   1      40.991  29.771  29.870  1.00  0.00     0.074 A 
ATOM     50  C   UNL A   1      47.208  29.318  30.978  1.00  0.00     0.029 A 
ATOM     51  N   UNL A   1      45.092  28.917  30.429  1.00  0.00    -0.354 N 
ATOM     52  N   UNL A   1      42.276  29.595  30.055  1.00  0.00    -0.248 NA
ATOM     53  C   UNL A   1      40.499  31.091  30.290  1.00  0.00     0.031 C 
ATOM     54  C   UNL A   1      46.457  30.467  31.250  1.00  0.00     0.029 A 
ATOM     55  C   UNL A   1      45.142  30.221  30.892  1.00  0.00     0.049 A 
ATOM     56  H   UNL A   1      44.279  28.460  30.110  1.00  0.00     0.167 HD
ATOM     57  C   UNL A   1      42.749  30.786  30.589  1.00  0.00     0.074 A 
ATOM     58  C   UNL A   1      41.617  31.683  30.686  1.00  0.00     0.031 C 
ATOM     59  C   UNL A   1      44.010  31.107  30.969  1.00  0.00     0.037 A 
BRANCH  46  60
ATOM     60  C   UNL A   1      48.074  26.515  30.245  1.00  0.00     0.057 A 
ATOM     61  C   UNL A   1      48.465  25.861  31.421  1.00  0.00     0.134 A 
ATOM     62  C   UNL A   1      49.053  26.713  29.262  1.00  0.00     0.134 A 
ATOM     63  F   UNL A   1      47.584  25.650  32.409  1.00  0.00    -0.206 F 
ATOM     64  C   UNL A   1      49.775  25.416  31.606  1.00  0.00     0.040 A 
ATOM     65  C   UNL A   1      50.358  26.247  29.425  1.00  0.00     0.040 A 
ATOM     66  F   UNL A   1      48.743  27.327  28.109  1.00  0.00    -0.206 F 
ATOM     67  C   UNL A   1      50.724  25.599  30.602  1.00  0.00     0.006 A 
ENDBRANCH  46  60
BRANCH  47  68
ATOM     68  C   UNL A   1      38.562  29.243  29.139  1.00  0.00     0.057 A 
ATOM     69  C   UNL A   1      37.669  29.236  30.214  1.00  0.00     0.134 A 
ATOM     70  C   UNL A   1      38.079  29.680  27.899  1.00  0.00     0.134 A 
ATOM     71  F   UNL A   1      38.070  28.824  31.425  1.00  0.00    -0.206 F 
ATOM     72  C   UNL A   1      36.342  29.644  30.062  1.00  0.00     0.040 A 
ATOM     73  C   UNL A   1      36.763  30.112  27.737  1.00  0.00     0.040 A 
ATOM     74  F   UNL A   1      38.897  29.728  26.836  1.00  0.00    -0.206 F 
ATOM     75  C   UNL A   1      35.889  30.090  28.821  1.00  0.00     0.006 A 
ENDBRANCH  47  68
BRANCH  59  76
ATOM     76  C   UNL A   1      44.239  32.495  31.488  1.00  0.00     0.057 A 
ATOM     77  C   UNL A   1      44.580  33.535  30.615  1.00  0.00     0.134 A 
ATOM     78  C   UNL A   1      44.158  32.792  32.854  1.00  0.00     0.134 A 
ATOM     79  F   UNL A   1      44.679  33.313  29.297  1.00  0.00    -0.206 F 
ATOM     80  C   UNL A   1      44.839  34.824  31.084  1.00  0.00     0.040 A 
ATOM     81  C   UNL A   1      44.394  34.083  33.333  1.00  0.00     0.040 A 
ATOM     82  F   UNL A   1      43.821  31.842  33.738  1.00  0.00    -0.206 F 
ATOM     83  C   UNL A   1      44.742  35.101  32.446  1.00  0.00     0.006 A 
ENDBRANCH  59  76
ENDBRANCH  33  34
ENDBRANCH  26  28
ENDBRANCH  25  26
ENDBRANCH   1  25
TORSDOF 13
ENDMDL
MODEL 2
REMARK VINA RESULT:     -11.4      3.748      5.120
REMARK SMILES CC(C)(C)c1cc2c(cc1Cl)C=C(C(=O)OCCOC(=O)c1ccc(-c3c4nc(c(-c5c(F)cccc5F)c5ccc([nH]5)c(-c5c(F)cccc5F)c5nc(c(-c6c(F)cccc6F)c6ccc3[nH]6)C=C5)C=C4)cc1)[C@H](C(F)(F)F)O2
REMARK SMILES IDX 18 1 17 2 16 3 14 4 15 5 13 6 5 7 6 8 10 9 7 10 9 11 11 12
REMARK SMILES IDX 8 13 81 14 12 15 76 16 2 17 1 18 3 19 4 20 77 21 78 22 79 23
REMARK SMILES IDX 80 24 19 25 20 26 21 27 22 28 23 29 75 30 24 31 74 32 25 33
REMARK SMILES IDX 26 34 27 35 68 36 28 37 73 38 67 39 69 40 29 41 72 42 66 43
REMARK SMILES IDX 65 44 30 46 56 47 39 48 55 49 40 50 43 51 54 52 70 53 41 54
REMARK SMILES IDX 42 55 53 57 71 58 44 59 31 60 32 61 37 62 33 63 34 64 36 65
REMARK SMILES IDX 38 66 35 67 57 68 58 69 63 70 59 71 60 72 62 73 64 74 61 75
REMARK SMILES IDX 45 76 46 77 51 78 47 79 48 80 50 81 52 82 49 83
REMARK H PARENT 69 45 43 56
REMARK Flexibility Score: inf
ROOT
ATOM      1  C   UNL A   1      43.747  21.918  25.413  1.00  0.00     0.275 C 
ENDROOT
BRANCH   1   2
ATOM      2  C   UNL A   1      42.624  21.016  25.932  1.00  0.00     0.275 C 
BRANCH   2   3
ATOM      3  O   UNL A   1      41.329  21.553  25.584  1.00  0.00    -0.459 OA
BRANCH   3   4
ATOM      4  C   UNL A   1      40.329  21.322  26.457  1.00  0.00     0.338 C 
ATOM      5  O   UNL A   1      40.448  20.809  27.559  1.00  0.00    -0.246 OA
BRANCH   4   6
ATOM      6  C   UNL A   1      39.057  21.893  25.966  1.00  0.00     0.087 C 
ATOM      7  C   UNL A   1      34.315  22.362  24.236  1.00  0.00    -0.020 A 
ATOM      8  C   UNL A   1      35.471  23.192  24.255  1.00  0.00     0.053 A 
ATOM      9  C   UNL A   1      34.451  21.088  24.838  1.00  0.00     0.045 A 
ATOM     10  C   UNL A   1      36.690  22.766  24.792  1.00  0.00     0.128 A 
ATOM     11  C   UNL A   1      35.683  20.656  25.345  1.00  0.00     0.032 A 
ATOM     12  Cl  UNL A   1      33.177  19.930  25.003  1.00  0.00    -0.084 Cl
ATOM     13  C   UNL A   1      36.802  21.480  25.290  1.00  0.00     0.019 A 
ATOM     14  O   UNL A   1      37.762  23.620  24.736  1.00  0.00    -0.475 OA
ATOM     15  C   UNL A   1      38.098  20.993  25.705  1.00  0.00     0.027 C 
ATOM     16  C   UNL A   1      38.864  23.362  25.680  1.00  0.00     0.316 C 
BRANCH   7  17
ATOM     17  C   UNL A   1      33.020  22.844  23.531  1.00  0.00    -0.012 C 
ATOM     18  C   UNL A   1      33.254  24.228  22.880  1.00  0.00     0.016 C 
ATOM     19  C   UNL A   1      31.827  23.042  24.505  1.00  0.00     0.016 C 
ATOM     20  C   UNL A   1      32.528  21.830  22.476  1.00  0.00     0.016 C 
ENDBRANCH   7  17
BRANCH  16  21
ATOM     21  C   UNL A   1      38.698  24.288  26.899  1.00  0.00     0.430 C 
ATOM     22  F   UNL A   1      39.309  23.811  28.005  1.00  0.00    -0.167 F 
ATOM     23  F   UNL A   1      39.271  25.497  26.653  1.00  0.00    -0.167 F 
ATOM     24  F   UNL A   1      37.402  24.515  27.201  1.00  0.00    -0.167 F 
ENDBRANCH  16  21
ENDBRANCH   4   6
ENDBRANCH   3   4
ENDBRANCH   2   3
ENDBRANCH   1   2
BRANCH   1  25
ATOM     25  O   UNL A   1      43.223  23.188  24.976  1.00  0.00    -0.458 OA
BRANCH  25  26
ATOM     26  C   UNL A   1      43.995  24.266  25.238  1.00  0.00     0.338 C 
ATOM     27  O   UNL A   1      44.980  24.644  24.625  1.00  0.00    -0.246 OA
BRANCH  26  28
ATOM     28  C   UNL A   1      43.387  25.043  26.329  1.00  0.00     0.060 A 
ATOM     29  C   UNL A   1      42.539  24.472  27.273  1.00  0.00     0.016 A 
ATOM     30  C   UNL A   1      43.774  26.373  26.453  1.00  0.00     0.016 A 
ATOM     31  C   UNL A   1      42.054  25.266  28.326  1.00  0.00     0.010 A 
ATOM     32  C   UNL A   1      43.352  27.142  27.533  1.00  0.00     0.010 A 
ATOM     33  C   UNL A   1      42.462  26.608  28.472  1.00  0.00    -0.014 A 
BRANCH  33  34
ATOM     34  C   UNL A   1      41.969  27.474  29.581  1.00  0.00     0.031 A 
ATOM     35  C   UNL A   1      42.639  27.440  30.934  1.00  0.00     0.074 A 
ATOM     36  C   UNL A   1      40.873  28.239  29.408  1.00  0.00     0.049 A 
ATOM     37  N   UNL A   1      42.312  28.063  32.040  1.00  0.00    -0.248 NA
ATOM     38  C   UNL A   1      43.809  26.558  31.074  1.00  0.00     0.031 C 
ATOM     39  C   UNL A   1      40.073  28.312  28.185  1.00  0.00     0.029 A 
ATOM     40  N   UNL A   1      40.238  29.101  30.271  1.00  0.00    -0.354 N 
ATOM     41  C   UNL A   1      43.210  27.623  33.007  1.00  0.00     0.074 A 
ATOM     42  C   UNL A   1      44.061  26.641  32.371  1.00  0.00     0.031 C 
ATOM     43  C   UNL A   1      39.084  29.205  28.360  1.00  0.00     0.029 A 
ATOM     44  C   UNL A   1      39.157  29.741  29.715  1.00  0.00     0.049 A 
ATOM     45  H   UNL A   1      40.532  29.246  31.199  1.00  0.00     0.167 HD
ATOM     46  C   UNL A   1      43.341  28.020  34.296  1.00  0.00     0.037 A 
ATOM     47  C   UNL A   1      38.322  30.659  30.237  1.00  0.00     0.037 A 
ATOM     48  C   UNL A   1      42.539  29.040  34.918  1.00  0.00     0.049 A 
ATOM     49  C   UNL A   1      38.516  31.122  31.654  1.00  0.00     0.074 A 
ATOM     50  C   UNL A   1      42.651  29.572  36.191  1.00  0.00     0.029 A 
ATOM     51  N   UNL A   1      41.479  29.691  34.306  1.00  0.00    -0.354 N 
ATOM     52  N   UNL A   1      39.416  30.749  32.530  1.00  0.00    -0.248 NA
ATOM     53  C   UNL A   1      37.576  32.136  32.155  1.00  0.00     0.031 C 
ATOM     54  C   UNL A   1      41.646  30.531  36.357  1.00  0.00     0.029 A 
ATOM     55  C   UNL A   1      40.927  30.616  35.176  1.00  0.00     0.049 A 
ATOM     56  H   UNL A   1      41.166  29.522  33.387  1.00  0.00     0.167 HD
ATOM     57  C   UNL A   1      39.168  31.499  33.672  1.00  0.00     0.074 A 
ATOM     58  C   UNL A   1      38.041  32.357  33.375  1.00  0.00     0.031 C 
ATOM     59  C   UNL A   1      39.816  31.475  34.863  1.00  0.00     0.037 A 
BRANCH  46  60
ATOM     60  C   UNL A   1      44.414  27.363  35.117  1.00  0.00     0.057 A 
ATOM     61  C   UNL A   1      44.141  26.212  35.868  1.00  0.00     0.134 A 
ATOM     62  C   UNL A   1      45.714  27.883  35.183  1.00  0.00     0.134 A 
ATOM     63  F   UNL A   1      42.916  25.668  35.863  1.00  0.00    -0.206 F 
ATOM     64  C   UNL A   1      45.125  25.601  36.648  1.00  0.00     0.040 A 
ATOM     65  C   UNL A   1      46.712  27.264  35.937  1.00  0.00     0.040 A 
ATOM     66  F   UNL A   1      46.043  28.979  34.482  1.00  0.00    -0.206 F 
ATOM     67  C   UNL A   1      46.418  26.121  36.676  1.00  0.00     0.006 A 
ENDBRANCH  46  60
BRANCH  47  68
ATOM     68  C   UNL A   1      37.248  31.247  29.398  1.00  0.00     0.057 A 
ATOM     69  C   UNL A   1      36.058  30.560  29.137  1.00  0.00     0.134 A 
ATOM     70  C   UNL A   1      37.389  32.528  28.850  1.00  0.00     0.134 A 
ATOM     71  F   UNL A   1      35.866  29.328  29.630  1.00  0.00    -0.206 F 
ATOM     72  C   UNL A   1      35.047  31.123  28.357  1.00  0.00     0.040 A 
ATOM     73  C   UNL A   1      36.378  33.113  28.088  1.00  0.00     0.040 A 
ATOM     74  F   UNL A   1      38.500  33.242  29.085  1.00  0.00    -0.206 F 
ATOM     75  C   UNL A   1      35.204  32.407  27.836  1.00  0.00     0.006 A 
ENDBRANCH  47  68
BRANCH  59  76
ATOM     76  C   UNL A   1      39.345  32.429  35.920  1.00  0.00     0.057 A 
ATOM     77  C   UNL A   1      39.906  33.707  36.027  1.00  0.00     0.134 A 
ATOM     78  C   UNL A   1      38.365  32.069  36.852  1.00  0.00     0.134 A 
ATOM     79  F   UNL A   1      40.854  34.109  35.167  1.00  0.00    -0.206 F 
ATOM     80  C   UNL A   1      39.512  34.593  37.030  1.00  0.00     0.040 A 
ATOM     81  C   UNL A   1      37.947  32.955  37.847  1.00  0.00     0.040 A 
ATOM     82  F   UNL A   1      37.779  30.864  36.792  1.00  0.00    -0.206 F 
ATOM     83  C   UNL A   1      38.526  34.220  37.941  1.00  0.00     0.006 A 
ENDBRANCH  59  76
ENDBRANCH  33  34
ENDBRANCH  26  28
ENDBRANCH  25  26
ENDBRANCH   1  25
TORSDOF 13
ENDMDL
MODEL 3
REMARK VINA RESULT:     -11.3      4.436      9.327
REMARK SMILES CC(C)(C)c1cc2c(cc1Cl)C=C(C(=O)OCCOC(=O)c1ccc(-c3c4nc(c(-c5c(F)cccc5F)c5ccc([nH]5)c(-c5c(F)cccc5F)c5nc(c(-c6c(F)cccc6F)c6ccc3[nH]6)C=C5)C=C4)cc1)[C@H](C(F)(F)F)O2
REMARK SMILES IDX 18 1 17 2 16 3 14 4 15 5 13 6 5 7 6 8 10 9 7 10 9 11 11 12
REMARK SMILES IDX 8 13 81 14 12 15 76 16 2 17 1 18 3 19 4 20 77 21 78 22 79 23
REMARK SMILES IDX 80 24 19 25 20 26 21 27 22 28 23 29 75 30 24 31 74 32 25 33
REMARK SMILES IDX 26 34 27 35 68 36 28 37 73 38 67 39 69 40 29 41 72 42 66 43
REMARK SMILES IDX 65 44 30 46 56 47 39 48 55 49 40 50 43 51 54 52 70 53 41 54
REMARK SMILES IDX 42 55 53 57 71 58 44 59 31 60 32 61 37 62 33 63 34 64 36 65
REMARK SMILES IDX 38 66 35 67 57 68 58 69 63 70 59 71 60 72 62 73 64 74 61 75
REMARK SMILES IDX 45 76 46 77 51 78 47 79 48 80 50 81 52 82 49 83
REMARK H PARENT 69 45 43 56
REMARK Flexibility Score: inf
ROOT
ATOM      1  C   UNL A   1      32.477  33.171  26.910  1.00  0.00     0.275 C 
ENDROOT
BRANCH   1   2
ATOM      2  C   UNL A   1      31.405  32.150  26.520  1.00  0.00     0.275 C 
BRANCH   2   3
ATOM      3  O   UNL A   1      31.984  30.840  26.335  1.00  0.00    -0.459 OA
BRANCH   3   4
ATOM      4  C   UNL A   1      31.406  30.053  25.407  1.00  0.00     0.338 C 
ATOM      5  O   UNL A   1      30.531  30.395  24.626  1.00  0.00    -0.246 OA
BRANCH   4   6
ATOM      6  C   UNL A   1      32.060  28.728  25.356  1.00  0.00     0.087 C 
ATOM      7  C   UNL A   1      33.083  23.810  26.035  1.00  0.00    -0.020 A 
ATOM      8  C   UNL A   1      33.836  24.955  25.654  1.00  0.00     0.053 A 
ATOM      9  C   UNL A   1      31.707  24.024  26.291  1.00  0.00     0.045 A 
ATOM     10  C   UNL A   1      33.270  26.232  25.579  1.00  0.00     0.128 A 
ATOM     11  C   UNL A   1      31.154  25.310  26.246  1.00  0.00     0.032 A 
ATOM     12  Cl  UNL A   1      30.572  22.784  26.701  1.00  0.00    -0.084 Cl
ATOM     13  C   UNL A   1      31.942  26.410  25.925  1.00  0.00     0.019 A 
ATOM     14  O   UNL A   1      34.079  27.286  25.237  1.00  0.00    -0.475 OA
ATOM     15  C   UNL A   1      31.402  27.750  25.992  1.00  0.00     0.027 C 
ATOM     16  C   UNL A   1      33.411  28.496  24.724  1.00  0.00     0.316 C 
BRANCH   7  17
ATOM     17  C   UNL A   1      33.783  22.437  26.206  1.00  0.00    -0.012 C 
ATOM     18  C   UNL A   1      33.161  21.400  25.241  1.00  0.00     0.016 C 
ATOM     19  C   UNL A   1      33.615  21.833  27.627  1.00  0.00     0.016 C 
ATOM     20  C   UNL A   1      35.307  22.536  25.978  1.00  0.00     0.016 C 
ENDBRANCH   7  17
BRANCH  16  21
ATOM     21  C   UNL A   1      33.461  28.473  23.185  1.00  0.00     0.430 C 
ATOM     22  F   UNL A   1      34.118  27.398  22.699  1.00  0.00    -0.167 F 
ATOM     23  F   UNL A   1      32.203  28.400  22.675  1.00  0.00    -0.167 F 
ATOM     24  F   UNL A   1      34.035  29.582  22.672  1.00  0.00    -0.167 F 
ENDBRANCH  16  21
ENDBRANCH   4   6
ENDBRANCH   3   4
ENDBRANCH   2   3
ENDBRANCH   1   2
BRANCH   1  25
ATOM     25  O   UNL A   1      32.130  33.832  28.144  1.00  0.00    -0.458 OA
BRANCH  25  26
ATOM     26  C   UNL A   1      33.032  34.726  28.608  1.00  0.00     0.338 C 
ATOM     27  O   UNL A   1      32.883  35.929  28.752  1.00  0.00    -0.246 OA
BRANCH  26  28
ATOM     28  C   UNL A   1      34.230  34.009  29.068  1.00  0.00     0.060 A 
ATOM     29  C   UNL A   1      35.520  34.423  28.749  1.00  0.00     0.016 A 
ATOM     30  C   UNL A   1      34.036  32.940  29.937  1.00  0.00     0.016 A 
ATOM     31  C   UNL A   1      36.614  33.725  29.285  1.00  0.00     0.010 A 
ATOM     32  C   UNL A   1      35.117  32.292  30.526  1.00  0.00     0.010 A 
ATOM     33  C   UNL A   1      36.425  32.656  30.186  1.00  0.00    -0.014 A 
BRANCH  33  34
ATOM     34  C   UNL A   1      37.567  31.901  30.776  1.00  0.00     0.031 A 
ATOM     35  C   UNL A   1      38.036  32.196  32.181  1.00  0.00     0.074 A 
ATOM     36  C   UNL A   1      38.240  31.000  30.033  1.00  0.00     0.049 A 
ATOM     37  N   UNL A   1      39.053  31.697  32.841  1.00  0.00    -0.248 NA
ATOM     38  C   UNL A   1      37.285  33.215  32.931  1.00  0.00     0.031 C 
ATOM     39  C   UNL A   1      37.956  30.670  28.636  1.00  0.00     0.029 A 
ATOM     40  N   UNL A   1      39.310  30.198  30.352  1.00  0.00    -0.354 N 
ATOM     41  C   UNL A   1      39.083  32.364  34.060  1.00  0.00     0.074 A 
ATOM     42  C   UNL A   1      38.015  33.340  34.029  1.00  0.00     0.031 C 
ATOM     43  C   UNL A   1      38.797  29.703  28.233  1.00  0.00     0.029 A 
ATOM     44  C   UNL A   1      39.703  29.369  29.328  1.00  0.00     0.049 A 
ATOM     45  H   UNL A   1      39.753  30.216  31.231  1.00  0.00     0.167 HD
ATOM     46  C   UNL A   1      39.898  32.165  35.124  1.00  0.00     0.037 A 
ATOM     47  C   UNL A   1      40.677  28.442  29.279  1.00  0.00     0.037 A 
ATOM     48  C   UNL A   1      40.922  31.155  35.186  1.00  0.00     0.049 A 
ATOM     49  C   UNL A   1      41.539  28.203  30.488  1.00  0.00     0.074 A 
ATOM     50  C   UNL A   1      41.741  30.819  36.250  1.00  0.00     0.029 A 
ATOM     51  N   UNL A   1      41.259  30.310  34.141  1.00  0.00    -0.354 N 
ATOM     52  N   UNL A   1      41.504  28.792  31.658  1.00  0.00    -0.248 NA
ATOM     53  C   UNL A   1      42.576  27.167  30.369  1.00  0.00     0.031 C 
ATOM     54  C   UNL A   1      42.589  29.784  35.842  1.00  0.00     0.029 A 
ATOM     55  C   UNL A   1      42.277  29.457  34.533  1.00  0.00     0.049 A 
ATOM     56  H   UNL A   1      40.837  30.316  33.251  1.00  0.00     0.167 HD
ATOM     57  C   UNL A   1      42.492  28.183  32.420  1.00  0.00     0.074 A 
ATOM     58  C   UNL A   1      43.102  27.169  31.584  1.00  0.00     0.031 C 
ATOM     59  C   UNL A   1      42.864  28.443  33.697  1.00  0.00     0.037 A 
BRANCH  46  60
ATOM     60  C   UNL A   1      39.697  33.046  36.325  1.00  0.00     0.057 A 
ATOM     61  C   UNL A   1      38.766  32.708  37.316  1.00  0.00     0.134 A 
ATOM     62  C   UNL A   1      40.407  34.243  36.488  1.00  0.00     0.134 A 
ATOM     63  F   UNL A   1      38.042  31.584  37.217  1.00  0.00    -0.206 F 
ATOM     64  C   UNL A   1      38.556  33.525  38.428  1.00  0.00     0.040 A 
ATOM     65  C   UNL A   1      40.225  35.054  37.610  1.00  0.00     0.040 A 
ATOM     66  F   UNL A   1      41.318  34.622  35.578  1.00  0.00    -0.206 F 
ATOM     67  C   UNL A   1      39.295  34.698  38.582  1.00  0.00     0.006 A 
ENDBRANCH  46  60
BRANCH  47  68
ATOM     68  C   UNL A   1      40.866  27.627  28.053  1.00  0.00     0.057 A 
ATOM     69  C   UNL A   1      41.688  28.053  27.005  1.00  0.00     0.134 A 
ATOM     70  C   UNL A   1      40.231  26.387  27.915  1.00  0.00     0.134 A 
ATOM     71  F   UNL A   1      42.320  29.233  27.077  1.00  0.00    -0.206 F 
ATOM     72  C   UNL A   1      41.870  27.275  25.860  1.00  0.00     0.040 A 
ATOM     73  C   UNL A   1      40.421  25.589  26.787  1.00  0.00     0.040 A 
ATOM     74  F   UNL A   1      39.448  25.918  28.898  1.00  0.00    -0.206 F 
ATOM     75  C   UNL A   1      41.240  26.036  25.752  1.00  0.00     0.006 A 
ENDBRANCH  47  68
BRANCH  59  76
ATOM     76  C   UNL A   1      43.954  27.596  34.281  1.00  0.00     0.057 A 
ATOM     77  C   UNL A   1      43.653  26.383  34.914  1.00  0.00     0.134 A 
ATOM     78  C   UNL A   1      45.295  27.997  34.250  1.00  0.00     0.134 A 
ATOM     79  F   UNL A   1      42.387  25.947  34.982  1.00  0.00    -0.206 F 
ATOM     80  C   UNL A   1      44.649  25.602  35.501  1.00  0.00     0.040 A 
ATOM     81  C   UNL A   1      46.303  27.213  34.815  1.00  0.00     0.040 A 
ATOM     82  F   UNL A   1      45.648  29.141  33.645  1.00  0.00    -0.206 F 
ATOM     83  C   UNL A   1      45.979  26.014  35.449  1.00  0.00     0.006 A 
ENDBRANCH  59  76
ENDBRANCH  33  34
ENDBRANCH  26  28
ENDBRANCH  25  26
ENDBRANCH   1  25
TORSDOF 13
ENDMDL
