MODEL 1
REMARK VINA RESULT:     -11.0      0.000      0.000
REMARK SMILES CN(C)c1ccc(NC(=O)[C@H]2CC=CC[C@@H]2C(=O)OCCOC(=O)c2ccc(-c3c4nc(c(-c5c(F)cccc5F)c5ccc([nH]5)c(-c5c(F)cccc5F)c5nc(c(-c6c(F)cccc6F)c6ccc3[nH]6)C=C5)C=C4)cc2)cc1
REMARK SMILES IDX 20 1 19 2 17 3 18 4 16 5 11 6 12 7 13 8 15 9 14 10 9 11 8 12
REMARK SMILES IDX 10 14 7 15 4 16 5 17 80 18 6 19 79 20 2 21 1 22 3 23 21 24
REMARK SMILES IDX 22 25 23 26 24 27 25 28 26 29 78 30 27 31 77 32 28 33 29 34
REMARK SMILES IDX 30 35 71 36 31 37 76 38 70 39 72 40 32 41 75 42 69 43 68 44
REMARK SMILES IDX 33 46 59 47 42 48 58 49 43 50 46 51 57 52 73 53 44 54 45 55
REMARK SMILES IDX 56 57 74 58 47 59 34 60 35 61 40 62 36 63 37 64 39 65 41 66
REMARK SMILES IDX 38 67 60 68 61 69 66 70 62 71 63 72 65 73 67 74 64 75 48 76
REMARK SMILES IDX 49 77 54 78 50 79 51 80 53 81 55 82 52 83
REMARK H PARENT 8 13 72 45 46 56
REMARK Flexibility Score: inf
ROOT
ATOM      1  C   UNL A   1      36.626  22.683  23.645  1.00  0.00     0.274 C 
ENDROOT
BRANCH   1   2
ATOM      2  O   UNL A   1      35.232  22.986  23.865  1.00  0.00    -0.462 OA
BRANCH   2   3
ATOM      3  C   UNL A   1      35.006  23.948  24.798  1.00  0.00     0.310 C 
ATOM      4  O   UNL A   1      35.901  24.469  25.458  1.00  0.00    -0.252 OA
BRANCH   3   5
ATOM      5  C   UNL A   1      33.527  24.339  24.897  1.00  0.00     0.116 C 
ATOM      6  C   UNL A   1      32.981  24.395  23.453  1.00  0.00     0.097 C 
ATOM      7  C   UNL A   1      33.413  25.667  22.688  1.00  0.00     0.041 C 
ATOM      8  C   UNL A   1      33.703  26.871  23.523  1.00  0.00    -0.030 C 
ATOM      9  C   UNL A   1      33.339  25.652  25.663  1.00  0.00     0.043 C 
ATOM     10  C   UNL A   1      33.652  26.875  24.859  1.00  0.00    -0.030 C 
BRANCH   6  11
ATOM     11  C   UNL A   1      31.498  24.076  23.266  1.00  0.00     0.228 C 
ATOM     12  N   UNL A   1      31.068  22.758  23.255  1.00  0.00    -0.326 N 
ATOM     13  H   UNL A   1      30.104  22.637  23.102  1.00  0.00     0.169 HD
ATOM     14  O   UNL A   1      30.669  24.971  23.089  1.00  0.00    -0.274 OA
BRANCH  12  15
ATOM     15  C   UNL A   1      31.802  21.563  23.429  1.00  0.00     0.041 A 
ATOM     16  C   UNL A   1      32.704  18.895  23.909  1.00  0.00     0.036 A 
ATOM     17  C   UNL A   1      32.528  19.398  22.624  1.00  0.00     0.028 A 
ATOM     18  C   UNL A   1      32.575  19.834  24.947  1.00  0.00     0.028 A 
ATOM     19  C   UNL A   1      32.149  20.717  22.390  1.00  0.00     0.028 A 
ATOM     20  C   UNL A   1      32.125  21.152  24.718  1.00  0.00     0.028 A 
BRANCH  16  21
ATOM     21  N   UNL A   1      32.993  17.549  24.113  1.00  0.00    -0.378 N 
ATOM     22  C   UNL A   1      33.990  16.883  23.294  1.00  0.00     0.143 C 
ATOM     23  C   UNL A   1      32.618  16.909  25.374  1.00  0.00     0.143 C 
ENDBRANCH  16  21
ENDBRANCH  12  15
ENDBRANCH   6  11
ENDBRANCH   3   5
ENDBRANCH   2   3
ENDBRANCH   1   2
BRANCH   1  24
ATOM     24  C   UNL A   1      37.073  21.374  24.305  1.00  0.00     0.275 C 
BRANCH  24  25
ATOM     25  O   UNL A   1      37.421  21.527  25.698  1.00  0.00    -0.458 OA
BRANCH  25  26
ATOM     26  C   UNL A   1      38.716  21.267  25.998  1.00  0.00     0.338 C 
ATOM     27  O   UNL A   1      39.330  20.243  25.750  1.00  0.00    -0.246 OA
BRANCH  26  28
ATOM     28  C   UNL A   1      39.383  22.454  26.577  1.00  0.00     0.060 A 
ATOM     29  C   UNL A   1      39.004  23.697  26.068  1.00  0.00     0.016 A 
ATOM     30  C   UNL A   1      40.419  22.371  27.515  1.00  0.00     0.016 A 
ATOM     31  C   UNL A   1      39.637  24.861  26.505  1.00  0.00     0.010 A 
ATOM     32  C   UNL A   1      41.067  23.546  27.943  1.00  0.00     0.010 A 
ATOM     33  C   UNL A   1      40.677  24.800  27.441  1.00  0.00    -0.014 A 
BRANCH  33  34
ATOM     34  C   UNL A   1      41.349  26.067  27.833  1.00  0.00     0.031 A 
ATOM     35  C   UNL A   1      42.737  26.368  27.364  1.00  0.00     0.074 A 
ATOM     36  C   UNL A   1      40.674  27.028  28.488  1.00  0.00     0.049 A 
ATOM     37  N   UNL A   1      43.445  27.457  27.527  1.00  0.00    -0.248 NA
ATOM     38  C   UNL A   1      43.406  25.311  26.595  1.00  0.00     0.031 C 
ATOM     39  C   UNL A   1      39.290  26.912  28.918  1.00  0.00     0.029 A 
ATOM     40  N   UNL A   1      41.043  28.298  28.865  1.00  0.00    -0.354 N 
ATOM     41  C   UNL A   1      44.643  27.227  26.871  1.00  0.00     0.074 A 
ATOM     42  C   UNL A   1      44.569  25.885  26.322  1.00  0.00     0.031 C 
ATOM     43  C   UNL A   1      38.909  28.079  29.458  1.00  0.00     0.029 A 
ATOM     44  C   UNL A   1      40.036  29.001  29.478  1.00  0.00     0.049 A 
ATOM     45  H   UNL A   1      41.943  28.666  28.712  1.00  0.00     0.167 HD
ATOM     46  C   UNL A   1      45.709  28.052  26.740  1.00  0.00     0.037 A 
ATOM     47  C   UNL A   1      40.010  30.235  30.019  1.00  0.00     0.037 A 
ATOM     48  C   UNL A   1      45.813  29.373  27.305  1.00  0.00     0.049 A 
ATOM     49  C   UNL A   1      41.249  31.080  29.983  1.00  0.00     0.074 A 
ATOM     50  C   UNL A   1      46.882  30.252  27.255  1.00  0.00     0.029 A 
ATOM     51  N   UNL A   1      44.819  30.002  28.038  1.00  0.00    -0.354 N 
ATOM     52  N   UNL A   1      42.393  30.839  29.390  1.00  0.00    -0.248 NA
ATOM     53  C   UNL A   1      41.205  32.359  30.706  1.00  0.00     0.031 C 
ATOM     54  C   UNL A   1      46.551  31.395  27.996  1.00  0.00     0.029 A 
ATOM     55  C   UNL A   1      45.260  31.245  28.474  1.00  0.00     0.049 A 
ATOM     56  H   UNL A   1      43.928  29.625  28.223  1.00  0.00     0.167 HD
ATOM     57  C   UNL A   1      43.199  31.936  29.656  1.00  0.00     0.074 A 
ATOM     58  C   UNL A   1      42.408  32.856  30.449  1.00  0.00     0.031 C 
ATOM     59  C   UNL A   1      44.481  32.156  29.275  1.00  0.00     0.037 A 
BRANCH  46  60
ATOM     60  C   UNL A   1      46.880  27.487  25.999  1.00  0.00     0.057 A 
ATOM     61  C   UNL A   1      46.986  27.571  24.606  1.00  0.00     0.134 A 
ATOM     62  C   UNL A   1      47.880  26.791  26.690  1.00  0.00     0.134 A 
ATOM     63  F   UNL A   1      46.044  28.202  23.889  1.00  0.00    -0.206 F 
ATOM     64  C   UNL A   1      48.029  26.948  23.920  1.00  0.00     0.040 A 
ATOM     65  C   UNL A   1      48.937  26.181  26.016  1.00  0.00     0.040 A 
ATOM     66  F   UNL A   1      47.828  26.673  28.025  1.00  0.00    -0.206 F 
ATOM     67  C   UNL A   1      49.007  26.249  24.626  1.00  0.00     0.006 A 
ENDBRANCH  46  60
BRANCH  47  68
ATOM     68  C   UNL A   1      38.778  30.722  30.696  1.00  0.00     0.057 A 
ATOM     69  C   UNL A   1      37.831  31.508  30.031  1.00  0.00     0.134 A 
ATOM     70  C   UNL A   1      38.524  30.412  32.040  1.00  0.00     0.134 A 
ATOM     71  F   UNL A   1      38.022  31.864  28.753  1.00  0.00    -0.206 F 
ATOM     72  C   UNL A   1      36.679  31.967  30.676  1.00  0.00     0.040 A 
ATOM     73  C   UNL A   1      37.359  30.830  32.684  1.00  0.00     0.040 A 
ATOM     74  F   UNL A   1      39.399  29.678  32.743  1.00  0.00    -0.206 F 
ATOM     75  C   UNL A   1      36.433  31.615  32.002  1.00  0.00     0.006 A 
ENDBRANCH  47  68
BRANCH  59  76
ATOM     76  C   UNL A   1      45.098  33.456  29.701  1.00  0.00     0.057 A 
ATOM     77  C   UNL A   1      45.009  34.609  28.908  1.00  0.00     0.134 A 
ATOM     78  C   UNL A   1      45.804  33.553  30.905  1.00  0.00     0.134 A 
ATOM     79  F   UNL A   1      44.366  34.577  27.732  1.00  0.00    -0.206 F 
ATOM     80  C   UNL A   1      45.626  35.804  29.286  1.00  0.00     0.040 A 
ATOM     81  C   UNL A   1      46.406  34.747  31.304  1.00  0.00     0.040 A 
ATOM     82  F   UNL A   1      45.929  32.487  31.711  1.00  0.00    -0.206 F 
ATOM     83  C   UNL A   1      46.325  35.875  30.490  1.00  0.00     0.006 A 
ENDBRANCH  59  76
ENDBRANCH  33  34
ENDBRANCH  26  28
ENDBRANCH  25  26
ENDBRANCH  24  25
ENDBRANCH   1  24
TORSDOF 14
ENDMDL
MODEL 2
REMARK VINA RESULT:     -11.0      1.680      7.021
REMARK SMILES CN(C)c1ccc(NC(=O)[C@H]2CC=CC[C@@H]2C(=O)OCCOC(=O)c2ccc(-c3c4nc(c(-c5c(F)cccc5F)c5ccc([nH]5)c(-c5c(F)cccc5F)c5nc(c(-c6c(F)cccc6F)c6ccc3[nH]6)C=C5)C=C4)cc2)cc1
REMARK SMILES IDX 20 1 19 2 17 3 18 4 16 5 11 6 12 7 13 8 15 9 14 10 9 11 8 12
REMARK SMILES IDX 10 14 7 15 4 16 5 17 80 18 6 19 79 20 2 21 1 22 3 23 21 24
REMARK SMILES IDX 22 25 23 26 24 27 25 28 26 29 78 30 27 31 77 32 28 33 29 34
REMARK SMILES IDX 30 35 71 36 31 37 76 38 70 39 72 40 32 41 75 42 69 43 68 44
REMARK SMILES IDX 33 46 59 47 42 48 58 49 43 50 46 51 57 52 73 53 44 54 45 55
REMARK SMILES IDX 56 57 74 58 47 59 34 60 35 61 40 62 36 63 37 64 39 65 41 66
REMARK SMILES IDX 38 67 60 68 61 69 66 70 62 71 63 72 65 73 67 74 64 75 48 76
REMARK SMILES IDX 49 77 54 78 50 79 51 80 53 81 55 82 52 83
REMARK H PARENT 8 13 72 45 46 56
REMARK Flexibility Score: inf
ROOT
ATOM      1  C   UNL A   1      35.627  22.806  23.746  1.00  0.00     0.274 C 
ENDROOT
BRANCH   1   2
ATOM      2  O   UNL A   1      34.199  22.748  23.547  1.00  0.00    -0.462 OA
BRANCH   2   3
ATOM      3  C   UNL A   1      33.484  23.567  24.362  1.00  0.00     0.310 C 
ATOM      4  O   UNL A   1      33.781  24.740  24.566  1.00  0.00    -0.252 OA
BRANCH   3   5
ATOM      5  C   UNL A   1      32.247  22.879  24.953  1.00  0.00     0.116 C 
ATOM      6  C   UNL A   1      32.021  23.490  26.354  1.00  0.00     0.097 C 
ATOM      7  C   UNL A   1      33.005  22.954  27.419  1.00  0.00     0.041 C 
ATOM      8  C   UNL A   1      33.552  21.584  27.179  1.00  0.00    -0.030 C 
ATOM      9  C   UNL A   1      32.407  21.356  24.980  1.00  0.00     0.043 C 
ATOM     10  C   UNL A   1      33.272  20.854  26.095  1.00  0.00    -0.030 C 
BRANCH   6  11
ATOM     11  C   UNL A   1      30.579  23.533  26.859  1.00  0.00     0.228 C 
ATOM     12  N   UNL A   1      29.766  24.610  26.544  1.00  0.00    -0.326 N 
ATOM     13  H   UNL A   1      28.861  24.576  26.930  1.00  0.00     0.169 HD
ATOM     14  O   UNL A   1      30.127  22.640  27.578  1.00  0.00    -0.274 OA
BRANCH  12  15
ATOM     15  C   UNL A   1      30.035  25.750  25.752  1.00  0.00     0.041 A 
ATOM     16  C   UNL A   1      31.100  27.714  23.971  1.00  0.00     0.036 A 
ATOM     17  C   UNL A   1      30.058  26.868  23.604  1.00  0.00     0.028 A 
ATOM     18  C   UNL A   1      31.476  27.656  25.324  1.00  0.00     0.028 A 
ATOM     19  C   UNL A   1      29.498  25.954  24.492  1.00  0.00     0.028 A 
ATOM     20  C   UNL A   1      30.958  26.685  26.208  1.00  0.00     0.028 A 
BRANCH  16  21
ATOM     21  N   UNL A   1      31.699  28.551  23.035  1.00  0.00    -0.378 N 
ATOM     22  C   UNL A   1      30.883  29.349  22.138  1.00  0.00     0.143 C 
ATOM     23  C   UNL A   1      33.099  28.944  23.204  1.00  0.00     0.143 C 
ENDBRANCH  16  21
ENDBRANCH  12  15
ENDBRANCH   6  11
ENDBRANCH   3   5
ENDBRANCH   2   3
ENDBRANCH   1   2
BRANCH   1  24
ATOM     24  C   UNL A   1      36.217  21.504  24.299  1.00  0.00     0.275 C 
BRANCH  24  25
ATOM     25  O   UNL A   1      36.785  21.651  25.619  1.00  0.00    -0.458 OA
BRANCH  25  26
ATOM     26  C   UNL A   1      38.096  21.322  25.718  1.00  0.00     0.338 C 
ATOM     27  O   UNL A   1      38.611  20.270  25.379  1.00  0.00    -0.246 OA
BRANCH  26  28
ATOM     28  C   UNL A   1      38.903  22.468  26.191  1.00  0.00     0.060 A 
ATOM     29  C   UNL A   1      38.339  23.736  26.043  1.00  0.00     0.016 A 
ATOM     30  C   UNL A   1      40.212  22.339  26.672  1.00  0.00     0.016 A 
ATOM     31  C   UNL A   1      39.064  24.876  26.394  1.00  0.00     0.010 A 
ATOM     32  C   UNL A   1      40.947  23.491  27.010  1.00  0.00     0.010 A 
ATOM     33  C   UNL A   1      40.375  24.768  26.875  1.00  0.00    -0.014 A 
BRANCH  33  34
ATOM     34  C   UNL A   1      41.117  26.019  27.185  1.00  0.00     0.031 A 
ATOM     35  C   UNL A   1      40.513  27.063  28.069  1.00  0.00     0.074 A 
ATOM     36  C   UNL A   1      42.397  26.170  26.800  1.00  0.00     0.049 A 
ATOM     37  N   UNL A   1      41.046  28.169  28.522  1.00  0.00    -0.248 NA
ATOM     38  C   UNL A   1      39.136  26.817  28.516  1.00  0.00     0.031 C 
ATOM     39  C   UNL A   1      43.142  25.193  26.022  1.00  0.00     0.029 A 
ATOM     40  N   UNL A   1      43.304  27.174  27.046  1.00  0.00    -0.354 N 
ATOM     41  C   UNL A   1      40.077  28.753  29.321  1.00  0.00     0.074 A 
ATOM     42  C   UNL A   1      38.916  27.882  29.274  1.00  0.00     0.031 C 
ATOM     43  C   UNL A   1      44.407  25.621  25.894  1.00  0.00     0.029 A 
ATOM     44  C   UNL A   1      44.547  26.931  26.516  1.00  0.00     0.049 A 
ATOM     45  H   UNL A   1      43.083  27.989  27.552  1.00  0.00     0.167 HD
ATOM     46  C   UNL A   1      40.141  29.908  30.025  1.00  0.00     0.037 A 
ATOM     47  C   UNL A   1      45.673  27.671  26.503  1.00  0.00     0.037 A 
ATOM     48  C   UNL A   1      41.271  30.801  30.056  1.00  0.00     0.049 A 
ATOM     49  C   UNL A   1      45.678  29.013  27.174  1.00  0.00     0.074 A 
ATOM     50  C   UNL A   1      41.395  32.016  30.710  1.00  0.00     0.029 A 
ATOM     51  N   UNL A   1      42.471  30.585  29.394  1.00  0.00    -0.354 N 
ATOM     52  N   UNL A   1      44.741  29.575  27.898  1.00  0.00    -0.248 NA
ATOM     53  C   UNL A   1      46.885  29.835  27.012  1.00  0.00     0.031 C 
ATOM     54  C   UNL A   1      42.652  32.556  30.406  1.00  0.00     0.029 A 
ATOM     55  C   UNL A   1      43.327  31.659  29.596  1.00  0.00     0.049 A 
ATOM     56  H   UNL A   1      42.685  29.787  28.859  1.00  0.00     0.167 HD
ATOM     57  C   UNL A   1      45.248  30.806  28.289  1.00  0.00     0.074 A 
ATOM     58  C   UNL A   1      46.583  30.904  27.736  1.00  0.00     0.031 C 
ATOM     59  C   UNL A   1      44.652  31.767  29.036  1.00  0.00     0.037 A 
BRANCH  46  60
ATOM     60  C   UNL A   1      38.897  30.290  30.763  1.00  0.00     0.057 A 
ATOM     61  C   UNL A   1      37.914  31.103  30.186  1.00  0.00     0.134 A 
ATOM     62  C   UNL A   1      38.717  29.889  32.092  1.00  0.00     0.134 A 
ATOM     63  F   UNL A   1      38.046  31.539  28.925  1.00  0.00    -0.206 F 
ATOM     64  C   UNL A   1      36.811  31.537  30.922  1.00  0.00     0.040 A 
ATOM     65  C   UNL A   1      37.608  30.301  32.830  1.00  0.00     0.040 A 
ATOM     66  F   UNL A   1      39.628  29.114  32.699  1.00  0.00    -0.206 F 
ATOM     67  C   UNL A   1      36.657  31.138  32.248  1.00  0.00     0.006 A 
ENDBRANCH  46  60
BRANCH  47  68
ATOM     68  C   UNL A   1      46.874  27.181  25.776  1.00  0.00     0.057 A 
ATOM     69  C   UNL A   1      47.092  27.477  24.426  1.00  0.00     0.134 A 
ATOM     70  C   UNL A   1      47.837  26.394  26.423  1.00  0.00     0.134 A 
ATOM     71  F   UNL A   1      46.200  28.203  23.738  1.00  0.00    -0.206 F 
ATOM     72  C   UNL A   1      48.220  27.007  23.747  1.00  0.00     0.040 A 
ATOM     73  C   UNL A   1      48.988  25.952  25.769  1.00  0.00     0.040 A 
ATOM     74  F   UNL A   1      47.683  26.058  27.712  1.00  0.00    -0.206 F 
ATOM     75  C   UNL A   1      49.179  26.256  24.423  1.00  0.00     0.006 A 
ENDBRANCH  47  68
BRANCH  59  76
ATOM     76  C   UNL A   1      45.458  33.001  29.314  1.00  0.00     0.057 A 
ATOM     77  C   UNL A   1      45.354  34.146  28.511  1.00  0.00     0.134 A 
ATOM     78  C   UNL A   1      46.361  33.042  30.382  1.00  0.00     0.134 A 
ATOM     79  F   UNL A   1      44.524  34.165  27.458  1.00  0.00    -0.206 F 
ATOM     80  C   UNL A   1      46.142  35.276  28.745  1.00  0.00     0.040 A 
ATOM     81  C   UNL A   1      47.138  34.173  30.639  1.00  0.00     0.040 A 
ATOM     82  F   UNL A   1      46.511  31.980  31.189  1.00  0.00    -0.206 F 
ATOM     83  C   UNL A   1      47.036  35.291  29.815  1.00  0.00     0.006 A 
ENDBRANCH  59  76
ENDBRANCH  33  34
ENDBRANCH  26  28
ENDBRANCH  25  26
ENDBRANCH  24  25
ENDBRANCH   1  24
TORSDOF 14
ENDMDL
MODEL 3
REMARK VINA RESULT:     -10.9      1.506      3.732
REMARK SMILES CN(C)c1ccc(NC(=O)[C@H]2CC=CC[C@@H]2C(=O)OCCOC(=O)c2ccc(-c3c4nc(c(-c5c(F)cccc5F)c5ccc([nH]5)c(-c5c(F)cccc5F)c5nc(c(-c6c(F)cccc6F)c6ccc3[nH]6)C=C5)C=C4)cc2)cc1
REMARK SMILES IDX 20 1 19 2 17 3 18 4 16 5 11 6 12 7 13 8 15 9 14 10 9 11 8 12
REMARK SMILES IDX 10 14 7 15 4 16 5 17 80 18 6 19 79 20 2 21 1 22 3 23 21 24
REMARK SMILES IDX 22 25 23 26 24 27 25 28 26 29 78 30 27 31 77 32 28 33 29 34
REMARK SMILES IDX 30 35 71 36 31 37 76 38 70 39 72 40 32 41 75 42 69 43 68 44
REMARK SMILES IDX 33 46 59 47 42 48 58 49 43 50 46 51 57 52 73 53 44 54 45 55
REMARK SMILES IDX 56 57 74 58 47 59 34 60 35 61 40 62 36 63 37 64 39 65 41 66
REMARK SMILES IDX 38 67 60 68 61 69 66 70 62 71 63 72 65 73 67 74 64 75 48 76
REMARK SMILES IDX 49 77 54 78 50 79 51 80 53 81 55 82 52 83
REMARK H PARENT 8 13 72 45 46 56
REMARK Flexibility Score: inf
ROOT
ATOM      1  C   UNL A   1      35.876  23.310  23.921  1.00  0.00     0.274 C 
ENDROOT
BRANCH   1   2
ATOM      2  O   UNL A   1      34.464  23.403  24.205  1.00  0.00    -0.462 OA
BRANCH   2   3
ATOM      3  C   UNL A   1      33.658  23.133  23.144  1.00  0.00     0.310 C 
ATOM      4  O   UNL A   1      33.992  23.326  21.979  1.00  0.00    -0.252 OA
BRANCH   3   5
ATOM      5  C   UNL A   1      32.316  22.521  23.564  1.00  0.00     0.116 C 
ATOM      6  C   UNL A   1      32.249  22.603  25.105  1.00  0.00     0.097 C 
ATOM      7  C   UNL A   1      33.119  21.536  25.810  1.00  0.00     0.041 C 
ATOM      8  C   UNL A   1      33.362  20.276  25.045  1.00  0.00    -0.030 C 
ATOM      9  C   UNL A   1      32.153  21.095  23.029  1.00  0.00     0.043 C 
ATOM     10  C   UNL A   1      32.914  20.064  23.804  1.00  0.00    -0.030 C 
BRANCH   6  11
ATOM     11  C   UNL A   1      30.858  22.727  25.726  1.00  0.00     0.228 C 
ATOM     12  N   UNL A   1      30.244  23.966  25.811  1.00  0.00    -0.326 N 
ATOM     13  H   UNL A   1      29.363  23.965  26.248  1.00  0.00     0.169 HD
ATOM     14  O   UNL A   1      30.276  21.745  26.192  1.00  0.00    -0.274 OA
BRANCH  12  15
ATOM     15  C   UNL A   1      30.689  25.231  25.364  1.00  0.00     0.041 A 
ATOM     16  C   UNL A   1      31.009  27.985  24.670  1.00  0.00     0.036 A 
ATOM     17  C   UNL A   1      31.568  27.440  25.823  1.00  0.00     0.028 A 
ATOM     18  C   UNL A   1      30.427  27.059  23.788  1.00  0.00     0.028 A 
ATOM     19  C   UNL A   1      31.464  26.086  26.128  1.00  0.00     0.028 A 
ATOM     20  C   UNL A   1      30.261  25.698  24.126  1.00  0.00     0.028 A 
BRANCH  16  21
ATOM     21  N   UNL A   1      31.050  29.356  24.439  1.00  0.00    -0.378 N 
ATOM     22  C   UNL A   1      30.098  29.974  23.534  1.00  0.00     0.143 C 
ATOM     23  C   UNL A   1      31.754  30.230  25.378  1.00  0.00     0.143 C 
ENDBRANCH  16  21
ENDBRANCH  12  15
ENDBRANCH   6  11
ENDBRANCH   3   5
ENDBRANCH   2   3
ENDBRANCH   1   2
BRANCH   1  24
ATOM     24  C   UNL A   1      36.473  21.938  24.254  1.00  0.00     0.275 C 
BRANCH  24  25
ATOM     25  O   UNL A   1      36.922  21.828  25.622  1.00  0.00    -0.458 OA
BRANCH  25  26
ATOM     26  C   UNL A   1      38.230  21.506  25.771  1.00  0.00     0.338 C 
ATOM     27  O   UNL A   1      38.780  20.493  25.375  1.00  0.00    -0.246 OA
BRANCH  26  28
ATOM     28  C   UNL A   1      38.990  22.615  26.388  1.00  0.00     0.060 A 
ATOM     29  C   UNL A   1      38.583  23.911  26.064  1.00  0.00     0.016 A 
ATOM     30  C   UNL A   1      40.130  22.420  27.176  1.00  0.00     0.016 A 
ATOM     31  C   UNL A   1      39.292  25.014  26.541  1.00  0.00     0.010 A 
ATOM     32  C   UNL A   1      40.853  23.534  27.644  1.00  0.00     0.010 A 
ATOM     33  C   UNL A   1      40.436  24.839  27.330  1.00  0.00    -0.014 A 
BRANCH  33  34
ATOM     34  C   UNL A   1      41.181  26.049  27.769  1.00  0.00     0.031 A 
ATOM     35  C   UNL A   1      42.585  26.284  27.311  1.00  0.00     0.074 A 
ATOM     36  C   UNL A   1      40.563  27.023  28.460  1.00  0.00     0.049 A 
ATOM     37  N   UNL A   1      43.356  27.323  27.515  1.00  0.00    -0.248 NA
ATOM     38  C   UNL A   1      43.192  25.219  26.503  1.00  0.00     0.031 C 
ATOM     39  C   UNL A   1      39.173  26.973  28.885  1.00  0.00     0.029 A 
ATOM     40  N   UNL A   1      41.005  28.253  28.884  1.00  0.00    -0.354 N 
ATOM     41  C   UNL A   1      44.540  27.047  26.851  1.00  0.00     0.074 A 
ATOM     42  C   UNL A   1      44.388  25.733  26.253  1.00  0.00     0.031 C 
ATOM     43  C   UNL A   1      38.860  28.140  29.468  1.00  0.00     0.029 A 
ATOM     44  C   UNL A   1      40.041  28.992  29.523  1.00  0.00     0.049 A 
ATOM     45  H   UNL A   1      41.926  28.573  28.745  1.00  0.00     0.167 HD
ATOM     46  C   UNL A   1      45.654  27.811  26.751  1.00  0.00     0.037 A 
ATOM     47  C   UNL A   1      40.086  30.205  30.109  1.00  0.00     0.037 A 
ATOM     48  C   UNL A   1      45.834  29.102  27.365  1.00  0.00     0.049 A 
ATOM     49  C   UNL A   1      41.374  30.975  30.105  1.00  0.00     0.074 A 
ATOM     50  C   UNL A   1      46.954  29.918  27.347  1.00  0.00     0.029 A 
ATOM     51  N   UNL A   1      44.877  29.761  28.121  1.00  0.00    -0.354 N 
ATOM     52  N   UNL A   1      42.502  30.689  29.504  1.00  0.00    -0.248 NA
ATOM     53  C   UNL A   1      41.404  32.227  30.876  1.00  0.00     0.031 C 
ATOM     54  C   UNL A   1      46.689  31.049  28.131  1.00  0.00     0.029 A 
ATOM     55  C   UNL A   1      45.390  30.958  28.603  1.00  0.00     0.049 A 
ATOM     56  H   UNL A   1      43.966  29.430  28.292  1.00  0.00     0.167 HD
ATOM     57  C   UNL A   1      43.371  31.726  29.810  1.00  0.00     0.074 A 
ATOM     58  C   UNL A   1      42.635  32.660  30.637  1.00  0.00     0.031 C 
ATOM     59  C   UNL A   1      44.665  31.883  29.438  1.00  0.00     0.037 A 
BRANCH  46  60
ATOM     60  C   UNL A   1      46.791  27.206  25.990  1.00  0.00     0.057 A 
ATOM     61  C   UNL A   1      47.775  26.433  26.619  1.00  0.00     0.134 A 
ATOM     62  C   UNL A   1      46.934  27.459  24.620  1.00  0.00     0.134 A 
ATOM     63  F   UNL A   1      47.703  26.181  27.934  1.00  0.00    -0.206 F 
ATOM     64  C   UNL A   1      48.885  25.964  25.916  1.00  0.00     0.040 A 
ATOM     65  C   UNL A   1      48.031  26.978  23.905  1.00  0.00     0.040 A 
ATOM     66  F   UNL A   1      46.026  28.198  23.966  1.00  0.00    -0.206 F 
ATOM     67  C   UNL A   1      49.016  26.239  24.556  1.00  0.00     0.006 A 
ENDBRANCH  46  60
BRANCH  47  68
ATOM     68  C   UNL A   1      38.884  30.738  30.804  1.00  0.00     0.057 A 
ATOM     69  C   UNL A   1      37.958  31.560  30.153  1.00  0.00     0.134 A 
ATOM     70  C   UNL A   1      38.638  30.438  32.152  1.00  0.00     0.134 A 
ATOM     71  F   UNL A   1      38.143  31.908  28.872  1.00  0.00    -0.206 F 
ATOM     72  C   UNL A   1      36.834  32.062  30.815  1.00  0.00     0.040 A 
ATOM     73  C   UNL A   1      37.499  30.899  32.813  1.00  0.00     0.040 A 
ATOM     74  F   UNL A   1      39.494  29.670  32.842  1.00  0.00    -0.206 F 
ATOM     75  C   UNL A   1      36.594  31.719  32.144  1.00  0.00     0.006 A 
ENDBRANCH  47  68
BRANCH  59  76
ATOM     76  C   UNL A   1      45.357  33.127  29.912  1.00  0.00     0.057 A 
ATOM     77  C   UNL A   1      45.323  34.318  29.172  1.00  0.00     0.134 A 
ATOM     78  C   UNL A   1      46.080  33.133  31.109  1.00  0.00     0.134 A 
ATOM     79  F   UNL A   1      44.666  34.373  28.004  1.00  0.00    -0.206 F 
ATOM     80  C   UNL A   1      46.008  35.459  29.593  1.00  0.00     0.040 A 
ATOM     81  C   UNL A   1      46.752  34.274  31.552  1.00  0.00     0.040 A 
ATOM     82  F   UNL A   1      46.155  32.027  31.866  1.00  0.00    -0.206 F 
ATOM     83  C   UNL A   1      46.724  35.439  30.790  1.00  0.00     0.006 A 
ENDBRANCH  59  76
ENDBRANCH  33  34
ENDBRANCH  26  28
ENDBRANCH  25  26
ENDBRANCH  24  25
ENDBRANCH   1  24
TORSDOF 14
ENDMDL
