MODEL 1
REMARK VINA RESULT:     -11.8      0.000      0.000
REMARK SMILES [NH3+][C@H](CS[C@@H]1CC(=O)N(c2ccc3ccccc3c2)C1=O)C(=O)OCCOC(=O)c1ccc(-c2c3nc(c(-c4c(F)cccc4F)c4ccc([nH]4)c(-c4c(F)cccc4F)c4nc(c(-c5c(F)cccc5F)c5ccc2[nH]5)C=C4)C=C3)cc1
REMARK SMILES IDX 25 1 24 2 22 3 23 4 2 5 1 6 3 10 4 11 5 12 6 13 20 14 7 15
REMARK SMILES IDX 9 16 21 17 8 18 10 19 11 20 19 21 12 22 18 23 13 24 17 25
REMARK SMILES IDX 14 26 16 27 15 28 26 29 27 30 28 31 29 32 30 33 31 34 83 35
REMARK SMILES IDX 32 36 82 37 33 38 34 39 35 40 76 41 36 42 81 43 75 44 77 45
REMARK SMILES IDX 37 46 80 47 74 48 73 49 38 51 64 52 47 53 63 54 48 55 51 56
REMARK SMILES IDX 62 57 78 58 49 59 50 60 61 62 79 63 52 64 39 65 40 66 45 67
REMARK SMILES IDX 41 68 42 69 44 70 46 71 43 72 65 73 66 74 71 75 67 76 68 77
REMARK SMILES IDX 70 78 72 79 69 80 53 81 54 82 59 83 55 84 56 85 58 86 60 87
REMARK SMILES IDX 57 88
REMARK H PARENT 1 7 1 8 1 9 77 50 51 61
REMARK Flexibility Score: inf
ROOT
ATOM      1  C   UNL A   1      42.786  20.922  26.166  1.00  0.00     0.274 C 
ENDROOT
BRANCH   1   2
ATOM      2  O   UNL A   1      41.403  20.981  25.751  1.00  0.00    -0.458 OA
BRANCH   2   3
ATOM      3  C   UNL A   1      40.487  21.344  26.690  1.00  0.00     0.365 C 
ATOM      4  O   UNL A   1      40.607  21.118  27.889  1.00  0.00    -0.245 OA
BRANCH   3   5
ATOM      5  C   UNL A   1      39.275  22.082  26.086  1.00  0.00     0.301 C 
BRANCH   5   6
ATOM      6  N   UNL A   1      38.823  23.178  26.970  1.00  0.00    -0.345 N 
ATOM      7  H   UNL A   1      39.185  23.026  27.912  1.00  0.00     0.345 HD
ATOM      8  H   UNL A   1      37.804  23.195  26.998  1.00  0.00     0.345 HD
ATOM      9  H   UNL A   1      39.168  24.069  26.612  1.00  0.00     0.345 HD
ENDBRANCH   5   6
BRANCH   5  10
ATOM     10  C   UNL A   1      38.164  21.153  25.548  1.00  0.00     0.147 C 
BRANCH  10  11
ATOM     11  S   UNL A   1      37.073  21.808  24.234  1.00  0.00    -0.141 SA
BRANCH  11  12
ATOM     12  C   UNL A   1      35.566  22.204  25.189  1.00  0.00     0.146 C 
ATOM     13  C   UNL A   1      34.272  21.772  24.528  1.00  0.00     0.125 C 
ATOM     14  C   UNL A   1      35.444  23.705  25.302  1.00  0.00     0.247 C 
ATOM     15  C   UNL A   1      33.398  22.988  24.597  1.00  0.00     0.235 C 
ATOM     16  N   UNL A   1      34.177  24.070  24.916  1.00  0.00    -0.250 N 
ATOM     17  O   UNL A   1      36.321  24.422  25.768  1.00  0.00    -0.273 OA
ATOM     18  O   UNL A   1      32.202  22.951  24.342  1.00  0.00    -0.274 OA
BRANCH  16  19
ATOM     19  C   UNL A   1      33.737  25.411  24.889  1.00  0.00     0.052 A 
ATOM     20  C   UNL A   1      33.904  26.212  23.756  1.00  0.00     0.027 A 
ATOM     21  C   UNL A   1      33.148  25.965  26.034  1.00  0.00     0.035 A 
ATOM     22  C   UNL A   1      33.453  27.535  23.756  1.00  0.00     0.011 A 
ATOM     23  C   UNL A   1      32.756  27.310  26.070  1.00  0.00    -0.016 A 
ATOM     24  C   UNL A   1      32.888  28.101  24.909  1.00  0.00    -0.018 A 
ATOM     25  C   UNL A   1      32.250  27.883  27.247  1.00  0.00     0.009 A 
ATOM     26  C   UNL A   1      32.466  29.439  24.943  1.00  0.00     0.009 A 
ATOM     27  C   UNL A   1      31.863  29.223  27.273  1.00  0.00     0.001 A 
ATOM     28  C   UNL A   1      31.961  29.996  26.120  1.00  0.00     0.001 A 
ENDBRANCH  16  19
ENDBRANCH  11  12
ENDBRANCH  10  11
ENDBRANCH   5  10
ENDBRANCH   3   5
ENDBRANCH   2   3
ENDBRANCH   1   2
BRANCH   1  29
ATOM     29  C   UNL A   1      43.663  21.836  25.302  1.00  0.00     0.275 C 
BRANCH  29  30
ATOM     30  O   UNL A   1      43.011  23.099  25.075  1.00  0.00    -0.458 OA
BRANCH  30  31
ATOM     31  C   UNL A   1      43.801  24.187  25.214  1.00  0.00     0.338 C 
ATOM     32  O   UNL A   1      44.734  24.523  24.506  1.00  0.00    -0.246 OA
BRANCH  31  33
ATOM     33  C   UNL A   1      43.244  25.047  26.265  1.00  0.00     0.060 A 
ATOM     34  C   UNL A   1      43.738  26.350  26.367  1.00  0.00     0.016 A 
ATOM     35  C   UNL A   1      42.290  24.571  27.163  1.00  0.00     0.016 A 
ATOM     36  C   UNL A   1      43.272  27.196  27.366  1.00  0.00     0.010 A 
ATOM     37  C   UNL A   1      41.823  25.421  28.169  1.00  0.00     0.010 A 
ATOM     38  C   UNL A   1      42.315  26.734  28.276  1.00  0.00    -0.014 A 
BRANCH  38  39
ATOM     39  C   UNL A   1      41.868  27.621  29.373  1.00  0.00     0.031 A 
ATOM     40  C   UNL A   1      42.608  27.615  30.677  1.00  0.00     0.074 A 
ATOM     41  C   UNL A   1      40.819  28.440  29.185  1.00  0.00     0.049 A 
ATOM     42  N   UNL A   1      42.330  28.246  31.789  1.00  0.00    -0.248 NA
ATOM     43  C   UNL A   1      43.824  26.789  30.739  1.00  0.00     0.031 C 
ATOM     44  C   UNL A   1      40.060  28.566  27.939  1.00  0.00     0.029 A 
ATOM     45  N   UNL A   1      40.209  29.318  30.041  1.00  0.00    -0.354 N 
ATOM     46  C   UNL A   1      43.321  27.877  32.688  1.00  0.00     0.074 A 
ATOM     47  C   UNL A   1      44.200  26.957  31.998  1.00  0.00     0.031 C 
ATOM     48  C   UNL A   1      39.081  29.468  28.115  1.00  0.00     0.029 A 
ATOM     49  C   UNL A   1      39.117  29.947  29.493  1.00  0.00     0.049 A 
ATOM     50  H   UNL A   1      40.522  29.483  30.959  1.00  0.00     0.167 HD
ATOM     51  C   UNL A   1      43.480  28.273  33.973  1.00  0.00     0.037 A 
ATOM     52  C   UNL A   1      38.229  30.789  30.055  1.00  0.00     0.037 A 
ATOM     53  C   UNL A   1      42.605  29.198  34.645  1.00  0.00     0.049 A 
ATOM     54  C   UNL A   1      38.393  31.164  31.500  1.00  0.00     0.074 A 
ATOM     55  C   UNL A   1      42.682  29.671  35.944  1.00  0.00     0.029 A 
ATOM     56  N   UNL A   1      41.490  29.789  34.069  1.00  0.00    -0.354 N 
ATOM     57  N   UNL A   1      39.326  30.803  32.348  1.00  0.00    -0.248 NA
ATOM     58  C   UNL A   1      37.376  32.059  32.070  1.00  0.00     0.031 C 
ATOM     59  C   UNL A   1      41.591  30.519  36.164  1.00  0.00     0.029 A 
ATOM     60  C   UNL A   1      40.859  30.607  34.991  1.00  0.00     0.049 A 
ATOM     61  H   UNL A   1      41.192  29.648  33.141  1.00  0.00     0.167 HD
ATOM     62  C   UNL A   1      39.020  31.437  33.545  1.00  0.00     0.074 A 
ATOM     63  C   UNL A   1      37.824  32.219  33.308  1.00  0.00     0.031 C 
ATOM     64  C   UNL A   1      39.669  31.378  34.733  1.00  0.00     0.037 A 
BRANCH  51  65
ATOM     65  C   UNL A   1      44.623  27.680  34.740  1.00  0.00     0.057 A 
ATOM     66  C   UNL A   1      45.884  28.287  34.780  1.00  0.00     0.134 A 
ATOM     67  C   UNL A   1      44.453  26.495  35.466  1.00  0.00     0.134 A 
ATOM     68  F   UNL A   1      46.118  29.415  34.092  1.00  0.00    -0.206 F 
ATOM     69  C   UNL A   1      46.941  27.725  35.498  1.00  0.00     0.040 A 
ATOM     70  C   UNL A   1      45.496  25.935  36.205  1.00  0.00     0.040 A 
ATOM     71  F   UNL A   1      43.269  25.863  35.470  1.00  0.00    -0.206 F 
ATOM     72  C   UNL A   1      46.747  26.547  36.218  1.00  0.00     0.006 A 
ENDBRANCH  51  65
BRANCH  52  73
ATOM     73  C   UNL A   1      37.094  31.310  29.254  1.00  0.00     0.057 A 
ATOM     74  C   UNL A   1      37.103  32.614  28.747  1.00  0.00     0.134 A 
ATOM     75  C   UNL A   1      35.972  30.518  28.980  1.00  0.00     0.134 A 
ATOM     76  F   UNL A   1      38.140  33.427  28.995  1.00  0.00    -0.206 F 
ATOM     77  C   UNL A   1      36.032  33.117  28.006  1.00  0.00     0.040 A 
ATOM     78  C   UNL A   1      34.905  30.999  28.220  1.00  0.00     0.040 A 
ATOM     79  F   UNL A   1      35.904  29.260  29.438  1.00  0.00    -0.206 F 
ATOM     80  C   UNL A   1      34.931  32.304  27.736  1.00  0.00     0.006 A 
ENDBRANCH  52  73
BRANCH  64  81
ATOM     81  C   UNL A   1      39.111  32.200  35.855  1.00  0.00     0.057 A 
ATOM     82  C   UNL A   1      38.229  31.658  36.797  1.00  0.00     0.134 A 
ATOM     83  C   UNL A   1      39.487  33.539  36.013  1.00  0.00     0.134 A 
ATOM     84  F   UNL A   1      37.821  30.384  36.693  1.00  0.00    -0.206 F 
ATOM     85  C   UNL A   1      37.724  32.426  37.848  1.00  0.00     0.040 A 
ATOM     86  C   UNL A   1      39.007  34.310  37.071  1.00  0.00     0.040 A 
ATOM     87  F   UNL A   1      40.335  34.116  35.147  1.00  0.00    -0.206 F 
ATOM     88  C   UNL A   1      38.119  33.755  37.990  1.00  0.00     0.006 A 
ENDBRANCH  64  81
ENDBRANCH  38  39
ENDBRANCH  31  33
ENDBRANCH  30  31
ENDBRANCH  29  30
ENDBRANCH   1  29
TORSDOF 16
ENDMDL
MODEL 2
REMARK VINA RESULT:     -11.3      1.825      6.631
REMARK SMILES [NH3+][C@H](CS[C@@H]1CC(=O)N(c2ccc3ccccc3c2)C1=O)C(=O)OCCOC(=O)c1ccc(-c2c3nc(c(-c4c(F)cccc4F)c4ccc([nH]4)c(-c4c(F)cccc4F)c4nc(c(-c5c(F)cccc5F)c5ccc2[nH]5)C=C4)C=C3)cc1
REMARK SMILES IDX 25 1 24 2 22 3 23 4 2 5 1 6 3 10 4 11 5 12 6 13 20 14 7 15
REMARK SMILES IDX 9 16 21 17 8 18 10 19 11 20 19 21 12 22 18 23 13 24 17 25
REMARK SMILES IDX 14 26 16 27 15 28 26 29 27 30 28 31 29 32 30 33 31 34 83 35
REMARK SMILES IDX 32 36 82 37 33 38 34 39 35 40 76 41 36 42 81 43 75 44 77 45
REMARK SMILES IDX 37 46 80 47 74 48 73 49 38 51 64 52 47 53 63 54 48 55 51 56
REMARK SMILES IDX 62 57 78 58 49 59 50 60 61 62 79 63 52 64 39 65 40 66 45 67
REMARK SMILES IDX 41 68 42 69 44 70 46 71 43 72 65 73 66 74 71 75 67 76 68 77
REMARK SMILES IDX 70 78 72 79 69 80 53 81 54 82 59 83 55 84 56 85 58 86 60 87
REMARK SMILES IDX 57 88
REMARK H PARENT 1 7 1 8 1 9 77 50 51 61
REMARK Flexibility Score: inf
ROOT
ATOM      1  C   UNL A   1      40.625  21.705  26.102  1.00  0.00     0.274 C 
ENDROOT
BRANCH   1   2
ATOM      2  O   UNL A   1      39.246  21.592  26.518  1.00  0.00    -0.458 OA
BRANCH   2   3
ATOM      3  C   UNL A   1      38.318  21.388  25.544  1.00  0.00     0.365 C 
ATOM      4  O   UNL A   1      38.104  20.302  25.016  1.00  0.00    -0.245 OA
BRANCH   3   5
ATOM      5  C   UNL A   1      37.548  22.673  25.174  1.00  0.00     0.301 C 
BRANCH   5   6
ATOM      6  N   UNL A   1      37.304  23.511  26.368  1.00  0.00    -0.345 N 
ATOM      7  H   UNL A   1      37.967  23.258  27.101  1.00  0.00     0.345 HD
ATOM      8  H   UNL A   1      36.353  23.358  26.702  1.00  0.00     0.345 HD
ATOM      9  H   UNL A   1      37.425  24.494  26.124  1.00  0.00     0.345 HD
ENDBRANCH   5   6
BRANCH   5  10
ATOM     10  C   UNL A   1      36.328  22.444  24.255  1.00  0.00     0.147 C 
BRANCH  10  11
ATOM     11  S   UNL A   1      34.770  21.889  25.035  1.00  0.00    -0.141 SA
BRANCH  11  12
ATOM     12  C   UNL A   1      33.549  22.946  24.181  1.00  0.00     0.146 C 
ATOM     13  C   UNL A   1      34.077  23.641  22.942  1.00  0.00     0.125 C 
ATOM     14  C   UNL A   1      33.157  24.076  25.103  1.00  0.00     0.247 C 
ATOM     15  C   UNL A   1      33.667  25.071  23.117  1.00  0.00     0.235 C 
ATOM     16  N   UNL A   1      33.282  25.261  24.419  1.00  0.00    -0.250 N 
ATOM     17  O   UNL A   1      32.706  23.905  26.229  1.00  0.00    -0.273 OA
ATOM     18  O   UNL A   1      33.746  25.891  22.212  1.00  0.00    -0.274 OA
BRANCH  16  19
ATOM     19  C   UNL A   1      33.006  26.517  24.999  1.00  0.00     0.052 A 
ATOM     20  C   UNL A   1      31.790  27.171  24.781  1.00  0.00     0.027 A 
ATOM     21  C   UNL A   1      33.984  27.143  25.785  1.00  0.00     0.035 A 
ATOM     22  C   UNL A   1      31.542  28.413  25.373  1.00  0.00     0.011 A 
ATOM     23  C   UNL A   1      33.775  28.418  26.326  1.00  0.00    -0.016 A 
ATOM     24  C   UNL A   1      32.529  29.054  26.138  1.00  0.00    -0.018 A 
ATOM     25  C   UNL A   1      34.791  29.077  27.036  1.00  0.00     0.009 A 
ATOM     26  C   UNL A   1      32.316  30.318  26.707  1.00  0.00     0.009 A 
ATOM     27  C   UNL A   1      34.574  30.347  27.569  1.00  0.00     0.001 A 
ATOM     28  C   UNL A   1      33.335  30.962  27.415  1.00  0.00     0.001 A 
ENDBRANCH  16  19
ENDBRANCH  11  12
ENDBRANCH  10  11
ENDBRANCH   5  10
ENDBRANCH   3   5
ENDBRANCH   2   3
ENDBRANCH   1   2
BRANCH   1  29
ATOM     29  C   UNL A   1      41.265  22.986  26.648  1.00  0.00     0.275 C 
BRANCH  29  30
ATOM     30  O   UNL A   1      40.390  24.112  26.458  1.00  0.00    -0.458 OA
BRANCH  30  31
ATOM     31  C   UNL A   1      41.009  25.276  26.154  1.00  0.00     0.338 C 
ATOM     32  O   UNL A   1      41.438  25.627  25.069  1.00  0.00    -0.246 OA
BRANCH  31  33
ATOM     33  C   UNL A   1      40.921  26.176  27.309  1.00  0.00     0.060 A 
ATOM     34  C   UNL A   1      39.929  25.920  28.259  1.00  0.00     0.016 A 
ATOM     35  C   UNL A   1      41.765  27.278  27.437  1.00  0.00     0.016 A 
ATOM     36  C   UNL A   1      39.778  26.760  29.354  1.00  0.00     0.010 A 
ATOM     37  C   UNL A   1      41.612  28.125  28.538  1.00  0.00     0.010 A 
ATOM     38  C   UNL A   1      40.616  27.871  29.498  1.00  0.00    -0.014 A 
BRANCH  38  39
ATOM     39  C   UNL A   1      40.409  28.795  30.634  1.00  0.00     0.031 A 
ATOM     40  C   UNL A   1      39.347  29.850  30.548  1.00  0.00     0.074 A 
ATOM     41  C   UNL A   1      41.159  28.668  31.743  1.00  0.00     0.049 A 
ATOM     42  N   UNL A   1      39.063  30.810  31.390  1.00  0.00    -0.248 NA
ATOM     43  C   UNL A   1      38.488  29.820  29.354  1.00  0.00     0.031 C 
ATOM     44  C   UNL A   1      42.184  27.645  31.956  1.00  0.00     0.029 A 
ATOM     45  N   UNL A   1      41.176  29.406  32.897  1.00  0.00    -0.354 N 
ATOM     46  C   UNL A   1      38.010  31.511  30.820  1.00  0.00     0.074 A 
ATOM     47  C   UNL A   1      37.713  30.875  29.554  1.00  0.00     0.031 C 
ATOM     48  C   UNL A   1      42.733  27.823  33.168  1.00  0.00     0.029 A 
ATOM     49  C   UNL A   1      42.132  28.997  33.794  1.00  0.00     0.049 A 
ATOM     50  H   UNL A   1      40.563  30.157  33.068  1.00  0.00     0.167 HD
ATOM     51  C   UNL A   1      37.352  32.587  31.312  1.00  0.00     0.037 A 
ATOM     52  C   UNL A   1      42.500  29.531  34.973  1.00  0.00     0.037 A 
ATOM     53  C   UNL A   1      37.649  33.204  32.578  1.00  0.00     0.049 A 
ATOM     54  C   UNL A   1      41.796  30.763  35.468  1.00  0.00     0.074 A 
ATOM     55  C   UNL A   1      37.038  34.293  33.174  1.00  0.00     0.029 A 
ATOM     56  N   UNL A   1      38.647  32.782  33.446  1.00  0.00    -0.354 N 
ATOM     57  N   UNL A   1      40.809  31.428  34.919  1.00  0.00    -0.248 NA
ATOM     58  C   UNL A   1      42.262  31.324  36.744  1.00  0.00     0.031 C 
ATOM     59  C   UNL A   1      37.691  34.553  34.383  1.00  0.00     0.029 A 
ATOM     60  C   UNL A   1      38.681  33.601  34.562  1.00  0.00     0.049 A 
ATOM     61  H   UNL A   1      39.242  32.013  33.290  1.00  0.00     0.167 HD
ATOM     62  C   UNL A   1      40.523  32.473  35.786  1.00  0.00     0.074 A 
ATOM     63  C   UNL A   1      41.431  32.344  36.907  1.00  0.00     0.031 C 
ATOM     64  C   UNL A   1      39.594  33.453  35.667  1.00  0.00     0.037 A 
BRANCH  51  65
ATOM     65  C   UNL A   1      36.272  33.183  30.461  1.00  0.00     0.057 A 
ATOM     66  C   UNL A   1      34.914  32.972  30.730  1.00  0.00     0.134 A 
ATOM     67  C   UNL A   1      36.596  33.996  29.367  1.00  0.00     0.134 A 
ATOM     68  F   UNL A   1      34.537  32.189  31.752  1.00  0.00    -0.206 F 
ATOM     69  C   UNL A   1      33.917  33.531  29.929  1.00  0.00     0.040 A 
ATOM     70  C   UNL A   1      35.607  34.578  28.573  1.00  0.00     0.040 A 
ATOM     71  F   UNL A   1      37.878  34.238  29.055  1.00  0.00    -0.206 F 
ATOM     72  C   UNL A   1      34.262  34.342  28.850  1.00  0.00     0.006 A 
ENDBRANCH  51  65
BRANCH  52  73
ATOM     73  C   UNL A   1      43.606  28.919  35.752  1.00  0.00     0.057 A 
ATOM     74  C   UNL A   1      43.370  27.872  36.647  1.00  0.00     0.134 A 
ATOM     75  C   UNL A   1      44.926  29.372  35.620  1.00  0.00     0.134 A 
ATOM     76  F   UNL A   1      42.124  27.411  36.832  1.00  0.00    -0.206 F 
ATOM     77  C   UNL A   1      44.402  27.301  37.394  1.00  0.00     0.040 A 
ATOM     78  C   UNL A   1      45.971  28.795  36.342  1.00  0.00     0.040 A 
ATOM     79  F   UNL A   1      45.217  30.374  34.778  1.00  0.00    -0.206 F 
ATOM     80  C   UNL A   1      45.709  27.760  37.236  1.00  0.00     0.006 A 
ENDBRANCH  52  73
BRANCH  64  81
ATOM     81  C   UNL A   1      39.500  34.442  36.789  1.00  0.00     0.057 A 
ATOM     82  C   UNL A   1      38.814  34.149  37.974  1.00  0.00     0.134 A 
ATOM     83  C   UNL A   1      40.132  35.688  36.695  1.00  0.00     0.134 A 
ATOM     84  F   UNL A   1      38.178  32.977  38.119  1.00  0.00    -0.206 F 
ATOM     85  C   UNL A   1      38.743  35.071  39.020  1.00  0.00     0.040 A 
ATOM     86  C   UNL A   1      40.086  36.608  37.742  1.00  0.00     0.040 A 
ATOM     87  F   UNL A   1      40.811  36.026  35.588  1.00  0.00    -0.206 F 
ATOM     88  C   UNL A   1      39.386  36.302  38.907  1.00  0.00     0.006 A 
ENDBRANCH  64  81
ENDBRANCH  38  39
ENDBRANCH  31  33
ENDBRANCH  30  31
ENDBRANCH  29  30
ENDBRANCH   1  29
TORSDOF 16
ENDMDL
MODEL 3
REMARK VINA RESULT:     -11.2      3.269      8.456
REMARK SMILES [NH3+][C@H](CS[C@@H]1CC(=O)N(c2ccc3ccccc3c2)C1=O)C(=O)OCCOC(=O)c1ccc(-c2c3nc(c(-c4c(F)cccc4F)c4ccc([nH]4)c(-c4c(F)cccc4F)c4nc(c(-c5c(F)cccc5F)c5ccc2[nH]5)C=C4)C=C3)cc1
REMARK SMILES IDX 25 1 24 2 22 3 23 4 2 5 1 6 3 10 4 11 5 12 6 13 20 14 7 15
REMARK SMILES IDX 9 16 21 17 8 18 10 19 11 20 19 21 12 22 18 23 13 24 17 25
REMARK SMILES IDX 14 26 16 27 15 28 26 29 27 30 28 31 29 32 30 33 31 34 83 35
REMARK SMILES IDX 32 36 82 37 33 38 34 39 35 40 76 41 36 42 81 43 75 44 77 45
REMARK SMILES IDX 37 46 80 47 74 48 73 49 38 51 64 52 47 53 63 54 48 55 51 56
REMARK SMILES IDX 62 57 78 58 49 59 50 60 61 62 79 63 52 64 39 65 40 66 45 67
REMARK SMILES IDX 41 68 42 69 44 70 46 71 43 72 65 73 66 74 71 75 67 76 68 77
REMARK SMILES IDX 70 78 72 79 69 80 53 81 54 82 59 83 55 84 56 85 58 86 60 87
REMARK SMILES IDX 57 88
REMARK H PARENT 1 7 1 8 1 9 77 50 51 61
REMARK Flexibility Score: inf
ROOT
ATOM      1  C   UNL A   1      31.403  31.904  26.874  1.00  0.00     0.274 C 
ENDROOT
BRANCH   1   2
ATOM      2  O   UNL A   1      32.060  30.838  26.152  1.00  0.00    -0.458 OA
BRANCH   2   3
ATOM      3  C   UNL A   1      32.641  29.853  26.890  1.00  0.00     0.365 C 
ATOM      4  O   UNL A   1      33.680  29.993  27.524  1.00  0.00    -0.245 OA
BRANCH   3   5
ATOM      5  C   UNL A   1      31.845  28.532  26.854  1.00  0.00     0.301 C 
BRANCH   5   6
ATOM      6  N   UNL A   1      31.394  28.143  28.207  1.00  0.00    -0.345 N 
ATOM      7  H   UNL A   1      30.419  28.413  28.332  1.00  0.00     0.345 HD
ATOM      8  H   UNL A   1      31.968  28.614  28.906  1.00  0.00     0.345 HD
ATOM      9  H   UNL A   1      31.484  27.132  28.319  1.00  0.00     0.345 HD
ENDBRANCH   5   6
BRANCH   5  10
ATOM     10  C   UNL A   1      32.504  27.412  26.019  1.00  0.00     0.147 C 
BRANCH  10  11
ATOM     11  S   UNL A   1      31.810  27.069  24.362  1.00  0.00    -0.141 SA
BRANCH  11  12
ATOM     12  C   UNL A   1      30.951  25.484  24.658  1.00  0.00     0.146 C 
ATOM     13  C   UNL A   1      30.695  25.172  26.120  1.00  0.00     0.125 C 
ATOM     14  C   UNL A   1      31.838  24.356  24.187  1.00  0.00     0.247 C 
ATOM     15  C   UNL A   1      31.181  23.764  26.288  1.00  0.00     0.235 C 
ATOM     16  N   UNL A   1      31.937  23.428  25.194  1.00  0.00    -0.250 N 
ATOM     17  O   UNL A   1      32.282  24.276  23.047  1.00  0.00    -0.273 OA
ATOM     18  O   UNL A   1      30.946  23.105  27.292  1.00  0.00    -0.274 OA
BRANCH  16  19
ATOM     19  C   UNL A   1      32.709  22.252  25.084  1.00  0.00     0.052 A 
ATOM     20  C   UNL A   1      34.038  22.208  25.513  1.00  0.00     0.027 A 
ATOM     21  C   UNL A   1      32.144  21.109  24.502  1.00  0.00     0.035 A 
ATOM     22  C   UNL A   1      34.778  21.027  25.397  1.00  0.00     0.011 A 
ATOM     23  C   UNL A   1      32.896  19.941  24.315  1.00  0.00    -0.016 A 
ATOM     24  C   UNL A   1      34.224  19.890  24.790  1.00  0.00    -0.018 A 
ATOM     25  C   UNL A   1      32.353  18.831  23.651  1.00  0.00     0.009 A 
ATOM     26  C   UNL A   1      34.961  18.708  24.627  1.00  0.00     0.009 A 
ATOM     27  C   UNL A   1      33.109  17.674  23.469  1.00  0.00     0.001 A 
ATOM     28  C   UNL A   1      34.407  17.609  23.966  1.00  0.00     0.001 A 
ENDBRANCH  16  19
ENDBRANCH  11  12
ENDBRANCH  10  11
ENDBRANCH   5  10
ENDBRANCH   3   5
ENDBRANCH   2   3
ENDBRANCH   1   2
BRANCH   1  29
ATOM     29  C   UNL A   1      32.246  33.183  26.860  1.00  0.00     0.275 C 
BRANCH  29  30
ATOM     30  O   UNL A   1      32.228  33.818  28.151  1.00  0.00    -0.458 OA
BRANCH  30  31
ATOM     31  C   UNL A   1      33.264  34.652  28.395  1.00  0.00     0.338 C 
ATOM     32  O   UNL A   1      33.258  35.870  28.377  1.00  0.00    -0.246 OA
BRANCH  31  33
ATOM     33  C   UNL A   1      34.399  33.866  28.893  1.00  0.00     0.060 A 
ATOM     34  C   UNL A   1      34.118  32.727  29.651  1.00  0.00     0.016 A 
ATOM     35  C   UNL A   1      35.715  34.263  28.662  1.00  0.00     0.016 A 
ATOM     36  C   UNL A   1      35.153  31.965  30.178  1.00  0.00     0.010 A 
ATOM     37  C   UNL A   1      36.758  33.498  29.193  1.00  0.00     0.010 A 
ATOM     38  C   UNL A   1      36.480  32.349  29.955  1.00  0.00    -0.014 A 
BRANCH  38  39
ATOM     39  C   UNL A   1      37.576  31.568  30.569  1.00  0.00     0.031 A 
ATOM     40  C   UNL A   1      37.941  31.805  32.004  1.00  0.00     0.074 A 
ATOM     41  C   UNL A   1      38.219  30.637  29.844  1.00  0.00     0.049 A 
ATOM     42  N   UNL A   1      38.921  31.295  32.704  1.00  0.00    -0.248 NA
ATOM     43  C   UNL A   1      37.089  32.744  32.752  1.00  0.00     0.031 C 
ATOM     44  C   UNL A   1      37.911  30.286  28.457  1.00  0.00     0.029 A 
ATOM     45  N   UNL A   1      39.267  29.818  30.173  1.00  0.00    -0.354 N 
ATOM     46  C   UNL A   1      38.818  31.864  33.965  1.00  0.00     0.074 A 
ATOM     47  C   UNL A   1      37.689  32.770  33.932  1.00  0.00     0.031 C 
ATOM     48  C   UNL A   1      38.756  29.324  28.052  1.00  0.00     0.029 A 
ATOM     49  C   UNL A   1      39.690  29.026  29.134  1.00  0.00     0.049 A 
ATOM     50  H   UNL A   1      39.677  29.798  31.068  1.00  0.00     0.167 HD
ATOM     51  C   UNL A   1      39.596  31.647  35.052  1.00  0.00     0.037 A 
ATOM     52  C   UNL A   1      40.734  28.180  29.057  1.00  0.00     0.037 A 
ATOM     53  C   UNL A   1      40.710  30.735  35.076  1.00  0.00     0.049 A 
ATOM     54  C   UNL A   1      41.621  28.004  30.258  1.00  0.00     0.074 A 
ATOM     55  C   UNL A   1      41.559  30.436  36.128  1.00  0.00     0.029 A 
ATOM     56  N   UNL A   1      41.130  29.974  33.994  1.00  0.00    -0.354 N 
ATOM     57  N   UNL A   1      41.524  28.554  31.444  1.00  0.00    -0.248 NA
ATOM     58  C   UNL A   1      42.766  27.095  30.108  1.00  0.00     0.031 C 
ATOM     59  C   UNL A   1      42.515  29.523  35.670  1.00  0.00     0.029 A 
ATOM     60  C   UNL A   1      42.236  29.220  34.347  1.00  0.00     0.049 A 
ATOM     61  H   UNL A   1      40.702  29.970  33.108  1.00  0.00     0.167 HD
ATOM     62  C   UNL A   1      42.583  28.048  32.187  1.00  0.00     0.074 A 
ATOM     63  C   UNL A   1      43.299  27.133  31.321  1.00  0.00     0.031 C 
ATOM     64  C   UNL A   1      42.932  28.315  33.468  1.00  0.00     0.037 A 
BRANCH  51  65
ATOM     65  C   UNL A   1      39.289  32.436  36.289  1.00  0.00     0.057 A 
ATOM     66  C   UNL A   1      39.881  33.679  36.543  1.00  0.00     0.134 A 
ATOM     67  C   UNL A   1      38.369  31.954  37.229  1.00  0.00     0.134 A 
ATOM     68  F   UNL A   1      40.784  34.189  35.690  1.00  0.00    -0.206 F 
ATOM     69  C   UNL A   1      39.587  34.404  37.699  1.00  0.00     0.040 A 
ATOM     70  C   UNL A   1      38.051  32.680  38.377  1.00  0.00     0.040 A 
ATOM     71  F   UNL A   1      37.765  30.770  37.045  1.00  0.00    -0.206 F 
ATOM     72  C   UNL A   1      38.665  33.908  38.617  1.00  0.00     0.006 A 
ENDBRANCH  51  65
BRANCH  52  73
ATOM     73  C   UNL A   1      41.012  27.458  27.791  1.00  0.00     0.057 A 
ATOM     74  C   UNL A   1      41.804  28.028  26.789  1.00  0.00     0.134 A 
ATOM     75  C   UNL A   1      40.488  26.181  27.551  1.00  0.00     0.134 A 
ATOM     76  F   UNL A   1      42.316  29.257  26.952  1.00  0.00    -0.206 F 
ATOM     77  C   UNL A   1      42.057  27.362  25.589  1.00  0.00     0.040 A 
ATOM     78  C   UNL A   1      40.752  25.493  26.367  1.00  0.00     0.040 A 
ATOM     79  F   UNL A   1      39.720  25.581  28.473  1.00  0.00    -0.206 F 
ATOM     80  C   UNL A   1      41.534  26.086  25.379  1.00  0.00     0.006 A 
ENDBRANCH  52  73
BRANCH  64  81
ATOM     81  C   UNL A   1      44.125  27.589  34.014  1.00  0.00     0.057 A 
ATOM     82  C   UNL A   1      45.411  28.141  33.960  1.00  0.00     0.134 A 
ATOM     83  C   UNL A   1      43.979  26.341  34.630  1.00  0.00     0.134 A 
ATOM     84  F   UNL A   1      45.617  29.329  33.371  1.00  0.00    -0.206 F 
ATOM     85  C   UNL A   1      46.515  27.466  34.483  1.00  0.00     0.040 A 
ATOM     86  C   UNL A   1      45.071  25.666  35.176  1.00  0.00     0.040 A 
ATOM     87  F   UNL A   1      42.772  25.762  34.720  1.00  0.00    -0.206 F 
ATOM     88  C   UNL A   1      46.345  26.227  35.099  1.00  0.00     0.006 A 
ENDBRANCH  64  81
ENDBRANCH  38  39
ENDBRANCH  31  33
ENDBRANCH  30  31
ENDBRANCH  29  30
ENDBRANCH   1  29
TORSDOF 16
ENDMDL
