MODEL 1
REMARK VINA RESULT:     -12.6      0.000      0.000
REMARK SMILES COC(=O)c1ccc([C@H]2CC(=O)Nc3c(C(=O)OCCOC(=O)c4ccc(-c5c6nc(c(-c7c(F)cccc7F)c7ccc([nH]7)c(-c7c(F)cccc7F)c7nc(c(-c8c(F)cccc8F)c8ccc5[nH]8)C=C7)C=C6)cc4)cn(-c4ccccc4)c32)cc1
REMARK SMILES IDX 19 1 18 2 16 3 17 4 15 5 9 6 10 7 86 8 11 9 14 10 79 11
REMARK SMILES IDX 12 12 13 13 78 14 8 16 5 17 6 18 88 19 7 20 87 21 3 22 4 23
REMARK SMILES IDX 2 24 1 25 80 26 81 27 85 28 82 29 84 30 83 31 20 32 21 33
REMARK SMILES IDX 22 34 23 35 24 36 25 37 77 38 26 39 76 40 27 41 28 42 29 43
REMARK SMILES IDX 70 44 30 45 75 46 69 47 71 48 31 49 74 50 68 51 67 52 32 54
REMARK SMILES IDX 58 55 41 56 57 57 42 58 45 59 56 60 72 61 43 62 44 63 55 65
REMARK SMILES IDX 73 66 46 67 33 68 34 69 39 70 35 71 36 72 38 73 40 74 37 75
REMARK SMILES IDX 59 76 60 77 65 78 61 79 62 80 64 81 66 82 63 83 47 84 48 85
REMARK SMILES IDX 53 86 49 87 50 88 52 89 54 90 51 91
REMARK H PARENT 13 15 71 53 45 64
REMARK Flexibility Score: inf
ROOT
ATOM      1  C   UNL A   1      34.708  29.621  26.843  1.00  0.00     0.275 C 
ENDROOT
BRANCH   1   2
ATOM      2  O   UNL A   1      33.838  28.637  27.429  1.00  0.00    -0.458 OA
BRANCH   2   3
ATOM      3  C   UNL A   1      32.706  28.325  26.728  1.00  0.00     0.341 C 
ATOM      4  O   UNL A   1      31.721  29.054  26.639  1.00  0.00    -0.246 OA
BRANCH   3   5
ATOM      5  C   UNL A   1      32.826  27.056  26.023  1.00  0.00     0.102 A 
ATOM      6  C   UNL A   1      31.671  24.289  23.816  1.00  0.00     0.078 C 
ATOM      7  C   UNL A   1      30.166  24.614  23.846  1.00  0.00     0.115 C 
ATOM      8  C   UNL A   1      32.418  25.223  24.734  1.00  0.00     0.055 A 
ATOM      9  C   UNL A   1      29.826  26.085  23.998  1.00  0.00     0.225 C 
ATOM     10  C   UNL A   1      31.891  26.412  25.185  1.00  0.00     0.078 A 
ATOM     11  N   UNL A   1      33.715  25.140  25.220  1.00  0.00    -0.317 N 
ATOM     12  O   UNL A   1      28.790  26.561  23.535  1.00  0.00    -0.275 OA
ATOM     13  N   UNL A   1      30.653  26.842  24.779  1.00  0.00    -0.324 N 
ATOM     14  C   UNL A   1      33.911  26.194  26.094  1.00  0.00     0.109 A 
ATOM     15  H   UNL A   1      30.348  27.735  25.062  1.00  0.00     0.170 HD
BRANCH   6  16
ATOM     16  C   UNL A   1      31.844  22.781  24.012  1.00  0.00    -0.038 A 
ATOM     17  C   UNL A   1      32.467  20.035  24.264  1.00  0.00     0.060 A 
ATOM     18  C   UNL A   1      32.414  20.633  23.002  1.00  0.00     0.016 A 
ATOM     19  C   UNL A   1      32.108  20.786  25.388  1.00  0.00     0.016 A 
ATOM     20  C   UNL A   1      32.113  21.992  22.879  1.00  0.00     0.005 A 
ATOM     21  C   UNL A   1      31.758  22.136  25.254  1.00  0.00     0.005 A 
BRANCH  17  22
ATOM     22  C   UNL A   1      32.959  18.633  24.350  1.00  0.00     0.337 C 
ATOM     23  O   UNL A   1      34.097  18.303  24.056  1.00  0.00    -0.246 OA
BRANCH  22  24
ATOM     24  O   UNL A   1      31.996  17.808  24.833  1.00  0.00    -0.465 OA
ATOM     25  C   UNL A   1      32.504  16.684  25.554  1.00  0.00     0.282 C 
ENDBRANCH  22  24
ENDBRANCH  17  22
ENDBRANCH   6  16
BRANCH  11  26
ATOM     26  C   UNL A   1      34.701  24.176  24.906  1.00  0.00     0.045 A 
ATOM     27  C   UNL A   1      35.120  24.021  23.582  1.00  0.00     0.026 A 
ATOM     28  C   UNL A   1      35.190  23.333  25.913  1.00  0.00     0.026 A 
ATOM     29  C   UNL A   1      36.000  22.990  23.255  1.00  0.00     0.002 A 
ATOM     30  C   UNL A   1      36.037  22.279  25.568  1.00  0.00     0.002 A 
ATOM     31  C   UNL A   1      36.439  22.108  24.242  1.00  0.00     0.000 A 
ENDBRANCH  11  26
ENDBRANCH   3   5
ENDBRANCH   2   3
ENDBRANCH   1   2
BRANCH   1  32
ATOM     32  C   UNL A   1      34.887  30.827  27.756  1.00  0.00     0.275 C 
BRANCH  32  33
ATOM     33  O   UNL A   1      36.241  30.944  28.188  1.00  0.00    -0.458 OA
BRANCH  33  34
ATOM     34  C   UNL A   1      36.576  30.179  29.250  1.00  0.00     0.338 C 
ATOM     35  O   UNL A   1      36.187  30.296  30.399  1.00  0.00    -0.246 OA
BRANCH  34  36
ATOM     36  C   UNL A   1      37.677  29.292  28.865  1.00  0.00     0.060 A 
ATOM     37  C   UNL A   1      38.138  28.388  29.827  1.00  0.00     0.016 A 
ATOM     38  C   UNL A   1      38.410  29.589  27.708  1.00  0.00     0.016 A 
ATOM     39  C   UNL A   1      39.430  27.920  29.717  1.00  0.00     0.010 A 
ATOM     40  C   UNL A   1      39.702  29.141  27.612  1.00  0.00     0.010 A 
ATOM     41  C   UNL A   1      40.218  28.378  28.656  1.00  0.00    -0.014 A 
BRANCH  41  42
ATOM     42  C   UNL A   1      41.602  27.963  28.596  1.00  0.00     0.031 A 
ATOM     43  C   UNL A   1      41.785  26.668  27.901  1.00  0.00     0.074 A 
ATOM     44  C   UNL A   1      42.599  28.779  28.987  1.00  0.00     0.049 A 
ATOM     45  N   UNL A   1      42.258  25.565  28.379  1.00  0.00    -0.248 NA
ATOM     46  C   UNL A   1      41.219  26.543  26.546  1.00  0.00     0.031 C 
ATOM     47  C   UNL A   1      42.510  30.184  29.396  1.00  0.00     0.029 A 
ATOM     48  N   UNL A   1      43.937  28.545  28.994  1.00  0.00    -0.354 N 
ATOM     49  C   UNL A   1      42.241  24.666  27.318  1.00  0.00     0.074 A 
ATOM     50  C   UNL A   1      41.419  25.251  26.295  1.00  0.00     0.031 C 
ATOM     51  C   UNL A   1      43.748  30.730  29.387  1.00  0.00     0.029 A 
ATOM     52  C   UNL A   1      44.718  29.688  29.099  1.00  0.00     0.049 A 
ATOM     53  H   UNL A   1      44.320  27.641  28.930  1.00  0.00     0.167 HD
ATOM     54  C   UNL A   1      43.130  23.641  27.256  1.00  0.00     0.037 A 
ATOM     55  C   UNL A   1      46.054  29.762  28.880  1.00  0.00     0.037 A 
ATOM     56  C   UNL A   1      43.683  23.352  28.555  1.00  0.00     0.049 A 
ATOM     57  C   UNL A   1      46.592  28.378  28.934  1.00  0.00     0.074 A 
ATOM     58  C   UNL A   1      43.157  22.954  29.768  1.00  0.00     0.029 A 
ATOM     59  N   UNL A   1      44.942  23.823  28.829  1.00  0.00    -0.354 N 
ATOM     60  N   UNL A   1      46.650  27.662  30.022  1.00  0.00    -0.248 NA
ATOM     61  C   UNL A   1      46.639  27.624  27.689  1.00  0.00     0.031 C 
ATOM     62  C   UNL A   1      43.934  23.635  30.751  1.00  0.00     0.029 A 
ATOM     63  C   UNL A   1      44.920  24.366  30.087  1.00  0.00     0.049 A 
ATOM     64  H   UNL A   1      45.722  23.779  28.229  1.00  0.00     0.167 HD
ATOM     65  C   UNL A   1      46.312  26.377  29.620  1.00  0.00     0.074 A 
ATOM     66  C   UNL A   1      46.406  26.397  28.163  1.00  0.00     0.031 C 
ATOM     67  C   UNL A   1      45.712  25.507  30.485  1.00  0.00     0.037 A 
BRANCH  54  68
ATOM     68  C   UNL A   1      43.797  23.196  25.974  1.00  0.00     0.057 A 
ATOM     69  C   UNL A   1      43.790  21.830  25.647  1.00  0.00     0.134 A 
ATOM     70  C   UNL A   1      44.693  23.985  25.220  1.00  0.00     0.134 A 
ATOM     71  F   UNL A   1      42.988  20.971  26.294  1.00  0.00    -0.206 F 
ATOM     72  C   UNL A   1      44.671  21.278  24.710  1.00  0.00     0.040 A 
ATOM     73  C   UNL A   1      45.538  23.453  24.244  1.00  0.00     0.040 A 
ATOM     74  F   UNL A   1      44.879  25.291  25.445  1.00  0.00    -0.206 F 
ATOM     75  C   UNL A   1      45.557  22.089  24.012  1.00  0.00     0.006 A 
ENDBRANCH  54  68
BRANCH  55  76
ATOM     76  C   UNL A   1      46.832  30.887  28.312  1.00  0.00     0.057 A 
ATOM     77  C   UNL A   1      46.570  31.377  27.026  1.00  0.00     0.134 A 
ATOM     78  C   UNL A   1      47.666  31.684  29.117  1.00  0.00     0.134 A 
ATOM     79  F   UNL A   1      45.750  30.712  26.200  1.00  0.00    -0.206 F 
ATOM     80  C   UNL A   1      47.093  32.596  26.571  1.00  0.00     0.040 A 
ATOM     81  C   UNL A   1      48.200  32.898  28.674  1.00  0.00     0.040 A 
ATOM     82  F   UNL A   1      47.918  31.356  30.393  1.00  0.00    -0.206 F 
ATOM     83  C   UNL A   1      47.904  33.365  27.401  1.00  0.00     0.006 A 
ENDBRANCH  55  76
BRANCH  67  84
ATOM     84  C   UNL A   1      45.659  25.893  31.937  1.00  0.00     0.057 A 
ATOM     85  C   UNL A   1      46.730  25.737  32.830  1.00  0.00     0.134 A 
ATOM     86  C   UNL A   1      44.538  26.583  32.411  1.00  0.00     0.134 A 
ATOM     87  F   UNL A   1      47.883  25.181  32.439  1.00  0.00    -0.206 F 
ATOM     88  C   UNL A   1      46.671  26.207  34.146  1.00  0.00     0.040 A 
ATOM     89  C   UNL A   1      44.479  27.088  33.712  1.00  0.00     0.040 A 
ATOM     90  F   UNL A   1      43.499  26.821  31.597  1.00  0.00    -0.206 F 
ATOM     91  C   UNL A   1      45.543  26.891  34.588  1.00  0.00     0.006 A 
ENDBRANCH  67  84
ENDBRANCH  41  42
ENDBRANCH  34  36
ENDBRANCH  33  34
ENDBRANCH  32  33
ENDBRANCH   1  32
TORSDOF 15
ENDMDL
MODEL 2
REMARK VINA RESULT:     -12.5      2.632      7.621
REMARK SMILES COC(=O)c1ccc([C@H]2CC(=O)Nc3c(C(=O)OCCOC(=O)c4ccc(-c5c6nc(c(-c7c(F)cccc7F)c7ccc([nH]7)c(-c7c(F)cccc7F)c7nc(c(-c8c(F)cccc8F)c8ccc5[nH]8)C=C7)C=C6)cc4)cn(-c4ccccc4)c32)cc1
REMARK SMILES IDX 19 1 18 2 16 3 17 4 15 5 9 6 10 7 86 8 11 9 14 10 79 11
REMARK SMILES IDX 12 12 13 13 78 14 8 16 5 17 6 18 88 19 7 20 87 21 3 22 4 23
REMARK SMILES IDX 2 24 1 25 80 26 81 27 85 28 82 29 84 30 83 31 20 32 21 33
REMARK SMILES IDX 22 34 23 35 24 36 25 37 77 38 26 39 76 40 27 41 28 42 29 43
REMARK SMILES IDX 70 44 30 45 75 46 69 47 71 48 31 49 74 50 68 51 67 52 32 54
REMARK SMILES IDX 58 55 41 56 57 57 42 58 45 59 56 60 72 61 43 62 44 63 55 65
REMARK SMILES IDX 73 66 46 67 33 68 34 69 39 70 35 71 36 72 38 73 40 74 37 75
REMARK SMILES IDX 59 76 60 77 65 78 61 79 62 80 64 81 66 82 63 83 47 84 48 85
REMARK SMILES IDX 53 86 49 87 50 88 52 89 54 90 51 91
REMARK H PARENT 13 15 71 53 45 64
REMARK Flexibility Score: inf
ROOT
ATOM      1  C   UNL A   1      36.654  20.841  24.460  1.00  0.00     0.275 C 
ENDROOT
BRANCH   1   2
ATOM      2  O   UNL A   1      36.163  21.770  25.441  1.00  0.00    -0.458 OA
BRANCH   2   3
ATOM      3  C   UNL A   1      36.394  23.097  25.198  1.00  0.00     0.341 C 
ATOM      4  O   UNL A   1      37.505  23.584  25.004  1.00  0.00    -0.246 OA
BRANCH   3   5
ATOM      5  C   UNL A   1      35.160  23.865  25.115  1.00  0.00     0.102 A 
ATOM      6  C   UNL A   1      31.616  24.482  24.153  1.00  0.00     0.078 C 
ATOM      7  C   UNL A   1      31.490  23.366  23.100  1.00  0.00     0.115 C 
ATOM      8  C   UNL A   1      33.031  24.542  24.672  1.00  0.00     0.055 A 
ATOM      9  C   UNL A   1      32.338  22.134  23.359  1.00  0.00     0.225 C 
ATOM     10  C   UNL A   1      33.927  23.508  24.529  1.00  0.00     0.078 A 
ATOM     11  N   UNL A   1      33.662  25.531  25.414  1.00  0.00    -0.317 N 
ATOM     12  O   UNL A   1      31.995  21.019  22.970  1.00  0.00    -0.275 OA
ATOM     13  N   UNL A   1      33.562  22.326  23.935  1.00  0.00    -0.324 N 
ATOM     14  C   UNL A   1      34.985  25.163  25.575  1.00  0.00     0.109 A 
ATOM     15  H   UNL A   1      34.210  21.584  23.924  1.00  0.00     0.170 HD
BRANCH   6  16
ATOM     16  C   UNL A   1      30.995  25.758  23.581  1.00  0.00    -0.038 A 
ATOM     17  C   UNL A   1      29.858  28.235  22.828  1.00  0.00     0.060 A 
ATOM     18  C   UNL A   1      29.166  27.372  23.682  1.00  0.00     0.016 A 
ATOM     19  C   UNL A   1      31.070  27.813  22.271  1.00  0.00     0.016 A 
ATOM     20  C   UNL A   1      29.732  26.151  24.060  1.00  0.00     0.005 A 
ATOM     21  C   UNL A   1      31.610  26.565  22.614  1.00  0.00     0.005 A 
BRANCH  17  22
ATOM     22  C   UNL A   1      29.290  29.591  22.597  1.00  0.00     0.337 C 
ATOM     23  O   UNL A   1      29.064  30.384  23.496  1.00  0.00    -0.246 OA
BRANCH  22  24
ATOM     24  O   UNL A   1      29.108  29.823  21.273  1.00  0.00    -0.465 OA
ATOM     25  C   UNL A   1      28.063  30.754  20.985  1.00  0.00     0.282 C 
ENDBRANCH  22  24
ENDBRANCH  17  22
ENDBRANCH   6  16
BRANCH  11  26
ATOM     26  C   UNL A   1      33.098  26.716  25.940  1.00  0.00     0.045 A 
ATOM     27  C   UNL A   1      32.076  26.634  26.890  1.00  0.00     0.026 A 
ATOM     28  C   UNL A   1      33.516  27.959  25.447  1.00  0.00     0.026 A 
ATOM     29  C   UNL A   1      31.439  27.798  27.317  1.00  0.00     0.002 A 
ATOM     30  C   UNL A   1      32.842  29.114  25.849  1.00  0.00     0.002 A 
ATOM     31  C   UNL A   1      31.805  29.032  26.780  1.00  0.00     0.000 A 
ENDBRANCH  11  26
ENDBRANCH   3   5
ENDBRANCH   2   3
ENDBRANCH   1   2
BRANCH   1  32
ATOM     32  C   UNL A   1      37.770  19.970  25.021  1.00  0.00     0.275 C 
BRANCH  32  33
ATOM     33  O   UNL A   1      38.900  20.758  25.386  1.00  0.00    -0.458 OA
BRANCH  33  34
ATOM     34  C   UNL A   1      40.016  20.060  25.691  1.00  0.00     0.338 C 
ATOM     35  O   UNL A   1      40.194  18.860  25.572  1.00  0.00    -0.246 OA
BRANCH  34  36
ATOM     36  C   UNL A   1      40.939  20.937  26.414  1.00  0.00     0.060 A 
ATOM     37  C   UNL A   1      40.884  20.916  27.811  1.00  0.00     0.016 A 
ATOM     38  C   UNL A   1      41.592  21.958  25.709  1.00  0.00     0.016 A 
ATOM     39  C   UNL A   1      41.325  22.025  28.500  1.00  0.00     0.010 A 
ATOM     40  C   UNL A   1      42.010  23.070  26.394  1.00  0.00     0.010 A 
ATOM     41  C   UNL A   1      41.799  23.120  27.769  1.00  0.00    -0.014 A 
BRANCH  41  42
ATOM     42  C   UNL A   1      42.171  24.319  28.486  1.00  0.00     0.031 A 
ATOM     43  C   UNL A   1      41.216  25.432  28.283  1.00  0.00     0.074 A 
ATOM     44  C   UNL A   1      43.186  24.323  29.370  1.00  0.00     0.049 A 
ATOM     45  N   UNL A   1      41.438  26.587  27.748  1.00  0.00    -0.248 NA
ATOM     46  C   UNL A   1      39.795  25.163  28.563  1.00  0.00     0.031 C 
ATOM     47  C   UNL A   1      43.975  23.182  29.848  1.00  0.00     0.029 A 
ATOM     48  N   UNL A   1      43.658  25.353  30.120  1.00  0.00    -0.354 N 
ATOM     49  C   UNL A   1      40.226  27.266  27.819  1.00  0.00     0.074 A 
ATOM     50  C   UNL A   1      39.223  26.287  28.136  1.00  0.00     0.031 C 
ATOM     51  C   UNL A   1      44.658  23.547  30.958  1.00  0.00     0.029 A 
ATOM     52  C   UNL A   1      44.455  24.966  31.189  1.00  0.00     0.049 A 
ATOM     53  H   UNL A   1      43.452  26.294  29.921  1.00  0.00     0.167 HD
ATOM     54  C   UNL A   1      40.187  28.622  27.887  1.00  0.00     0.037 A 
ATOM     55  C   UNL A   1      44.839  25.756  32.223  1.00  0.00     0.037 A 
ATOM     56  C   UNL A   1      41.415  29.202  27.405  1.00  0.00     0.049 A 
ATOM     57  C   UNL A   1      44.633  27.166  31.806  1.00  0.00     0.074 A 
ATOM     58  C   UNL A   1      42.093  29.183  26.202  1.00  0.00     0.029 A 
ATOM     59  N   UNL A   1      42.321  29.639  28.339  1.00  0.00    -0.354 N 
ATOM     60  N   UNL A   1      45.335  27.762  30.883  1.00  0.00    -0.248 NA
ATOM     61  C   UNL A   1      43.341  27.773  32.094  1.00  0.00     0.031 C 
ATOM     62  C   UNL A   1      43.474  29.155  26.555  1.00  0.00     0.029 A 
ATOM     63  C   UNL A   1      43.562  29.212  27.946  1.00  0.00     0.049 A 
ATOM     64  H   UNL A   1      42.116  30.165  29.146  1.00  0.00     0.167 HD
ATOM     65  C   UNL A   1      44.420  28.540  30.185  1.00  0.00     0.074 A 
ATOM     66  C   UNL A   1      43.230  28.575  31.032  1.00  0.00     0.031 C 
ATOM     67  C   UNL A   1      44.611  28.834  28.866  1.00  0.00     0.037 A 
BRANCH  54  68
ATOM     68  C   UNL A   1      39.222  29.382  28.768  1.00  0.00     0.057 A 
ATOM     69  C   UNL A   1      39.299  29.213  30.161  1.00  0.00     0.134 A 
ATOM     70  C   UNL A   1      38.048  30.018  28.309  1.00  0.00     0.134 A 
ATOM     71  F   UNL A   1      40.361  28.616  30.724  1.00  0.00    -0.206 F 
ATOM     72  C   UNL A   1      38.250  29.562  31.018  1.00  0.00     0.040 A 
ATOM     73  C   UNL A   1      37.019  30.421  29.162  1.00  0.00     0.040 A 
ATOM     74  F   UNL A   1      37.778  30.199  27.011  1.00  0.00    -0.206 F 
ATOM     75  C   UNL A   1      37.100  30.160  30.518  1.00  0.00     0.006 A 
ENDBRANCH  54  68
BRANCH  55  76
ATOM     76  C   UNL A   1      45.059  25.377  33.638  1.00  0.00     0.057 A 
ATOM     77  C   UNL A   1      43.987  25.039  34.475  1.00  0.00     0.134 A 
ATOM     78  C   UNL A   1      46.342  25.076  34.126  1.00  0.00     0.134 A 
ATOM     79  F   UNL A   1      42.723  25.245  34.077  1.00  0.00    -0.206 F 
ATOM     80  C   UNL A   1      44.178  24.422  35.719  1.00  0.00     0.040 A 
ATOM     81  C   UNL A   1      46.548  24.466  35.369  1.00  0.00     0.040 A 
ATOM     82  F   UNL A   1      47.436  25.279  33.377  1.00  0.00    -0.206 F 
ATOM     83  C   UNL A   1      45.463  24.125  36.165  1.00  0.00     0.006 A 
ENDBRANCH  55  76
BRANCH  67  84
ATOM     84  C   UNL A   1      45.951  28.510  28.267  1.00  0.00     0.057 A 
ATOM     85  C   UNL A   1      46.272  27.275  27.682  1.00  0.00     0.134 A 
ATOM     86  C   UNL A   1      46.898  29.531  28.142  1.00  0.00     0.134 A 
ATOM     87  F   UNL A   1      45.389  26.269  27.661  1.00  0.00    -0.206 F 
ATOM     88  C   UNL A   1      47.496  27.054  27.043  1.00  0.00     0.040 A 
ATOM     89  C   UNL A   1      48.111  29.335  27.476  1.00  0.00     0.040 A 
ATOM     90  F   UNL A   1      46.638  30.756  28.624  1.00  0.00    -0.206 F 
ATOM     91  C   UNL A   1      48.418  28.090  26.934  1.00  0.00     0.006 A 
ENDBRANCH  67  84
ENDBRANCH  41  42
ENDBRANCH  34  36
ENDBRANCH  33  34
ENDBRANCH  32  33
ENDBRANCH   1  32
TORSDOF 15
ENDMDL
MODEL 3
REMARK VINA RESULT:     -12.3      1.814      5.761
REMARK SMILES COC(=O)c1ccc([C@H]2CC(=O)Nc3c(C(=O)OCCOC(=O)c4ccc(-c5c6nc(c(-c7c(F)cccc7F)c7ccc([nH]7)c(-c7c(F)cccc7F)c7nc(c(-c8c(F)cccc8F)c8ccc5[nH]8)C=C7)C=C6)cc4)cn(-c4ccccc4)c32)cc1
REMARK SMILES IDX 19 1 18 2 16 3 17 4 15 5 9 6 10 7 86 8 11 9 14 10 79 11
REMARK SMILES IDX 12 12 13 13 78 14 8 16 5 17 6 18 88 19 7 20 87 21 3 22 4 23
REMARK SMILES IDX 2 24 1 25 80 26 81 27 85 28 82 29 84 30 83 31 20 32 21 33
REMARK SMILES IDX 22 34 23 35 24 36 25 37 77 38 26 39 76 40 27 41 28 42 29 43
REMARK SMILES IDX 70 44 30 45 75 46 69 47 71 48 31 49 74 50 68 51 67 52 32 54
REMARK SMILES IDX 58 55 41 56 57 57 42 58 45 59 56 60 72 61 43 62 44 63 55 65
REMARK SMILES IDX 73 66 46 67 33 68 34 69 39 70 35 71 36 72 38 73 40 74 37 75
REMARK SMILES IDX 59 76 60 77 65 78 61 79 62 80 64 81 66 82 63 83 47 84 48 85
REMARK SMILES IDX 53 86 49 87 50 88 52 89 54 90 51 91
REMARK H PARENT 13 15 71 53 45 64
REMARK Flexibility Score: inf
ROOT
ATOM      1  C   UNL A   1      34.610  29.682  27.435  1.00  0.00     0.275 C 
ENDROOT
BRANCH   1   2
ATOM      2  O   UNL A   1      33.895  29.224  26.275  1.00  0.00    -0.458 OA
BRANCH   2   3
ATOM      3  C   UNL A   1      32.796  28.442  26.504  1.00  0.00     0.341 C 
ATOM      4  O   UNL A   1      31.802  28.805  27.126  1.00  0.00    -0.246 OA
BRANCH   3   5
ATOM      5  C   UNL A   1      32.899  27.143  25.853  1.00  0.00     0.102 A 
ATOM      6  C   UNL A   1      31.693  24.279  23.802  1.00  0.00     0.078 C 
ATOM      7  C   UNL A   1      30.189  24.605  23.856  1.00  0.00     0.115 C 
ATOM      8  C   UNL A   1      32.462  25.254  24.658  1.00  0.00     0.055 A 
ATOM      9  C   UNL A   1      29.850  26.081  23.951  1.00  0.00     0.225 C 
ATOM     10  C   UNL A   1      31.945  26.462  25.069  1.00  0.00     0.078 A 
ATOM     11  N   UNL A   1      33.771  25.193  25.114  1.00  0.00    -0.317 N 
ATOM     12  O   UNL A   1      28.803  26.536  23.493  1.00  0.00    -0.275 OA
ATOM     13  N   UNL A   1      30.696  26.873  24.676  1.00  0.00    -0.324 N 
ATOM     14  C   UNL A   1      33.987  26.284  25.934  1.00  0.00     0.109 A 
ATOM     15  H   UNL A   1      30.397  27.777  24.926  1.00  0.00     0.170 HD
BRANCH   6  16
ATOM     16  C   UNL A   1      31.872  22.782  24.060  1.00  0.00    -0.038 A 
ATOM     17  C   UNL A   1      32.513  20.055  24.438  1.00  0.00     0.060 A 
ATOM     18  C   UNL A   1      32.508  20.606  23.154  1.00  0.00     0.016 A 
ATOM     19  C   UNL A   1      32.097  20.841  25.518  1.00  0.00     0.016 A 
ATOM     20  C   UNL A   1      32.199  21.956  22.969  1.00  0.00     0.005 A 
ATOM     21  C   UNL A   1      31.740  22.182  25.320  1.00  0.00     0.005 A 
BRANCH  17  22
ATOM     22  C   UNL A   1      33.015  18.663  24.597  1.00  0.00     0.337 C 
ATOM     23  O   UNL A   1      34.067  18.271  24.117  1.00  0.00    -0.246 OA
BRANCH  22  24
ATOM     24  O   UNL A   1      32.177  17.928  25.370  1.00  0.00    -0.465 OA
ATOM     25  C   UNL A   1      32.516  16.542  25.438  1.00  0.00     0.282 C 
ENDBRANCH  22  24
ENDBRANCH  17  22
ENDBRANCH   6  16
BRANCH  11  26
ATOM     26  C   UNL A   1      34.749  24.216  24.818  1.00  0.00     0.045 A 
ATOM     27  C   UNL A   1      35.162  24.028  23.495  1.00  0.00     0.026 A 
ATOM     28  C   UNL A   1      35.238  23.394  25.841  1.00  0.00     0.026 A 
ATOM     29  C   UNL A   1      36.035  22.985  23.189  1.00  0.00     0.002 A 
ATOM     30  C   UNL A   1      36.078  22.327  25.517  1.00  0.00     0.002 A 
ATOM     31  C   UNL A   1      36.472  22.123  24.193  1.00  0.00     0.000 A 
ENDBRANCH  11  26
ENDBRANCH   3   5
ENDBRANCH   2   3
ENDBRANCH   1   2
BRANCH   1  32
ATOM     32  C   UNL A   1      34.460  31.186  27.629  1.00  0.00     0.275 C 
BRANCH  32  33
ATOM     33  O   UNL A   1      35.593  31.730  28.304  1.00  0.00    -0.458 OA
BRANCH  33  34
ATOM     34  C   UNL A   1      35.496  31.772  29.651  1.00  0.00     0.338 C 
ATOM     35  O   UNL A   1      34.694  32.405  30.316  1.00  0.00    -0.246 OA
BRANCH  34  36
ATOM     36  C   UNL A   1      36.663  31.103  30.230  1.00  0.00     0.060 A 
ATOM     37  C   UNL A   1      37.864  31.817  30.258  1.00  0.00     0.016 A 
ATOM     38  C   UNL A   1      36.615  29.716  30.431  1.00  0.00     0.016 A 
ATOM     39  C   UNL A   1      39.045  31.109  30.302  1.00  0.00     0.010 A 
ATOM     40  C   UNL A   1      37.791  29.011  30.452  1.00  0.00     0.010 A 
ATOM     41  C   UNL A   1      38.986  29.711  30.309  1.00  0.00    -0.014 A 
BRANCH  41  42
ATOM     42  C   UNL A   1      40.225  28.968  30.258  1.00  0.00     0.031 A 
ATOM     43  C   UNL A   1      40.847  28.792  31.590  1.00  0.00     0.074 A 
ATOM     44  C   UNL A   1      40.641  28.371  29.125  1.00  0.00     0.049 A 
ATOM     45  N   UNL A   1      41.994  29.221  31.999  1.00  0.00    -0.248 NA
ATOM     46  C   UNL A   1      40.012  28.202  32.652  1.00  0.00     0.031 C 
ATOM     47  C   UNL A   1      39.924  28.246  27.852  1.00  0.00     0.029 A 
ATOM     48  N   UNL A   1      41.768  27.643  28.911  1.00  0.00    -0.354 N 
ATOM     49  C   UNL A   1      42.112  28.769  33.309  1.00  0.00     0.074 A 
ATOM     50  C   UNL A   1      40.804  28.334  33.714  1.00  0.00     0.031 C 
ATOM     51  C   UNL A   1      40.529  27.305  27.090  1.00  0.00     0.029 A 
ATOM     52  C   UNL A   1      41.735  26.860  27.764  1.00  0.00     0.049 A 
ATOM     53  H   UNL A   1      42.542  27.668  29.518  1.00  0.00     0.167 HD
ATOM     54  C   UNL A   1      43.330  28.529  33.860  1.00  0.00     0.037 A 
ATOM     55  C   UNL A   1      42.605  25.867  27.454  1.00  0.00     0.037 A 
ATOM     56  C   UNL A   1      44.369  29.227  33.147  1.00  0.00     0.049 A 
ATOM     57  C   UNL A   1      43.808  26.045  28.307  1.00  0.00     0.074 A 
ATOM     58  C   UNL A   1      44.642  30.554  32.877  1.00  0.00     0.029 A 
ATOM     59  N   UNL A   1      45.134  28.502  32.267  1.00  0.00    -0.354 N 
ATOM     60  N   UNL A   1      44.648  27.034  28.182  1.00  0.00    -0.248 NA
ATOM     61  C   UNL A   1      43.825  25.373  29.599  1.00  0.00     0.031 C 
ATOM     62  C   UNL A   1      45.184  30.562  31.559  1.00  0.00     0.029 A 
ATOM     63  C   UNL A   1      45.261  29.239  31.120  1.00  0.00     0.049 A 
ATOM     64  H   UNL A   1      45.521  27.612  32.431  1.00  0.00     0.167 HD
ATOM     65  C   UNL A   1      44.984  27.382  29.484  1.00  0.00     0.074 A 
ATOM     66  C   UNL A   1      44.518  26.269  30.307  1.00  0.00     0.031 C 
ATOM     67  C   UNL A   1      45.342  28.662  29.797  1.00  0.00     0.037 A 
BRANCH  54  68
ATOM     68  C   UNL A   1      43.617  27.351  34.763  1.00  0.00     0.057 A 
ATOM     69  C   UNL A   1      43.504  26.053  34.237  1.00  0.00     0.134 A 
ATOM     70  C   UNL A   1      43.694  27.419  36.170  1.00  0.00     0.134 A 
ATOM     71  F   UNL A   1      43.416  25.851  32.913  1.00  0.00    -0.206 F 
ATOM     72  C   UNL A   1      43.384  24.922  35.051  1.00  0.00     0.040 A 
ATOM     73  C   UNL A   1      43.629  26.291  36.991  1.00  0.00     0.040 A 
ATOM     74  F   UNL A   1      43.736  28.576  36.842  1.00  0.00    -0.206 F 
ATOM     75  C   UNL A   1      43.435  25.039  36.434  1.00  0.00     0.006 A 
ENDBRANCH  54  68
BRANCH  55  76
ATOM     76  C   UNL A   1      42.339  24.607  26.721  1.00  0.00     0.057 A 
ATOM     77  C   UNL A   1      43.107  24.238  25.608  1.00  0.00     0.134 A 
ATOM     78  C   UNL A   1      41.506  23.609  27.255  1.00  0.00     0.134 A 
ATOM     79  F   UNL A   1      43.965  25.107  25.056  1.00  0.00    -0.206 F 
ATOM     80  C   UNL A   1      43.061  22.945  25.067  1.00  0.00     0.040 A 
ATOM     81  C   UNL A   1      41.446  22.317  26.722  1.00  0.00     0.040 A 
ATOM     82  F   UNL A   1      40.790  23.824  28.368  1.00  0.00    -0.206 F 
ATOM     83  C   UNL A   1      42.235  21.977  25.631  1.00  0.00     0.006 A 
ENDBRANCH  55  76
BRANCH  67  84
ATOM     84  C   UNL A   1      45.605  29.611  28.660  1.00  0.00     0.057 A 
ATOM     85  C   UNL A   1      46.831  29.704  27.984  1.00  0.00     0.134 A 
ATOM     86  C   UNL A   1      44.538  30.346  28.136  1.00  0.00     0.134 A 
ATOM     87  F   UNL A   1      47.882  28.960  28.349  1.00  0.00    -0.206 F 
ATOM     88  C   UNL A   1      46.998  30.525  26.864  1.00  0.00     0.040 A 
ATOM     89  C   UNL A   1      44.681  31.144  26.998  1.00  0.00     0.040 A 
ATOM     90  F   UNL A   1      43.321  30.261  28.695  1.00  0.00    -0.206 F 
ATOM     91  C   UNL A   1      45.916  31.245  26.365  1.00  0.00     0.006 A 
ENDBRANCH  67  84
ENDBRANCH  41  42
ENDBRANCH  34  36
ENDBRANCH  33  34
ENDBRANCH  32  33
ENDBRANCH   1  32
TORSDOF 15
ENDMDL
