MODEL 1
REMARK VINA RESULT:      -9.8      0.000      0.000
REMARK SMILES O=C(OCCOC(=O)c1ccc(-c2c3nc(c(-c4c(F)cccc4F)c4ccc([nH]4)c(-c4c(F)cccc4F)c4nc(c(-c5c(F)cccc5F)c5ccc2[nH]5)C=C4)C=C3)cc1)C1=NN(c2ccc([N+](=O)[O-])cc2)[C@H](c2ccccc2)C1
REMARK SMILES IDX 4 1 3 2 2 3 1 4 63 5 64 6 82 7 65 8 75 9 66 10 67 11 74 12
REMARK SMILES IDX 68 13 73 14 69 15 70 16 71 17 72 18 76 19 77 20 81 21 78 22
REMARK SMILES IDX 80 23 79 24 5 25 6 26 7 27 8 28 9 29 10 30 62 31 11 32 61 33
REMARK SMILES IDX 12 34 13 35 14 36 55 37 15 38 60 39 54 40 56 41 16 42 59 43
REMARK SMILES IDX 53 44 52 45 17 47 43 48 26 49 42 50 27 51 30 52 41 53 57 54
REMARK SMILES IDX 28 55 29 56 40 58 58 59 31 60 18 61 19 62 24 63 20 64 21 65
REMARK SMILES IDX 23 66 25 67 22 68 44 69 45 70 50 71 46 72 47 73 49 74 51 75
REMARK SMILES IDX 48 76 32 77 33 78 38 79 34 80 35 81 37 82 39 83 36 84
REMARK H PARENT 56 46 30 57
REMARK Flexibility Score: inf
ROOT
ATOM      1  C   UNL A   1      32.797  36.220  31.815  1.00  0.00     0.275 C 
ENDROOT
BRANCH   1   2
ATOM      2  O   UNL A   1      33.791  35.730  32.738  1.00  0.00    -0.458 OA
BRANCH   2   3
ATOM      3  C   UNL A   1      33.975  34.456  33.102  1.00  0.00     0.354 C 
ATOM      4  O   UNL A   1      33.047  33.654  33.128  1.00  0.00    -0.245 OA
BRANCH   3   5
ATOM      5  C   UNL A   1      35.339  33.923  33.512  1.00  0.00     0.148 C 
ATOM      6  N   UNL A   1      35.670  32.672  33.588  1.00  0.00    -0.169 NA
ATOM      7  C   UNL A   1      36.432  34.906  33.809  1.00  0.00     0.098 C 
ATOM      8  N   UNL A   1      36.932  32.628  34.089  1.00  0.00    -0.257 N 
ATOM      9  C   UNL A   1      37.519  33.958  34.320  1.00  0.00     0.144 C 
BRANCH   8  10
ATOM     10  C   UNL A   1      37.727  31.505  33.868  1.00  0.00     0.061 A 
ATOM     11  C   UNL A   1      37.245  30.401  33.157  1.00  0.00     0.035 A 
ATOM     12  C   UNL A   1      39.041  31.446  34.345  1.00  0.00     0.035 A 
ATOM     13  C   UNL A   1      38.060  29.311  32.837  1.00  0.00     0.088 A 
ATOM     14  C   UNL A   1      39.869  30.352  34.067  1.00  0.00     0.088 A 
ATOM     15  C   UNL A   1      39.380  29.296  33.291  1.00  0.00     0.269 A 
BRANCH  15  16
ATOM     16  N   UNL A   1      40.251  28.163  32.961  1.00  0.00     0.062 N 
ATOM     17  O   UNL A   1      39.846  27.355  32.113  1.00  0.00    -0.258 OA
ATOM     18  O   UNL A   1      41.341  28.085  33.544  1.00  0.00    -0.258 OA
ENDBRANCH  15  16
ENDBRANCH   8  10
BRANCH   9  19
ATOM     19  C   UNL A   1      37.891  34.129  35.781  1.00  0.00    -0.023 A 
ATOM     20  C   UNL A   1      37.264  33.413  36.814  1.00  0.00     0.006 A 
ATOM     21  C   UNL A   1      38.969  34.968  36.111  1.00  0.00     0.006 A 
ATOM     22  C   UNL A   1      37.706  33.533  38.132  1.00  0.00     0.000 A 
ATOM     23  C   UNL A   1      39.432  35.057  37.423  1.00  0.00     0.000 A 
ATOM     24  C   UNL A   1      38.799  34.340  38.434  1.00  0.00     0.000 A 
ENDBRANCH   9  19
ENDBRANCH   3   5
ENDBRANCH   2   3
ENDBRANCH   1   2
BRANCH   1  25
ATOM     25  C   UNL A   1      33.153  35.916  30.357  1.00  0.00     0.275 C 
BRANCH  25  26
ATOM     26  O   UNL A   1      32.621  34.654  29.920  1.00  0.00    -0.458 OA
BRANCH  26  27
ATOM     27  C   UNL A   1      33.129  34.142  28.769  1.00  0.00     0.338 C 
ATOM     28  O   UNL A   1      32.652  34.237  27.653  1.00  0.00    -0.246 OA
BRANCH  27  29
ATOM     29  C   UNL A   1      34.476  33.590  29.057  1.00  0.00     0.060 A 
ATOM     30  C   UNL A   1      35.593  34.101  28.390  1.00  0.00     0.016 A 
ATOM     31  C   UNL A   1      34.650  32.605  30.030  1.00  0.00     0.016 A 
ATOM     32  C   UNL A   1      36.875  33.620  28.700  1.00  0.00     0.010 A 
ATOM     33  C   UNL A   1      35.929  32.197  30.407  1.00  0.00     0.010 A 
ATOM     34  C   UNL A   1      37.055  32.659  29.706  1.00  0.00    -0.014 A 
BRANCH  34  35
ATOM     35  C   UNL A   1      38.377  32.007  29.923  1.00  0.00     0.031 A 
ATOM     36  C   UNL A   1      39.406  32.707  30.780  1.00  0.00     0.074 A 
ATOM     37  C   UNL A   1      38.689  30.822  29.365  1.00  0.00     0.049 A 
ATOM     38  N   UNL A   1      40.588  32.292  31.166  1.00  0.00    -0.248 NA
ATOM     39  C   UNL A   1      39.073  34.065  31.241  1.00  0.00     0.031 C 
ATOM     40  C   UNL A   1      37.838  30.050  28.460  1.00  0.00     0.029 A 
ATOM     41  N   UNL A   1      39.825  30.056  29.485  1.00  0.00    -0.354 N 
ATOM     42  C   UNL A   1      41.128  33.335  31.907  1.00  0.00     0.074 A 
ATOM     43  C   UNL A   1      40.193  34.433  31.841  1.00  0.00     0.031 C 
ATOM     44  C   UNL A   1      38.474  28.913  28.123  1.00  0.00     0.029 A 
ATOM     45  C   UNL A   1      39.773  28.870  28.793  1.00  0.00     0.049 A 
ATOM     46  H   UNL A   1      40.606  30.334  30.018  1.00  0.00     0.167 HD
ATOM     47  C   UNL A   1      42.274  33.371  32.629  1.00  0.00     0.037 A 
ATOM     48  C   UNL A   1      40.658  27.856  28.731  1.00  0.00     0.037 A 
ATOM     49  C   UNL A   1      43.200  32.280  32.738  1.00  0.00     0.049 A 
ATOM     50  C   UNL A   1      41.931  27.912  29.540  1.00  0.00     0.074 A 
ATOM     51  C   UNL A   1      44.341  32.192  33.516  1.00  0.00     0.029 A 
ATOM     52  N   UNL A   1      43.094  31.089  32.040  1.00  0.00    -0.354 N 
ATOM     53  N   UNL A   1      42.358  28.847  30.352  1.00  0.00    -0.248 NA
ATOM     54  C   UNL A   1      42.831  26.751  29.439  1.00  0.00     0.031 C 
ATOM     55  C   UNL A   1      44.949  30.958  33.258  1.00  0.00     0.029 A 
ATOM     56  C   UNL A   1      44.162  30.266  32.352  1.00  0.00     0.049 A 
ATOM     57  H   UNL A   1      42.367  30.861  31.416  1.00  0.00     0.167 HD
ATOM     58  C   UNL A   1      43.544  28.365  30.898  1.00  0.00     0.074 A 
ATOM     59  C   UNL A   1      43.770  27.056  30.323  1.00  0.00     0.031 C 
ATOM     60  C   UNL A   1      44.366  28.952  31.802  1.00  0.00     0.037 A 
BRANCH  47  61
ATOM     61  C   UNL A   1      42.562  34.636  33.380  1.00  0.00     0.057 A 
ATOM     62  C   UNL A   1      43.093  35.765  32.740  1.00  0.00     0.134 A 
ATOM     63  C   UNL A   1      42.314  34.728  34.754  1.00  0.00     0.134 A 
ATOM     64  F   UNL A   1      43.370  35.732  31.427  1.00  0.00    -0.206 F 
ATOM     65  C   UNL A   1      43.403  36.927  33.446  1.00  0.00     0.040 A 
ATOM     66  C   UNL A   1      42.591  35.895  35.466  1.00  0.00     0.040 A 
ATOM     67  F   UNL A   1      41.802  33.686  35.427  1.00  0.00    -0.206 F 
ATOM     68  C   UNL A   1      43.148  36.996  34.813  1.00  0.00     0.006 A 
ENDBRANCH  47  61
BRANCH  48  69
ATOM     69  C   UNL A   1      40.357  26.644  27.926  1.00  0.00     0.057 A 
ATOM     70  C   UNL A   1      40.881  26.494  26.634  1.00  0.00     0.134 A 
ATOM     71  C   UNL A   1      39.495  25.647  28.393  1.00  0.00     0.134 A 
ATOM     72  F   UNL A   1      41.692  27.431  26.123  1.00  0.00    -0.206 F 
ATOM     73  C   UNL A   1      40.532  25.412  25.825  1.00  0.00     0.040 A 
ATOM     74  C   UNL A   1      39.155  24.548  27.601  1.00  0.00     0.040 A 
ATOM     75  F   UNL A   1      38.961  25.734  29.619  1.00  0.00    -0.206 F 
ATOM     76  C   UNL A   1      39.667  24.433  26.309  1.00  0.00     0.006 A 
ENDBRANCH  48  69
BRANCH  60  77
ATOM     77  C   UNL A   1      45.555  28.169  32.281  1.00  0.00     0.057 A 
ATOM     78  C   UNL A   1      46.816  28.291  31.685  1.00  0.00     0.134 A 
ATOM     79  C   UNL A   1      45.444  27.323  33.391  1.00  0.00     0.134 A 
ATOM     80  F   UNL A   1      46.988  29.078  30.611  1.00  0.00    -0.206 F 
ATOM     81  C   UNL A   1      47.921  27.584  32.164  1.00  0.00     0.040 A 
ATOM     82  C   UNL A   1      46.546  26.629  33.895  1.00  0.00     0.040 A 
ATOM     83  F   UNL A   1      44.268  27.168  34.017  1.00  0.00    -0.206 F 
ATOM     84  C   UNL A   1      47.788  26.755  33.277  1.00  0.00     0.006 A 
ENDBRANCH  60  77
ENDBRANCH  34  35
ENDBRANCH  27  29
ENDBRANCH  26  27
ENDBRANCH  25  26
ENDBRANCH   1  25
TORSDOF 14
ENDMDL
MODEL 2
REMARK VINA RESULT:      -9.7      0.809      6.344
REMARK SMILES O=C(OCCOC(=O)c1ccc(-c2c3nc(c(-c4c(F)cccc4F)c4ccc([nH]4)c(-c4c(F)cccc4F)c4nc(c(-c5c(F)cccc5F)c5ccc2[nH]5)C=C4)C=C3)cc1)C1=NN(c2ccc([N+](=O)[O-])cc2)[C@H](c2ccccc2)C1
REMARK SMILES IDX 4 1 3 2 2 3 1 4 63 5 64 6 82 7 65 8 75 9 66 10 67 11 74 12
REMARK SMILES IDX 68 13 73 14 69 15 70 16 71 17 72 18 76 19 77 20 81 21 78 22
REMARK SMILES IDX 80 23 79 24 5 25 6 26 7 27 8 28 9 29 10 30 62 31 11 32 61 33
REMARK SMILES IDX 12 34 13 35 14 36 55 37 15 38 60 39 54 40 56 41 16 42 59 43
REMARK SMILES IDX 53 44 52 45 17 47 43 48 26 49 42 50 27 51 30 52 41 53 57 54
REMARK SMILES IDX 28 55 29 56 40 58 58 59 31 60 18 61 19 62 24 63 20 64 21 65
REMARK SMILES IDX 23 66 25 67 22 68 44 69 45 70 50 71 46 72 47 73 49 74 51 75
REMARK SMILES IDX 48 76 32 77 33 78 38 79 34 80 35 81 37 82 39 83 36 84
REMARK H PARENT 56 46 30 57
REMARK Flexibility Score: inf
ROOT
ATOM      1  C   UNL A   1      32.668  35.778  32.100  1.00  0.00     0.275 C 
ENDROOT
BRANCH   1   2
ATOM      2  O   UNL A   1      33.854  35.333  32.788  1.00  0.00    -0.458 OA
BRANCH   2   3
ATOM      3  C   UNL A   1      34.101  34.093  33.223  1.00  0.00     0.354 C 
ATOM      4  O   UNL A   1      33.216  33.246  33.286  1.00  0.00    -0.245 OA
BRANCH   3   5
ATOM      5  C   UNL A   1      35.487  33.657  33.673  1.00  0.00     0.148 C 
ATOM      6  N   UNL A   1      35.938  32.442  33.658  1.00  0.00    -0.169 NA
ATOM      7  C   UNL A   1      36.455  34.707  34.128  1.00  0.00     0.098 C 
ATOM      8  N   UNL A   1      37.167  32.470  34.235  1.00  0.00    -0.257 N 
ATOM      9  C   UNL A   1      37.602  33.822  34.623  1.00  0.00     0.144 C 
BRANCH   8  10
ATOM     10  C   UNL A   1      38.083  31.455  33.968  1.00  0.00     0.061 A 
ATOM     11  C   UNL A   1      39.374  31.480  34.508  1.00  0.00     0.035 A 
ATOM     12  C   UNL A   1      37.741  30.370  33.154  1.00  0.00     0.035 A 
ATOM     13  C   UNL A   1      40.270  30.421  34.335  1.00  0.00     0.088 A 
ATOM     14  C   UNL A   1      38.631  29.311  32.938  1.00  0.00     0.088 A 
ATOM     15  C   UNL A   1      39.888  29.330  33.552  1.00  0.00     0.269 A 
BRANCH  15  16
ATOM     16  N   UNL A   1      40.813  28.208  33.364  1.00  0.00     0.062 N 
ATOM     17  O   UNL A   1      41.483  28.183  32.321  1.00  0.00    -0.258 OA
ATOM     18  O   UNL A   1      40.876  27.356  34.261  1.00  0.00    -0.258 OA
ENDBRANCH  15  16
ENDBRANCH   8  10
BRANCH   9  19
ATOM     19  C   UNL A   1      37.871  33.887  36.115  1.00  0.00    -0.023 A 
ATOM     20  C   UNL A   1      37.108  33.178  37.057  1.00  0.00     0.006 A 
ATOM     21  C   UNL A   1      38.986  34.612  36.570  1.00  0.00     0.006 A 
ATOM     22  C   UNL A   1      37.453  33.193  38.409  1.00  0.00     0.000 A 
ATOM     23  C   UNL A   1      39.351  34.594  37.916  1.00  0.00     0.000 A 
ATOM     24  C   UNL A   1      38.583  33.886  38.836  1.00  0.00     0.000 A 
ENDBRANCH   9  19
ENDBRANCH   3   5
ENDBRANCH   2   3
ENDBRANCH   1   2
BRANCH   1  25
ATOM     25  C   UNL A   1      32.857  35.827  30.581  1.00  0.00     0.275 C 
BRANCH  25  26
ATOM     26  O   UNL A   1      32.526  34.579  29.951  1.00  0.00    -0.458 OA
BRANCH  26  27
ATOM     27  C   UNL A   1      33.149  34.301  28.777  1.00  0.00     0.338 C 
ATOM     28  O   UNL A   1      32.772  34.604  27.660  1.00  0.00    -0.246 OA
BRANCH  27  29
ATOM     29  C   UNL A   1      34.479  33.717  29.079  1.00  0.00     0.060 A 
ATOM     30  C   UNL A   1      34.590  32.699  30.030  1.00  0.00     0.016 A 
ATOM     31  C   UNL A   1      35.615  34.132  28.383  1.00  0.00     0.016 A 
ATOM     32  C   UNL A   1      35.838  32.105  30.278  1.00  0.00     0.010 A 
ATOM     33  C   UNL A   1      36.834  33.478  28.559  1.00  0.00     0.010 A 
ATOM     34  C   UNL A   1      36.973  32.494  29.550  1.00  0.00    -0.014 A 
BRANCH  34  35
ATOM     35  C   UNL A   1      38.332  32.009  29.923  1.00  0.00     0.031 A 
ATOM     36  C   UNL A   1      38.798  30.667  29.404  1.00  0.00     0.074 A 
ATOM     37  C   UNL A   1      39.151  32.721  30.719  1.00  0.00     0.049 A 
ATOM     38  N   UNL A   1      39.964  30.085  29.536  1.00  0.00    -0.248 NA
ATOM     39  C   UNL A   1      37.812  29.862  28.664  1.00  0.00     0.031 C 
ATOM     40  C   UNL A   1      38.830  33.998  31.356  1.00  0.00     0.029 A 
ATOM     41  N   UNL A   1      40.437  32.460  31.130  1.00  0.00    -0.354 N 
ATOM     42  C   UNL A   1      39.844  28.856  28.899  1.00  0.00     0.074 A 
ATOM     43  C   UNL A   1      38.472  28.735  28.465  1.00  0.00     0.031 C 
ATOM     44  C   UNL A   1      39.897  34.418  32.060  1.00  0.00     0.029 A 
ATOM     45  C   UNL A   1      40.981  33.446  31.919  1.00  0.00     0.049 A 
ATOM     46  H   UNL A   1      40.925  31.641  30.882  1.00  0.00     0.167 HD
ATOM     47  C   UNL A   1      40.795  27.926  28.644  1.00  0.00     0.037 A 
ATOM     48  C   UNL A   1      42.217  33.563  32.442  1.00  0.00     0.037 A 
ATOM     49  C   UNL A   1      42.171  28.042  29.036  1.00  0.00     0.049 A 
ATOM     50  C   UNL A   1      43.264  32.517  32.149  1.00  0.00     0.074 A 
ATOM     51  C   UNL A   1      43.224  27.193  28.745  1.00  0.00     0.029 A 
ATOM     52  N   UNL A   1      42.682  29.069  29.811  1.00  0.00    -0.354 N 
ATOM     53  N   UNL A   1      43.173  31.431  31.421  1.00  0.00    -0.248 NA
ATOM     54  C   UNL A   1      44.598  32.734  32.734  1.00  0.00     0.031 C 
ATOM     55  C   UNL A   1      44.369  27.688  29.379  1.00  0.00     0.029 A 
ATOM     56  C   UNL A   1      44.033  28.864  30.028  1.00  0.00     0.049 A 
ATOM     57  H   UNL A   1      42.162  29.830  30.155  1.00  0.00     0.167 HD
ATOM     58  C   UNL A   1      44.446  30.868  31.417  1.00  0.00     0.074 A 
ATOM     59  C   UNL A   1      45.290  31.729  32.216  1.00  0.00     0.031 C 
ATOM     60  C   UNL A   1      44.876  29.741  30.798  1.00  0.00     0.037 A 
BRANCH  47  61
ATOM     61  C   UNL A   1      40.366  26.712  27.875  1.00  0.00     0.057 A 
ATOM     62  C   UNL A   1      39.579  25.712  28.462  1.00  0.00     0.134 A 
ATOM     63  C   UNL A   1      40.745  26.537  26.539  1.00  0.00     0.134 A 
ATOM     64  F   UNL A   1      39.199  25.813  29.745  1.00  0.00    -0.206 F 
ATOM     65  C   UNL A   1      39.217  24.562  27.761  1.00  0.00     0.040 A 
ATOM     66  C   UNL A   1      40.365  25.405  25.818  1.00  0.00     0.040 A 
ATOM     67  F   UNL A   1      41.495  27.460  25.916  1.00  0.00    -0.206 F 
ATOM     68  C   UNL A   1      39.607  24.408  26.433  1.00  0.00     0.006 A 
ENDBRANCH  47  61
BRANCH  48  69
ATOM     69  C   UNL A   1      42.582  34.756  33.249  1.00  0.00     0.057 A 
ATOM     70  C   UNL A   1      42.350  34.785  34.631  1.00  0.00     0.134 A 
ATOM     71  C   UNL A   1      43.102  35.912  32.657  1.00  0.00     0.134 A 
ATOM     72  F   UNL A   1      41.828  33.715  35.248  1.00  0.00    -0.206 F 
ATOM     73  C   UNL A   1      42.595  35.929  35.390  1.00  0.00     0.040 A 
ATOM     74  C   UNL A   1      43.371  37.057  33.409  1.00  0.00     0.040 A 
ATOM     75  F   UNL A   1      43.344  35.948  31.339  1.00  0.00    -0.206 F 
ATOM     76  C   UNL A   1      43.108  37.071  34.779  1.00  0.00     0.006 A 
ENDBRANCH  48  69
BRANCH  60  77
ATOM     77  C   UNL A   1      46.335  29.399  30.899  1.00  0.00     0.057 A 
ATOM     78  C   UNL A   1      46.838  28.574  31.913  1.00  0.00     0.134 A 
ATOM     79  C   UNL A   1      47.238  29.858  29.933  1.00  0.00     0.134 A 
ATOM     80  F   UNL A   1      46.026  28.108  32.876  1.00  0.00    -0.206 F 
ATOM     81  C   UNL A   1      48.191  28.235  31.974  1.00  0.00     0.040 A 
ATOM     82  C   UNL A   1      48.589  29.507  29.968  1.00  0.00     0.040 A 
ATOM     83  F   UNL A   1      46.822  30.643  28.927  1.00  0.00    -0.206 F 
ATOM     84  C   UNL A   1      49.069  28.697  30.995  1.00  0.00     0.006 A 
ENDBRANCH  60  77
ENDBRANCH  34  35
ENDBRANCH  27  29
ENDBRANCH  26  27
ENDBRANCH  25  26
ENDBRANCH   1  25
TORSDOF 14
ENDMDL
MODEL 3
REMARK VINA RESULT:      -9.7      4.688     11.498
REMARK SMILES O=C(OCCOC(=O)c1ccc(-c2c3nc(c(-c4c(F)cccc4F)c4ccc([nH]4)c(-c4c(F)cccc4F)c4nc(c(-c5c(F)cccc5F)c5ccc2[nH]5)C=C4)C=C3)cc1)C1=NN(c2ccc([N+](=O)[O-])cc2)[C@H](c2ccccc2)C1
REMARK SMILES IDX 4 1 3 2 2 3 1 4 63 5 64 6 82 7 65 8 75 9 66 10 67 11 74 12
REMARK SMILES IDX 68 13 73 14 69 15 70 16 71 17 72 18 76 19 77 20 81 21 78 22
REMARK SMILES IDX 80 23 79 24 5 25 6 26 7 27 8 28 9 29 10 30 62 31 11 32 61 33
REMARK SMILES IDX 12 34 13 35 14 36 55 37 15 38 60 39 54 40 56 41 16 42 59 43
REMARK SMILES IDX 53 44 52 45 17 47 43 48 26 49 42 50 27 51 30 52 41 53 57 54
REMARK SMILES IDX 28 55 29 56 40 58 58 59 31 60 18 61 19 62 24 63 20 64 21 65
REMARK SMILES IDX 23 66 25 67 22 68 44 69 45 70 50 71 46 72 47 73 49 74 51 75
REMARK SMILES IDX 48 76 32 77 33 78 38 79 34 80 35 81 37 82 39 83 36 84
REMARK H PARENT 56 46 30 57
REMARK Flexibility Score: inf
ROOT
ATOM      1  C   UNL A   1      45.391  19.191  24.622  1.00  0.00     0.275 C 
ENDROOT
BRANCH   1   2
ATOM      2  O   UNL A   1      45.814  20.544  24.884  1.00  0.00    -0.458 OA
BRANCH   2   3
ATOM      3  C   UNL A   1      45.379  21.645  24.263  1.00  0.00     0.354 C 
ATOM      4  O   UNL A   1      44.700  21.583  23.243  1.00  0.00    -0.245 OA
BRANCH   3   5
ATOM      5  C   UNL A   1      45.701  23.041  24.775  1.00  0.00     0.148 C 
ATOM      6  N   UNL A   1      44.983  24.103  24.579  1.00  0.00    -0.169 NA
ATOM      7  C   UNL A   1      46.919  23.227  25.629  1.00  0.00     0.098 C 
ATOM      8  N   UNL A   1      45.671  25.148  25.106  1.00  0.00    -0.257 N 
ATOM      9  C   UNL A   1      46.931  24.752  25.758  1.00  0.00     0.144 C 
BRANCH   8  10
ATOM     10  C   UNL A   1      44.997  26.313  25.464  1.00  0.00     0.061 A 
ATOM     11  C   UNL A   1      43.643  26.493  25.157  1.00  0.00     0.035 A 
ATOM     12  C   UNL A   1      45.650  27.344  26.149  1.00  0.00     0.035 A 
ATOM     13  C   UNL A   1      42.925  27.609  25.598  1.00  0.00     0.088 A 
ATOM     14  C   UNL A   1      44.962  28.487  26.573  1.00  0.00     0.088 A 
ATOM     15  C   UNL A   1      43.592  28.603  26.316  1.00  0.00     0.269 A 
BRANCH  15  16
ATOM     16  N   UNL A   1      42.854  29.778  26.790  1.00  0.00     0.062 N 
ATOM     17  O   UNL A   1      41.616  29.742  26.731  1.00  0.00    -0.258 OA
ATOM     18  O   UNL A   1      43.510  30.735  27.227  1.00  0.00    -0.258 OA
ENDBRANCH  15  16
ENDBRANCH   8  10
BRANCH   9  19
ATOM     19  C   UNL A   1      48.110  25.448  25.104  1.00  0.00    -0.023 A 
ATOM     20  C   UNL A   1      48.057  25.973  23.803  1.00  0.00     0.006 A 
ATOM     21  C   UNL A   1      49.276  25.658  25.861  1.00  0.00     0.006 A 
ATOM     22  C   UNL A   1      49.134  26.689  23.280  1.00  0.00     0.000 A 
ATOM     23  C   UNL A   1      50.336  26.405  25.349  1.00  0.00     0.000 A 
ATOM     24  C   UNL A   1      50.266  26.919  24.058  1.00  0.00     0.000 A 
ENDBRANCH   9  19
ENDBRANCH   3   5
ENDBRANCH   2   3
ENDBRANCH   1   2
BRANCH   1  25
ATOM     25  C   UNL A   1      44.120  18.816  25.389  1.00  0.00     0.275 C 
BRANCH  25  26
ATOM     26  O   UNL A   1      42.972  19.548  24.929  1.00  0.00    -0.458 OA
BRANCH  26  27
ATOM     27  C   UNL A   1      41.938  19.675  25.800  1.00  0.00     0.338 C 
ATOM     28  O   UNL A   1      41.151  18.807  26.132  1.00  0.00    -0.246 OA
BRANCH  27  29
ATOM     29  C   UNL A   1      42.022  21.012  26.436  1.00  0.00     0.060 A 
ATOM     30  C   UNL A   1      42.161  22.152  25.640  1.00  0.00     0.016 A 
ATOM     31  C   UNL A   1      41.905  21.152  27.820  1.00  0.00     0.016 A 
ATOM     32  C   UNL A   1      42.185  23.424  26.235  1.00  0.00     0.010 A 
ATOM     33  C   UNL A   1      41.832  22.418  28.402  1.00  0.00     0.010 A 
ATOM     34  C   UNL A   1      42.027  23.568  27.622  1.00  0.00    -0.014 A 
BRANCH  34  35
ATOM     35  C   UNL A   1      42.231  24.885  28.288  1.00  0.00     0.031 A 
ATOM     36  C   UNL A   1      43.613  25.250  28.781  1.00  0.00     0.074 A 
ATOM     37  C   UNL A   1      41.220  25.754  28.478  1.00  0.00     0.049 A 
ATOM     38  N   UNL A   1      44.036  26.369  29.316  1.00  0.00    -0.248 NA
ATOM     39  C   UNL A   1      44.649  24.208  28.685  1.00  0.00     0.031 C 
ATOM     40  C   UNL A   1      39.819  25.528  28.124  1.00  0.00     0.029 A 
ATOM     41  N   UNL A   1      41.225  27.016  29.025  1.00  0.00    -0.354 N 
ATOM     42  C   UNL A   1      45.376  26.158  29.615  1.00  0.00     0.074 A 
ATOM     43  C   UNL A   1      45.672  24.782  29.293  1.00  0.00     0.031 C 
ATOM     44  C   UNL A   1      39.104  26.623  28.445  1.00  0.00     0.029 A 
ATOM     45  C   UNL A   1      39.996  27.630  29.019  1.00  0.00     0.049 A 
ATOM     46  H   UNL A   1      42.036  27.441  29.388  1.00  0.00     0.167 HD
ATOM     47  C   UNL A   1      46.302  27.037  30.069  1.00  0.00     0.037 A 
ATOM     48  C   UNL A   1      39.637  28.871  29.404  1.00  0.00     0.037 A 
ATOM     49  C   UNL A   1      46.038  28.416  30.362  1.00  0.00     0.049 A 
ATOM     50  C   UNL A   1      40.681  29.837  29.908  1.00  0.00     0.074 A 
ATOM     51  C   UNL A   1      46.930  29.404  30.741  1.00  0.00     0.029 A 
ATOM     52  N   UNL A   1      44.784  29.002  30.318  1.00  0.00    -0.354 N 
ATOM     53  N   UNL A   1      41.973  29.666  30.048  1.00  0.00    -0.248 NA
ATOM     54  C   UNL A   1      40.212  31.182  30.282  1.00  0.00     0.031 C 
ATOM     55  C   UNL A   1      46.208  30.581  30.964  1.00  0.00     0.029 A 
ATOM     56  C   UNL A   1      44.874  30.333  30.684  1.00  0.00     0.049 A 
ATOM     57  H   UNL A   1      43.953  28.539  30.063  1.00  0.00     0.167 HD
ATOM     58  C   UNL A   1      42.476  30.892  30.473  1.00  0.00     0.074 A 
ATOM     59  C   UNL A   1      41.351  31.797  30.570  1.00  0.00     0.031 C 
ATOM     60  C   UNL A   1      43.757  31.238  30.748  1.00  0.00     0.037 A 
BRANCH  47  61
ATOM     61  C   UNL A   1      47.699  26.519  30.243  1.00  0.00     0.057 A 
ATOM     62  C   UNL A   1      48.084  25.820  31.395  1.00  0.00     0.134 A 
ATOM     63  C   UNL A   1      48.669  26.726  29.255  1.00  0.00     0.134 A 
ATOM     64  F   UNL A   1      47.204  25.606  32.385  1.00  0.00    -0.206 F 
ATOM     65  C   UNL A   1      49.394  25.376  31.576  1.00  0.00     0.040 A 
ATOM     66  C   UNL A   1      49.975  26.262  29.413  1.00  0.00     0.040 A 
ATOM     67  F   UNL A   1      48.365  27.385  28.127  1.00  0.00    -0.206 F 
ATOM     68  C   UNL A   1      50.343  25.594  30.581  1.00  0.00     0.006 A 
ENDBRANCH  47  61
BRANCH  48  69
ATOM     69  C   UNL A   1      38.228  29.322  29.269  1.00  0.00     0.057 A 
ATOM     70  C   UNL A   1      37.736  29.775  28.037  1.00  0.00     0.134 A 
ATOM     71  C   UNL A   1      37.366  29.375  30.369  1.00  0.00     0.134 A 
ATOM     72  F   UNL A   1      38.527  29.771  26.954  1.00  0.00    -0.206 F 
ATOM     73  C   UNL A   1      36.447  30.294  27.911  1.00  0.00     0.040 A 
ATOM     74  C   UNL A   1      36.066  29.873  30.251  1.00  0.00     0.040 A 
ATOM     75  F   UNL A   1      37.778  28.958  31.574  1.00  0.00    -0.206 F 
ATOM     76  C   UNL A   1      35.607  30.344  29.021  1.00  0.00     0.006 A 
ENDBRANCH  48  69
BRANCH  60  77
ATOM     77  C   UNL A   1      44.034  32.667  31.120  1.00  0.00     0.057 A 
ATOM     78  C   UNL A   1      44.304  33.647  30.158  1.00  0.00     0.134 A 
ATOM     79  C   UNL A   1      43.972  33.074  32.459  1.00  0.00     0.134 A 
ATOM     80  F   UNL A   1      44.386  33.321  28.859  1.00  0.00    -0.206 F 
ATOM     81  C   UNL A   1      44.523  34.979  30.516  1.00  0.00     0.040 A 
ATOM     82  C   UNL A   1      44.164  34.407  32.827  1.00  0.00     0.040 A 
ATOM     83  F   UNL A   1      43.707  32.188  33.431  1.00  0.00    -0.206 F 
ATOM     84  C   UNL A   1      44.446  35.362  31.854  1.00  0.00     0.006 A 
ENDBRANCH  60  77
ENDBRANCH  34  35
ENDBRANCH  27  29
ENDBRANCH  26  27
ENDBRANCH  25  26
ENDBRANCH   1  25
TORSDOF 14
ENDMDL
