MODEL 1
REMARK VINA RESULT:     -12.5      0.000      0.000
REMARK SMILES O=C(OCCOC(=O)[C@H]1CC=CC[C@@H]1C(=O)Nc1ccccc1C(=O)NCc1ccco1)c1ccc(-c2c3nc(c(-c4c(F)cccc4F)c4ccc([nH]4)c(-c4c(F)cccc4F)c4nc(c(-c5c(F)cccc5F)c5ccc2[nH]5)C=C4)C=C3)cc1
REMARK SMILES IDX 6 1 5 2 4 3 3 4 2 5 1 6 33 7 34 8 86 9 35 10 85 11 36 12
REMARK SMILES IDX 37 13 38 14 79 15 39 16 84 17 78 18 80 19 40 20 83 21 77 22
REMARK SMILES IDX 76 23 41 25 67 26 50 27 66 28 51 29 54 30 65 31 81 32 52 33
REMARK SMILES IDX 53 34 64 36 82 37 55 38 42 39 43 40 48 41 44 42 45 43 47 44
REMARK SMILES IDX 49 45 46 46 68 47 69 48 74 49 70 50 71 51 73 52 75 53 72 54
REMARK SMILES IDX 56 55 57 56 62 57 58 58 59 59 61 60 63 61 60 62 7 63 8 64
REMARK SMILES IDX 9 65 10 66 14 67 11 68 13 69 12 70 15 71 16 72 17 73 18 75
REMARK SMILES IDX 19 76 23 77 20 78 22 79 21 80 24 81 25 82 26 83 27 85 28 86
REMARK SMILES IDX 29 87 32 88 30 89 31 90
REMARK H PARENT 80 24 54 35 17 74 26 84
REMARK Flexibility Score: inf
ROOT
ATOM      1  O   UNL A   1      32.363  29.707  27.206  1.00  0.00    -0.462 OA
ENDROOT
BRANCH   1   2
ATOM      2  C   UNL A   1      32.582  30.922  26.490  1.00  0.00     0.274 C 
BRANCH   2   3
ATOM      3  C   UNL A   1      31.611  32.015  26.927  1.00  0.00     0.275 C 
BRANCH   3   4
ATOM      4  O   UNL A   1      32.199  33.327  27.028  1.00  0.00    -0.458 OA
BRANCH   4   5
ATOM      5  C   UNL A   1      32.963  33.903  27.986  1.00  0.00     0.338 C 
ATOM      6  O   UNL A   1      32.623  35.005  28.417  1.00  0.00    -0.246 OA
BRANCH   5   7
ATOM      7  C   UNL A   1      34.262  33.348  28.494  1.00  0.00     0.060 A 
ATOM      8  C   UNL A   1      35.535  33.624  27.991  1.00  0.00     0.016 A 
ATOM      9  C   UNL A   1      34.176  32.458  29.585  1.00  0.00     0.016 A 
ATOM     10  C   UNL A   1      36.688  33.101  28.594  1.00  0.00     0.010 A 
ATOM     11  C   UNL A   1      35.325  31.941  30.200  1.00  0.00     0.010 A 
ATOM     12  C   UNL A   1      36.597  32.270  29.712  1.00  0.00    -0.014 A 
BRANCH  12  13
ATOM     13  C   UNL A   1      37.816  31.658  30.295  1.00  0.00     0.031 A 
ATOM     14  C   UNL A   1      38.281  32.128  31.628  1.00  0.00     0.074 A 
ATOM     15  C   UNL A   1      38.474  30.649  29.691  1.00  0.00     0.049 A 
ATOM     16  N   UNL A   1      39.210  31.605  32.380  1.00  0.00    -0.248 NA
ATOM     17  C   UNL A   1      37.550  33.246  32.243  1.00  0.00     0.031 C 
ATOM     18  C   UNL A   1      37.999  29.936  28.525  1.00  0.00     0.029 A 
ATOM     19  N   UNL A   1      39.680  30.047  29.942  1.00  0.00    -0.354 N 
ATOM     20  C   UNL A   1      39.091  32.243  33.600  1.00  0.00     0.074 A 
ATOM     21  C   UNL A   1      38.088  33.276  33.453  1.00  0.00     0.031 C 
ATOM     22  C   UNL A   1      38.967  29.166  28.012  1.00  0.00     0.029 A 
ATOM     23  C   UNL A   1      40.088  29.206  28.928  1.00  0.00     0.049 A 
ATOM     24  H   UNL A   1      40.201  30.200  30.763  1.00  0.00     0.167 HD
ATOM     25  C   UNL A   1      39.717  31.924  34.753  1.00  0.00     0.037 A 
ATOM     26  C   UNL A   1      41.206  28.476  28.782  1.00  0.00     0.037 A 
ATOM     27  C   UNL A   1      40.764  30.941  34.844  1.00  0.00     0.049 A 
ATOM     28  C   UNL A   1      42.044  28.306  30.007  1.00  0.00     0.074 A 
ATOM     29  C   UNL A   1      41.524  30.588  35.943  1.00  0.00     0.029 A 
ATOM     30  N   UNL A   1      41.220  30.173  33.777  1.00  0.00    -0.354 N 
ATOM     31  N   UNL A   1      41.878  28.857  31.185  1.00  0.00    -0.248 NA
ATOM     32  C   UNL A   1      43.136  27.333  29.937  1.00  0.00     0.031 C 
ATOM     33  C   UNL A   1      42.480  29.655  35.525  1.00  0.00     0.029 A 
ATOM     34  C   UNL A   1      42.283  29.382  34.181  1.00  0.00     0.049 A 
ATOM     35  H   UNL A   1      40.842  30.190  32.868  1.00  0.00     0.167 HD
ATOM     36  C   UNL A   1      42.798  28.252  32.018  1.00  0.00     0.074 A 
ATOM     37  C   UNL A   1      43.518  27.288  31.206  1.00  0.00     0.031 C 
ATOM     38  C   UNL A   1      43.009  28.457  33.341  1.00  0.00     0.037 A 
BRANCH  25  39
ATOM     39  C   UNL A   1      39.271  32.666  35.972  1.00  0.00     0.057 A 
ATOM     40  C   UNL A   1      39.818  33.914  36.308  1.00  0.00     0.134 A 
ATOM     41  C   UNL A   1      38.327  32.116  36.843  1.00  0.00     0.134 A 
ATOM     42  F   UNL A   1      40.752  34.481  35.527  1.00  0.00    -0.206 F 
ATOM     43  C   UNL A   1      39.457  34.577  37.481  1.00  0.00     0.040 A 
ATOM     44  C   UNL A   1      37.943  32.779  38.010  1.00  0.00     0.040 A 
ATOM     45  F   UNL A   1      37.779  30.920  36.586  1.00  0.00    -0.206 F 
ATOM     46  C   UNL A   1      38.514  34.010  38.335  1.00  0.00     0.006 A 
ENDBRANCH  25  39
BRANCH  26  47
ATOM     47  C   UNL A   1      41.492  27.756  27.514  1.00  0.00     0.057 A 
ATOM     48  C   UNL A   1      41.050  26.449  27.281  1.00  0.00     0.134 A 
ATOM     49  C   UNL A   1      42.232  28.371  26.495  1.00  0.00     0.134 A 
ATOM     50  F   UNL A   1      40.329  25.805  28.210  1.00  0.00    -0.206 F 
ATOM     51  C   UNL A   1      41.370  25.764  26.105  1.00  0.00     0.040 A 
ATOM     52  C   UNL A   1      42.543  27.705  25.306  1.00  0.00     0.040 A 
ATOM     53  F   UNL A   1      42.672  29.630  26.641  1.00  0.00    -0.206 F 
ATOM     54  C   UNL A   1      42.121  26.391  25.114  1.00  0.00     0.006 A 
ENDBRANCH  26  47
BRANCH  38  55
ATOM     55  C   UNL A   1      44.084  27.627  33.969  1.00  0.00     0.057 A 
ATOM     56  C   UNL A   1      45.417  28.058  34.000  1.00  0.00     0.134 A 
ATOM     57  C   UNL A   1      43.786  26.385  34.541  1.00  0.00     0.134 A 
ATOM     58  F   UNL A   1      45.766  29.229  33.448  1.00  0.00    -0.206 F 
ATOM     59  C   UNL A   1      46.423  27.263  34.545  1.00  0.00     0.040 A 
ATOM     60  C   UNL A   1      44.778  25.598  35.121  1.00  0.00     0.040 A 
ATOM     61  F   UNL A   1      42.528  25.917  34.545  1.00  0.00    -0.206 F 
ATOM     62  C   UNL A   1      46.103  26.032  35.114  1.00  0.00     0.006 A 
ENDBRANCH  38  55
ENDBRANCH  12  13
ENDBRANCH   5   7
ENDBRANCH   4   5
ENDBRANCH   3   4
ENDBRANCH   2   3
ENDBRANCH   1   2
BRANCH   1  63
ATOM     63  C   UNL A   1      33.197  28.673  26.921  1.00  0.00     0.310 C 
ATOM     64  O   UNL A   1      34.409  28.787  26.756  1.00  0.00    -0.252 OA
BRANCH  63  65
ATOM     65  C   UNL A   1      32.468  27.344  26.922  1.00  0.00     0.116 C 
ATOM     66  C   UNL A   1      31.014  27.463  26.481  1.00  0.00     0.043 C 
ATOM     67  C   UNL A   1      33.199  26.318  26.054  1.00  0.00     0.097 C 
ATOM     68  C   UNL A   1      30.779  27.405  25.000  1.00  0.00    -0.030 C 
ATOM     69  C   UNL A   1      33.118  26.718  24.567  1.00  0.00     0.041 C 
ATOM     70  C   UNL A   1      31.738  27.086  24.127  1.00  0.00    -0.030 C 
BRANCH  67  71
ATOM     71  C   UNL A   1      32.646  24.910  26.314  1.00  0.00     0.228 C 
ATOM     72  O   UNL A   1      31.724  24.679  27.100  1.00  0.00    -0.274 OA
ATOM     73  N   UNL A   1      33.189  23.834  25.671  1.00  0.00    -0.325 N 
ATOM     74  H   UNL A   1      32.682  22.992  25.732  1.00  0.00     0.169 HD
BRANCH  73  75
ATOM     75  C   UNL A   1      34.377  23.788  24.937  1.00  0.00     0.054 A 
ATOM     76  C   UNL A   1      35.493  24.132  25.727  1.00  0.00     0.027 A 
ATOM     77  C   UNL A   1      34.539  23.218  23.661  1.00  0.00     0.063 A 
ATOM     78  C   UNL A   1      36.761  23.680  25.384  1.00  0.00     0.002 A 
ATOM     79  C   UNL A   1      35.839  22.747  23.362  1.00  0.00     0.016 A 
ATOM     80  C   UNL A   1      36.923  22.936  24.227  1.00  0.00     0.001 A 
BRANCH  77  81
ATOM     81  C   UNL A   1      33.542  23.027  22.532  1.00  0.00     0.253 C 
ATOM     82  O   UNL A   1      33.778  23.600  21.461  1.00  0.00    -0.269 OA
ATOM     83  N   UNL A   1      32.361  22.323  22.547  1.00  0.00    -0.345 N 
ATOM     84  H   UNL A   1      31.788  22.512  21.768  1.00  0.00     0.164 HD
BRANCH  83  85
ATOM     85  C   UNL A   1      31.780  21.369  23.460  1.00  0.00     0.191 C 
BRANCH  85  86
ATOM     86  C   UNL A   1      32.568  20.136  23.653  1.00  0.00     0.122 A 
ATOM     87  C   UNL A   1      33.592  19.722  24.477  1.00  0.00     0.047 A 
ATOM     88  O   UNL A   1      32.119  19.077  22.913  1.00  0.00    -0.467 OA
ATOM     89  C   UNL A   1      33.768  18.335  24.225  1.00  0.00     0.042 A 
ATOM     90  C   UNL A   1      32.842  17.993  23.270  1.00  0.00     0.195 A 
ENDBRANCH  85  86
ENDBRANCH  83  85
ENDBRANCH  77  81
ENDBRANCH  73  75
ENDBRANCH  67  71
ENDBRANCH  63  65
ENDBRANCH   1  63
TORSDOF 16
ENDMDL
MODEL 2
REMARK VINA RESULT:     -12.4      4.233      9.360
REMARK SMILES O=C(OCCOC(=O)[C@H]1CC=CC[C@@H]1C(=O)Nc1ccccc1C(=O)NCc1ccco1)c1ccc(-c2c3nc(c(-c4c(F)cccc4F)c4ccc([nH]4)c(-c4c(F)cccc4F)c4nc(c(-c5c(F)cccc5F)c5ccc2[nH]5)C=C4)C=C3)cc1
REMARK SMILES IDX 6 1 5 2 4 3 3 4 2 5 1 6 33 7 34 8 86 9 35 10 85 11 36 12
REMARK SMILES IDX 37 13 38 14 79 15 39 16 84 17 78 18 80 19 40 20 83 21 77 22
REMARK SMILES IDX 76 23 41 25 67 26 50 27 66 28 51 29 54 30 65 31 81 32 52 33
REMARK SMILES IDX 53 34 64 36 82 37 55 38 42 39 43 40 48 41 44 42 45 43 47 44
REMARK SMILES IDX 49 45 46 46 68 47 69 48 74 49 70 50 71 51 73 52 75 53 72 54
REMARK SMILES IDX 56 55 57 56 62 57 58 58 59 59 61 60 63 61 60 62 7 63 8 64
REMARK SMILES IDX 9 65 10 66 14 67 11 68 13 69 12 70 15 71 16 72 17 73 18 75
REMARK SMILES IDX 19 76 23 77 20 78 22 79 21 80 24 81 25 82 26 83 27 85 28 86
REMARK SMILES IDX 29 87 32 88 30 89 31 90
REMARK H PARENT 80 24 54 35 17 74 26 84
REMARK Flexibility Score: inf
ROOT
ATOM      1  O   UNL A   1      36.966  21.490  25.289  1.00  0.00    -0.462 OA
ENDROOT
BRANCH   1   2
ATOM      2  C   UNL A   1      38.341  21.133  25.431  1.00  0.00     0.274 C 
BRANCH   2   3
ATOM      3  C   UNL A   1      38.589  19.682  25.029  1.00  0.00     0.275 C 
BRANCH   3   4
ATOM      4  O   UNL A   1      39.709  19.064  25.695  1.00  0.00    -0.458 OA
BRANCH   4   5
ATOM      5  C   UNL A   1      40.972  19.492  25.924  1.00  0.00     0.338 C 
ATOM      6  O   UNL A   1      41.899  18.711  25.710  1.00  0.00    -0.246 OA
BRANCH   5   7
ATOM      7  C   UNL A   1      41.330  20.821  26.523  1.00  0.00     0.060 A 
ATOM      8  C   UNL A   1      41.149  21.206  27.853  1.00  0.00     0.016 A 
ATOM      9  C   UNL A   1      41.901  21.768  25.647  1.00  0.00     0.016 A 
ATOM     10  C   UNL A   1      41.589  22.455  28.318  1.00  0.00     0.010 A 
ATOM     11  C   UNL A   1      42.353  23.012  26.107  1.00  0.00     0.010 A 
ATOM     12  C   UNL A   1      42.209  23.361  27.456  1.00  0.00    -0.014 A 
BRANCH  12  13
ATOM     13  C   UNL A   1      42.600  24.709  27.938  1.00  0.00     0.031 A 
ATOM     14  C   UNL A   1      44.039  24.981  28.202  1.00  0.00     0.074 A 
ATOM     15  C   UNL A   1      41.708  25.709  28.080  1.00  0.00     0.049 A 
ATOM     16  N   UNL A   1      44.601  26.131  28.456  1.00  0.00    -0.248 NA
ATOM     17  C   UNL A   1      44.977  23.858  28.059  1.00  0.00     0.031 C 
ATOM     18  C   UNL A   1      40.334  25.657  27.631  1.00  0.00     0.029 A 
ATOM     19  N   UNL A   1      41.794  26.954  28.646  1.00  0.00    -0.354 N 
ATOM     20  C   UNL A   1      45.960  25.896  28.375  1.00  0.00     0.074 A 
ATOM     21  C   UNL A   1      46.143  24.474  28.176  1.00  0.00     0.031 C 
ATOM     22  C   UNL A   1      39.634  26.687  28.124  1.00  0.00     0.029 A 
ATOM     23  C   UNL A   1      40.569  27.571  28.791  1.00  0.00     0.049 A 
ATOM     24  H   UNL A   1      42.644  27.367  28.921  1.00  0.00     0.167 HD
ATOM     25  C   UNL A   1      46.950  26.814  28.390  1.00  0.00     0.037 A 
ATOM     26  C   UNL A   1      40.234  28.757  29.325  1.00  0.00     0.037 A 
ATOM     27  C   UNL A   1      46.736  28.210  28.666  1.00  0.00     0.049 A 
ATOM     28  C   UNL A   1      41.359  29.709  29.569  1.00  0.00     0.074 A 
ATOM     29  C   UNL A   1      47.672  29.220  28.784  1.00  0.00     0.029 A 
ATOM     30  N   UNL A   1      45.492  28.786  28.903  1.00  0.00    -0.354 N 
ATOM     31  N   UNL A   1      42.644  29.499  29.416  1.00  0.00    -0.248 NA
ATOM     32  C   UNL A   1      41.002  31.082  29.931  1.00  0.00     0.031 C 
ATOM     33  C   UNL A   1      47.000  30.392  29.153  1.00  0.00     0.029 A 
ATOM     34  C   UNL A   1      45.640  30.128  29.212  1.00  0.00     0.049 A 
ATOM     35  H   UNL A   1      44.631  28.309  28.857  1.00  0.00     0.167 HD
ATOM     36  C   UNL A   1      43.250  30.727  29.596  1.00  0.00     0.074 A 
ATOM     37  C   UNL A   1      42.185  31.676  29.867  1.00  0.00     0.031 C 
ATOM     38  C   UNL A   1      44.565  31.044  29.517  1.00  0.00     0.037 A 
BRANCH  25  39
ATOM     39  C   UNL A   1      48.326  26.303  28.106  1.00  0.00     0.057 A 
ATOM     40  C   UNL A   1      48.852  26.304  26.805  1.00  0.00     0.134 A 
ATOM     41  C   UNL A   1      49.115  25.760  29.124  1.00  0.00     0.134 A 
ATOM     42  F   UNL A   1      48.131  26.783  25.779  1.00  0.00    -0.206 F 
ATOM     43  C   UNL A   1      50.107  25.762  26.525  1.00  0.00     0.040 A 
ATOM     44  C   UNL A   1      50.380  25.233  28.859  1.00  0.00     0.040 A 
ATOM     45  F   UNL A   1      48.663  25.715  30.386  1.00  0.00    -0.206 F 
ATOM     46  C   UNL A   1      50.876  25.226  27.555  1.00  0.00     0.006 A 
ENDBRANCH  25  39
BRANCH  26  47
ATOM     47  C   UNL A   1      38.810  29.142  29.506  1.00  0.00     0.057 A 
ATOM     48  C   UNL A   1      38.155  29.026  30.737  1.00  0.00     0.134 A 
ATOM     49  C   UNL A   1      38.061  29.636  28.428  1.00  0.00     0.134 A 
ATOM     50  F   UNL A   1      38.815  28.568  31.811  1.00  0.00    -0.206 F 
ATOM     51  C   UNL A   1      36.801  29.342  30.882  1.00  0.00     0.040 A 
ATOM     52  C   UNL A   1      36.712  29.973  28.563  1.00  0.00     0.040 A 
ATOM     53  F   UNL A   1      38.628  29.791  27.223  1.00  0.00    -0.206 F 
ATOM     54  C   UNL A   1      36.075  29.815  29.792  1.00  0.00     0.006 A 
ENDBRANCH  26  47
BRANCH  38  55
ATOM     55  C   UNL A   1      44.907  32.481  29.754  1.00  0.00     0.057 A 
ATOM     56  C   UNL A   1      45.210  32.960  31.035  1.00  0.00     0.134 A 
ATOM     57  C   UNL A   1      44.929  33.395  28.694  1.00  0.00     0.134 A 
ATOM     58  F   UNL A   1      45.183  32.135  32.093  1.00  0.00    -0.206 F 
ATOM     59  C   UNL A   1      45.484  34.307  31.260  1.00  0.00     0.040 A 
ATOM     60  C   UNL A   1      45.238  34.738  28.902  1.00  0.00     0.040 A 
ATOM     61  F   UNL A   1      44.651  32.998  27.442  1.00  0.00    -0.206 F 
ATOM     62  C   UNL A   1      45.505  35.199  30.190  1.00  0.00     0.006 A 
ENDBRANCH  38  55
ENDBRANCH  12  13
ENDBRANCH   5   7
ENDBRANCH   4   5
ENDBRANCH   3   4
ENDBRANCH   2   3
ENDBRANCH   1   2
BRANCH   1  63
ATOM     63  C   UNL A   1      36.643  22.784  25.550  1.00  0.00     0.310 C 
ATOM     64  O   UNL A   1      37.050  23.417  26.521  1.00  0.00    -0.252 OA
BRANCH  63  65
ATOM     65  C   UNL A   1      35.789  23.384  24.450  1.00  0.00     0.116 C 
ATOM     66  C   UNL A   1      35.056  22.333  23.625  1.00  0.00     0.043 C 
ATOM     67  C   UNL A   1      34.793  24.395  25.021  1.00  0.00     0.097 C 
ATOM     68  C   UNL A   1      33.736  21.881  24.177  1.00  0.00    -0.030 C 
ATOM     69  C   UNL A   1      33.734  23.678  25.881  1.00  0.00     0.041 C 
ATOM     70  C   UNL A   1      33.143  22.478  25.214  1.00  0.00    -0.030 C 
BRANCH  67  71
ATOM     71  C   UNL A   1      34.168  25.224  23.889  1.00  0.00     0.228 C 
ATOM     72  O   UNL A   1      34.493  25.106  22.705  1.00  0.00    -0.274 OA
ATOM     73  N   UNL A   1      33.213  26.157  24.174  1.00  0.00    -0.325 N 
ATOM     74  H   UNL A   1      32.720  26.522  23.404  1.00  0.00     0.169 HD
BRANCH  73  75
ATOM     75  C   UNL A   1      32.852  26.653  25.430  1.00  0.00     0.054 A 
ATOM     76  C   UNL A   1      33.861  27.471  25.978  1.00  0.00     0.027 A 
ATOM     77  C   UNL A   1      31.566  26.609  25.998  1.00  0.00     0.063 A 
ATOM     78  C   UNL A   1      33.543  28.441  26.921  1.00  0.00     0.002 A 
ATOM     79  C   UNL A   1      31.273  27.629  26.932  1.00  0.00     0.016 A 
ATOM     80  C   UNL A   1      32.233  28.557  27.355  1.00  0.00     0.001 A 
BRANCH  77  81
ATOM     81  C   UNL A   1      30.424  25.631  25.779  1.00  0.00     0.253 C 
ATOM     82  O   UNL A   1      29.941  25.089  26.780  1.00  0.00    -0.269 OA
ATOM     83  N   UNL A   1      29.867  25.223  24.591  1.00  0.00    -0.345 N 
ATOM     84  H   UNL A   1      29.283  24.435  24.688  1.00  0.00     0.164 HD
BRANCH  83  85
ATOM     85  C   UNL A   1      29.954  25.699  23.232  1.00  0.00     0.191 C 
BRANCH  85  86
ATOM     86  C   UNL A   1      29.937  27.168  23.088  1.00  0.00     0.122 A 
ATOM     87  C   UNL A   1      29.073  28.195  23.404  1.00  0.00     0.047 A 
ATOM     88  O   UNL A   1      31.114  27.687  22.622  1.00  0.00    -0.467 OA
ATOM     89  C   UNL A   1      29.768  29.400  23.118  1.00  0.00     0.042 A 
ATOM     90  C   UNL A   1      31.007  29.034  22.651  1.00  0.00     0.195 A 
ENDBRANCH  85  86
ENDBRANCH  83  85
ENDBRANCH  77  81
ENDBRANCH  73  75
ENDBRANCH  67  71
ENDBRANCH  63  65
ENDBRANCH   1  63
TORSDOF 16
ENDMDL
MODEL 3
REMARK VINA RESULT:     -12.3      0.709      1.751
REMARK SMILES O=C(OCCOC(=O)[C@H]1CC=CC[C@@H]1C(=O)Nc1ccccc1C(=O)NCc1ccco1)c1ccc(-c2c3nc(c(-c4c(F)cccc4F)c4ccc([nH]4)c(-c4c(F)cccc4F)c4nc(c(-c5c(F)cccc5F)c5ccc2[nH]5)C=C4)C=C3)cc1
REMARK SMILES IDX 6 1 5 2 4 3 3 4 2 5 1 6 33 7 34 8 86 9 35 10 85 11 36 12
REMARK SMILES IDX 37 13 38 14 79 15 39 16 84 17 78 18 80 19 40 20 83 21 77 22
REMARK SMILES IDX 76 23 41 25 67 26 50 27 66 28 51 29 54 30 65 31 81 32 52 33
REMARK SMILES IDX 53 34 64 36 82 37 55 38 42 39 43 40 48 41 44 42 45 43 47 44
REMARK SMILES IDX 49 45 46 46 68 47 69 48 74 49 70 50 71 51 73 52 75 53 72 54
REMARK SMILES IDX 56 55 57 56 62 57 58 58 59 59 61 60 63 61 60 62 7 63 8 64
REMARK SMILES IDX 9 65 10 66 14 67 11 68 13 69 12 70 15 71 16 72 17 73 18 75
REMARK SMILES IDX 19 76 23 77 20 78 22 79 21 80 24 81 25 82 26 83 27 85 28 86
REMARK SMILES IDX 29 87 32 88 30 89 31 90
REMARK H PARENT 80 24 54 35 17 74 26 84
REMARK Flexibility Score: inf
ROOT
ATOM      1  O   UNL A   1      32.416  30.287  26.101  1.00  0.00    -0.462 OA
ENDROOT
BRANCH   1   2
ATOM      2  C   UNL A   1      32.378  31.198  27.200  1.00  0.00     0.274 C 
BRANCH   2   3
ATOM      3  C   UNL A   1      32.124  32.629  26.735  1.00  0.00     0.275 C 
BRANCH   3   4
ATOM      4  O   UNL A   1      32.155  33.611  27.790  1.00  0.00    -0.458 OA
BRANCH   4   5
ATOM      5  C   UNL A   1      33.175  34.297  28.357  1.00  0.00     0.338 C 
ATOM      6  O   UNL A   1      33.100  35.525  28.397  1.00  0.00    -0.246 OA
BRANCH   5   7
ATOM      7  C   UNL A   1      34.451  33.680  28.852  1.00  0.00     0.060 A 
ATOM      8  C   UNL A   1      35.745  34.011  28.444  1.00  0.00     0.016 A 
ATOM      9  C   UNL A   1      34.318  32.664  29.821  1.00  0.00     0.016 A 
ATOM     10  C   UNL A   1      36.871  33.415  29.031  1.00  0.00     0.010 A 
ATOM     11  C   UNL A   1      35.439  32.071  30.420  1.00  0.00     0.010 A 
ATOM     12  C   UNL A   1      36.731  32.454  30.034  1.00  0.00    -0.014 A 
BRANCH  12  13
ATOM     13  C   UNL A   1      37.924  31.771  30.592  1.00  0.00     0.031 A 
ATOM     14  C   UNL A   1      38.426  32.195  31.928  1.00  0.00     0.074 A 
ATOM     15  C   UNL A   1      38.524  30.741  29.964  1.00  0.00     0.049 A 
ATOM     16  N   UNL A   1      39.336  31.613  32.660  1.00  0.00    -0.248 NA
ATOM     17  C   UNL A   1      37.759  33.338  32.569  1.00  0.00     0.031 C 
ATOM     18  C   UNL A   1      38.001  30.073  28.793  1.00  0.00     0.029 A 
ATOM     19  N   UNL A   1      39.700  30.075  30.191  1.00  0.00    -0.354 N 
ATOM     20  C   UNL A   1      39.262  32.235  33.892  1.00  0.00     0.074 A 
ATOM     21  C   UNL A   1      38.311  33.320  33.773  1.00  0.00     0.031 C 
ATOM     22  C   UNL A   1      38.923  29.264  28.255  1.00  0.00     0.029 A 
ATOM     23  C   UNL A   1      40.055  29.232  29.159  1.00  0.00     0.049 A 
ATOM     24  H   UNL A   1      40.237  30.187  31.009  1.00  0.00     0.167 HD
ATOM     25  C   UNL A   1      39.884  31.866  35.032  1.00  0.00     0.037 A 
ATOM     26  C   UNL A   1      41.133  28.449  28.988  1.00  0.00     0.037 A 
ATOM     27  C   UNL A   1      40.881  30.830  35.094  1.00  0.00     0.049 A 
ATOM     28  C   UNL A   1      41.974  28.216  30.200  1.00  0.00     0.074 A 
ATOM     29  C   UNL A   1      41.634  30.420  36.178  1.00  0.00     0.029 A 
ATOM     30  N   UNL A   1      41.286  30.058  34.010  1.00  0.00    -0.354 N 
ATOM     31  N   UNL A   1      41.848  28.756  31.389  1.00  0.00    -0.248 NA
ATOM     32  C   UNL A   1      43.015  27.192  30.101  1.00  0.00     0.031 C 
ATOM     33  C   UNL A   1      42.537  29.448  35.735  1.00  0.00     0.029 A 
ATOM     34  C   UNL A   1      42.312  29.208  34.388  1.00  0.00     0.049 A 
ATOM     35  H   UNL A   1      40.900  30.109  33.105  1.00  0.00     0.167 HD
ATOM     36  C   UNL A   1      42.746  28.091  32.201  1.00  0.00     0.074 A 
ATOM     37  C   UNL A   1      43.408  27.106  31.365  1.00  0.00     0.031 C 
ATOM     38  C   UNL A   1      42.981  28.263  33.525  1.00  0.00     0.037 A 
BRANCH  25  39
ATOM     39  C   UNL A   1      39.489  32.609  36.268  1.00  0.00     0.057 A 
ATOM     40  C   UNL A   1      38.427  32.172  37.074  1.00  0.00     0.134 A 
ATOM     41  C   UNL A   1      40.135  33.793  36.632  1.00  0.00     0.134 A 
ATOM     42  F   UNL A   1      37.746  31.058  36.760  1.00  0.00    -0.206 F 
ATOM     43  C   UNL A   1      38.008  32.901  38.188  1.00  0.00     0.040 A 
ATOM     44  C   UNL A   1      39.738  34.521  37.754  1.00  0.00     0.040 A 
ATOM     45  F   UNL A   1      41.146  34.272  35.893  1.00  0.00    -0.206 F 
ATOM     46  C   UNL A   1      38.667  34.079  38.532  1.00  0.00     0.006 A 
ENDBRANCH  25  39
BRANCH  26  47
ATOM     47  C   UNL A   1      41.368  27.737  27.705  1.00  0.00     0.057 A 
ATOM     48  C   UNL A   1      42.068  28.321  26.644  1.00  0.00     0.134 A 
ATOM     49  C   UNL A   1      40.882  26.437  27.510  1.00  0.00     0.134 A 
ATOM     50  F   UNL A   1      42.569  29.559  26.767  1.00  0.00    -0.206 F 
ATOM     51  C   UNL A   1      42.238  27.661  25.424  1.00  0.00     0.040 A 
ATOM     52  C   UNL A   1      41.060  25.758  26.302  1.00  0.00     0.040 A 
ATOM     53  F   UNL A   1      40.217  25.807  28.490  1.00  0.00    -0.206 F 
ATOM     54  C   UNL A   1      41.730  26.376  25.249  1.00  0.00     0.006 A 
ENDBRANCH  26  47
BRANCH  38  55
ATOM     55  C   UNL A   1      44.020  27.369  34.126  1.00  0.00     0.057 A 
ATOM     56  C   UNL A   1      43.684  26.125  34.678  1.00  0.00     0.134 A 
ATOM     57  C   UNL A   1      45.364  27.755  34.159  1.00  0.00     0.134 A 
ATOM     58  F   UNL A   1      42.408  25.711  34.695  1.00  0.00    -0.206 F 
ATOM     59  C   UNL A   1      44.645  25.314  35.277  1.00  0.00     0.040 A 
ATOM     60  C   UNL A   1      46.340  26.936  34.723  1.00  0.00     0.040 A 
ATOM     61  F   UNL A   1      45.750  28.933  33.644  1.00  0.00    -0.206 F 
ATOM     62  C   UNL A   1      45.979  25.717  35.295  1.00  0.00     0.006 A 
ENDBRANCH  38  55
ENDBRANCH  12  13
ENDBRANCH   5   7
ENDBRANCH   4   5
ENDBRANCH   3   4
ENDBRANCH   2   3
ENDBRANCH   1   2
BRANCH   1  63
ATOM     63  C   UNL A   1      33.257  29.227  26.217  1.00  0.00     0.310 C 
ATOM     64  O   UNL A   1      34.479  29.319  26.308  1.00  0.00    -0.252 OA
BRANCH  63  65
ATOM     65  C   UNL A   1      32.502  27.916  26.314  1.00  0.00     0.116 C 
ATOM     66  C   UNL A   1      31.101  27.992  25.717  1.00  0.00     0.043 C 
ATOM     67  C   UNL A   1      33.292  26.780  25.661  1.00  0.00     0.097 C 
ATOM     68  C   UNL A   1      31.012  27.745  24.240  1.00  0.00    -0.030 C 
ATOM     69  C   UNL A   1      33.366  26.986  24.136  1.00  0.00     0.041 C 
ATOM     70  C   UNL A   1      32.045  27.308  23.516  1.00  0.00    -0.030 C 
BRANCH  67  71
ATOM     71  C   UNL A   1      32.685  25.422  26.042  1.00  0.00     0.228 C 
ATOM     72  O   UNL A   1      31.772  25.294  26.861  1.00  0.00    -0.274 OA
ATOM     73  N   UNL A   1      33.165  24.277  25.475  1.00  0.00    -0.325 N 
ATOM     74  H   UNL A   1      32.625  23.466  25.612  1.00  0.00     0.169 HD
BRANCH  73  75
ATOM     75  C   UNL A   1      34.333  24.121  24.723  1.00  0.00     0.054 A 
ATOM     76  C   UNL A   1      35.489  24.258  25.519  1.00  0.00     0.027 A 
ATOM     77  C   UNL A   1      34.412  23.621  23.411  1.00  0.00     0.063 A 
ATOM     78  C   UNL A   1      36.683  23.664  25.130  1.00  0.00     0.002 A 
ATOM     79  C   UNL A   1      35.634  23.001  23.064  1.00  0.00     0.016 A 
ATOM     80  C   UNL A   1      36.738  22.984  23.924  1.00  0.00     0.001 A 
BRANCH  77  81
ATOM     81  C   UNL A   1      33.392  23.640  22.285  1.00  0.00     0.253 C 
ATOM     82  O   UNL A   1      33.352  24.651  21.572  1.00  0.00    -0.269 OA
ATOM     83  N   UNL A   1      32.455  22.686  21.966  1.00  0.00    -0.345 N 
ATOM     84  H   UNL A   1      31.775  23.009  21.330  1.00  0.00     0.164 HD
BRANCH  83  85
ATOM     85  C   UNL A   1      32.253  21.315  22.363  1.00  0.00     0.191 C 
BRANCH  85  86
ATOM     86  C   UNL A   1      32.542  21.030  23.782  1.00  0.00     0.122 A 
ATOM     87  C   UNL A   1      33.527  20.376  24.491  1.00  0.00     0.047 A 
ATOM     88  O   UNL A   1      31.690  21.655  24.651  1.00  0.00    -0.467 OA
ATOM     89  C   UNL A   1      33.258  20.623  25.864  1.00  0.00     0.042 A 
ATOM     90  C   UNL A   1      32.133  21.412  25.904  1.00  0.00     0.195 A 
ENDBRANCH  85  86
ENDBRANCH  83  85
ENDBRANCH  77  81
ENDBRANCH  73  75
ENDBRANCH  67  71
ENDBRANCH  63  65
ENDBRANCH   1  63
TORSDOF 16
ENDMDL
