MODEL 1
REMARK VINA RESULT:     -13.8      0.000      0.000
REMARK SMILES Cc1ccc(NC(=O)C[C@@H](C(=O)OCCOC(=O)c2ccc(-c3c4nc(c(-c5c(F)cccc5F)c5ccc([nH]5)c(-c5c(F)cccc5F)c5nc(c(-c6c(F)cccc6F)c6ccc3[nH]6)C=C5)C=C4)cc2)[C@@H](C)c2ccccc2)cc1Br
REMARK SMILES IDX 14 1 13 2 11 3 12 4 10 5 9 6 7 7 6 8 8 10 5 11 1 12 2 13
REMARK SMILES IDX 3 14 82 15 4 16 81 17 83 18 73 19 74 20 75 21 76 22 80 23
REMARK SMILES IDX 77 24 79 25 78 26 15 27 16 28 17 29 18 30 19 31 20 32 72 33
REMARK SMILES IDX 21 34 71 35 22 36 23 37 24 38 65 39 25 40 70 41 64 42 66 43
REMARK SMILES IDX 26 44 69 45 63 46 62 47 27 49 53 50 36 51 52 52 37 53 40 54
REMARK SMILES IDX 51 55 67 56 38 57 39 58 50 60 68 61 41 62 28 63 29 64 34 65
REMARK SMILES IDX 30 66 31 67 33 68 35 69 32 70 54 71 55 72 60 73 56 74 57 75
REMARK SMILES IDX 59 76 61 77 58 78 42 79 43 80 48 81 44 82 45 83 47 84 49 85
REMARK SMILES IDX 46 86
REMARK H PARENT 6 9 66 48 40 59
REMARK Flexibility Score: inf
ROOT
ATOM      1  C   UNL A   1      31.778  30.874  26.529  1.00  0.00     0.274 C 
ENDROOT
BRANCH   1   2
ATOM      2  O   UNL A   1      32.759  29.896  25.561  1.00  0.00    -0.462 OA
BRANCH   2   3
ATOM      3  C   UNL A   1      32.869  28.547  25.569  1.00  0.00     0.310 C 
ATOM      4  O   UNL A   1      33.883  28.005  25.987  1.00  0.00    -0.252 OA
BRANCH   3   5
ATOM      5  C   UNL A   1      31.640  27.776  24.947  1.00  0.00     0.116 C 
BRANCH   5   6
ATOM      6  C   UNL A   1      31.745  26.227  24.786  1.00  0.00     0.116 C 
BRANCH   6   7
ATOM      7  C   UNL A   1      31.170  25.272  25.792  1.00  0.00     0.225 C 
ATOM      8  N   UNL A   1      31.639  24.002  25.909  1.00  0.00    -0.326 N 
ATOM      9  H   UNL A   1      31.011  23.357  26.309  1.00  0.00     0.169 HD
ATOM     10  O   UNL A   1      30.218  25.613  26.498  1.00  0.00    -0.275 OA
BRANCH   8  11
ATOM     11  C   UNL A   1      32.888  23.473  25.545  1.00  0.00     0.042 A 
ATOM     12  C   UNL A   1      37.115  20.702  24.922  1.00  0.00     0.045 C 
ATOM     13  C   UNL A   1      35.880  21.451  25.333  1.00  0.00    -0.037 A 
ATOM     14  C   UNL A   1      34.276  20.733  25.001  1.00  0.00     0.007 A 
ATOM     15  C   UNL A   1      36.028  23.172  25.797  1.00  0.00     0.022 A 
ATOM     16  C   UNL A   1      32.793  21.730  25.100  1.00  0.00     0.026 A 
ATOM     17  C   UNL A   1      34.528  24.195  25.902  1.00  0.00     0.042 A 
ATOM     18  Br  UNL A   1      37.782  23.842  26.070  1.00  0.00    -0.050 Br
ENDBRANCH   8  11
ENDBRANCH   6   7
ENDBRANCH   5   6
BRANCH   5  19
ATOM     19  C   UNL A   1      31.108  28.322  23.538  1.00  0.00     0.031 C 
ATOM     20  C   UNL A   1      31.267  27.281  22.401  1.00  0.00     0.013 C 
BRANCH  19  21
ATOM     21  C   UNL A   1      29.761  29.030  23.474  1.00  0.00    -0.044 A 
ATOM     22  C   UNL A   1      28.556  28.417  23.118  1.00  0.00     0.004 A 
ATOM     23  C   UNL A   1      29.735  30.418  23.654  1.00  0.00     0.004 A 
ATOM     24  C   UNL A   1      27.385  29.172  22.961  1.00  0.00     0.000 A 
ATOM     25  C   UNL A   1      28.575  31.175  23.525  1.00  0.00     0.000 A 
ATOM     26  C   UNL A   1      27.394  30.549  23.170  1.00  0.00     0.000 A 
ENDBRANCH  19  21
ENDBRANCH   5  19
ENDBRANCH   3   5
ENDBRANCH   2   3
ENDBRANCH   1   2
BRANCH   1  27
ATOM     27  C   UNL A   1      32.129  33.011  26.885  1.00  0.00     0.275 C 
BRANCH  27  28
ATOM     28  O   UNL A   1      32.458  33.736  28.303  1.00  0.00    -0.458 OA
BRANCH  28  29
ATOM     29  C   UNL A   1      33.487  34.608  28.489  1.00  0.00     0.338 C 
ATOM     30  O   UNL A   1      33.411  35.813  28.643  1.00  0.00    -0.246 OA
BRANCH  29  31
ATOM     31  C   UNL A   1      34.643  33.775  28.926  1.00  0.00     0.060 A 
ATOM     32  C   UNL A   1      34.402  32.427  29.247  1.00  0.00     0.016 A 
ATOM     33  C   UNL A   1      35.956  34.246  28.841  1.00  0.00     0.016 A 
ATOM     34  C   UNL A   1      35.461  31.535  29.429  1.00  0.00     0.010 A 
ATOM     35  C   UNL A   1      37.019  33.363  29.072  1.00  0.00     0.010 A 
ATOM     36  C   UNL A   1      36.777  32.008  29.381  1.00  0.00    -0.014 A 
BRANCH  36  37
ATOM     37  C   UNL A   1      37.856  31.199  30.002  1.00  0.00     0.031 A 
ATOM     38  C   UNL A   1      38.107  31.454  31.463  1.00  0.00     0.074 A 
ATOM     39  C   UNL A   1      38.561  30.260  29.345  1.00  0.00     0.049 A 
ATOM     40  N   UNL A   1      39.054  31.013  32.245  1.00  0.00    -0.248 NA
ATOM     41  C   UNL A   1      37.145  32.351  32.130  1.00  0.00     0.031 C 
ATOM     42  C   UNL A   1      38.351  29.842  27.960  1.00  0.00     0.029 A 
ATOM     43  N   UNL A   1      39.613  29.485  29.772  1.00  0.00    -0.354 N 
ATOM     44  C   UNL A   1      38.819  31.606  33.480  1.00  0.00     0.074 A 
ATOM     45  C   UNL A   1      37.662  32.455  33.340  1.00  0.00     0.031 C 
ATOM     46  C   UNL A   1      39.256  28.893  27.649  1.00  0.00     0.029 A 
ATOM     47  C   UNL A   1      40.135  28.669  28.796  1.00  0.00     0.049 A 
ATOM     48  H   UNL A   1      39.961  29.511  30.693  1.00  0.00     0.167 HD
ATOM     49  C   UNL A   1      39.507  31.454  34.634  1.00  0.00     0.037 A 
ATOM     50  C   UNL A   1      41.215  27.861  28.830  1.00  0.00     0.037 A 
ATOM     51  C   UNL A   1      40.650  30.598  34.770  1.00  0.00     0.049 A 
ATOM     52  C   UNL A   1      42.026  27.775  30.104  1.00  0.00     0.074 A 
ATOM     53  C   UNL A   1      41.433  30.375  35.886  1.00  0.00     0.029 A 
ATOM     54  N   UNL A   1      41.173  29.824  33.744  1.00  0.00    -0.354 N 
ATOM     55  N   UNL A   1      41.818  28.356  31.262  1.00  0.00    -0.248 NA
ATOM     56  C   UNL A   1      43.227  26.925  30.073  1.00  0.00     0.031 C 
ATOM     57  C   UNL A   1      42.464  29.505  35.521  1.00  0.00     0.029 A 
ATOM     58  C   UNL A   1      42.285  29.137  34.195  1.00  0.00     0.049 A 
ATOM     59  H   UNL A   1      40.808  29.771  32.831  1.00  0.00     0.167 HD
ATOM     60  C   UNL A   1      42.835  27.916  32.103  1.00  0.00     0.074 A 
ATOM     61  C   UNL A   1      43.655  27.011  31.325  1.00  0.00     0.031 C 
ATOM     62  C   UNL A   1      43.073  28.227  33.403  1.00  0.00     0.037 A 
BRANCH  49  63
ATOM     63  C   UNL A   1      39.061  32.280  35.803  1.00  0.00     0.057 A 
ATOM     64  C   UNL A   1      39.507  33.593  36.008  1.00  0.00     0.134 A 
ATOM     65  C   UNL A   1      38.198  31.736  36.763  1.00  0.00     0.134 A 
ATOM     66  F   UNL A   1      40.362  34.163  35.144  1.00  0.00    -0.206 F 
ATOM     67  C   UNL A   1      39.143  34.319  37.143  1.00  0.00     0.040 A 
ATOM     68  C   UNL A   1      37.799  32.464  37.884  1.00  0.00     0.040 A 
ATOM     69  F   UNL A   1      37.737  30.482  36.632  1.00  0.00    -0.206 F 
ATOM     70  C   UNL A   1      38.281  33.755  38.082  1.00  0.00     0.006 A 
ENDBRANCH  49  63
BRANCH  50  71
ATOM     71  C   UNL A   1      41.629  27.088  27.625  1.00  0.00     0.057 A 
ATOM     72  C   UNL A   1      42.445  27.654  26.637  1.00  0.00     0.134 A 
ATOM     73  C   UNL A   1      41.174  25.782  27.402  1.00  0.00     0.134 A 
ATOM     74  F   UNL A   1      42.888  28.913  26.770  1.00  0.00    -0.206 F 
ATOM     75  C   UNL A   1      42.777  26.963  25.469  1.00  0.00     0.040 A 
ATOM     76  C   UNL A   1      41.521  25.067  26.252  1.00  0.00     0.040 A 
ATOM     77  F   UNL A   1      40.378  25.178  28.297  1.00  0.00    -0.206 F 
ATOM     78  C   UNL A   1      42.318  25.662  25.276  1.00  0.00     0.006 A 
ENDBRANCH  50  71
BRANCH  62  79
ATOM     79  C   UNL A   1      44.228  27.550  34.082  1.00  0.00     0.057 A 
ATOM     80  C   UNL A   1      45.494  28.142  34.166  1.00  0.00     0.134 A 
ATOM     81  C   UNL A   1      44.046  26.317  34.722  1.00  0.00     0.134 A 
ATOM     82  F   UNL A   1      45.736  29.319  33.569  1.00  0.00    -0.206 F 
ATOM     83  C   UNL A   1      46.545  27.520  34.843  1.00  0.00     0.040 A 
ATOM     84  C   UNL A   1      45.080  25.701  35.428  1.00  0.00     0.040 A 
ATOM     85  F   UNL A   1      42.854  25.703  34.694  1.00  0.00    -0.206 F 
ATOM     86  C   UNL A   1      46.336  26.300  35.485  1.00  0.00     0.006 A 
ENDBRANCH  62  79
ENDBRANCH  36  37
ENDBRANCH  29  31
ENDBRANCH  28  29
ENDBRANCH  27  28
ENDBRANCH   1  27
TORSDOF 16
ENDMDL
MODEL 2
REMARK VINA RESULT:     -13.5      4.522     10.268
REMARK SMILES Cc1ccc(NC(=O)C[C@@H](C(=O)OCCOC(=O)c2ccc(-c3c4nc(c(-c5c(F)cccc5F)c5ccc([nH]5)c(-c5c(F)cccc5F)c5nc(c(-c6c(F)cccc6F)c6ccc3[nH]6)C=C5)C=C4)cc2)[C@@H](C)c2ccccc2)cc1Br
REMARK SMILES IDX 14 1 13 2 11 3 12 4 10 5 9 6 7 7 6 8 8 10 5 11 1 12 2 13
REMARK SMILES IDX 3 14 82 15 4 16 81 17 83 18 73 19 74 20 75 21 76 22 80 23
REMARK SMILES IDX 77 24 79 25 78 26 15 27 16 28 17 29 18 30 19 31 20 32 72 33
REMARK SMILES IDX 21 34 71 35 22 36 23 37 24 38 65 39 25 40 70 41 64 42 66 43
REMARK SMILES IDX 26 44 69 45 63 46 62 47 27 49 53 50 36 51 52 52 37 53 40 54
REMARK SMILES IDX 51 55 67 56 38 57 39 58 50 60 68 61 41 62 28 63 29 64 34 65
REMARK SMILES IDX 30 66 31 67 33 68 35 69 32 70 54 71 55 72 60 73 56 74 57 75
REMARK SMILES IDX 59 76 61 77 58 78 42 79 43 80 48 81 44 82 45 83 47 84 49 85
REMARK SMILES IDX 46 86
REMARK H PARENT 6 9 66 48 40 59
REMARK Flexibility Score: inf
ROOT
ATOM      1  C   UNL A   1      37.453  20.341  24.772  1.00  0.00     0.274 C 
ENDROOT
BRANCH   1   2
ATOM      2  O   UNL A   1      36.414  21.392  25.593  1.00  0.00    -0.462 OA
BRANCH   2   3
ATOM      3  C   UNL A   1      35.773  22.483  25.114  1.00  0.00     0.310 C 
ATOM      4  O   UNL A   1      36.211  23.607  25.321  1.00  0.00    -0.252 OA
BRANCH   3   5
ATOM      5  C   UNL A   1      34.423  22.181  24.353  1.00  0.00     0.116 C 
BRANCH   5   6
ATOM      6  C   UNL A   1      33.435  23.363  24.104  1.00  0.00     0.116 C 
BRANCH   6   7
ATOM      7  C   UNL A   1      33.304  24.036  22.769  1.00  0.00     0.225 C 
ATOM      8  N   UNL A   1      32.700  25.247  22.643  1.00  0.00    -0.326 N 
ATOM      9  H   UNL A   1      32.344  25.448  21.747  1.00  0.00     0.169 HD
ATOM     10  O   UNL A   1      33.700  23.469  21.747  1.00  0.00    -0.275 OA
BRANCH   8  11
ATOM     11  C   UNL A   1      32.509  26.254  23.602  1.00  0.00     0.042 A 
ATOM     12  C   UNL A   1      31.730  30.585  26.166  1.00  0.00     0.045 C 
ATOM     13  C   UNL A   1      32.092  29.440  25.263  1.00  0.00    -0.037 A 
ATOM     14  C   UNL A   1      30.913  28.900  24.030  1.00  0.00     0.007 A 
ATOM     15  C   UNL A   1      33.506  28.427  25.676  1.00  0.00     0.022 A 
ATOM     16  C   UNL A   1      31.113  27.322  23.210  1.00  0.00     0.026 A 
ATOM     17  C   UNL A   1      33.720  26.822  24.848  1.00  0.00     0.042 A 
ATOM     18  Br  UNL A   1      34.658  29.072  27.037  1.00  0.00    -0.050 Br
ENDBRANCH   8  11
ENDBRANCH   6   7
ENDBRANCH   5   6
BRANCH   5  19
ATOM     19  C   UNL A   1      33.532  20.990  24.950  1.00  0.00     0.031 C 
ATOM     20  C   UNL A   1      32.123  21.468  25.388  1.00  0.00     0.013 C 
BRANCH  19  21
ATOM     21  C   UNL A   1      33.476  19.660  24.212  1.00  0.00    -0.044 A 
ATOM     22  C   UNL A   1      32.512  19.320  23.257  1.00  0.00     0.004 A 
ATOM     23  C   UNL A   1      34.364  18.650  24.600  1.00  0.00     0.004 A 
ATOM     24  C   UNL A   1      32.459  18.025  22.720  1.00  0.00     0.000 A 
ATOM     25  C   UNL A   1      34.337  17.370  24.057  1.00  0.00     0.000 A 
ATOM     26  C   UNL A   1      33.375  17.054  23.115  1.00  0.00     0.000 A 
ENDBRANCH  19  21
ENDBRANCH   5  19
ENDBRANCH   3   5
ENDBRANCH   2   3
ENDBRANCH   1   2
BRANCH   1  27
ATOM     27  C   UNL A   1      39.024  19.150  25.737  1.00  0.00     0.275 C 
BRANCH  27  28
ATOM     28  O   UNL A   1      40.632  19.348  25.611  1.00  0.00    -0.458 OA
BRANCH  28  29
ATOM     29  C   UNL A   1      41.469  19.457  26.680  1.00  0.00     0.338 C 
ATOM     30  O   UNL A   1      42.137  18.573  27.184  1.00  0.00    -0.246 OA
BRANCH  29  31
ATOM     31  C   UNL A   1      41.762  20.912  26.812  1.00  0.00     0.060 A 
ATOM     32  C   UNL A   1      42.317  21.367  28.022  1.00  0.00     0.016 A 
ATOM     33  C   UNL A   1      41.677  21.777  25.718  1.00  0.00     0.016 A 
ATOM     34  C   UNL A   1      42.836  22.659  28.130  1.00  0.00     0.010 A 
ATOM     35  C   UNL A   1      42.152  23.089  25.840  1.00  0.00     0.010 A 
ATOM     36  C   UNL A   1      42.720  23.540  27.049  1.00  0.00    -0.014 A 
BRANCH  36  37
ATOM     37  C   UNL A   1      42.848  24.999  27.294  1.00  0.00     0.031 A 
ATOM     38  C   UNL A   1      44.122  25.636  26.808  1.00  0.00     0.074 A 
ATOM     39  C   UNL A   1      41.892  25.748  27.873  1.00  0.00     0.049 A 
ATOM     40  N   UNL A   1      44.583  26.844  26.989  1.00  0.00    -0.248 NA
ATOM     41  C   UNL A   1      45.006  24.768  26.010  1.00  0.00     0.031 C 
ATOM     42  C   UNL A   1      40.573  25.280  28.294  1.00  0.00     0.029 A 
ATOM     43  N   UNL A   1      41.896  27.082  28.209  1.00  0.00    -0.354 N 
ATOM     44  C   UNL A   1      45.820  26.865  26.358  1.00  0.00     0.074 A 
ATOM     45  C   UNL A   1      46.052  25.549  25.813  1.00  0.00     0.031 C 
ATOM     46  C   UNL A   1      39.899  26.309  28.845  1.00  0.00     0.029 A 
ATOM     47  C   UNL A   1      40.754  27.496  28.854  1.00  0.00     0.049 A 
ATOM     48  H   UNL A   1      42.647  27.685  28.006  1.00  0.00     0.167 HD
ATOM     49  C   UNL A   1      46.689  27.893  26.238  1.00  0.00     0.037 A 
ATOM     50  C   UNL A   1      40.459  28.691  29.407  1.00  0.00     0.037 A 
ATOM     51  C   UNL A   1      46.448  29.202  26.771  1.00  0.00     0.049 A 
ATOM     52  C   UNL A   1      41.483  29.801  29.343  1.00  0.00     0.074 A 
ATOM     53  C   UNL A   1      47.262  30.317  26.721  1.00  0.00     0.029 A 
ATOM     54  N   UNL A   1      45.299  29.568  27.457  1.00  0.00    -0.354 N 
ATOM     55  N   UNL A   1      42.662  29.812  28.768  1.00  0.00    -0.248 NA
ATOM     56  C   UNL A   1      41.136  31.067  30.011  1.00  0.00     0.031 C 
ATOM     57  C   UNL A   1      46.628  31.345  27.426  1.00  0.00     0.029 A 
ATOM     58  C   UNL A   1      45.391  30.888  27.857  1.00  0.00     0.049 A 
ATOM     59  H   UNL A   1      44.532  28.976  27.633  1.00  0.00     0.167 HD
ATOM     60  C   UNL A   1      43.180  31.087  28.973  1.00  0.00     0.074 A 
ATOM     61  C   UNL A   1      42.182  31.826  29.718  1.00  0.00     0.031 C 
ATOM     62  C   UNL A   1      44.373  31.605  28.581  1.00  0.00     0.037 A 
BRANCH  49  63
ATOM     63  C   UNL A   1      47.993  27.603  25.554  1.00  0.00     0.057 A 
ATOM     64  C   UNL A   1      48.130  27.628  24.159  1.00  0.00     0.134 A 
ATOM     65  C   UNL A   1      49.121  27.255  26.307  1.00  0.00     0.134 A 
ATOM     66  F   UNL A   1      47.078  27.921  23.377  1.00  0.00    -0.206 F 
ATOM     67  C   UNL A   1      49.330  27.280  23.538  1.00  0.00     0.040 A 
ATOM     68  C   UNL A   1      50.336  26.939  25.698  1.00  0.00     0.040 A 
ATOM     69  F   UNL A   1      49.059  27.206  27.647  1.00  0.00    -0.206 F 
ATOM     70  C   UNL A   1      50.439  26.940  24.309  1.00  0.00     0.006 A 
ENDBRANCH  49  63
BRANCH  50  71
ATOM     71  C   UNL A   1      39.158  28.910  30.102  1.00  0.00     0.057 A 
ATOM     72  C   UNL A   1      38.050  29.438  29.428  1.00  0.00     0.134 A 
ATOM     73  C   UNL A   1      39.006  28.649  31.470  1.00  0.00     0.134 A 
ATOM     74  F   UNL A   1      38.135  29.742  28.125  1.00  0.00    -0.206 F 
ATOM     75  C   UNL A   1      36.849  29.716  30.087  1.00  0.00     0.040 A 
ATOM     76  C   UNL A   1      37.803  28.896  32.137  1.00  0.00     0.040 A 
ATOM     77  F   UNL A   1      40.027  28.155  32.184  1.00  0.00    -0.206 F 
ATOM     78  C   UNL A   1      36.722  29.440  31.447  1.00  0.00     0.006 A 
ENDBRANCH  50  71
BRANCH  62  79
ATOM     79  C   UNL A   1      44.644  33.047  28.899  1.00  0.00     0.057 A 
ATOM     80  C   UNL A   1      44.286  34.082  28.027  1.00  0.00     0.134 A 
ATOM     81  C   UNL A   1      45.210  33.404  30.130  1.00  0.00     0.134 A 
ATOM     82  F   UNL A   1      43.746  33.808  26.829  1.00  0.00    -0.206 F 
ATOM     83  C   UNL A   1      44.500  35.421  28.359  1.00  0.00     0.040 A 
ATOM     84  C   UNL A   1      45.400  34.740  30.486  1.00  0.00     0.040 A 
ATOM     85  F   UNL A   1      45.561  32.462  31.018  1.00  0.00    -0.206 F 
ATOM     86  C   UNL A   1      45.051  35.753  29.597  1.00  0.00     0.006 A 
ENDBRANCH  62  79
ENDBRANCH  36  37
ENDBRANCH  29  31
ENDBRANCH  28  29
ENDBRANCH  27  28
ENDBRANCH   1  27
TORSDOF 16
ENDMDL
MODEL 3
REMARK VINA RESULT:     -13.4      4.784      9.324
REMARK SMILES Cc1ccc(NC(=O)C[C@@H](C(=O)OCCOC(=O)c2ccc(-c3c4nc(c(-c5c(F)cccc5F)c5ccc([nH]5)c(-c5c(F)cccc5F)c5nc(c(-c6c(F)cccc6F)c6ccc3[nH]6)C=C5)C=C4)cc2)[C@@H](C)c2ccccc2)cc1Br
REMARK SMILES IDX 14 1 13 2 11 3 12 4 10 5 9 6 7 7 6 8 8 10 5 11 1 12 2 13
REMARK SMILES IDX 3 14 82 15 4 16 81 17 83 18 73 19 74 20 75 21 76 22 80 23
REMARK SMILES IDX 77 24 79 25 78 26 15 27 16 28 17 29 18 30 19 31 20 32 72 33
REMARK SMILES IDX 21 34 71 35 22 36 23 37 24 38 65 39 25 40 70 41 64 42 66 43
REMARK SMILES IDX 26 44 69 45 63 46 62 47 27 49 53 50 36 51 52 52 37 53 40 54
REMARK SMILES IDX 51 55 67 56 38 57 39 58 50 60 68 61 41 62 28 63 29 64 34 65
REMARK SMILES IDX 30 66 31 67 33 68 35 69 32 70 54 71 55 72 60 73 56 74 57 75
REMARK SMILES IDX 59 76 61 77 58 78 42 79 43 80 48 81 44 82 45 83 47 84 49 85
REMARK SMILES IDX 46 86
REMARK H PARENT 6 9 66 48 40 59
REMARK Flexibility Score: inf
ROOT
ATOM      1  C   UNL A   1      37.666  20.578  24.632  1.00  0.00     0.274 C 
ENDROOT
BRANCH   1   2
ATOM      2  O   UNL A   1      36.361  21.416  25.305  1.00  0.00    -0.462 OA
BRANCH   2   3
ATOM      3  C   UNL A   1      35.694  22.479  24.798  1.00  0.00     0.310 C 
ATOM      4  O   UNL A   1      36.143  23.611  24.913  1.00  0.00    -0.252 OA
BRANCH   3   5
ATOM      5  C   UNL A   1      34.304  22.136  24.134  1.00  0.00     0.116 C 
BRANCH   5   6
ATOM      6  C   UNL A   1      33.310  23.306  23.855  1.00  0.00     0.116 C 
BRANCH   6   7
ATOM      7  C   UNL A   1      33.229  23.997  22.525  1.00  0.00     0.225 C 
ATOM      8  N   UNL A   1      32.645  25.217  22.395  1.00  0.00    -0.326 N 
ATOM      9  H   UNL A   1      32.320  25.433  21.490  1.00  0.00     0.169 HD
ATOM     10  O   UNL A   1      33.651  23.437  21.509  1.00  0.00    -0.275 OA
BRANCH   8  11
ATOM     11  C   UNL A   1      32.436  26.215  23.359  1.00  0.00     0.042 A 
ATOM     12  C   UNL A   1      31.624  30.524  25.948  1.00  0.00     0.045 C 
ATOM     13  C   UNL A   1      32.001  29.386  25.043  1.00  0.00    -0.037 A 
ATOM     14  C   UNL A   1      30.854  28.872  23.771  1.00  0.00     0.007 A 
ATOM     15  C   UNL A   1      33.392  28.354  25.486  1.00  0.00     0.022 A 
ATOM     16  C   UNL A   1      31.062  27.301  22.939  1.00  0.00     0.026 A 
ATOM     17  C   UNL A   1      33.615  26.757  24.646  1.00  0.00     0.042 A 
ATOM     18  Br  UNL A   1      34.511  28.973  26.887  1.00  0.00    -0.050 Br
ENDBRANCH   8  11
ENDBRANCH   6   7
ENDBRANCH   5   6
BRANCH   5  19
ATOM     19  C   UNL A   1      33.440  20.998  24.860  1.00  0.00     0.031 C 
ATOM     20  C   UNL A   1      31.995  21.463  25.177  1.00  0.00     0.013 C 
BRANCH  19  21
ATOM     21  C   UNL A   1      33.471  19.577  24.313  1.00  0.00    -0.044 A 
ATOM     22  C   UNL A   1      34.459  18.632  24.611  1.00  0.00     0.004 A 
ATOM     23  C   UNL A   1      32.528  19.221  23.342  1.00  0.00     0.004 A 
ATOM     24  C   UNL A   1      34.480  17.388  23.963  1.00  0.00     0.000 A 
ATOM     25  C   UNL A   1      32.525  17.981  22.711  1.00  0.00     0.000 A 
ATOM     26  C   UNL A   1      33.511  17.062  23.019  1.00  0.00     0.000 A 
ENDBRANCH  19  21
ENDBRANCH   5  19
ENDBRANCH   3   5
ENDBRANCH   2   3
ENDBRANCH   1   2
BRANCH   1  27
ATOM     27  C   UNL A   1      39.315  19.716  25.796  1.00  0.00     0.275 C 
BRANCH  27  28
ATOM     28  O   UNL A   1      40.765  19.229  25.245  1.00  0.00    -0.458 OA
BRANCH  28  29
ATOM     29  C   UNL A   1      41.853  19.035  26.040  1.00  0.00     0.338 C 
ATOM     30  O   UNL A   1      42.547  18.036  26.107  1.00  0.00    -0.246 OA
BRANCH  29  31
ATOM     31  C   UNL A   1      42.298  20.397  26.449  1.00  0.00     0.060 A 
ATOM     32  C   UNL A   1      42.649  21.308  25.436  1.00  0.00     0.016 A 
ATOM     33  C   UNL A   1      42.194  20.834  27.771  1.00  0.00     0.016 A 
ATOM     34  C   UNL A   1      42.842  22.660  25.727  1.00  0.00     0.010 A 
ATOM     35  C   UNL A   1      42.436  22.180  28.072  1.00  0.00     0.010 A 
ATOM     36  C   UNL A   1      42.774  23.097  27.054  1.00  0.00    -0.014 A 
BRANCH  36  37
ATOM     37  C   UNL A   1      43.403  24.391  27.420  1.00  0.00     0.031 A 
ATOM     38  C   UNL A   1      42.471  25.445  27.954  1.00  0.00     0.074 A 
ATOM     39  C   UNL A   1      44.724  24.632  27.333  1.00  0.00     0.049 A 
ATOM     40  N   UNL A   1      42.690  26.702  28.229  1.00  0.00    -0.248 NA
ATOM     41  C   UNL A   1      41.085  25.007  28.199  1.00  0.00     0.031 C 
ATOM     42  C   UNL A   1      45.748  23.670  26.933  1.00  0.00     0.029 A 
ATOM     43  N   UNL A   1      45.429  25.787  27.581  1.00  0.00    -0.354 N 
ATOM     44  C   UNL A   1      41.464  27.207  28.645  1.00  0.00     0.074 A 
ATOM     45  C   UNL A   1      40.502  26.135  28.562  1.00  0.00     0.031 C 
ATOM     46  C   UNL A   1      46.950  24.278  26.950  1.00  0.00     0.029 A 
ATOM     47  C   UNL A   1      46.776  25.682  27.320  1.00  0.00     0.049 A 
ATOM     48  H   UNL A   1      45.010  26.613  27.914  1.00  0.00     0.167 HD
ATOM     49  C   UNL A   1      41.164  28.456  29.064  1.00  0.00     0.037 A 
ATOM     50  C   UNL A   1      47.739  26.626  27.354  1.00  0.00     0.037 A 
ATOM     51  C   UNL A   1      42.127  29.516  29.155  1.00  0.00     0.049 A 
ATOM     52  C   UNL A   1      47.366  28.041  27.736  1.00  0.00     0.074 A 
ATOM     53  C   UNL A   1      41.935  30.824  29.555  1.00  0.00     0.029 A 
ATOM     54  N   UNL A   1      43.471  29.380  28.839  1.00  0.00    -0.354 N 
ATOM     55  N   UNL A   1      46.202  28.523  28.104  1.00  0.00    -0.248 NA
ATOM     56  C   UNL A   1      48.441  29.046  27.703  1.00  0.00     0.031 C 
ATOM     57  C   UNL A   1      43.154  31.496  29.427  1.00  0.00     0.029 A 
ATOM     58  C   UNL A   1      44.118  30.589  29.012  1.00  0.00     0.049 A 
ATOM     59  H   UNL A   1      43.900  28.547  28.536  1.00  0.00     0.167 HD
ATOM     60  C   UNL A   1      46.411  29.871  28.378  1.00  0.00     0.074 A 
ATOM     61  C   UNL A   1      47.816  30.129  28.144  1.00  0.00     0.031 C 
ATOM     62  C   UNL A   1      45.524  30.813  28.789  1.00  0.00     0.037 A 
BRANCH  49  63
ATOM     63  C   UNL A   1      39.727  28.736  29.389  1.00  0.00     0.057 A 
ATOM     64  C   UNL A   1      38.826  29.241  28.440  1.00  0.00     0.134 A 
ATOM     65  C   UNL A   1      39.246  28.533  30.689  1.00  0.00     0.134 A 
ATOM     66  F   UNL A   1      39.231  29.490  27.184  1.00  0.00    -0.206 F 
ATOM     67  C   UNL A   1      37.514  29.568  28.782  1.00  0.00     0.040 A 
ATOM     68  C   UNL A   1      37.926  28.825  31.034  1.00  0.00     0.040 A 
ATOM     69  F   UNL A   1      40.055  28.058  31.649  1.00  0.00    -0.206 F 
ATOM     70  C   UNL A   1      37.059  29.355  30.081  1.00  0.00     0.006 A 
ENDBRANCH  49  63
BRANCH  50  71
ATOM     71  C   UNL A   1      49.146  26.296  26.989  1.00  0.00     0.057 A 
ATOM     72  C   UNL A   1      50.071  25.873  27.953  1.00  0.00     0.134 A 
ATOM     73  C   UNL A   1      49.617  26.447  25.678  1.00  0.00     0.134 A 
ATOM     74  F   UNL A   1      49.696  25.740  29.233  1.00  0.00    -0.206 F 
ATOM     75  C   UNL A   1      51.409  25.632  27.633  1.00  0.00     0.040 A 
ATOM     76  C   UNL A   1      50.946  26.182  25.339  1.00  0.00     0.040 A 
ATOM     77  F   UNL A   1      48.793  26.860  24.704  1.00  0.00    -0.206 F 
ATOM     78  C   UNL A   1      51.850  25.782  26.320  1.00  0.00     0.006 A 
ENDBRANCH  50  71
BRANCH  62  79
ATOM     79  C   UNL A   1      46.050  32.192  29.063  1.00  0.00     0.057 A 
ATOM     80  C   UNL A   1      46.038  33.201  28.092  1.00  0.00     0.134 A 
ATOM     81  C   UNL A   1      46.510  32.532  30.342  1.00  0.00     0.134 A 
ATOM     82  F   UNL A   1      45.616  32.941  26.844  1.00  0.00    -0.206 F 
ATOM     83  C   UNL A   1      46.486  34.492  28.377  1.00  0.00     0.040 A 
ATOM     84  C   UNL A   1      46.930  33.826  30.648  1.00  0.00     0.040 A 
ATOM     85  F   UNL A   1      46.533  31.617  31.323  1.00  0.00    -0.206 F 
ATOM     86  C   UNL A   1      46.925  34.810  29.662  1.00  0.00     0.006 A 
ENDBRANCH  62  79
ENDBRANCH  36  37
ENDBRANCH  29  31
ENDBRANCH  28  29
ENDBRANCH  27  28
ENDBRANCH   1  27
TORSDOF 16
ENDMDL
