MODEL 1
REMARK VINA RESULT:     -11.6      0.000      0.000
REMARK SMILES CCCCCCNC(=O)Nc1cccc(-c2ccc([C@@H](C)C(=O)OCCOC(=O)c3ccc(-c4c5nc(c(-c6c(F)cccc6F)c6ccc([nH]6)c(-c6c(F)cccc6F)c6nc(c(-c7c(F)cccc7F)c7ccc4[nH]7)C=C6)C=C5)cc3)cc2F)c1
REMARK SMILES IDX 20 1 21 2 19 3 16 4 17 5 85 6 18 7 84 8 86 9 15 10 11 11
REMARK SMILES IDX 12 12 87 13 13 14 14 15 10 16 7 17 8 18 9 20 6 22 5 23 4 24
REMARK SMILES IDX 3 25 2 26 1 27 22 28 23 29 24 30 25 31 26 32 27 33 28 34
REMARK SMILES IDX 29 35 30 36 31 37 83 38 32 39 82 40 33 41 34 42 35 43 76 44
REMARK SMILES IDX 36 45 81 46 75 47 77 48 37 49 80 50 74 51 73 52 38 54 64 55
REMARK SMILES IDX 47 56 63 57 48 58 51 59 62 60 78 61 49 62 50 63 61 65 79 66
REMARK SMILES IDX 52 67 39 68 40 69 45 70 41 71 42 72 44 73 46 74 43 75 65 76
REMARK SMILES IDX 66 77 71 78 67 79 68 80 70 81 72 82 69 83 53 84 54 85 59 86
REMARK SMILES IDX 55 87 56 88 58 89 60 90 57 91
REMARK H PARENT 7 19 10 21 77 53 51 64
REMARK Flexibility Score: inf
ROOT
ATOM      1  C   UNL A   1      41.464  22.044  27.040  1.00  0.00     0.126 C 
ATOM      2  C   UNL A   1      41.651  22.146  28.554  1.00  0.00     0.025 C 
ENDROOT
BRANCH   1   3
ATOM      3  C   UNL A   1      40.042  22.369  26.612  1.00  0.00    -0.031 A 
ATOM      4  C   UNL A   1      37.428  22.972  25.653  1.00  0.00     0.018 A 
ATOM      5  C   UNL A   1      38.170  23.913  26.386  1.00  0.00     0.012 A 
ATOM      6  C   UNL A   1      38.010  21.719  25.437  1.00  0.00     0.131 A 
ATOM      7  C   UNL A   1      39.454  23.618  26.858  1.00  0.00     0.005 A 
ATOM      8  C   UNL A   1      39.292  21.419  25.901  1.00  0.00     0.044 A 
ATOM      9  F   UNL A   1      37.349  20.775  24.750  1.00  0.00    -0.206 F 
BRANCH   4  10
ATOM     10  C   UNL A   1      36.084  23.304  25.157  1.00  0.00    -0.013 A 
ATOM     11  C   UNL A   1      33.733  23.769  25.606  1.00  0.00     0.043 A 
ATOM     12  C   UNL A   1      33.529  24.095  24.266  1.00  0.00     0.026 A 
ATOM     13  C   UNL A   1      34.982  23.298  26.025  1.00  0.00     0.035 A 
ATOM     14  C   UNL A   1      34.607  24.081  23.380  1.00  0.00     0.003 A 
ATOM     15  C   UNL A   1      35.878  23.711  23.830  1.00  0.00     0.009 A 
BRANCH  11  16
ATOM     16  N   UNL A   1      32.681  23.992  26.506  1.00  0.00    -0.308 N 
ATOM     17  N   UNL A   1      31.362  22.028  26.343  1.00  0.00    -0.338 N 
ATOM     18  C   UNL A   1      31.500  23.340  26.660  1.00  0.00     0.319 C 
ATOM     19  H   UNL A   1      30.435  21.697  26.347  1.00  0.00     0.165 HD
ATOM     20  O   UNL A   1      30.555  23.916  27.201  1.00  0.00    -0.249 OA
ATOM     21  H   UNL A   1      32.821  24.742  27.127  1.00  0.00     0.171 HD
BRANCH  17  22
ATOM     22  C   UNL A   1      32.365  21.034  25.999  1.00  0.00     0.117 C 
BRANCH  22  23
ATOM     23  C   UNL A   1      32.261  20.502  24.574  1.00  0.00     0.021 C 
BRANCH  23  24
ATOM     24  C   UNL A   1      33.106  19.269  24.258  1.00  0.00     0.002 C 
BRANCH  24  25
ATOM     25  C   UNL A   1      32.427  17.910  24.460  1.00  0.00    -0.000 C 
BRANCH  25  26
ATOM     26  C   UNL A   1      33.286  16.676  24.175  1.00  0.00    -0.003 C 
ATOM     27  C   UNL A   1      34.137  16.792  22.923  1.00  0.00     0.004 C 
ENDBRANCH  25  26
ENDBRANCH  24  25
ENDBRANCH  23  24
ENDBRANCH  22  23
ENDBRANCH  17  22
ENDBRANCH  11  16
ENDBRANCH   4  10
ENDBRANCH   1   3
BRANCH   1  28
ATOM     28  C   UNL A   1      42.053  20.734  26.539  1.00  0.00     0.313 C 
ATOM     29  O   UNL A   1      41.890  19.681  27.150  1.00  0.00    -0.252 OA
BRANCH  28  30
ATOM     30  O   UNL A   1      42.711  20.833  25.355  1.00  0.00    -0.462 OA
BRANCH  30  31
ATOM     31  C   UNL A   1      44.000  21.475  25.397  1.00  0.00     0.274 C 
BRANCH  31  32
ATOM     32  C   UNL A   1      44.116  22.620  24.388  1.00  0.00     0.275 C 
BRANCH  32  33
ATOM     33  O   UNL A   1      43.512  23.829  24.873  1.00  0.00    -0.458 OA
BRANCH  33  34
ATOM     34  C   UNL A   1      44.380  24.836  25.134  1.00  0.00     0.338 C 
ATOM     35  O   UNL A   1      45.433  25.081  24.577  1.00  0.00    -0.246 OA
BRANCH  34  36
ATOM     36  C   UNL A   1      43.806  25.680  26.187  1.00  0.00     0.060 A 
ATOM     37  C   UNL A   1      44.195  27.019  26.262  1.00  0.00     0.016 A 
ATOM     38  C   UNL A   1      42.935  25.132  27.127  1.00  0.00     0.016 A 
ATOM     39  C   UNL A   1      43.716  27.823  27.291  1.00  0.00     0.010 A 
ATOM     40  C   UNL A   1      42.440  25.943  28.148  1.00  0.00     0.010 A 
ATOM     41  C   UNL A   1      42.836  27.290  28.240  1.00  0.00    -0.014 A 
BRANCH  41  42
ATOM     42  C   UNL A   1      42.339  28.131  29.352  1.00  0.00     0.031 A 
ATOM     43  C   UNL A   1      43.043  28.113  30.675  1.00  0.00     0.074 A 
ATOM     44  C   UNL A   1      41.236  28.880  29.177  1.00  0.00     0.049 A 
ATOM     45  N   UNL A   1      42.695  28.671  31.805  1.00  0.00    -0.248 NA
ATOM     46  C   UNL A   1      44.302  27.356  30.733  1.00  0.00     0.031 C 
ATOM     47  C   UNL A   1      40.480  28.988  27.928  1.00  0.00     0.029 A 
ATOM     48  N   UNL A   1      40.550  29.675  30.057  1.00  0.00    -0.354 N 
ATOM     49  C   UNL A   1      43.677  28.312  32.718  1.00  0.00     0.074 A 
ATOM     50  C   UNL A   1      44.625  27.475  32.013  1.00  0.00     0.031 C 
ATOM     51  C   UNL A   1      39.422  29.791  28.128  1.00  0.00     0.029 A 
ATOM     52  C   UNL A   1      39.407  30.216  29.525  1.00  0.00     0.049 A 
ATOM     53  H   UNL A   1      40.849  29.842  30.981  1.00  0.00     0.167 HD
ATOM     54  C   UNL A   1      43.776  28.652  34.025  1.00  0.00     0.037 A 
ATOM     55  C   UNL A   1      38.436  30.945  30.108  1.00  0.00     0.037 A 
ATOM     56  C   UNL A   1      42.833  29.494  34.715  1.00  0.00     0.049 A 
ATOM     57  C   UNL A   1      38.550  31.286  31.565  1.00  0.00     0.074 A 
ATOM     58  C   UNL A   1      42.859  29.925  36.030  1.00  0.00     0.029 A 
ATOM     59  N   UNL A   1      41.689  30.030  34.140  1.00  0.00    -0.354 N 
ATOM     60  N   UNL A   1      39.487  30.953  32.419  1.00  0.00    -0.248 NA
ATOM     61  C   UNL A   1      37.471  32.102  32.141  1.00  0.00     0.031 C 
ATOM     62  C   UNL A   1      41.711  30.691  36.261  1.00  0.00     0.029 A 
ATOM     63  C   UNL A   1      40.990  30.771  35.080  1.00  0.00     0.049 A 
ATOM     64  H   UNL A   1      41.415  29.903  33.203  1.00  0.00     0.167 HD
ATOM     65  C   UNL A   1      39.121  31.528  33.629  1.00  0.00     0.074 A 
ATOM     66  C   UNL A   1      37.882  32.242  33.394  1.00  0.00     0.031 C 
ATOM     67  C   UNL A   1      39.754  31.468  34.827  1.00  0.00     0.037 A 
BRANCH  54  68
ATOM     68  C   UNL A   1      44.929  28.078  34.793  1.00  0.00     0.057 A 
ATOM     69  C   UNL A   1      46.142  28.765  34.934  1.00  0.00     0.134 A 
ATOM     70  C   UNL A   1      44.826  26.817  35.392  1.00  0.00     0.134 A 
ATOM     71  F   UNL A   1      46.310  29.971  34.372  1.00  0.00    -0.206 F 
ATOM     72  C   UNL A   1      47.223  28.202  35.616  1.00  0.00     0.040 A 
ATOM     73  C   UNL A   1      45.892  26.254  36.097  1.00  0.00     0.040 A 
ATOM     74  F   UNL A   1      43.692  26.108  35.298  1.00  0.00    -0.206 F 
ATOM     75  C   UNL A   1      47.099  26.944  36.201  1.00  0.00     0.006 A 
ENDBRANCH  54  68
BRANCH  55  76
ATOM     76  C   UNL A   1      37.268  31.373  29.304  1.00  0.00     0.057 A 
ATOM     77  C   UNL A   1      36.174  30.525  29.109  1.00  0.00     0.134 A 
ATOM     78  C   UNL A   1      37.201  32.657  28.747  1.00  0.00     0.134 A 
ATOM     79  F   UNL A   1      36.189  29.279  29.603  1.00  0.00    -0.206 F 
ATOM     80  C   UNL A   1      35.052  30.938  28.387  1.00  0.00     0.040 A 
ATOM     81  C   UNL A   1      36.078  33.090  28.042  1.00  0.00     0.040 A 
ATOM     82  F   UNL A   1      38.219  33.517  28.906  1.00  0.00    -0.206 F 
ATOM     83  C   UNL A   1      35.000  32.227  27.859  1.00  0.00     0.006 A 
ENDBRANCH  55  76
BRANCH  67  84
ATOM     84  C   UNL A   1      39.125  32.211  35.967  1.00  0.00     0.057 A 
ATOM     85  C   UNL A   1      39.406  33.561  36.210  1.00  0.00     0.134 A 
ATOM     86  C   UNL A   1      38.202  31.578  36.809  1.00  0.00     0.134 A 
ATOM     87  F   UNL A   1      40.293  34.218  35.448  1.00  0.00    -0.206 F 
ATOM     88  C   UNL A   1      38.801  34.252  37.261  1.00  0.00     0.040 A 
ATOM     89  C   UNL A   1      37.575  32.265  37.849  1.00  0.00     0.040 A 
ATOM     90  F   UNL A   1      37.885  30.287  36.625  1.00  0.00    -0.206 F 
ATOM     91  C   UNL A   1      37.877  33.605  38.080  1.00  0.00     0.006 A 
ENDBRANCH  67  84
ENDBRANCH  41  42
ENDBRANCH  34  36
ENDBRANCH  33  34
ENDBRANCH  32  33
ENDBRANCH  31  32
ENDBRANCH  30  31
ENDBRANCH  28  30
ENDBRANCH   1  28
TORSDOF 19
ENDMDL
MODEL 2
REMARK VINA RESULT:     -11.5      4.363      9.163
REMARK SMILES CCCCCCNC(=O)Nc1cccc(-c2ccc([C@@H](C)C(=O)OCCOC(=O)c3ccc(-c4c5nc(c(-c6c(F)cccc6F)c6ccc([nH]6)c(-c6c(F)cccc6F)c6nc(c(-c7c(F)cccc7F)c7ccc4[nH]7)C=C6)C=C5)cc3)cc2F)c1
REMARK SMILES IDX 20 1 21 2 19 3 16 4 17 5 85 6 18 7 84 8 86 9 15 10 11 11
REMARK SMILES IDX 12 12 87 13 13 14 14 15 10 16 7 17 8 18 9 20 6 22 5 23 4 24
REMARK SMILES IDX 3 25 2 26 1 27 22 28 23 29 24 30 25 31 26 32 27 33 28 34
REMARK SMILES IDX 29 35 30 36 31 37 83 38 32 39 82 40 33 41 34 42 35 43 76 44
REMARK SMILES IDX 36 45 81 46 75 47 77 48 37 49 80 50 74 51 73 52 38 54 64 55
REMARK SMILES IDX 47 56 63 57 48 58 51 59 62 60 78 61 49 62 50 63 61 65 79 66
REMARK SMILES IDX 52 67 39 68 40 69 45 70 41 71 42 72 44 73 46 74 43 75 65 76
REMARK SMILES IDX 66 77 71 78 67 79 68 80 70 81 72 82 69 83 53 84 54 85 59 86
REMARK SMILES IDX 55 87 56 88 58 89 60 90 57 91
REMARK H PARENT 7 19 10 21 77 53 51 64
REMARK Flexibility Score: inf
ROOT
ATOM      1  C   UNL A   1      34.783  32.078  28.363  1.00  0.00     0.126 C 
ATOM      2  C   UNL A   1      36.255  31.905  27.993  1.00  0.00     0.025 C 
ENDROOT
BRANCH   1   3
ATOM      3  C   UNL A   1      33.903  31.005  27.743  1.00  0.00    -0.031 A 
ATOM      4  C   UNL A   1      32.357  28.991  26.451  1.00  0.00     0.018 A 
ATOM      5  C   UNL A   1      31.846  30.284  26.653  1.00  0.00     0.012 A 
ATOM      6  C   UNL A   1      33.641  28.723  26.934  1.00  0.00     0.131 A 
ATOM      7  C   UNL A   1      32.605  31.275  27.288  1.00  0.00     0.005 A 
ATOM      8  C   UNL A   1      34.405  29.706  27.564  1.00  0.00     0.044 A 
ATOM      9  F   UNL A   1      34.181  27.505  26.779  1.00  0.00    -0.206 F 
BRANCH   4  10
ATOM     10  C   UNL A   1      31.548  27.967  25.774  1.00  0.00    -0.013 A 
ATOM     11  C   UNL A   1      30.339  25.851  25.853  1.00  0.00     0.043 A 
ATOM     12  C   UNL A   1      29.863  26.060  24.559  1.00  0.00     0.026 A 
ATOM     13  C   UNL A   1      31.239  26.759  26.418  1.00  0.00     0.035 A 
ATOM     14  C   UNL A   1      30.180  27.242  23.890  1.00  0.00     0.003 A 
ATOM     15  C   UNL A   1      30.996  28.198  24.504  1.00  0.00     0.009 A 
BRANCH  11  16
ATOM     16  N   UNL A   1      29.836  24.756  26.571  1.00  0.00    -0.308 N 
ATOM     17  N   UNL A   1      31.509  23.093  26.323  1.00  0.00    -0.338 N 
ATOM     18  C   UNL A   1      30.228  23.456  26.582  1.00  0.00     0.319 C 
ATOM     19  H   UNL A   1      31.649  22.125  26.206  1.00  0.00     0.165 HD
ATOM     20  O   UNL A   1      29.432  22.586  26.942  1.00  0.00    -0.249 OA
ATOM     21  H   UNL A   1      29.078  24.963  27.162  1.00  0.00     0.171 HD
BRANCH  17  22
ATOM     22  C   UNL A   1      32.707  23.905  26.190  1.00  0.00     0.117 C 
BRANCH  22  23
ATOM     23  C   UNL A   1      33.231  24.023  24.764  1.00  0.00     0.021 C 
BRANCH  23  24
ATOM     24  C   UNL A   1      34.084  25.256  24.466  1.00  0.00     0.002 C 
BRANCH  24  25
ATOM     25  C   UNL A   1      33.668  26.091  23.250  1.00  0.00    -0.000 C 
BRANCH  25  26
ATOM     26  C   UNL A   1      33.938  27.595  23.338  1.00  0.00    -0.003 C 
ATOM     27  C   UNL A   1      34.185  28.258  21.995  1.00  0.00     0.004 C 
ENDBRANCH  25  26
ENDBRANCH  24  25
ENDBRANCH  23  24
ENDBRANCH  22  23
ENDBRANCH  17  22
ENDBRANCH  11  16
ENDBRANCH   4  10
ENDBRANCH   1   3
BRANCH   1  28
ATOM     28  C   UNL A   1      34.367  33.525  28.142  1.00  0.00     0.313 C 
ATOM     29  O   UNL A   1      34.862  34.206  27.249  1.00  0.00    -0.252 OA
BRANCH  28  30
ATOM     30  O   UNL A   1      33.382  33.957  28.973  1.00  0.00    -0.462 OA
BRANCH  30  31
ATOM     31  C   UNL A   1      32.877  35.283  28.722  1.00  0.00     0.274 C 
BRANCH  31  32
ATOM     32  C   UNL A   1      32.896  36.161  29.975  1.00  0.00     0.275 C 
BRANCH  32  33
ATOM     33  O   UNL A   1      32.281  35.513  31.098  1.00  0.00    -0.458 OA
BRANCH  33  34
ATOM     34  C   UNL A   1      32.683  35.967  32.309  1.00  0.00     0.338 C 
ATOM     35  O   UNL A   1      32.169  36.831  32.994  1.00  0.00    -0.246 OA
BRANCH  34  36
ATOM     36  C   UNL A   1      33.841  35.177  32.740  1.00  0.00     0.060 A 
ATOM     37  C   UNL A   1      35.120  35.708  32.567  1.00  0.00     0.016 A 
ATOM     38  C   UNL A   1      33.660  33.895  33.257  1.00  0.00     0.016 A 
ATOM     39  C   UNL A   1      36.237  34.951  32.906  1.00  0.00     0.010 A 
ATOM     40  C   UNL A   1      34.779  33.143  33.614  1.00  0.00     0.010 A 
ATOM     41  C   UNL A   1      36.073  33.664  33.431  1.00  0.00    -0.014 A 
BRANCH  41  42
ATOM     42  C   UNL A   1      37.255  32.842  33.774  1.00  0.00     0.031 A 
ATOM     43  C   UNL A   1      38.009  33.110  35.041  1.00  0.00     0.074 A 
ATOM     44  C   UNL A   1      37.664  31.880  32.928  1.00  0.00     0.049 A 
ATOM     45  N   UNL A   1      39.136  32.595  35.458  1.00  0.00    -0.248 NA
ATOM     46  C   UNL A   1      37.419  34.100  35.955  1.00  0.00     0.031 C 
ATOM     47  C   UNL A   1      36.997  31.519  31.676  1.00  0.00     0.029 A 
ATOM     48  N   UNL A   1      38.750  31.045  32.986  1.00  0.00    -0.354 N 
ATOM     49  C   UNL A   1      39.407  33.215  36.670  1.00  0.00     0.074 A 
ATOM     50  C   UNL A   1      38.333  34.157  36.912  1.00  0.00     0.031 C 
ATOM     51  C   UNL A   1      37.700  30.547  31.074  1.00  0.00     0.029 A 
ATOM     52  C   UNL A   1      38.883  30.249  31.877  1.00  0.00     0.049 A 
ATOM     53  H   UNL A   1      39.372  31.021  33.748  1.00  0.00     0.167 HD
ATOM     54  C   UNL A   1      40.455  33.015  37.503  1.00  0.00     0.037 A 
ATOM     55  C   UNL A   1      39.867  29.398  31.529  1.00  0.00     0.037 A 
ATOM     56  C   UNL A   1      41.512  32.068  37.259  1.00  0.00     0.049 A 
ATOM     57  C   UNL A   1      41.035  29.213  32.453  1.00  0.00     0.074 A 
ATOM     58  C   UNL A   1      42.603  31.765  38.055  1.00  0.00     0.029 A 
ATOM     59  N   UNL A   1      41.610  31.272  36.126  1.00  0.00    -0.354 N 
ATOM     60  N   UNL A   1      41.278  29.793  33.603  1.00  0.00    -0.248 NA
ATOM     61  C   UNL A   1      42.068  28.255  32.031  1.00  0.00     0.031 C 
ATOM     62  C   UNL A   1      43.381  30.814  37.386  1.00  0.00     0.029 A 
ATOM     63  C   UNL A   1      42.754  30.493  36.192  1.00  0.00     0.049 A 
ATOM     64  H   UNL A   1      40.961  31.262  35.386  1.00  0.00     0.167 HD
ATOM     65  C   UNL A   1      42.482  29.265  34.050  1.00  0.00     0.074 A 
ATOM     66  C   UNL A   1      42.913  28.306  33.052  1.00  0.00     0.031 C 
ATOM     67  C   UNL A   1      43.169  29.550  35.184  1.00  0.00     0.037 A 
BRANCH  54  68
ATOM     68  C   UNL A   1      40.518  33.866  38.736  1.00  0.00     0.057 A 
ATOM     69  C   UNL A   1      41.236  35.068  38.774  1.00  0.00     0.134 A 
ATOM     70  C   UNL A   1      39.855  33.472  39.905  1.00  0.00     0.134 A 
ATOM     71  F   UNL A   1      41.904  35.495  37.692  1.00  0.00    -0.206 F 
ATOM     72  C   UNL A   1      41.321  35.830  39.941  1.00  0.00     0.040 A 
ATOM     73  C   UNL A   1      39.913  34.238  41.071  1.00  0.00     0.040 A 
ATOM     74  F   UNL A   1      39.146  32.333  39.936  1.00  0.00    -0.206 F 
ATOM     75  C   UNL A   1      40.656  35.416  41.093  1.00  0.00     0.006 A 
ENDBRANCH  54  68
BRANCH  55  76
ATOM     76  C   UNL A   1      39.785  28.682  30.235  1.00  0.00     0.057 A 
ATOM     77  C   UNL A   1      40.392  29.196  29.085  1.00  0.00     0.134 A 
ATOM     78  C   UNL A   1      39.133  27.447  30.127  1.00  0.00     0.134 A 
ATOM     79  F   UNL A   1      41.014  30.383  29.123  1.00  0.00    -0.206 F 
ATOM     80  C   UNL A   1      40.354  28.507  27.871  1.00  0.00     0.040 A 
ATOM     81  C   UNL A   1      39.106  26.738  28.927  1.00  0.00     0.040 A 
ATOM     82  F   UNL A   1      38.538  26.902  31.199  1.00  0.00    -0.206 F 
ATOM     83  C   UNL A   1      39.717  27.270  27.793  1.00  0.00     0.006 A 
ENDBRANCH  55  76
BRANCH  67  84
ATOM     84  C   UNL A   1      44.447  28.800  35.412  1.00  0.00     0.057 A 
ATOM     85  C   UNL A   1      44.467  27.566  36.074  1.00  0.00     0.134 A 
ATOM     86  C   UNL A   1      45.663  29.301  34.933  1.00  0.00     0.134 A 
ATOM     87  F   UNL A   1      43.336  27.042  36.569  1.00  0.00    -0.206 F 
ATOM     88  C   UNL A   1      45.658  26.864  36.266  1.00  0.00     0.040 A 
ATOM     89  C   UNL A   1      46.857  28.597  35.100  1.00  0.00     0.040 A 
ATOM     90  F   UNL A   1      45.710  30.475  34.285  1.00  0.00    -0.206 F 
ATOM     91  C   UNL A   1      46.857  27.377  35.772  1.00  0.00     0.006 A 
ENDBRANCH  67  84
ENDBRANCH  41  42
ENDBRANCH  34  36
ENDBRANCH  33  34
ENDBRANCH  32  33
ENDBRANCH  31  32
ENDBRANCH  30  31
ENDBRANCH  28  30
ENDBRANCH   1  28
TORSDOF 19
ENDMDL
MODEL 3
REMARK VINA RESULT:     -11.5      0.521      5.991
REMARK SMILES CCCCCCNC(=O)Nc1cccc(-c2ccc([C@@H](C)C(=O)OCCOC(=O)c3ccc(-c4c5nc(c(-c6c(F)cccc6F)c6ccc([nH]6)c(-c6c(F)cccc6F)c6nc(c(-c7c(F)cccc7F)c7ccc4[nH]7)C=C6)C=C5)cc3)cc2F)c1
REMARK SMILES IDX 20 1 21 2 19 3 16 4 17 5 85 6 18 7 84 8 86 9 15 10 11 11
REMARK SMILES IDX 12 12 87 13 13 14 14 15 10 16 7 17 8 18 9 20 6 22 5 23 4 24
REMARK SMILES IDX 3 25 2 26 1 27 22 28 23 29 24 30 25 31 26 32 27 33 28 34
REMARK SMILES IDX 29 35 30 36 31 37 83 38 32 39 82 40 33 41 34 42 35 43 76 44
REMARK SMILES IDX 36 45 81 46 75 47 77 48 37 49 80 50 74 51 73 52 38 54 64 55
REMARK SMILES IDX 47 56 63 57 48 58 51 59 62 60 78 61 49 62 50 63 61 65 79 66
REMARK SMILES IDX 52 67 39 68 40 69 45 70 41 71 42 72 44 73 46 74 43 75 65 76
REMARK SMILES IDX 66 77 71 78 67 79 68 80 70 81 72 82 69 83 53 84 54 85 59 86
REMARK SMILES IDX 55 87 56 88 58 89 60 90 57 91
REMARK H PARENT 7 19 10 21 77 53 51 64
REMARK Flexibility Score: inf
ROOT
ATOM      1  C   UNL A   1      41.248  22.112  26.950  1.00  0.00     0.126 C 
ATOM      2  C   UNL A   1      41.407  22.120  28.470  1.00  0.00     0.025 C 
ENDROOT
BRANCH   1   3
ATOM      3  C   UNL A   1      39.826  22.430  26.518  1.00  0.00    -0.031 A 
ATOM      4  C   UNL A   1      37.212  23.019  25.551  1.00  0.00     0.018 A 
ATOM      5  C   UNL A   1      37.947  23.964  26.285  1.00  0.00     0.012 A 
ATOM      6  C   UNL A   1      37.800  21.769  25.339  1.00  0.00     0.131 A 
ATOM      7  C   UNL A   1      39.232  23.676  26.761  1.00  0.00     0.005 A 
ATOM      8  C   UNL A   1      39.082  21.475  25.806  1.00  0.00     0.044 A 
ATOM      9  F   UNL A   1      37.145  20.821  24.651  1.00  0.00    -0.206 F 
BRANCH   4  10
ATOM     10  C   UNL A   1      35.867  23.344  25.052  1.00  0.00    -0.013 A 
ATOM     11  C   UNL A   1      33.520  23.830  25.495  1.00  0.00     0.043 A 
ATOM     12  C   UNL A   1      33.313  24.123  24.148  1.00  0.00     0.026 A 
ATOM     13  C   UNL A   1      34.768  23.364  25.922  1.00  0.00     0.035 A 
ATOM     14  C   UNL A   1      34.388  24.082  23.260  1.00  0.00     0.003 A 
ATOM     15  C   UNL A   1      35.659  23.719  23.715  1.00  0.00     0.009 A 
BRANCH  11  16
ATOM     16  N   UNL A   1      32.471  24.078  26.393  1.00  0.00    -0.308 N 
ATOM     17  N   UNL A   1      31.179  22.091  26.330  1.00  0.00    -0.338 N 
ATOM     18  C   UNL A   1      31.301  23.418  26.586  1.00  0.00     0.319 C 
ATOM     19  H   UNL A   1      30.257  21.748  26.357  1.00  0.00     0.165 HD
ATOM     20  O   UNL A   1      30.352  24.004  27.108  1.00  0.00    -0.249 OA
ATOM     21  H   UNL A   1      32.605  24.858  26.978  1.00  0.00     0.171 HD
BRANCH  17  22
ATOM     22  C   UNL A   1      32.194  21.096  26.024  1.00  0.00     0.117 C 
BRANCH  22  23
ATOM     23  C   UNL A   1      32.154  20.577  24.591  1.00  0.00     0.021 C 
BRANCH  23  24
ATOM     24  C   UNL A   1      33.146  19.465  24.255  1.00  0.00     0.002 C 
BRANCH  24  25
ATOM     25  C   UNL A   1      32.679  18.426  23.230  1.00  0.00    -0.000 C 
BRANCH  25  26
ATOM     26  C   UNL A   1      33.583  17.205  23.045  1.00  0.00    -0.003 C 
ATOM     27  C   UNL A   1      34.438  16.881  24.258  1.00  0.00     0.004 C 
ENDBRANCH  25  26
ENDBRANCH  24  25
ENDBRANCH  23  24
ENDBRANCH  22  23
ENDBRANCH  17  22
ENDBRANCH  11  16
ENDBRANCH   4  10
ENDBRANCH   1   3
BRANCH   1  28
ATOM     28  C   UNL A   1      41.878  20.852  26.376  1.00  0.00     0.313 C 
ATOM     29  O   UNL A   1      41.626  19.742  26.836  1.00  0.00    -0.252 OA
BRANCH  28  30
ATOM     30  O   UNL A   1      42.682  21.068  25.302  1.00  0.00    -0.462 OA
BRANCH  30  31
ATOM     31  C   UNL A   1      43.804  21.946  25.514  1.00  0.00     0.274 C 
BRANCH  31  32
ATOM     32  C   UNL A   1      43.878  23.062  24.470  1.00  0.00     0.275 C 
BRANCH  32  33
ATOM     33  O   UNL A   1      43.272  24.277  24.935  1.00  0.00    -0.458 OA
BRANCH  33  34
ATOM     34  C   UNL A   1      44.143  25.264  25.254  1.00  0.00     0.338 C 
ATOM     35  O   UNL A   1      45.130  25.621  24.637  1.00  0.00    -0.246 OA
BRANCH  34  36
ATOM     36  C   UNL A   1      43.665  25.930  26.470  1.00  0.00     0.060 A 
ATOM     37  C   UNL A   1      42.754  25.262  27.289  1.00  0.00     0.016 A 
ATOM     38  C   UNL A   1      44.074  27.230  26.763  1.00  0.00     0.016 A 
ATOM     39  C   UNL A   1      42.235  25.897  28.412  1.00  0.00     0.010 A 
ATOM     40  C   UNL A   1      43.568  27.861  27.899  1.00  0.00     0.010 A 
ATOM     41  C   UNL A   1      42.639  27.201  28.724  1.00  0.00    -0.014 A 
BRANCH  41  42
ATOM     42  C   UNL A   1      42.077  27.895  29.904  1.00  0.00     0.031 A 
ATOM     43  C   UNL A   1      40.826  28.708  29.766  1.00  0.00     0.074 A 
ATOM     44  C   UNL A   1      42.713  27.818  31.086  1.00  0.00     0.049 A 
ATOM     45  N   UNL A   1      40.248  29.492  30.638  1.00  0.00    -0.248 NA
ATOM     46  C   UNL A   1      40.141  28.637  28.466  1.00  0.00     0.031 C 
ATOM     47  C   UNL A   1      43.928  27.043  31.341  1.00  0.00     0.029 A 
ATOM     48  N   UNL A   1      42.436  28.417  32.287  1.00  0.00    -0.354 N 
ATOM     49  C   UNL A   1      39.145  30.029  29.988  1.00  0.00     0.074 A 
ATOM     50  C   UNL A   1      39.146  29.494  28.641  1.00  0.00     0.031 C 
ATOM     51  C   UNL A   1      44.301  27.227  32.617  1.00  0.00     0.029 A 
ATOM     52  C   UNL A   1      43.378  28.164  33.252  1.00  0.00     0.049 A 
ATOM     53  H   UNL A   1      41.639  28.974  32.442  1.00  0.00     0.167 HD
ATOM     54  C   UNL A   1      38.218  30.890  30.471  1.00  0.00     0.037 A 
ATOM     55  C   UNL A   1      43.503  28.658  34.497  1.00  0.00     0.037 A 
ATOM     56  C   UNL A   1      38.221  31.408  31.815  1.00  0.00     0.049 A 
ATOM     57  C   UNL A   1      42.481  29.634  35.005  1.00  0.00     0.074 A 
ATOM     58  C   UNL A   1      37.309  32.260  32.415  1.00  0.00     0.029 A 
ATOM     59  N   UNL A   1      39.188  31.123  32.767  1.00  0.00    -0.354 N 
ATOM     60  N   UNL A   1      41.435  30.128  34.388  1.00  0.00    -0.248 NA
ATOM     61  C   UNL A   1      42.657  30.123  36.380  1.00  0.00     0.031 C 
ATOM     62  C   UNL A   1      37.747  32.520  33.718  1.00  0.00     0.029 A 
ATOM     63  C   UNL A   1      38.909  31.799  33.945  1.00  0.00     0.049 A 
ATOM     64  H   UNL A   1      39.960  30.527  32.628  1.00  0.00     0.167 HD
ATOM     65  C   UNL A   1      40.820  30.975  35.300  1.00  0.00     0.074 A 
ATOM     66  C   UNL A   1      41.604  30.917  36.518  1.00  0.00     0.031 C 
ATOM     67  C   UNL A   1      39.706  31.733  35.143  1.00  0.00     0.037 A 
BRANCH  54  68
ATOM     68  C   UNL A   1      37.150  31.344  29.523  1.00  0.00     0.057 A 
ATOM     69  C   UNL A   1      36.062  30.530  29.184  1.00  0.00     0.134 A 
ATOM     70  C   UNL A   1      37.215  32.613  28.934  1.00  0.00     0.134 A 
ATOM     71  F   UNL A   1      35.947  29.298  29.702  1.00  0.00    -0.206 F 
ATOM     72  C   UNL A   1      35.095  30.948  28.267  1.00  0.00     0.040 A 
ATOM     73  C   UNL A   1      36.242  33.053  28.034  1.00  0.00     0.040 A 
ATOM     74  F   UNL A   1      38.229  33.445  29.218  1.00  0.00    -0.206 F 
ATOM     75  C   UNL A   1      35.183  32.214  27.692  1.00  0.00     0.006 A 
ENDBRANCH  54  68
BRANCH  55  76
ATOM     76  C   UNL A   1      44.657  28.246  35.330  1.00  0.00     0.057 A 
ATOM     77  C   UNL A   1      44.590  27.115  36.149  1.00  0.00     0.134 A 
ATOM     78  C   UNL A   1      45.867  28.951  35.294  1.00  0.00     0.134 A 
ATOM     79  F   UNL A   1      43.452  26.412  36.238  1.00  0.00    -0.206 F 
ATOM     80  C   UNL A   1      45.687  26.697  36.905  1.00  0.00     0.040 A 
ATOM     81  C   UNL A   1      46.977  28.533  36.028  1.00  0.00     0.040 A 
ATOM     82  F   UNL A   1      45.992  30.041  34.522  1.00  0.00    -0.206 F 
ATOM     83  C   UNL A   1      46.888  27.403  36.838  1.00  0.00     0.006 A 
ENDBRANCH  55  76
BRANCH  67  84
ATOM     84  C   UNL A   1      39.263  32.544  36.323  1.00  0.00     0.057 A 
ATOM     85  C   UNL A   1      39.736  33.844  36.542  1.00  0.00     0.134 A 
ATOM     86  C   UNL A   1      38.327  32.032  37.230  1.00  0.00     0.134 A 
ATOM     87  F   UNL A   1      40.645  34.384  35.717  1.00  0.00    -0.206 F 
ATOM     88  C   UNL A   1      39.304  34.601  37.632  1.00  0.00     0.040 A 
ATOM     89  C   UNL A   1      37.872  32.788  38.312  1.00  0.00     0.040 A 
ATOM     90  F   UNL A   1      37.831  30.795  37.073  1.00  0.00    -0.206 F 
ATOM     91  C   UNL A   1      38.364  34.074  38.517  1.00  0.00     0.006 A 
ENDBRANCH  67  84
ENDBRANCH  41  42
ENDBRANCH  34  36
ENDBRANCH  33  34
ENDBRANCH  32  33
ENDBRANCH  31  32
ENDBRANCH  30  31
ENDBRANCH  28  30
ENDBRANCH   1  28
TORSDOF 19
ENDMDL
