MODEL 1
REMARK VINA RESULT:     -10.2      0.000      0.000
REMARK SMILES CCN(C(=O)N[C@@H]1CCOC1)[C@H]1COC[C@H]1C(=O)OCCOC(=O)c1ccc(-c2c3nc(c(-c4c(F)cccc4F)c4ccc([nH]4)c(-c4c(F)cccc4F)c4nc(c(-c5c(F)cccc5F)c5ccc2[nH]5)C=C4)C=C3)cc1
REMARK SMILES IDX 20 1 19 2 17 3 18 4 16 5 12 6 13 7 14 8 15 9 3 10 2 11 1 12
REMARK SMILES IDX 4 13 5 14 6 15 7 17 8 18 11 19 9 20 10 21 21 22 22 23 23 24
REMARK SMILES IDX 24 25 25 26 26 27 78 28 27 29 77 30 28 31 29 32 30 33 71 34
REMARK SMILES IDX 31 35 76 36 70 37 72 38 32 39 75 40 69 41 68 42 33 44 59 45
REMARK SMILES IDX 42 46 58 47 43 48 46 49 57 50 73 51 44 52 45 53 56 55 74 56
REMARK SMILES IDX 47 57 34 58 35 59 40 60 36 61 37 62 39 63 41 64 38 65 60 66
REMARK SMILES IDX 61 67 66 68 62 69 63 70 65 71 67 72 64 73 48 74 49 75 54 76
REMARK SMILES IDX 50 77 51 78 53 79 55 80 52 81
REMARK H PARENT 6 16 72 43 46 54
REMARK Flexibility Score: inf
ROOT
ATOM      1  C   UNL A   1      33.982  33.608  28.000  1.00  0.00     0.274 C 
ENDROOT
BRANCH   1   2
ATOM      2  O   UNL A   1      33.062  34.340  28.833  1.00  0.00    -0.462 OA
BRANCH   2   3
ATOM      3  C   UNL A   1      33.401  35.600  29.167  1.00  0.00     0.313 C 
ATOM      4  O   UNL A   1      34.029  36.363  28.438  1.00  0.00    -0.252 OA
BRANCH   3   5
ATOM      5  C   UNL A   1      32.852  36.065  30.486  1.00  0.00     0.150 C 
ATOM      6  C   UNL A   1      33.007  35.340  31.820  1.00  0.00     0.129 C 
ATOM      7  C   UNL A   1      32.426  36.451  32.709  1.00  0.00     0.186 C 
ATOM      8  O   UNL A   1      32.952  37.692  32.194  1.00  0.00    -0.378 OA
ATOM      9  C   UNL A   1      33.278  37.479  30.807  1.00  0.00     0.177 C 
BRANCH   6  10
ATOM     10  N   UNL A   1      34.388  34.907  32.142  1.00  0.00    -0.319 N 
BRANCH  10  11
ATOM     11  C   UNL A   1      35.072  35.332  33.376  1.00  0.00     0.118 C 
ATOM     12  C   UNL A   1      35.317  34.224  34.380  1.00  0.00     0.027 C 
ENDBRANCH  10  11
BRANCH  10  13
ATOM     13  C   UNL A   1      34.829  33.688  31.610  1.00  0.00     0.318 C 
ATOM     14  O   UNL A   1      34.280  32.616  31.810  1.00  0.00    -0.249 OA
ATOM     15  N   UNL A   1      35.978  33.856  30.886  1.00  0.00    -0.333 N 
ATOM     16  H   UNL A   1      36.067  34.718  30.419  1.00  0.00     0.165 HD
BRANCH  15  17
ATOM     17  C   UNL A   1      37.089  32.927  30.716  1.00  0.00     0.112 C 
ATOM     18  C   UNL A   1      38.300  33.109  31.604  1.00  0.00     0.056 C 
ATOM     19  C   UNL A   1      37.716  33.151  29.339  1.00  0.00     0.185 C 
ATOM     20  C   UNL A   1      39.071  34.210  30.904  1.00  0.00     0.162 C 
ATOM     21  O   UNL A   1      38.778  34.103  29.501  1.00  0.00    -0.379 OA
ENDBRANCH  15  17
ENDBRANCH  10  13
ENDBRANCH   6  10
ENDBRANCH   3   5
ENDBRANCH   2   3
ENDBRANCH   1   2
BRANCH   1  22
ATOM     22  C   UNL A   1      33.989  32.128  28.391  1.00  0.00     0.275 C 
BRANCH  22  23
ATOM     23  O   UNL A   1      34.547  31.301  27.349  1.00  0.00    -0.458 OA
BRANCH  23  24
ATOM     24  C   UNL A   1      34.805  30.029  27.727  1.00  0.00     0.338 C 
ATOM     25  O   UNL A   1      34.055  29.072  27.690  1.00  0.00    -0.246 OA
BRANCH  24  26
ATOM     26  C   UNL A   1      36.207  29.864  28.115  1.00  0.00     0.060 A 
ATOM     27  C   UNL A   1      37.170  30.071  27.128  1.00  0.00     0.016 A 
ATOM     28  C   UNL A   1      36.558  29.328  29.352  1.00  0.00     0.016 A 
ATOM     29  C   UNL A   1      38.487  29.703  27.348  1.00  0.00     0.010 A 
ATOM     30  C   UNL A   1      37.894  28.992  29.590  1.00  0.00     0.010 A 
ATOM     31  C   UNL A   1      38.860  29.160  28.581  1.00  0.00    -0.014 A 
BRANCH  31  32
ATOM     32  C   UNL A   1      40.269  28.767  28.791  1.00  0.00     0.031 A 
ATOM     33  C   UNL A   1      41.237  29.722  29.424  1.00  0.00     0.074 A 
ATOM     34  C   UNL A   1      40.655  27.525  28.450  1.00  0.00     0.049 A 
ATOM     35  N   UNL A   1      42.525  29.585  29.610  1.00  0.00    -0.248 NA
ATOM     36  C   UNL A   1      40.687  30.996  29.911  1.00  0.00     0.031 C 
ATOM     37  C   UNL A   1      39.781  26.497  27.879  1.00  0.00     0.029 A 
ATOM     38  N   UNL A   1      41.878  26.912  28.541  1.00  0.00    -0.354 N 
ATOM     39  C   UNL A   1      42.947  30.766  30.204  1.00  0.00     0.074 A 
ATOM     40  C   UNL A   1      41.778  31.609  30.350  1.00  0.00     0.031 C 
ATOM     41  C   UNL A   1      40.493  25.377  27.683  1.00  0.00     0.029 A 
ATOM     42  C   UNL A   1      41.880  25.627  28.058  1.00  0.00     0.049 A 
ATOM     43  H   UNL A   1      42.675  27.350  28.915  1.00  0.00     0.167 HD
ATOM     44  C   UNL A   1      44.199  31.111  30.588  1.00  0.00     0.037 A 
ATOM     45  C   UNL A   1      42.895  24.758  27.904  1.00  0.00     0.037 A 
ATOM     46  C   UNL A   1      45.348  30.254  30.462  1.00  0.00     0.049 A 
ATOM     47  C   UNL A   1      44.278  25.179  28.307  1.00  0.00     0.074 A 
ATOM     48  C   UNL A   1      46.661  30.509  30.819  1.00  0.00     0.029 A 
ATOM     49  N   UNL A   1      45.317  28.968  29.942  1.00  0.00    -0.354 N 
ATOM     50  N   UNL A   1      44.673  26.313  28.831  1.00  0.00    -0.248 NA
ATOM     51  C   UNL A   1      45.355  24.206  28.086  1.00  0.00     0.031 C 
ATOM     52  C   UNL A   1      47.429  29.386  30.490  1.00  0.00     0.029 A 
ATOM     53  C   UNL A   1      46.590  28.421  29.958  1.00  0.00     0.049 A 
ATOM     54  H   UNL A   1      44.510  28.511  29.612  1.00  0.00     0.167 HD
ATOM     55  C   UNL A   1      46.044  26.192  29.008  1.00  0.00     0.074 A 
ATOM     56  C   UNL A   1      46.408  24.864  28.554  1.00  0.00     0.031 C 
ATOM     57  C   UNL A   1      46.924  27.098  29.497  1.00  0.00     0.037 A 
BRANCH  44  58
ATOM     58  C   UNL A   1      44.395  32.488  31.146  1.00  0.00     0.057 A 
ATOM     59  C   UNL A   1      44.649  33.593  30.325  1.00  0.00     0.134 A 
ATOM     60  C   UNL A   1      44.292  32.715  32.525  1.00  0.00     0.134 A 
ATOM     61  F   UNL A   1      44.773  33.439  28.999  1.00  0.00    -0.206 F 
ATOM     62  C   UNL A   1      44.811  34.874  30.858  1.00  0.00     0.040 A 
ATOM     63  C   UNL A   1      44.435  33.993  33.067  1.00  0.00     0.040 A 
ATOM     64  F   UNL A   1      44.049  31.699  33.366  1.00  0.00    -0.206 F 
ATOM     65  C   UNL A   1      44.698  35.077  32.233  1.00  0.00     0.006 A 
ENDBRANCH  44  58
BRANCH  45  66
ATOM     66  C   UNL A   1      42.637  23.425  27.312  1.00  0.00     0.057 A 
ATOM     67  C   UNL A   1      42.778  23.203  25.939  1.00  0.00     0.134 A 
ATOM     68  C   UNL A   1      42.267  22.336  28.111  1.00  0.00     0.134 A 
ATOM     69  F   UNL A   1      43.111  24.213  25.122  1.00  0.00    -0.206 F 
ATOM     70  C   UNL A   1      42.555  21.944  25.378  1.00  0.00     0.040 A 
ATOM     71  C   UNL A   1      42.064  21.068  27.567  1.00  0.00     0.040 A 
ATOM     72  F   UNL A   1      42.122  22.487  29.436  1.00  0.00    -0.206 F 
ATOM     73  C   UNL A   1      42.204  20.871  26.196  1.00  0.00     0.006 A 
ENDBRANCH  45  66
BRANCH  57  74
ATOM     74  C   UNL A   1      48.357  26.671  29.573  1.00  0.00     0.057 A 
ATOM     75  C   UNL A   1      49.260  26.952  28.541  1.00  0.00     0.134 A 
ATOM     76  C   UNL A   1      48.841  25.991  30.697  1.00  0.00     0.134 A 
ATOM     77  F   UNL A   1      48.850  27.586  27.433  1.00  0.00    -0.206 F 
ATOM     78  C   UNL A   1      50.594  26.553  28.616  1.00  0.00     0.040 A 
ATOM     79  C   UNL A   1      50.177  25.603  30.791  1.00  0.00     0.040 A 
ATOM     80  F   UNL A   1      48.023  25.697  31.719  1.00  0.00    -0.206 F 
ATOM     81  C   UNL A   1      51.058  25.880  29.746  1.00  0.00     0.006 A 
ENDBRANCH  57  74
ENDBRANCH  31  32
ENDBRANCH  24  26
ENDBRANCH  23  24
ENDBRANCH  22  23
ENDBRANCH   1  22
TORSDOF 15
ENDMDL
MODEL 2
REMARK VINA RESULT:     -10.0      4.486      7.565
REMARK SMILES CCN(C(=O)N[C@@H]1CCOC1)[C@H]1COC[C@H]1C(=O)OCCOC(=O)c1ccc(-c2c3nc(c(-c4c(F)cccc4F)c4ccc([nH]4)c(-c4c(F)cccc4F)c4nc(c(-c5c(F)cccc5F)c5ccc2[nH]5)C=C4)C=C3)cc1
REMARK SMILES IDX 20 1 19 2 17 3 18 4 16 5 12 6 13 7 14 8 15 9 3 10 2 11 1 12
REMARK SMILES IDX 4 13 5 14 6 15 7 17 8 18 11 19 9 20 10 21 21 22 22 23 23 24
REMARK SMILES IDX 24 25 25 26 26 27 78 28 27 29 77 30 28 31 29 32 30 33 71 34
REMARK SMILES IDX 31 35 76 36 70 37 72 38 32 39 75 40 69 41 68 42 33 44 59 45
REMARK SMILES IDX 42 46 58 47 43 48 46 49 57 50 73 51 44 52 45 53 56 55 74 56
REMARK SMILES IDX 47 57 34 58 35 59 40 60 36 61 37 62 39 63 41 64 38 65 60 66
REMARK SMILES IDX 61 67 66 68 62 69 63 70 65 71 67 72 64 73 48 74 49 75 54 76
REMARK SMILES IDX 50 77 51 78 53 79 55 80 52 81
REMARK H PARENT 6 16 72 43 46 54
REMARK Flexibility Score: inf
ROOT
ATOM      1  C   UNL A   1      31.460  31.773  26.881  1.00  0.00     0.274 C 
ENDROOT
BRANCH   1   2
ATOM      2  O   UNL A   1      31.953  30.849  25.890  1.00  0.00    -0.462 OA
BRANCH   2   3
ATOM      3  C   UNL A   1      32.806  29.894  26.308  1.00  0.00     0.313 C 
ATOM      4  O   UNL A   1      33.949  30.111  26.700  1.00  0.00    -0.252 OA
BRANCH   3   5
ATOM      5  C   UNL A   1      32.215  28.514  26.367  1.00  0.00     0.150 C 
ATOM      6  C   UNL A   1      31.246  27.915  25.351  1.00  0.00     0.129 C 
ATOM      7  C   UNL A   1      31.254  26.481  25.901  1.00  0.00     0.186 C 
ATOM      8  O   UNL A   1      32.625  26.192  26.247  1.00  0.00    -0.378 OA
ATOM      9  C   UNL A   1      33.280  27.450  26.501  1.00  0.00     0.177 C 
BRANCH   6  10
ATOM     10  N   UNL A   1      31.652  28.068  23.933  1.00  0.00    -0.319 N 
BRANCH  10  11
ATOM     11  C   UNL A   1      32.987  27.667  23.454  1.00  0.00     0.118 C 
ATOM     12  C   UNL A   1      33.771  28.765  22.764  1.00  0.00     0.027 C 
ENDBRANCH  10  11
BRANCH  10  13
ATOM     13  C   UNL A   1      30.644  28.046  22.961  1.00  0.00     0.318 C 
ATOM     14  O   UNL A   1      30.649  27.312  21.985  1.00  0.00    -0.249 OA
ATOM     15  N   UNL A   1      29.686  28.988  23.225  1.00  0.00    -0.333 N 
ATOM     16  H   UNL A   1      29.521  29.173  24.179  1.00  0.00     0.165 HD
BRANCH  15  17
ATOM     17  C   UNL A   1      28.880  29.754  22.283  1.00  0.00     0.112 C 
ATOM     18  C   UNL A   1      28.942  31.263  22.369  1.00  0.00     0.056 C 
ATOM     19  C   UNL A   1      27.400  29.517  22.590  1.00  0.00     0.185 C 
ATOM     20  C   UNL A   1      27.981  31.578  23.499  1.00  0.00     0.162 C 
ATOM     21  O   UNL A   1      26.980  30.545  23.500  1.00  0.00    -0.379 OA
ENDBRANCH  15  17
ENDBRANCH  10  13
ENDBRANCH   6  10
ENDBRANCH   3   5
ENDBRANCH   2   3
ENDBRANCH   1   2
BRANCH   1  22
ATOM     22  C   UNL A   1      32.251  33.082  26.826  1.00  0.00     0.275 C 
BRANCH  22  23
ATOM     23  O   UNL A   1      32.153  33.819  28.062  1.00  0.00    -0.458 OA
BRANCH  23  24
ATOM     24  C   UNL A   1      33.234  34.583  28.340  1.00  0.00     0.338 C 
ATOM     25  O   UNL A   1      33.299  35.796  28.389  1.00  0.00    -0.246 OA
BRANCH  24  26
ATOM     26  C   UNL A   1      34.385  33.758  28.714  1.00  0.00     0.060 A 
ATOM     27  C   UNL A   1      34.130  32.610  29.464  1.00  0.00     0.016 A 
ATOM     28  C   UNL A   1      35.690  34.201  28.509  1.00  0.00     0.016 A 
ATOM     29  C   UNL A   1      35.173  31.917  30.057  1.00  0.00     0.010 A 
ATOM     30  C   UNL A   1      36.746  33.480  29.074  1.00  0.00     0.010 A 
ATOM     31  C   UNL A   1      36.490  32.346  29.866  1.00  0.00    -0.014 A 
BRANCH  31  32
ATOM     32  C   UNL A   1      37.586  31.596  30.514  1.00  0.00     0.031 A 
ATOM     33  C   UNL A   1      37.912  31.827  31.960  1.00  0.00     0.074 A 
ATOM     34  C   UNL A   1      38.251  30.670  29.800  1.00  0.00     0.049 A 
ATOM     35  N   UNL A   1      38.888  31.327  32.673  1.00  0.00    -0.248 NA
ATOM     36  C   UNL A   1      37.027  32.738  32.701  1.00  0.00     0.031 C 
ATOM     37  C   UNL A   1      37.977  30.326  28.403  1.00  0.00     0.029 A 
ATOM     38  N   UNL A   1      39.287  29.845  30.152  1.00  0.00    -0.354 N 
ATOM     39  C   UNL A   1      38.757  31.887  33.936  1.00  0.00     0.074 A 
ATOM     40  C   UNL A   1      37.606  32.764  33.894  1.00  0.00     0.031 C 
ATOM     41  C   UNL A   1      38.815  29.350  28.021  1.00  0.00     0.029 A 
ATOM     42  C   UNL A   1      39.720  29.045  29.124  1.00  0.00     0.049 A 
ATOM     43  H   UNL A   1      39.682  29.827  31.053  1.00  0.00     0.167 HD
ATOM     44  C   UNL A   1      39.533  31.685  35.027  1.00  0.00     0.037 A 
ATOM     45  C   UNL A   1      40.753  28.186  29.067  1.00  0.00     0.037 A 
ATOM     46  C   UNL A   1      40.660  30.790  35.064  1.00  0.00     0.049 A 
ATOM     47  C   UNL A   1      41.616  28.007  30.281  1.00  0.00     0.074 A 
ATOM     48  C   UNL A   1      41.512  30.515  36.120  1.00  0.00     0.029 A 
ATOM     49  N   UNL A   1      41.086  30.017  33.994  1.00  0.00    -0.354 N 
ATOM     50  N   UNL A   1      41.507  28.572  31.458  1.00  0.00    -0.248 NA
ATOM     51  C   UNL A   1      42.750  27.083  30.154  1.00  0.00     0.031 C 
ATOM     52  C   UNL A   1      42.471  29.595  35.679  1.00  0.00     0.029 A 
ATOM     53  C   UNL A   1      42.196  29.274  34.360  1.00  0.00     0.049 A 
ATOM     54  H   UNL A   1      40.661  29.998  33.106  1.00  0.00     0.167 HD
ATOM     55  C   UNL A   1      42.555  28.070  32.217  1.00  0.00     0.074 A 
ATOM     56  C   UNL A   1      43.275  27.138  31.371  1.00  0.00     0.031 C 
ATOM     57  C   UNL A   1      42.895  28.357  33.497  1.00  0.00     0.037 A 
BRANCH  44  58
ATOM     58  C   UNL A   1      39.210  32.476  36.259  1.00  0.00     0.057 A 
ATOM     59  C   UNL A   1      39.766  33.738  36.498  1.00  0.00     0.134 A 
ATOM     60  C   UNL A   1      38.302  31.978  37.203  1.00  0.00     0.134 A 
ATOM     61  F   UNL A   1      40.653  34.264  35.639  1.00  0.00    -0.206 F 
ATOM     62  C   UNL A   1      39.442  34.472  37.641  1.00  0.00     0.040 A 
ATOM     63  C   UNL A   1      37.957  32.709  38.340  1.00  0.00     0.040 A 
ATOM     64  F   UNL A   1      37.734  30.775  37.032  1.00  0.00    -0.206 F 
ATOM     65  C   UNL A   1      38.530  33.960  38.564  1.00  0.00     0.006 A 
ENDBRANCH  44  58
BRANCH  45  66
ATOM     66  C   UNL A   1      41.037  27.463  27.805  1.00  0.00     0.057 A 
ATOM     67  C   UNL A   1      40.457  26.219  27.538  1.00  0.00     0.134 A 
ATOM     68  C   UNL A   1      41.875  28.011  26.827  1.00  0.00     0.134 A 
ATOM     69  F   UNL A   1      39.660  25.636  28.445  1.00  0.00    -0.206 F 
ATOM     70  C   UNL A   1      40.705  25.542  26.342  1.00  0.00     0.040 A 
ATOM     71  C   UNL A   1      42.113  27.357  25.619  1.00  0.00     0.040 A 
ATOM     72  F   UNL A   1      42.455  29.204  27.025  1.00  0.00    -0.206 F 
ATOM     73  C   UNL A   1      41.529  26.116  25.376  1.00  0.00     0.006 A 
ENDBRANCH  45  66
BRANCH  57  74
ATOM     74  C   UNL A   1      44.088  27.644  34.051  1.00  0.00     0.057 A 
ATOM     75  C   UNL A   1      43.973  26.386  34.656  1.00  0.00     0.134 A 
ATOM     76  C   UNL A   1      45.366  28.210  33.962  1.00  0.00     0.134 A 
ATOM     77  F   UNL A   1      42.772  25.802  34.785  1.00  0.00    -0.206 F 
ATOM     78  C   UNL A   1      45.087  25.723  35.170  1.00  0.00     0.040 A 
ATOM     79  C   UNL A   1      46.489  27.548  34.457  1.00  0.00     0.040 A 
ATOM     80  F   UNL A   1      45.539  29.411  33.390  1.00  0.00    -0.206 F 
ATOM     81  C   UNL A   1      46.351  26.303  35.067  1.00  0.00     0.006 A 
ENDBRANCH  57  74
ENDBRANCH  31  32
ENDBRANCH  24  26
ENDBRANCH  23  24
ENDBRANCH  22  23
ENDBRANCH   1  22
TORSDOF 15
ENDMDL
MODEL 3
REMARK VINA RESULT:      -9.7      5.018     10.296
REMARK SMILES CCN(C(=O)N[C@@H]1CCOC1)[C@H]1COC[C@H]1C(=O)OCCOC(=O)c1ccc(-c2c3nc(c(-c4c(F)cccc4F)c4ccc([nH]4)c(-c4c(F)cccc4F)c4nc(c(-c5c(F)cccc5F)c5ccc2[nH]5)C=C4)C=C3)cc1
REMARK SMILES IDX 20 1 19 2 17 3 18 4 16 5 12 6 13 7 14 8 15 9 3 10 2 11 1 12
REMARK SMILES IDX 4 13 5 14 6 15 7 17 8 18 11 19 9 20 10 21 21 22 22 23 23 24
REMARK SMILES IDX 24 25 25 26 26 27 78 28 27 29 77 30 28 31 29 32 30 33 71 34
REMARK SMILES IDX 31 35 76 36 70 37 72 38 32 39 75 40 69 41 68 42 33 44 59 45
REMARK SMILES IDX 42 46 58 47 43 48 46 49 57 50 73 51 44 52 45 53 56 55 74 56
REMARK SMILES IDX 47 57 34 58 35 59 40 60 36 61 37 62 39 63 41 64 38 65 60 66
REMARK SMILES IDX 61 67 66 68 62 69 63 70 65 71 67 72 64 73 48 74 49 75 54 76
REMARK SMILES IDX 50 77 51 78 53 79 55 80 52 81
REMARK H PARENT 6 16 72 43 46 54
REMARK Flexibility Score: inf
ROOT
ATOM      1  C   UNL A   1      37.942  21.718  25.158  1.00  0.00     0.274 C 
ENDROOT
BRANCH   1   2
ATOM      2  O   UNL A   1      36.585  21.734  24.671  1.00  0.00    -0.462 OA
BRANCH   2   3
ATOM      3  C   UNL A   1      36.266  22.679  23.766  1.00  0.00     0.313 C 
ATOM      4  O   UNL A   1      36.769  22.764  22.649  1.00  0.00    -0.252 OA
BRANCH   3   5
ATOM      5  C   UNL A   1      35.143  23.587  24.181  1.00  0.00     0.150 C 
ATOM      6  C   UNL A   1      33.656  23.248  24.120  1.00  0.00     0.129 C 
ATOM      7  C   UNL A   1      33.148  24.486  24.876  1.00  0.00     0.186 C 
ATOM      8  O   UNL A   1      34.068  24.694  25.968  1.00  0.00    -0.378 OA
ATOM      9  C   UNL A   1      35.326  24.100  25.591  1.00  0.00     0.177 C 
BRANCH   6  10
ATOM     10  N   UNL A   1      33.287  21.935  24.702  1.00  0.00    -0.319 N 
BRANCH  10  11
ATOM     11  C   UNL A   1      32.855  21.796  26.105  1.00  0.00     0.118 C 
ATOM     12  C   UNL A   1      33.956  21.419  27.074  1.00  0.00     0.027 C 
ENDBRANCH  10  11
BRANCH  10  13
ATOM     13  C   UNL A   1      32.802  20.950  23.833  1.00  0.00     0.318 C 
ATOM     14  O   UNL A   1      32.117  21.183  22.849  1.00  0.00    -0.249 OA
ATOM     15  N   UNL A   1      33.153  19.699  24.263  1.00  0.00    -0.333 N 
ATOM     16  H   UNL A   1      34.018  19.636  24.731  1.00  0.00     0.165 HD
BRANCH  15  17
ATOM     17  C   UNL A   1      32.417  18.449  24.121  1.00  0.00     0.112 C 
ATOM     18  C   UNL A   1      32.903  17.254  24.911  1.00  0.00     0.056 C 
ATOM     19  C   UNL A   1      32.592  17.930  22.693  1.00  0.00     0.185 C 
ATOM     20  C   UNL A   1      34.037  16.722  24.058  1.00  0.00     0.162 C 
ATOM     21  O   UNL A   1      33.725  17.048  22.692  1.00  0.00    -0.379 OA
ENDBRANCH  15  17
ENDBRANCH  10  13
ENDBRANCH   6  10
ENDBRANCH   3   5
ENDBRANCH   2   3
ENDBRANCH   1   2
BRANCH   1  22
ATOM     22  C   UNL A   1      38.534  20.312  25.030  1.00  0.00     0.275 C 
BRANCH  22  23
ATOM     23  O   UNL A   1      39.215  19.906  26.236  1.00  0.00    -0.458 OA
BRANCH  23  24
ATOM     24  C   UNL A   1      40.558  19.810  26.110  1.00  0.00     0.338 C 
ATOM     25  O   UNL A   1      41.197  18.922  25.581  1.00  0.00    -0.246 OA
BRANCH  24  26
ATOM     26  C   UNL A   1      41.225  21.014  26.610  1.00  0.00     0.060 A 
ATOM     27  C   UNL A   1      41.117  21.283  27.974  1.00  0.00     0.016 A 
ATOM     28  C   UNL A   1      41.769  21.955  25.738  1.00  0.00     0.016 A 
ATOM     29  C   UNL A   1      41.508  22.513  28.477  1.00  0.00     0.010 A 
ATOM     30  C   UNL A   1      42.201  23.182  26.251  1.00  0.00     0.010 A 
ATOM     31  C   UNL A   1      42.054  23.473  27.619  1.00  0.00    -0.014 A 
BRANCH  31  32
ATOM     32  C   UNL A   1      42.457  24.781  28.176  1.00  0.00     0.031 A 
ATOM     33  C   UNL A   1      41.433  25.847  28.427  1.00  0.00     0.074 A 
ATOM     34  C   UNL A   1      43.748  24.981  28.497  1.00  0.00     0.049 A 
ATOM     35  N   UNL A   1      41.609  27.079  28.829  1.00  0.00    -0.248 NA
ATOM     36  C   UNL A   1      40.027  25.482  28.197  1.00  0.00     0.031 C 
ATOM     37  C   UNL A   1      44.817  23.991  28.346  1.00  0.00     0.029 A 
ATOM     38  N   UNL A   1      44.378  26.078  29.025  1.00  0.00    -0.354 N 
ATOM     39  C   UNL A   1      40.344  27.648  28.869  1.00  0.00     0.074 A 
ATOM     40  C   UNL A   1      39.406  26.626  28.451  1.00  0.00     0.031 C 
ATOM     41  C   UNL A   1      45.969  24.522  28.784  1.00  0.00     0.029 A 
ATOM     42  C   UNL A   1      45.730  25.903  29.189  1.00  0.00     0.049 A 
ATOM     43  H   UNL A   1      43.908  26.909  29.262  1.00  0.00     0.167 HD
ATOM     44  C   UNL A   1      40.002  28.911  29.219  1.00  0.00     0.037 A 
ATOM     45  C   UNL A   1      46.676  26.770  29.590  1.00  0.00     0.037 A 
ATOM     46  C   UNL A   1      40.941  29.910  29.658  1.00  0.00     0.049 A 
ATOM     47  C   UNL A   1      46.273  28.172  29.940  1.00  0.00     0.074 A 
ATOM     48  C   UNL A   1      40.697  31.220  30.034  1.00  0.00     0.029 A 
ATOM     49  N   UNL A   1      42.307  29.704  29.785  1.00  0.00    -0.354 N 
ATOM     50  N   UNL A   1      45.079  28.711  29.936  1.00  0.00    -0.248 NA
ATOM     51  C   UNL A   1      47.350  29.088  30.339  1.00  0.00     0.031 C 
ATOM     52  C   UNL A   1      41.921  31.814  30.363  1.00  0.00     0.029 A 
ATOM     53  C   UNL A   1      42.921  30.866  30.223  1.00  0.00     0.049 A 
ATOM     54  H   UNL A   1      42.771  28.857  29.594  1.00  0.00     0.167 HD
ATOM     55  C   UNL A   1      45.257  30.029  30.334  1.00  0.00     0.074 A 
ATOM     56  C   UNL A   1      46.673  30.200  30.593  1.00  0.00     0.031 C 
ATOM     57  C   UNL A   1      44.332  31.010  30.469  1.00  0.00     0.037 A 
BRANCH  44  58
ATOM     58  C   UNL A   1      38.557  29.291  29.106  1.00  0.00     0.057 A 
ATOM     59  C   UNL A   1      37.693  29.261  30.207  1.00  0.00     0.134 A 
ATOM     60  C   UNL A   1      38.032  29.725  27.882  1.00  0.00     0.134 A 
ATOM     61  F   UNL A   1      38.131  28.841  31.403  1.00  0.00    -0.206 F 
ATOM     62  C   UNL A   1      36.352  29.636  30.091  1.00  0.00     0.040 A 
ATOM     63  C   UNL A   1      36.699  30.119  27.758  1.00  0.00     0.040 A 
ATOM     64  F   UNL A   1      38.808  29.778  26.790  1.00  0.00    -0.206 F 
ATOM     65  C   UNL A   1      35.854  30.072  28.865  1.00  0.00     0.006 A 
ENDBRANCH  44  58
BRANCH  45  66
ATOM     66  C   UNL A   1      48.092  26.337  29.645  1.00  0.00     0.057 A 
ATOM     67  C   UNL A   1      48.626  25.754  30.798  1.00  0.00     0.134 A 
ATOM     68  C   UNL A   1      48.936  26.475  28.536  1.00  0.00     0.134 A 
ATOM     69  F   UNL A   1      47.870  25.613  31.896  1.00  0.00    -0.206 F 
ATOM     70  C   UNL A   1      49.954  25.326  30.849  1.00  0.00     0.040 A 
ATOM     71  C   UNL A   1      50.258  26.031  28.566  1.00  0.00     0.040 A 
ATOM     72  F   UNL A   1      48.479  27.023  27.401  1.00  0.00    -0.206 F 
ATOM     73  C   UNL A   1      50.771  25.458  29.727  1.00  0.00     0.006 A 
ENDBRANCH  45  66
BRANCH  57  74
ATOM     74  C   UNL A   1      44.831  32.345  30.927  1.00  0.00     0.057 A 
ATOM     75  C   UNL A   1      45.222  33.333  30.015  1.00  0.00     0.134 A 
ATOM     76  C   UNL A   1      44.903  32.651  32.291  1.00  0.00     0.134 A 
ATOM     77  F   UNL A   1      45.190  33.090  28.696  1.00  0.00    -0.206 F 
ATOM     78  C   UNL A   1      45.685  34.576  30.446  1.00  0.00     0.040 A 
ATOM     79  C   UNL A   1      45.348  33.897  32.733  1.00  0.00     0.040 A 
ATOM     80  F   UNL A   1      44.539  31.746  33.212  1.00  0.00    -0.206 F 
ATOM     81  C   UNL A   1      45.745  34.862  31.809  1.00  0.00     0.006 A 
ENDBRANCH  57  74
ENDBRANCH  31  32
ENDBRANCH  24  26
ENDBRANCH  23  24
ENDBRANCH  22  23
ENDBRANCH   1  22
TORSDOF 15
ENDMDL
