MODEL 1
REMARK VINA RESULT:     -10.8      0.000      0.000
REMARK SMILES O=C(OCCOC(=O)[C@@H]1CS[C@H](c2ncc(-c3ccccc3)s2)[NH2+]1)c1ccc(-c2c3nc(c(-c4c(F)cccc4F)c4ccc([nH]4)c(-c4c(F)cccc4F)c4nc(c(-c5c(F)cccc5F)c5ccc2[nH]5)C=C4)C=C3)cc1
REMARK SMILES IDX 4 1 3 2 2 3 1 4 25 5 26 6 78 7 27 8 77 9 28 10 29 11 30 12
REMARK SMILES IDX 71 13 31 14 76 15 70 16 72 17 32 18 75 19 69 20 68 21 33 23
REMARK SMILES IDX 59 24 42 25 58 26 43 27 46 28 57 29 73 30 44 31 45 32 56 34
REMARK SMILES IDX 74 35 47 36 34 37 35 38 40 39 36 40 37 41 39 42 41 43 38 44
REMARK SMILES IDX 60 45 61 46 66 47 62 48 63 49 65 50 67 51 64 52 48 53 49 54
REMARK SMILES IDX 54 55 50 56 51 57 53 58 55 59 52 60 5 61 6 62 7 63 8 64 9 65
REMARK SMILES IDX 10 66 24 67 11 68 12 69 13 72 14 73 23 74 15 75 16 76 17 77
REMARK SMILES IDX 18 78 22 79 19 80 21 81 20 82
REMARK H PARENT 72 22 46 33 24 70 24 71
REMARK Flexibility Score: inf
ROOT
ATOM      1  C   UNL A   1      34.458  33.248  28.440  1.00  0.00     0.275 C 
ENDROOT
BRANCH   1   2
ATOM      2  O   UNL A   1      34.075  31.861  28.596  1.00  0.00    -0.458 OA
BRANCH   2   3
ATOM      3  C   UNL A   1      34.530  30.727  28.003  1.00  0.00     0.338 C 
ATOM      4  O   UNL A   1      33.709  29.994  27.450  1.00  0.00    -0.246 OA
BRANCH   3   5
ATOM      5  C   UNL A   1      35.925  30.183  28.150  1.00  0.00     0.060 A 
ATOM      6  C   UNL A   1      36.886  30.082  27.152  1.00  0.00     0.016 A 
ATOM      7  C   UNL A   1      36.289  29.682  29.417  1.00  0.00     0.016 A 
ATOM      8  C   UNL A   1      38.212  29.666  27.452  1.00  0.00     0.010 A 
ATOM      9  C   UNL A   1      37.620  29.302  29.720  1.00  0.00     0.010 A 
ATOM     10  C   UNL A   1      38.636  29.377  28.755  1.00  0.00    -0.014 A 
BRANCH  10  11
ATOM     11  C   UNL A   1      40.025  28.890  29.074  1.00  0.00     0.031 A 
ATOM     12  C   UNL A   1      40.971  29.869  29.670  1.00  0.00     0.074 A 
ATOM     13  C   UNL A   1      40.509  27.632  28.934  1.00  0.00     0.049 A 
ATOM     14  N   UNL A   1      42.206  29.671  30.035  1.00  0.00    -0.248 NA
ATOM     15  C   UNL A   1      40.425  31.187  30.015  1.00  0.00     0.031 C 
ATOM     16  C   UNL A   1      39.733  26.421  28.914  1.00  0.00     0.029 A 
ATOM     17  N   UNL A   1      41.786  27.130  28.785  1.00  0.00    -0.354 N 
ATOM     18  C   UNL A   1      42.565  30.808  30.723  1.00  0.00     0.074 A 
ATOM     19  C   UNL A   1      41.434  31.711  30.687  1.00  0.00     0.031 C 
ATOM     20  C   UNL A   1      40.429  25.386  28.425  1.00  0.00     0.029 A 
ATOM     21  C   UNL A   1      41.809  25.820  28.332  1.00  0.00     0.049 A 
ATOM     22  H   UNL A   1      42.598  27.650  28.981  1.00  0.00     0.167 HD
ATOM     23  C   UNL A   1      43.737  31.062  31.342  1.00  0.00     0.037 A 
ATOM     24  C   UNL A   1      42.815  24.993  27.988  1.00  0.00     0.037 A 
ATOM     25  C   UNL A   1      44.884  30.202  31.274  1.00  0.00     0.049 A 
ATOM     26  C   UNL A   1      44.181  25.402  28.425  1.00  0.00     0.074 A 
ATOM     27  C   UNL A   1      46.157  30.441  31.752  1.00  0.00     0.029 A 
ATOM     28  N   UNL A   1      44.914  28.959  30.649  1.00  0.00    -0.354 N 
ATOM     29  N   UNL A   1      44.518  26.497  29.061  1.00  0.00    -0.248 NA
ATOM     30  C   UNL A   1      45.279  24.451  28.222  1.00  0.00     0.031 C 
ATOM     31  C   UNL A   1      46.978  29.385  31.345  1.00  0.00     0.029 A 
ATOM     32  C   UNL A   1      46.203  28.449  30.676  1.00  0.00     0.049 A 
ATOM     33  H   UNL A   1      44.136  28.509  30.247  1.00  0.00     0.167 HD
ATOM     34  C   UNL A   1      45.846  26.340  29.404  1.00  0.00     0.074 A 
ATOM     35  C   UNL A   1      46.263  25.054  28.878  1.00  0.00     0.031 C 
ATOM     36  C   UNL A   1      46.622  27.181  30.125  1.00  0.00     0.037 A 
BRANCH  23  37
ATOM     37  C   UNL A   1      43.814  32.399  31.999  1.00  0.00     0.057 A 
ATOM     38  C   UNL A   1      43.520  32.575  33.359  1.00  0.00     0.134 A 
ATOM     39  C   UNL A   1      44.001  33.542  31.215  1.00  0.00     0.134 A 
ATOM     40  F   UNL A   1      43.273  31.516  34.146  1.00  0.00    -0.206 F 
ATOM     41  C   UNL A   1      43.357  33.849  33.903  1.00  0.00     0.040 A 
ATOM     42  C   UNL A   1      43.867  34.818  31.754  1.00  0.00     0.040 A 
ATOM     43  F   UNL A   1      44.255  33.432  29.902  1.00  0.00    -0.206 F 
ATOM     44  C   UNL A   1      43.524  34.974  33.097  1.00  0.00     0.006 A 
ENDBRANCH  23  37
BRANCH  24  45
ATOM     45  C   UNL A   1      42.543  23.676  27.347  1.00  0.00     0.057 A 
ATOM     46  C   UNL A   1      42.538  23.496  25.959  1.00  0.00     0.134 A 
ATOM     47  C   UNL A   1      42.290  22.543  28.134  1.00  0.00     0.134 A 
ATOM     48  F   UNL A   1      42.767  24.537  25.144  1.00  0.00    -0.206 F 
ATOM     49  C   UNL A   1      42.279  22.250  25.377  1.00  0.00     0.040 A 
ATOM     50  C   UNL A   1      42.040  21.287  27.567  1.00  0.00     0.040 A 
ATOM     51  F   UNL A   1      42.278  22.638  29.472  1.00  0.00    -0.206 F 
ATOM     52  C   UNL A   1      42.031  21.140  26.184  1.00  0.00     0.006 A 
ENDBRANCH  24  45
BRANCH  36  53
ATOM     53  C   UNL A   1      48.030  26.750  30.379  1.00  0.00     0.057 A 
ATOM     54  C   UNL A   1      48.366  25.956  31.482  1.00  0.00     0.134 A 
ATOM     55  C   UNL A   1      49.040  27.055  29.460  1.00  0.00     0.134 A 
ATOM     56  F   UNL A   1      47.444  25.648  32.406  1.00  0.00    -0.206 F 
ATOM     57  C   UNL A   1      49.663  25.478  31.661  1.00  0.00     0.040 A 
ATOM     58  C   UNL A   1      50.334  26.560  29.613  1.00  0.00     0.040 A 
ATOM     59  F   UNL A   1      48.778  27.814  28.384  1.00  0.00    -0.206 F 
ATOM     60  C   UNL A   1      50.647  25.767  30.715  1.00  0.00     0.006 A 
ENDBRANCH  36  53
ENDBRANCH  10  11
ENDBRANCH   3   5
ENDBRANCH   2   3
ENDBRANCH   1   2
BRANCH   1  61
ATOM     61  C   UNL A   1      33.259  34.179  28.261  1.00  0.00     0.274 C 
BRANCH  61  62
ATOM     62  O   UNL A   1      32.878  34.721  29.521  1.00  0.00    -0.458 OA
BRANCH  62  63
ATOM     63  C   UNL A   1      32.966  36.077  29.663  1.00  0.00     0.365 C 
ATOM     64  O   UNL A   1      33.290  36.859  28.789  1.00  0.00    -0.245 OA
BRANCH  63  65
ATOM     65  C   UNL A   1      32.559  36.506  31.071  1.00  0.00     0.304 C 
ATOM     66  C   UNL A   1      33.623  37.383  31.720  1.00  0.00     0.153 C 
ATOM     67  N   UNL A   1      32.229  35.327  31.889  1.00  0.00    -0.317 N 
ATOM     68  S   UNL A   1      33.922  36.700  33.352  1.00  0.00    -0.085 SA
ATOM     69  C   UNL A   1      33.281  35.101  32.874  1.00  0.00     0.303 C 
ATOM     70  H   UNL A   1      32.146  34.509  31.287  1.00  0.00     0.348 HD
ATOM     71  H   UNL A   1      31.344  35.488  32.372  1.00  0.00     0.348 HD
BRANCH  69  72
ATOM     72  C   UNL A   1      34.342  34.040  32.556  1.00  0.00     0.162 A 
ATOM     73  N   UNL A   1      34.152  32.868  31.969  1.00  0.00    -0.242 NA
ATOM     74  S   UNL A   1      36.007  34.392  32.787  1.00  0.00    -0.112 S 
ATOM     75  C   UNL A   1      35.360  32.175  31.848  1.00  0.00     0.132 A 
ATOM     76  C   UNL A   1      36.469  32.829  32.339  1.00  0.00     0.055 A 
BRANCH  76  77
ATOM     77  C   UNL A   1      37.778  32.366  32.784  1.00  0.00    -0.007 A 
ATOM     78  C   UNL A   1      37.931  30.972  32.849  1.00  0.00     0.009 A 
ATOM     79  C   UNL A   1      38.777  33.186  33.324  1.00  0.00     0.009 A 
ATOM     80  C   UNL A   1      39.039  30.397  33.459  1.00  0.00     0.001 A 
ATOM     81  C   UNL A   1      39.905  32.604  33.920  1.00  0.00     0.001 A 
ATOM     82  C   UNL A   1      40.029  31.214  33.995  1.00  0.00     0.000 A 
ENDBRANCH  76  77
ENDBRANCH  69  72
ENDBRANCH  63  65
ENDBRANCH  62  63
ENDBRANCH  61  62
ENDBRANCH   1  61
TORSDOF 13
ENDMDL
MODEL 2
REMARK VINA RESULT:     -10.6      4.783     11.479
REMARK SMILES O=C(OCCOC(=O)[C@@H]1CS[C@H](c2ncc(-c3ccccc3)s2)[NH2+]1)c1ccc(-c2c3nc(c(-c4c(F)cccc4F)c4ccc([nH]4)c(-c4c(F)cccc4F)c4nc(c(-c5c(F)cccc5F)c5ccc2[nH]5)C=C4)C=C3)cc1
REMARK SMILES IDX 4 1 3 2 2 3 1 4 25 5 26 6 78 7 27 8 77 9 28 10 29 11 30 12
REMARK SMILES IDX 71 13 31 14 76 15 70 16 72 17 32 18 75 19 69 20 68 21 33 23
REMARK SMILES IDX 59 24 42 25 58 26 43 27 46 28 57 29 73 30 44 31 45 32 56 34
REMARK SMILES IDX 74 35 47 36 34 37 35 38 40 39 36 40 37 41 39 42 41 43 38 44
REMARK SMILES IDX 60 45 61 46 66 47 62 48 63 49 65 50 67 51 64 52 48 53 49 54
REMARK SMILES IDX 54 55 50 56 51 57 53 58 55 59 52 60 5 61 6 62 7 63 8 64 9 65
REMARK SMILES IDX 10 66 24 67 11 68 12 69 13 72 14 73 23 74 15 75 16 76 17 77
REMARK SMILES IDX 18 78 22 79 19 80 21 81 20 82
REMARK H PARENT 72 22 46 33 24 70 24 71
REMARK Flexibility Score: inf
ROOT
ATOM      1  C   UNL A   1      40.975  21.055  26.767  1.00  0.00     0.275 C 
ENDROOT
BRANCH   1   2
ATOM      2  O   UNL A   1      40.273  22.028  25.959  1.00  0.00    -0.458 OA
BRANCH   2   3
ATOM      3  C   UNL A   1      39.286  22.909  26.262  1.00  0.00     0.338 C 
ATOM      4  O   UNL A   1      38.182  22.742  25.743  1.00  0.00    -0.246 OA
BRANCH   3   5
ATOM      5  C   UNL A   1      39.487  24.198  27.013  1.00  0.00     0.060 A 
ATOM      6  C   UNL A   1      38.969  24.521  28.261  1.00  0.00     0.016 A 
ATOM      7  C   UNL A   1      40.242  25.203  26.374  1.00  0.00     0.016 A 
ATOM      8  C   UNL A   1      39.340  25.725  28.918  1.00  0.00     0.010 A 
ATOM      9  C   UNL A   1      40.638  26.386  27.046  1.00  0.00     0.010 A 
ATOM     10  C   UNL A   1      40.265  26.626  28.377  1.00  0.00    -0.014 A 
BRANCH  10  11
ATOM     11  C   UNL A   1      40.628  27.927  29.045  1.00  0.00     0.031 A 
ATOM     12  C   UNL A   1      41.949  28.003  29.719  1.00  0.00     0.074 A 
ATOM     13  C   UNL A   1      39.907  29.074  29.058  1.00  0.00     0.049 A 
ATOM     14  N   UNL A   1      42.474  29.019  30.345  1.00  0.00    -0.248 NA
ATOM     15  C   UNL A   1      42.837  26.845  29.561  1.00  0.00     0.031 C 
ATOM     16  C   UNL A   1      38.917  29.466  28.090  1.00  0.00     0.029 A 
ATOM     17  N   UNL A   1      39.883  30.157  29.913  1.00  0.00    -0.354 N 
ATOM     18  C   UNL A   1      43.780  28.657  30.588  1.00  0.00     0.074 A 
ATOM     19  C   UNL A   1      43.957  27.311  30.084  1.00  0.00     0.031 C 
ATOM     20  C   UNL A   1      38.142  30.462  28.539  1.00  0.00     0.029 A 
ATOM     21  C   UNL A   1      38.761  30.955  29.754  1.00  0.00     0.049 A 
ATOM     22  H   UNL A   1      40.592  30.343  30.570  1.00  0.00     0.167 HD
ATOM     23  C   UNL A   1      44.745  29.398  31.171  1.00  0.00     0.037 A 
ATOM     24  C   UNL A   1      38.313  32.039  30.416  1.00  0.00     0.037 A 
ATOM     25  C   UNL A   1      44.523  30.686  31.762  1.00  0.00     0.049 A 
ATOM     26  C   UNL A   1      39.299  32.723  31.300  1.00  0.00     0.074 A 
ATOM     27  C   UNL A   1      45.408  31.450  32.497  1.00  0.00     0.029 A 
ATOM     28  N   UNL A   1      43.317  31.381  31.732  1.00  0.00    -0.354 N 
ATOM     29  N   UNL A   1      40.535  32.361  31.543  1.00  0.00    -0.248 NA
ATOM     30  C   UNL A   1      38.907  34.001  31.904  1.00  0.00     0.031 C 
ATOM     31  C   UNL A   1      44.718  32.565  32.982  1.00  0.00     0.029 A 
ATOM     32  C   UNL A   1      43.421  32.537  32.490  1.00  0.00     0.049 A 
ATOM     33  H   UNL A   1      42.512  31.094  31.245  1.00  0.00     0.167 HD
ATOM     34  C   UNL A   1      41.096  33.396  32.263  1.00  0.00     0.074 A 
ATOM     35  C   UNL A   1      40.056  34.391  32.445  1.00  0.00     0.031 C 
ATOM     36  C   UNL A   1      42.374  33.511  32.693  1.00  0.00     0.037 A 
BRANCH  23  37
ATOM     37  C   UNL A   1      46.065  28.711  31.292  1.00  0.00     0.057 A 
ATOM     38  C   UNL A   1      47.085  28.892  30.348  1.00  0.00     0.134 A 
ATOM     39  C   UNL A   1      46.237  27.717  32.262  1.00  0.00     0.134 A 
ATOM     40  F   UNL A   1      46.948  29.790  29.360  1.00  0.00    -0.206 F 
ATOM     41  C   UNL A   1      48.211  28.069  30.334  1.00  0.00     0.040 A 
ATOM     42  C   UNL A   1      47.369  26.908  32.274  1.00  0.00     0.040 A 
ATOM     43  F   UNL A   1      45.279  27.482  33.172  1.00  0.00    -0.206 F 
ATOM     44  C   UNL A   1      48.350  27.069  31.296  1.00  0.00     0.006 A 
ENDBRANCH  23  37
BRANCH  24  45
ATOM     45  C   UNL A   1      36.958  32.599  30.147  1.00  0.00     0.057 A 
ATOM     46  C   UNL A   1      35.823  32.214  30.871  1.00  0.00     0.134 A 
ATOM     47  C   UNL A   1      36.774  33.563  29.146  1.00  0.00     0.134 A 
ATOM     48  F   UNL A   1      35.923  31.293  31.840  1.00  0.00    -0.206 F 
ATOM     49  C   UNL A   1      34.560  32.752  30.602  1.00  0.00     0.040 A 
ATOM     50  C   UNL A   1      35.519  34.118  28.872  1.00  0.00     0.040 A 
ATOM     51  F   UNL A   1      37.816  33.981  28.410  1.00  0.00    -0.206 F 
ATOM     52  C   UNL A   1      34.406  33.710  29.601  1.00  0.00     0.006 A 
ENDBRANCH  24  45
BRANCH  36  53
ATOM     53  C   UNL A   1      42.728  34.761  33.432  1.00  0.00     0.057 A 
ATOM     54  C   UNL A   1      43.165  35.909  32.763  1.00  0.00     0.134 A 
ATOM     55  C   UNL A   1      42.539  34.842  34.816  1.00  0.00     0.134 A 
ATOM     56  F   UNL A   1      43.383  35.885  31.439  1.00  0.00    -0.206 F 
ATOM     57  C   UNL A   1      43.402  37.100  33.447  1.00  0.00     0.040 A 
ATOM     58  C   UNL A   1      42.745  36.034  35.508  1.00  0.00     0.040 A 
ATOM     59  F   UNL A   1      42.122  33.772  35.513  1.00  0.00    -0.206 F 
ATOM     60  C   UNL A   1      43.176  37.168  34.822  1.00  0.00     0.006 A 
ENDBRANCH  36  53
ENDBRANCH  10  11
ENDBRANCH   3   5
ENDBRANCH   2   3
ENDBRANCH   1   2
BRANCH   1  61
ATOM     61  C   UNL A   1      40.949  19.650  26.163  1.00  0.00     0.274 C 
BRANCH  61  62
ATOM     62  O   UNL A   1      42.106  19.450  25.358  1.00  0.00    -0.458 OA
BRANCH  62  63
ATOM     63  C   UNL A   1      43.109  18.695  25.895  1.00  0.00     0.365 C 
ATOM     64  O   UNL A   1      43.075  18.141  26.978  1.00  0.00    -0.245 OA
BRANCH  63  65
ATOM     65  C   UNL A   1      44.291  18.593  24.933  1.00  0.00     0.304 C 
ATOM     66  C   UNL A   1      45.620  18.773  25.656  1.00  0.00     0.153 C 
ATOM     67  N   UNL A   1      44.126  19.541  23.819  1.00  0.00    -0.317 N 
ATOM     68  S   UNL A   1      46.553  19.984  24.715  1.00  0.00    -0.085 SA
ATOM     69  C   UNL A   1      45.070  20.644  23.967  1.00  0.00     0.303 C 
ATOM     70  H   UNL A   1      43.174  19.907  23.823  1.00  0.00     0.348 HD
ATOM     71  H   UNL A   1      44.304  19.061  22.936  1.00  0.00     0.348 HD
BRANCH  69  72
ATOM     72  C   UNL A   1      44.554  21.950  24.581  1.00  0.00     0.162 A 
ATOM     73  N   UNL A   1      43.367  22.509  24.395  1.00  0.00    -0.242 NA
ATOM     74  S   UNL A   1      45.471  22.754  25.790  1.00  0.00    -0.112 S 
ATOM     75  C   UNL A   1      43.261  23.697  25.124  1.00  0.00     0.132 A 
ATOM     76  C   UNL A   1      44.369  24.034  25.872  1.00  0.00     0.055 A 
BRANCH  76  77
ATOM     77  C   UNL A   1      44.850  25.295  26.420  1.00  0.00    -0.007 A 
ATOM     78  C   UNL A   1      44.126  26.433  26.032  1.00  0.00     0.009 A 
ATOM     79  C   UNL A   1      46.057  25.460  27.112  1.00  0.00     0.009 A 
ATOM     80  C   UNL A   1      44.598  27.713  26.298  1.00  0.00     0.001 A 
ATOM     81  C   UNL A   1      46.522  26.752  27.399  1.00  0.00     0.001 A 
ATOM     82  C   UNL A   1      45.798  27.873  26.984  1.00  0.00     0.000 A 
ENDBRANCH  76  77
ENDBRANCH  69  72
ENDBRANCH  63  65
ENDBRANCH  62  63
ENDBRANCH  61  62
ENDBRANCH   1  61
TORSDOF 13
ENDMDL
MODEL 3
REMARK VINA RESULT:      -9.9      4.933      9.677
REMARK SMILES O=C(OCCOC(=O)[C@@H]1CS[C@H](c2ncc(-c3ccccc3)s2)[NH2+]1)c1ccc(-c2c3nc(c(-c4c(F)cccc4F)c4ccc([nH]4)c(-c4c(F)cccc4F)c4nc(c(-c5c(F)cccc5F)c5ccc2[nH]5)C=C4)C=C3)cc1
REMARK SMILES IDX 4 1 3 2 2 3 1 4 25 5 26 6 78 7 27 8 77 9 28 10 29 11 30 12
REMARK SMILES IDX 71 13 31 14 76 15 70 16 72 17 32 18 75 19 69 20 68 21 33 23
REMARK SMILES IDX 59 24 42 25 58 26 43 27 46 28 57 29 73 30 44 31 45 32 56 34
REMARK SMILES IDX 74 35 47 36 34 37 35 38 40 39 36 40 37 41 39 42 41 43 38 44
REMARK SMILES IDX 60 45 61 46 66 47 62 48 63 49 65 50 67 51 64 52 48 53 49 54
REMARK SMILES IDX 54 55 50 56 51 57 53 58 55 59 52 60 5 61 6 62 7 63 8 64 9 65
REMARK SMILES IDX 10 66 24 67 11 68 12 69 13 72 14 73 23 74 15 75 16 76 17 77
REMARK SMILES IDX 18 78 22 79 19 80 21 81 20 82
REMARK H PARENT 72 22 46 33 24 70 24 71
REMARK Flexibility Score: inf
ROOT
ATOM      1  C   UNL A   1      38.682  19.766  25.059  1.00  0.00     0.275 C 
ENDROOT
BRANCH   1   2
ATOM      2  O   UNL A   1      39.732  19.183  25.865  1.00  0.00    -0.458 OA
BRANCH   2   3
ATOM      3  C   UNL A   1      41.064  19.442  25.937  1.00  0.00     0.338 C 
ATOM      4  O   UNL A   1      41.844  18.496  25.829  1.00  0.00    -0.246 OA
BRANCH   3   5
ATOM      5  C   UNL A   1      41.659  20.760  26.352  1.00  0.00     0.060 A 
ATOM      6  C   UNL A   1      42.408  21.619  25.558  1.00  0.00     0.016 A 
ATOM      7  C   UNL A   1      41.481  21.152  27.695  1.00  0.00     0.016 A 
ATOM      8  C   UNL A   1      42.806  22.898  26.036  1.00  0.00     0.010 A 
ATOM      9  C   UNL A   1      41.848  22.440  28.157  1.00  0.00     0.010 A 
ATOM     10  C   UNL A   1      42.440  23.379  27.299  1.00  0.00    -0.014 A 
BRANCH  10  11
ATOM     11  C   UNL A   1      42.898  24.712  27.831  1.00  0.00     0.031 A 
ATOM     12  C   UNL A   1      41.865  25.765  28.010  1.00  0.00     0.074 A 
ATOM     13  C   UNL A   1      44.147  25.057  28.224  1.00  0.00     0.049 A 
ATOM     14  N   UNL A   1      42.025  26.977  28.462  1.00  0.00    -0.248 NA
ATOM     15  C   UNL A   1      40.471  25.368  27.777  1.00  0.00     0.031 C 
ATOM     16  C   UNL A   1      45.176  24.155  28.670  1.00  0.00     0.029 A 
ATOM     17  N   UNL A   1      44.796  26.270  28.331  1.00  0.00    -0.354 N 
ATOM     18  C   UNL A   1      40.751  27.465  28.644  1.00  0.00     0.074 A 
ATOM     19  C   UNL A   1      39.828  26.438  28.212  1.00  0.00     0.031 C 
ATOM     20  C   UNL A   1      46.385  24.729  28.663  1.00  0.00     0.029 A 
ATOM     21  C   UNL A   1      46.172  26.146  28.445  1.00  0.00     0.049 A 
ATOM     22  H   UNL A   1      44.328  27.136  28.326  1.00  0.00     0.167 HD
ATOM     23  C   UNL A   1      40.392  28.666  29.144  1.00  0.00     0.037 A 
ATOM     24  C   UNL A   1      47.167  27.053  28.495  1.00  0.00     0.037 A 
ATOM     25  C   UNL A   1      41.319  29.713  29.464  1.00  0.00     0.049 A 
ATOM     26  C   UNL A   1      46.760  28.460  28.772  1.00  0.00     0.074 A 
ATOM     27  C   UNL A   1      41.041  31.011  29.845  1.00  0.00     0.029 A 
ATOM     28  N   UNL A   1      42.705  29.601  29.395  1.00  0.00    -0.354 N 
ATOM     29  N   UNL A   1      45.543  28.921  28.923  1.00  0.00    -0.248 NA
ATOM     30  C   UNL A   1      47.820  29.447  29.004  1.00  0.00     0.031 C 
ATOM     31  C   UNL A   1      42.250  31.708  29.925  1.00  0.00     0.029 A 
ATOM     32  C   UNL A   1      43.290  30.828  29.666  1.00  0.00     0.049 A 
ATOM     33  H   UNL A   1      43.195  28.774  29.185  1.00  0.00     0.167 HD
ATOM     34  C   UNL A   1      45.684  30.229  29.342  1.00  0.00     0.074 A 
ATOM     35  C   UNL A   1      47.109  30.499  29.392  1.00  0.00     0.031 C 
ATOM     36  C   UNL A   1      44.709  31.101  29.686  1.00  0.00     0.037 A 
BRANCH  23  37
ATOM     37  C   UNL A   1      38.919  28.895  29.209  1.00  0.00     0.057 A 
ATOM     38  C   UNL A   1      38.204  29.440  28.132  1.00  0.00     0.134 A 
ATOM     39  C   UNL A   1      38.251  28.742  30.429  1.00  0.00     0.134 A 
ATOM     40  F   UNL A   1      38.810  29.664  26.955  1.00  0.00    -0.206 F 
ATOM     41  C   UNL A   1      36.888  29.875  28.285  1.00  0.00     0.040 A 
ATOM     42  C   UNL A   1      36.929  29.148  30.585  1.00  0.00     0.040 A 
ATOM     43  F   UNL A   1      38.895  28.253  31.499  1.00  0.00    -0.206 F 
ATOM     44  C   UNL A   1      36.250  29.734  29.517  1.00  0.00     0.006 A 
ENDBRANCH  23  37
BRANCH  24  45
ATOM     45  C   UNL A   1      48.595  26.632  28.432  1.00  0.00     0.057 A 
ATOM     46  C   UNL A   1      49.377  26.433  29.576  1.00  0.00     0.134 A 
ATOM     47  C   UNL A   1      49.212  26.402  27.194  1.00  0.00     0.134 A 
ATOM     48  F   UNL A   1      48.854  26.639  30.793  1.00  0.00    -0.206 F 
ATOM     49  C   UNL A   1      50.717  26.038  29.494  1.00  0.00     0.040 A 
ATOM     50  C   UNL A   1      50.548  25.997  27.096  1.00  0.00     0.040 A 
ATOM     51  F   UNL A   1      48.526  26.573  26.054  1.00  0.00    -0.206 F 
ATOM     52  C   UNL A   1      51.306  25.817  28.249  1.00  0.00     0.006 A 
ENDBRANCH  24  45
BRANCH  36  53
ATOM     53  C   UNL A   1      45.143  32.458  30.136  1.00  0.00     0.057 A 
ATOM     54  C   UNL A   1      45.261  33.525  29.238  1.00  0.00     0.134 A 
ATOM     55  C   UNL A   1      45.353  32.719  31.495  1.00  0.00     0.134 A 
ATOM     56  F   UNL A   1      45.090  33.330  27.922  1.00  0.00    -0.206 F 
ATOM     57  C   UNL A   1      45.573  34.810  29.678  1.00  0.00     0.040 A 
ATOM     58  C   UNL A   1      45.638  34.005  31.951  1.00  0.00     0.040 A 
ATOM     59  F   UNL A   1      45.255  31.736  32.403  1.00  0.00    -0.206 F 
ATOM     60  C   UNL A   1      45.746  35.055  31.041  1.00  0.00     0.006 A 
ENDBRANCH  36  53
ENDBRANCH  10  11
ENDBRANCH   3   5
ENDBRANCH   2   3
ENDBRANCH   1   2
BRANCH   1  61
ATOM     61  C   UNL A   1      38.417  21.233  25.400  1.00  0.00     0.274 C 
BRANCH  61  62
ATOM     62  O   UNL A   1      37.106  21.375  25.934  1.00  0.00    -0.458 OA
BRANCH  62  63
ATOM     63  C   UNL A   1      36.071  21.360  25.044  1.00  0.00     0.365 C 
ATOM     64  O   UNL A   1      36.057  21.926  23.966  1.00  0.00    -0.245 OA
BRANCH  63  65
ATOM     65  C   UNL A   1      34.922  20.493  25.556  1.00  0.00     0.304 C 
ATOM     66  C   UNL A   1      34.024  20.023  24.418  1.00  0.00     0.153 C 
ATOM     67  N   UNL A   1      34.172  21.206  26.604  1.00  0.00    -0.317 N 
ATOM     68  S   UNL A   1      32.337  20.380  24.917  1.00  0.00    -0.085 SA
ATOM     69  C   UNL A   1      32.875  21.624  26.083  1.00  0.00     0.303 C 
ATOM     70  H   UNL A   1      34.700  22.027  26.899  1.00  0.00     0.348 HD
ATOM     71  H   UNL A   1      34.031  20.584  27.400  1.00  0.00     0.348 HD
BRANCH  69  72
ATOM     72  C   UNL A   1      32.730  23.074  25.605  1.00  0.00     0.162 A 
ATOM     73  N   UNL A   1      32.886  23.530  24.371  1.00  0.00    -0.242 NA
ATOM     74  S   UNL A   1      32.128  24.276  26.674  1.00  0.00    -0.112 S 
ATOM     75  C   UNL A   1      32.669  24.910  24.324  1.00  0.00     0.132 A 
ATOM     76  C   UNL A   1      32.339  25.499  25.526  1.00  0.00     0.055 A 
BRANCH  76  77
ATOM     77  C   UNL A   1      32.427  26.868  26.017  1.00  0.00    -0.007 A 
ATOM     78  C   UNL A   1      33.669  27.494  25.830  1.00  0.00     0.009 A 
ATOM     79  C   UNL A   1      31.461  27.498  26.812  1.00  0.00     0.009 A 
ATOM     80  C   UNL A   1      33.963  28.708  26.439  1.00  0.00     0.001 A 
ATOM     81  C   UNL A   1      31.751  28.734  27.408  1.00  0.00     0.001 A 
ATOM     82  C   UNL A   1      33.002  29.330  27.228  1.00  0.00     0.000 A 
ENDBRANCH  76  77
ENDBRANCH  69  72
ENDBRANCH  63  65
ENDBRANCH  62  63
ENDBRANCH  61  62
ENDBRANCH   1  61
TORSDOF 13
ENDMDL
