MODEL 1
REMARK VINA RESULT:     -12.0      0.000      0.000
REMARK SMILES O=C(OCCOC(=O)c1c(C(=O)N2CCc3ccccc32)cccc1[N+](=O)[O-])c1ccc(-c2c3nc(c(-c4c(F)cccc4F)c4ccc([nH]4)c(-c4c(F)cccc4F)c4nc(c(-c5c(F)cccc5F)c5ccc2[nH]5)C=C4)C=C3)cc1
REMARK SMILES IDX 4 1 3 2 2 3 1 4 29 5 30 6 82 7 31 8 81 9 32 10 33 11 34 12
REMARK SMILES IDX 75 13 35 14 80 15 74 16 76 17 36 18 79 19 73 20 72 21 37 23
REMARK SMILES IDX 63 24 46 25 62 26 47 27 50 28 61 29 77 30 48 31 49 32 60 34
REMARK SMILES IDX 78 35 51 36 38 37 39 38 44 39 40 40 41 41 43 42 45 43 42 44
REMARK SMILES IDX 64 45 65 46 70 47 66 48 67 49 69 50 71 51 68 52 52 53 53 54
REMARK SMILES IDX 58 55 54 56 55 57 57 58 59 59 56 60 5 61 6 62 7 63 8 64 9 65
REMARK SMILES IDX 10 66 25 67 22 68 24 69 23 70 11 71 12 72 13 73 14 74 21 75
REMARK SMILES IDX 15 76 16 77 20 78 17 79 19 80 18 81 26 82 27 83 28 84
REMARK H PARENT 76 22 50 33
REMARK Flexibility Score: inf
ROOT
ATOM      1  C   UNL A   1      31.826  32.344  27.199  1.00  0.00     0.275 C 
ENDROOT
BRANCH   1   2
ATOM      2  O   UNL A   1      32.819  33.379  27.115  1.00  0.00    -0.458 OA
BRANCH   2   3
ATOM      3  C   UNL A   1      33.213  33.913  28.279  1.00  0.00     0.338 C 
ATOM      4  O   UNL A   1      32.760  34.943  28.751  1.00  0.00    -0.246 OA
BRANCH   3   5
ATOM      5  C   UNL A   1      34.460  33.241  28.724  1.00  0.00     0.060 A 
ATOM      6  C   UNL A   1      35.675  33.927  28.603  1.00  0.00     0.016 A 
ATOM      7  C   UNL A   1      34.403  32.065  29.470  1.00  0.00     0.016 A 
ATOM      8  C   UNL A   1      36.809  33.459  29.238  1.00  0.00     0.010 A 
ATOM      9  C   UNL A   1      35.521  31.639  30.185  1.00  0.00     0.010 A 
ATOM     10  C   UNL A   1      36.737  32.319  30.040  1.00  0.00    -0.014 A 
BRANCH  10  11
ATOM     11  C   UNL A   1      38.006  31.761  30.540  1.00  0.00     0.031 A 
ATOM     12  C   UNL A   1      38.396  32.098  31.945  1.00  0.00     0.074 A 
ATOM     13  C   UNL A   1      38.685  30.861  29.805  1.00  0.00     0.049 A 
ATOM     14  N   UNL A   1      39.340  31.578  32.678  1.00  0.00    -0.248 NA
ATOM     15  C   UNL A   1      37.606  33.139  32.627  1.00  0.00     0.031 C 
ATOM     16  C   UNL A   1      38.320  30.443  28.454  1.00  0.00     0.029 A 
ATOM     17  N   UNL A   1      39.790  30.107  30.087  1.00  0.00    -0.354 N 
ATOM     18  C   UNL A   1      39.216  32.191  33.916  1.00  0.00     0.074 A 
ATOM     19  C   UNL A   1      38.197  33.203  33.807  1.00  0.00     0.031 C 
ATOM     20  C   UNL A   1      39.193  29.527  28.008  1.00  0.00     0.029 A 
ATOM     21  C   UNL A   1      40.162  29.266  29.062  1.00  0.00     0.049 A 
ATOM     22  H   UNL A   1      40.274  30.159  30.943  1.00  0.00     0.167 HD
ATOM     23  C   UNL A   1      39.855  31.882  35.065  1.00  0.00     0.037 A 
ATOM     24  C   UNL A   1      41.153  28.360  29.007  1.00  0.00     0.037 A 
ATOM     25  C   UNL A   1      40.873  30.877  35.141  1.00  0.00     0.049 A 
ATOM     26  C   UNL A   1      41.923  28.109  30.273  1.00  0.00     0.074 A 
ATOM     27  C   UNL A   1      41.640  30.500  36.224  1.00  0.00     0.029 A 
ATOM     28  N   UNL A   1      41.268  30.090  34.065  1.00  0.00    -0.354 N 
ATOM     29  N   UNL A   1      41.773  28.673  31.450  1.00  0.00    -0.248 NA
ATOM     30  C   UNL A   1      42.964  27.078  30.225  1.00  0.00     0.031 C 
ATOM     31  C   UNL A   1      42.534  29.515  35.791  1.00  0.00     0.029 A 
ATOM     32  C   UNL A   1      42.286  29.239  34.453  1.00  0.00     0.049 A 
ATOM     33  H   UNL A   1      40.881  30.131  33.161  1.00  0.00     0.167 HD
ATOM     34  C   UNL A   1      42.675  28.043  32.293  1.00  0.00     0.074 A 
ATOM     35  C   UNL A   1      43.352  27.040  31.492  1.00  0.00     0.031 C 
ATOM     36  C   UNL A   1      42.927  28.263  33.608  1.00  0.00     0.037 A 
BRANCH  23  37
ATOM     37  C   UNL A   1      39.449  32.654  36.285  1.00  0.00     0.057 A 
ATOM     38  C   UNL A   1      38.416  32.210  37.126  1.00  0.00     0.134 A 
ATOM     39  C   UNL A   1      40.040  33.885  36.583  1.00  0.00     0.134 A 
ATOM     40  F   UNL A   1      37.778  31.057  36.871  1.00  0.00    -0.206 F 
ATOM     41  C   UNL A   1      37.967  32.979  38.201  1.00  0.00     0.040 A 
ATOM     42  C   UNL A   1      39.618  34.651  37.671  1.00  0.00     0.040 A 
ATOM     43  F   UNL A   1      41.018  34.376  35.808  1.00  0.00    -0.206 F 
ATOM     44  C   UNL A   1      38.572  34.203  38.477  1.00  0.00     0.006 A 
ENDBRANCH  23  37
BRANCH  24  45
ATOM     45  C   UNL A   1      41.438  27.615  27.750  1.00  0.00     0.057 A 
ATOM     46  C   UNL A   1      42.224  28.155  26.724  1.00  0.00     0.134 A 
ATOM     47  C   UNL A   1      40.902  26.337  27.534  1.00  0.00     0.134 A 
ATOM     48  F   UNL A   1      42.767  29.373  26.860  1.00  0.00    -0.206 F 
ATOM     49  C   UNL A   1      42.434  27.473  25.521  1.00  0.00     0.040 A 
ATOM     50  C   UNL A   1      41.125  25.634  26.349  1.00  0.00     0.040 A 
ATOM     51  F   UNL A   1      40.155  25.748  28.481  1.00  0.00    -0.206 F 
ATOM     52  C   UNL A   1      41.882  26.208  25.331  1.00  0.00     0.006 A 
ENDBRANCH  24  45
BRANCH  36  53
ATOM     53  C   UNL A   1      43.963  27.387  34.242  1.00  0.00     0.057 A 
ATOM     54  C   UNL A   1      43.637  26.143  34.793  1.00  0.00     0.134 A 
ATOM     55  C   UNL A   1      45.307  27.782  34.265  1.00  0.00     0.134 A 
ATOM     56  F   UNL A   1      42.364  25.718  34.810  1.00  0.00    -0.206 F 
ATOM     57  C   UNL A   1      44.609  25.334  35.378  1.00  0.00     0.040 A 
ATOM     58  C   UNL A   1      46.292  26.966  34.815  1.00  0.00     0.040 A 
ATOM     59  F   UNL A   1      45.681  28.959  33.739  1.00  0.00    -0.206 F 
ATOM     60  C   UNL A   1      45.942  25.742  35.382  1.00  0.00     0.006 A 
ENDBRANCH  36  53
ENDBRANCH  10  11
ENDBRANCH   3   5
ENDBRANCH   2   3
ENDBRANCH   1   2
BRANCH   1  61
ATOM     61  C   UNL A   1      32.127  30.916  26.670  1.00  0.00     0.275 C 
BRANCH  61  62
ATOM     62  O   UNL A   1      31.324  30.496  25.548  1.00  0.00    -0.458 OA
BRANCH  62  63
ATOM     63  C   UNL A   1      31.819  29.463  24.818  1.00  0.00     0.346 C 
ATOM     64  O   UNL A   1      32.891  29.421  24.252  1.00  0.00    -0.246 OA
BRANCH  63  65
ATOM     65  C   UNL A   1      30.783  28.423  24.635  1.00  0.00     0.150 A 
ATOM     66  C   UNL A   1      30.776  27.220  25.373  1.00  0.00     0.061 A 
ATOM     67  C   UNL A   1      29.913  28.535  23.535  1.00  0.00     0.284 A 
ATOM     68  C   UNL A   1      29.945  26.170  24.933  1.00  0.00     0.015 A 
ATOM     69  C   UNL A   1      29.037  27.503  23.163  1.00  0.00     0.086 A 
ATOM     70  C   UNL A   1      29.047  26.319  23.876  1.00  0.00     0.008 A 
BRANCH  66  71
ATOM     71  C   UNL A   1      31.813  26.907  26.393  1.00  0.00     0.259 C 
ATOM     72  O   UNL A   1      31.667  27.461  27.481  1.00  0.00    -0.269 OA
BRANCH  71  73
ATOM     73  N   UNL A   1      32.908  26.046  26.110  1.00  0.00    -0.308 N 
ATOM     74  C   UNL A   1      33.684  26.384  24.868  1.00  0.00     0.131 C 
ATOM     75  C   UNL A   1      32.665  24.645  26.007  1.00  0.00     0.047 A 
ATOM     76  C   UNL A   1      33.964  25.100  24.099  1.00  0.00     0.059 C 
ATOM     77  C   UNL A   1      32.938  24.226  24.710  1.00  0.00    -0.022 A 
ATOM     78  C   UNL A   1      31.992  23.816  26.876  1.00  0.00     0.026 A 
ATOM     79  C   UNL A   1      32.211  23.204  24.138  1.00  0.00     0.006 A 
ATOM     80  C   UNL A   1      31.270  22.758  26.329  1.00  0.00     0.002 A 
ATOM     81  C   UNL A   1      31.307  22.518  24.948  1.00  0.00     0.000 A 
ENDBRANCH  71  73
ENDBRANCH  66  71
BRANCH  67  82
ATOM     82  N   UNL A   1      29.903  29.721  22.697  1.00  0.00     0.063 N 
ATOM     83  O   UNL A   1      30.520  29.656  21.626  1.00  0.00    -0.258 OA
ATOM     84  O   UNL A   1      29.195  30.669  23.057  1.00  0.00    -0.258 OA
ENDBRANCH  67  82
ENDBRANCH  63  65
ENDBRANCH  62  63
ENDBRANCH  61  62
ENDBRANCH   1  61
TORSDOF 14
ENDMDL
MODEL 2
REMARK VINA RESULT:     -11.8      5.036      9.661
REMARK SMILES O=C(OCCOC(=O)c1c(C(=O)N2CCc3ccccc32)cccc1[N+](=O)[O-])c1ccc(-c2c3nc(c(-c4c(F)cccc4F)c4ccc([nH]4)c(-c4c(F)cccc4F)c4nc(c(-c5c(F)cccc5F)c5ccc2[nH]5)C=C4)C=C3)cc1
REMARK SMILES IDX 4 1 3 2 2 3 1 4 29 5 30 6 82 7 31 8 81 9 32 10 33 11 34 12
REMARK SMILES IDX 75 13 35 14 80 15 74 16 76 17 36 18 79 19 73 20 72 21 37 23
REMARK SMILES IDX 63 24 46 25 62 26 47 27 50 28 61 29 77 30 48 31 49 32 60 34
REMARK SMILES IDX 78 35 51 36 38 37 39 38 44 39 40 40 41 41 43 42 45 43 42 44
REMARK SMILES IDX 64 45 65 46 70 47 66 48 67 49 69 50 71 51 68 52 52 53 53 54
REMARK SMILES IDX 58 55 54 56 55 57 57 58 59 59 56 60 5 61 6 62 7 63 8 64 9 65
REMARK SMILES IDX 10 66 25 67 22 68 24 69 23 70 11 71 12 72 13 73 14 74 21 75
REMARK SMILES IDX 15 76 16 77 20 78 17 79 19 80 18 81 26 82 27 83 28 84
REMARK H PARENT 76 22 50 33
REMARK Flexibility Score: inf
ROOT
ATOM      1  C   UNL A   1      38.707  19.854  25.017  1.00  0.00     0.275 C 
ENDROOT
BRANCH   1   2
ATOM      2  O   UNL A   1      39.532  19.361  26.085  1.00  0.00    -0.458 OA
BRANCH   2   3
ATOM      3  C   UNL A   1      40.846  19.596  25.971  1.00  0.00     0.338 C 
ATOM      4  O   UNL A   1      41.680  18.740  25.724  1.00  0.00    -0.246 OA
BRANCH   3   5
ATOM      5  C   UNL A   1      41.141  20.958  26.487  1.00  0.00     0.060 A 
ATOM      6  C   UNL A   1      41.193  21.157  27.872  1.00  0.00     0.016 A 
ATOM      7  C   UNL A   1      41.601  21.955  25.629  1.00  0.00     0.016 A 
ATOM      8  C   UNL A   1      41.717  22.324  28.392  1.00  0.00     0.010 A 
ATOM      9  C   UNL A   1      42.214  23.094  26.150  1.00  0.00     0.010 A 
ATOM     10  C   UNL A   1      42.240  23.294  27.536  1.00  0.00    -0.014 A 
BRANCH  10  11
ATOM     11  C   UNL A   1      42.614  24.591  28.129  1.00  0.00     0.031 A 
ATOM     12  C   UNL A   1      44.073  24.912  28.207  1.00  0.00     0.074 A 
ATOM     13  C   UNL A   1      41.665  25.497  28.429  1.00  0.00     0.049 A 
ATOM     14  N   UNL A   1      44.647  26.048  28.489  1.00  0.00    -0.248 NA
ATOM     15  C   UNL A   1      45.017  23.820  27.904  1.00  0.00     0.031 C 
ATOM     16  C   UNL A   1      40.228  25.266  28.314  1.00  0.00     0.029 A 
ATOM     17  N   UNL A   1      41.750  26.794  28.852  1.00  0.00    -0.354 N 
ATOM     18  C   UNL A   1      46.006  25.815  28.342  1.00  0.00     0.074 A 
ATOM     19  C   UNL A   1      46.186  24.412  28.070  1.00  0.00     0.031 C 
ATOM     20  C   UNL A   1      39.558  26.369  28.679  1.00  0.00     0.029 A 
ATOM     21  C   UNL A   1      40.526  27.401  29.020  1.00  0.00     0.049 A 
ATOM     22  H   UNL A   1      42.606  27.251  29.021  1.00  0.00     0.167 HD
ATOM     23  C   UNL A   1      47.012  26.715  28.364  1.00  0.00     0.037 A 
ATOM     24  C   UNL A   1      40.231  28.665  29.372  1.00  0.00     0.037 A 
ATOM     25  C   UNL A   1      46.804  28.104  28.649  1.00  0.00     0.049 A 
ATOM     26  C   UNL A   1      41.380  29.626  29.496  1.00  0.00     0.074 A 
ATOM     27  C   UNL A   1      47.737  29.115  28.759  1.00  0.00     0.029 A 
ATOM     28  N   UNL A   1      45.556  28.671  28.878  1.00  0.00    -0.354 N 
ATOM     29  N   UNL A   1      42.662  29.400  29.321  1.00  0.00    -0.248 NA
ATOM     30  C   UNL A   1      41.051  31.017  29.821  1.00  0.00     0.031 C 
ATOM     31  C   UNL A   1      47.055  30.288  29.101  1.00  0.00     0.029 A 
ATOM     32  C   UNL A   1      45.693  30.019  29.149  1.00  0.00     0.049 A 
ATOM     33  H   UNL A   1      44.700  28.185  28.850  1.00  0.00     0.167 HD
ATOM     34  C   UNL A   1      43.291  30.625  29.480  1.00  0.00     0.074 A 
ATOM     35  C   UNL A   1      42.243  31.593  29.746  1.00  0.00     0.031 C 
ATOM     36  C   UNL A   1      44.611  30.934  29.413  1.00  0.00     0.037 A 
BRANCH  23  37
ATOM     37  C   UNL A   1      48.386  26.190  28.076  1.00  0.00     0.057 A 
ATOM     38  C   UNL A   1      49.199  25.662  29.092  1.00  0.00     0.134 A 
ATOM     39  C   UNL A   1      48.932  26.278  26.792  1.00  0.00     0.134 A 
ATOM     40  F   UNL A   1      48.751  25.588  30.355  1.00  0.00    -0.206 F 
ATOM     41  C   UNL A   1      50.517  25.270  28.844  1.00  0.00     0.040 A 
ATOM     42  C   UNL A   1      50.240  25.865  26.527  1.00  0.00     0.040 A 
ATOM     43  F   UNL A   1      48.216  26.792  25.781  1.00  0.00    -0.206 F 
ATOM     44  C   UNL A   1      51.038  25.369  27.557  1.00  0.00     0.006 A 
ENDBRANCH  23  37
BRANCH  24  45
ATOM     45  C   UNL A   1      38.821  29.089  29.586  1.00  0.00     0.057 A 
ATOM     46  C   UNL A   1      38.038  29.628  28.557  1.00  0.00     0.134 A 
ATOM     47  C   UNL A   1      38.223  28.985  30.851  1.00  0.00     0.134 A 
ATOM     48  F   UNL A   1      38.544  29.758  27.322  1.00  0.00    -0.206 F 
ATOM     49  C   UNL A   1      36.735  30.081  28.783  1.00  0.00     0.040 A 
ATOM     50  C   UNL A   1      36.914  29.411  31.086  1.00  0.00     0.040 A 
ATOM     51  F   UNL A   1      38.906  28.461  31.880  1.00  0.00    -0.206 F 
ATOM     52  C   UNL A   1      36.170  29.974  30.052  1.00  0.00     0.006 A 
ENDBRANCH  24  45
BRANCH  36  53
ATOM     53  C   UNL A   1      44.968  32.373  29.616  1.00  0.00     0.057 A 
ATOM     54  C   UNL A   1      44.988  33.283  28.552  1.00  0.00     0.134 A 
ATOM     55  C   UNL A   1      45.258  32.858  30.897  1.00  0.00     0.134 A 
ATOM     56  F   UNL A   1      44.730  32.873  27.301  1.00  0.00    -0.206 F 
ATOM     57  C   UNL A   1      45.319  34.622  28.752  1.00  0.00     0.040 A 
ATOM     58  C   UNL A   1      45.555  34.201  31.113  1.00  0.00     0.040 A 
ATOM     59  F   UNL A   1      45.240  32.036  31.958  1.00  0.00    -0.206 F 
ATOM     60  C   UNL A   1      45.596  35.085  30.037  1.00  0.00     0.006 A 
ENDBRANCH  36  53
ENDBRANCH  10  11
ENDBRANCH   3   5
ENDBRANCH   2   3
ENDBRANCH   1   2
BRANCH   1  61
ATOM     61  C   UNL A   1      37.526  20.818  25.312  1.00  0.00     0.275 C 
BRANCH  61  62
ATOM     62  O   UNL A   1      36.218  20.293  25.010  1.00  0.00    -0.458 OA
BRANCH  62  63
ATOM     63  C   UNL A   1      35.166  21.040  25.435  1.00  0.00     0.346 C 
ATOM     64  O   UNL A   1      34.920  21.366  26.578  1.00  0.00    -0.246 OA
BRANCH  63  65
ATOM     65  C   UNL A   1      34.218  21.269  24.322  1.00  0.00     0.150 A 
ATOM     66  C   UNL A   1      34.115  22.508  23.655  1.00  0.00     0.061 A 
ATOM     67  C   UNL A   1      33.234  20.295  24.075  1.00  0.00     0.284 A 
ATOM     68  C   UNL A   1      32.999  22.730  22.825  1.00  0.00     0.015 A 
ATOM     69  C   UNL A   1      32.172  20.511  23.182  1.00  0.00     0.086 A 
ATOM     70  C   UNL A   1      32.063  21.734  22.546  1.00  0.00     0.008 A 
BRANCH  66  71
ATOM     71  C   UNL A   1      34.953  23.681  24.022  1.00  0.00     0.259 C 
ATOM     72  O   UNL A   1      36.132  23.617  23.675  1.00  0.00    -0.269 OA
BRANCH  71  73
ATOM     73  N   UNL A   1      34.427  24.783  24.749  1.00  0.00    -0.308 N 
ATOM     74  C   UNL A   1      33.685  24.425  26.006  1.00  0.00     0.131 C 
ATOM     75  C   UNL A   1      33.562  25.694  24.073  1.00  0.00     0.047 A 
ATOM     76  C   UNL A   1      32.405  25.248  26.073  1.00  0.00     0.059 C 
ATOM     77  C   UNL A   1      32.298  25.641  24.650  1.00  0.00    -0.022 A 
ATOM     78  C   UNL A   1      33.747  26.332  22.867  1.00  0.00     0.026 A 
ATOM     79  C   UNL A   1      31.171  25.830  23.881  1.00  0.00     0.006 A 
ATOM     80  C   UNL A   1      32.622  26.562  22.080  1.00  0.00     0.002 A 
ATOM     81  C   UNL A   1      31.347  26.219  22.554  1.00  0.00     0.000 A 
ENDBRANCH  71  73
ENDBRANCH  66  71
BRANCH  67  82
ATOM     82  N   UNL A   1      33.244  19.016  24.764  1.00  0.00     0.063 N 
ATOM     83  O   UNL A   1      32.527  18.916  25.768  1.00  0.00    -0.258 OA
ATOM     84  O   UNL A   1      33.879  18.092  24.243  1.00  0.00    -0.258 OA
ENDBRANCH  67  82
ENDBRANCH  63  65
ENDBRANCH  62  63
ENDBRANCH  61  62
ENDBRANCH   1  61
TORSDOF 14
ENDMDL
MODEL 3
REMARK VINA RESULT:     -11.5      1.439      2.255
REMARK SMILES O=C(OCCOC(=O)c1c(C(=O)N2CCc3ccccc32)cccc1[N+](=O)[O-])c1ccc(-c2c3nc(c(-c4c(F)cccc4F)c4ccc([nH]4)c(-c4c(F)cccc4F)c4nc(c(-c5c(F)cccc5F)c5ccc2[nH]5)C=C4)C=C3)cc1
REMARK SMILES IDX 4 1 3 2 2 3 1 4 29 5 30 6 82 7 31 8 81 9 32 10 33 11 34 12
REMARK SMILES IDX 75 13 35 14 80 15 74 16 76 17 36 18 79 19 73 20 72 21 37 23
REMARK SMILES IDX 63 24 46 25 62 26 47 27 50 28 61 29 77 30 48 31 49 32 60 34
REMARK SMILES IDX 78 35 51 36 38 37 39 38 44 39 40 40 41 41 43 42 45 43 42 44
REMARK SMILES IDX 64 45 65 46 70 47 66 48 67 49 69 50 71 51 68 52 52 53 53 54
REMARK SMILES IDX 58 55 54 56 55 57 57 58 59 59 56 60 5 61 6 62 7 63 8 64 9 65
REMARK SMILES IDX 10 66 25 67 22 68 24 69 23 70 11 71 12 72 13 73 14 74 21 75
REMARK SMILES IDX 15 76 16 77 20 78 17 79 19 80 18 81 26 82 27 83 28 84
REMARK H PARENT 76 22 50 33
REMARK Flexibility Score: inf
ROOT
ATOM      1  C   UNL A   1      31.909  30.660  26.764  1.00  0.00     0.275 C 
ENDROOT
BRANCH   1   2
ATOM      2  O   UNL A   1      33.196  31.291  26.664  1.00  0.00    -0.458 OA
BRANCH   2   3
ATOM      3  C   UNL A   1      33.451  32.255  27.560  1.00  0.00     0.338 C 
ATOM      4  O   UNL A   1      32.870  33.327  27.600  1.00  0.00    -0.246 OA
BRANCH   3   5
ATOM      5  C   UNL A   1      34.718  31.938  28.265  1.00  0.00     0.060 A 
ATOM      6  C   UNL A   1      34.933  30.628  28.711  1.00  0.00     0.016 A 
ATOM      7  C   UNL A   1      35.774  32.848  28.267  1.00  0.00     0.016 A 
ATOM      8  C   UNL A   1      36.186  30.227  29.128  1.00  0.00     0.010 A 
ATOM      9  C   UNL A   1      37.059  32.424  28.600  1.00  0.00     0.010 A 
ATOM     10  C   UNL A   1      37.259  31.117  29.066  1.00  0.00    -0.014 A 
BRANCH  10  11
ATOM     11  C   UNL A   1      38.525  30.699  29.693  1.00  0.00     0.031 A 
ATOM     12  C   UNL A   1      38.782  31.162  31.093  1.00  0.00     0.074 A 
ATOM     13  C   UNL A   1      39.323  29.808  29.077  1.00  0.00     0.049 A 
ATOM     14  N   UNL A   1      39.704  30.772  31.927  1.00  0.00    -0.248 NA
ATOM     15  C   UNL A   1      37.866  32.180  31.639  1.00  0.00     0.031 C 
ATOM     16  C   UNL A   1      39.094  29.271  27.738  1.00  0.00     0.029 A 
ATOM     17  N   UNL A   1      40.458  29.167  29.490  1.00  0.00    -0.354 N 
ATOM     18  C   UNL A   1      39.442  31.456  33.104  1.00  0.00     0.074 A 
ATOM     19  C   UNL A   1      38.360  32.372  32.850  1.00  0.00     0.031 C 
ATOM     20  C   UNL A   1      40.065  28.400  27.423  1.00  0.00     0.029 A 
ATOM     21  C   UNL A   1      40.968  28.291  28.559  1.00  0.00     0.049 A 
ATOM     22  H   UNL A   1      40.871  29.317  30.372  1.00  0.00     0.167 HD
ATOM     23  C   UNL A   1      40.013  31.280  34.315  1.00  0.00     0.037 A 
ATOM     24  C   UNL A   1      42.026  27.466  28.640  1.00  0.00     0.037 A 
ATOM     25  C   UNL A   1      41.096  30.367  34.535  1.00  0.00     0.049 A 
ATOM     26  C   UNL A   1      42.716  27.366  29.972  1.00  0.00     0.074 A 
ATOM     27  C   UNL A   1      41.806  30.129  35.694  1.00  0.00     0.029 A 
ATOM     28  N   UNL A   1      41.630  29.543  33.551  1.00  0.00    -0.354 N 
ATOM     29  N   UNL A   1      42.435  27.995  31.091  1.00  0.00    -0.248 NA
ATOM     30  C   UNL A   1      43.832  26.421  30.074  1.00  0.00     0.031 C 
ATOM     31  C   UNL A   1      42.802  29.192  35.399  1.00  0.00     0.029 A 
ATOM     32  C   UNL A   1      42.676  28.805  34.071  1.00  0.00     0.049 A 
ATOM     33  H   UNL A   1      41.310  29.490  32.622  1.00  0.00     0.167 HD
ATOM     34  C   UNL A   1      43.317  27.499  32.039  1.00  0.00     0.074 A 
ATOM     35  C   UNL A   1      44.126  26.501  31.364  1.00  0.00     0.031 C 
ATOM     36  C   UNL A   1      43.451  27.828  33.348  1.00  0.00     0.037 A 
BRANCH  23  37
ATOM     37  C   UNL A   1      39.460  32.098  35.442  1.00  0.00     0.057 A 
ATOM     38  C   UNL A   1      39.958  33.376  35.737  1.00  0.00     0.134 A 
ATOM     39  C   UNL A   1      38.473  31.578  36.286  1.00  0.00     0.134 A 
ATOM     40  F   UNL A   1      40.935  33.915  34.991  1.00  0.00    -0.206 F 
ATOM     41  C   UNL A   1      39.516  34.095  36.850  1.00  0.00     0.040 A 
ATOM     42  C   UNL A   1      38.004  32.299  37.387  1.00  0.00     0.040 A 
ATOM     43  F   UNL A   1      37.969  30.354  36.073  1.00  0.00    -0.206 F 
ATOM     44  C   UNL A   1      38.534  33.556  37.676  1.00  0.00     0.006 A 
ENDBRANCH  23  37
BRANCH  24  45
ATOM     45  C   UNL A   1      42.461  26.662  27.465  1.00  0.00     0.057 A 
ATOM     46  C   UNL A   1      43.324  27.174  26.488  1.00  0.00     0.134 A 
ATOM     47  C   UNL A   1      41.995  25.352  27.278  1.00  0.00     0.134 A 
ATOM     48  F   UNL A   1      43.808  28.419  26.601  1.00  0.00    -0.206 F 
ATOM     49  C   UNL A   1      43.677  26.433  25.356  1.00  0.00     0.040 A 
ATOM     50  C   UNL A   1      42.358  24.591  26.165  1.00  0.00     0.040 A 
ATOM     51  F   UNL A   1      41.180  24.789  28.183  1.00  0.00    -0.206 F 
ATOM     52  C   UNL A   1      43.192  25.137  25.192  1.00  0.00     0.006 A 
ENDBRANCH  24  45
BRANCH  36  53
ATOM     53  C   UNL A   1      44.500  27.085  34.116  1.00  0.00     0.057 A 
ATOM     54  C   UNL A   1      45.803  27.580  34.249  1.00  0.00     0.134 A 
ATOM     55  C   UNL A   1      44.188  25.880  34.758  1.00  0.00     0.134 A 
ATOM     56  F   UNL A   1      46.162  28.723  33.646  1.00  0.00    -0.206 F 
ATOM     57  C   UNL A   1      46.771  26.882  34.969  1.00  0.00     0.040 A 
ATOM     58  C   UNL A   1      45.138  25.193  35.509  1.00  0.00     0.040 A 
ATOM     59  F   UNL A   1      42.952  25.364  34.677  1.00  0.00    -0.206 F 
ATOM     60  C   UNL A   1      46.436  25.689  35.607  1.00  0.00     0.006 A 
ENDBRANCH  36  53
ENDBRANCH  10  11
ENDBRANCH   3   5
ENDBRANCH   2   3
ENDBRANCH   1   2
BRANCH   1  61
ATOM     61  C   UNL A   1      31.790  29.113  26.811  1.00  0.00     0.275 C 
BRANCH  61  62
ATOM     62  O   UNL A   1      31.405  28.490  25.569  1.00  0.00    -0.458 OA
BRANCH  62  63
ATOM     63  C   UNL A   1      31.168  27.154  25.622  1.00  0.00     0.346 C 
ATOM     64  O   UNL A   1      30.769  26.525  26.581  1.00  0.00    -0.246 OA
BRANCH  63  65
ATOM     65  C   UNL A   1      31.643  26.499  24.384  1.00  0.00     0.150 A 
ATOM     66  C   UNL A   1      32.917  25.901  24.283  1.00  0.00     0.061 A 
ATOM     67  C   UNL A   1      30.895  26.679  23.207  1.00  0.00     0.284 A 
ATOM     68  C   UNL A   1      33.401  25.572  23.001  1.00  0.00     0.015 A 
ATOM     69  C   UNL A   1      31.367  26.271  21.948  1.00  0.00     0.086 A 
ATOM     70  C   UNL A   1      32.624  25.704  21.850  1.00  0.00     0.008 A 
BRANCH  66  71
ATOM     71  C   UNL A   1      33.880  25.884  25.416  1.00  0.00     0.259 C 
ATOM     72  O   UNL A   1      34.238  26.990  25.821  1.00  0.00    -0.269 OA
BRANCH  71  73
ATOM     73  N   UNL A   1      34.369  24.669  25.969  1.00  0.00    -0.308 N 
ATOM     74  C   UNL A   1      35.694  24.209  25.429  1.00  0.00     0.131 C 
ATOM     75  C   UNL A   1      33.539  23.511  25.911  1.00  0.00     0.047 A 
ATOM     76  C   UNL A   1      35.619  22.712  25.155  1.00  0.00     0.059 C 
ATOM     77  C   UNL A   1      34.149  22.549  25.114  1.00  0.00    -0.022 A 
ATOM     78  C   UNL A   1      32.221  23.371  26.281  1.00  0.00     0.026 A 
ATOM     79  C   UNL A   1      33.388  21.693  24.347  1.00  0.00     0.006 A 
ATOM     80  C   UNL A   1      31.434  22.491  25.541  1.00  0.00     0.002 A 
ATOM     81  C   UNL A   1      32.005  21.729  24.512  1.00  0.00     0.000 A 
ENDBRANCH  71  73
ENDBRANCH  66  71
BRANCH  67  82
ATOM     82  N   UNL A   1      29.600  27.336  23.225  1.00  0.00     0.063 N 
ATOM     83  O   UNL A   1      29.527  28.446  22.683  1.00  0.00    -0.258 OA
ATOM     84  O   UNL A   1      28.644  26.699  23.683  1.00  0.00    -0.258 OA
ENDBRANCH  67  82
ENDBRANCH  63  65
ENDBRANCH  62  63
ENDBRANCH  61  62
ENDBRANCH   1  61
TORSDOF 14
ENDMDL
