MODEL 1
REMARK VINA RESULT:     -12.2      0.000      0.000
REMARK SMILES CN(C)c1ccc(CCC(=O)N2C[C@@H](C(=O)OCCOC(=O)c3ccc(-c4c5nc(c(-c6c(F)cccc6F)c6ccc([nH]6)c(-c6c(F)cccc6F)c6nc(c(-c7c(F)cccc7F)c7ccc4[nH]7)C=C6)C=C5)cc3)[C@H](c3cccnc3)C2)cc1
REMARK SMILES IDX 17 1 15 2 16 3 14 4 12 5 13 6 84 7 77 8 10 9 11 10 9 11 8 12
REMARK SMILES IDX 7 13 4 14 5 15 86 16 6 17 85 18 2 19 1 20 3 21 78 22 79 23
REMARK SMILES IDX 83 24 80 25 82 26 81 27 18 28 19 29 20 30 21 31 22 32 23 33
REMARK SMILES IDX 24 34 76 35 25 36 75 37 26 38 27 39 28 40 69 41 29 42 74 43
REMARK SMILES IDX 68 44 70 45 30 46 73 47 67 48 66 49 31 51 57 52 40 53 56 54
REMARK SMILES IDX 41 55 44 56 55 57 71 58 42 59 43 60 54 62 72 63 45 64 32 65
REMARK SMILES IDX 33 66 38 67 34 68 35 69 37 70 39 71 36 72 58 73 59 74 64 75
REMARK SMILES IDX 60 76 61 77 63 78 65 79 62 80 46 81 47 82 52 83 48 84 49 85
REMARK SMILES IDX 51 86 53 87 50 88
REMARK H PARENT 70 50 44 61
REMARK Flexibility Score: inf
ROOT
ATOM      1  O   UNL A   1      32.106  30.492  25.868  1.00  0.00    -0.462 OA
ENDROOT
BRANCH   1   2
ATOM      2  C   UNL A   1      31.789  29.231  26.296  1.00  0.00     0.311 C 
ATOM      3  O   UNL A   1      31.599  28.905  27.445  1.00  0.00    -0.252 OA
BRANCH   2   4
ATOM      4  C   UNL A   1      31.647  28.336  25.076  1.00  0.00     0.128 C 
ATOM      5  N   UNL A   1      32.902  27.146  23.505  1.00  0.00    -0.341 N 
ATOM      6  C   UNL A   1      32.820  27.388  24.922  1.00  0.00     0.135 C 
ATOM      7  C   UNL A   1      32.441  28.319  22.773  1.00  0.00     0.128 C 
ATOM      8  C   UNL A   1      31.537  29.127  23.751  1.00  0.00     0.056 C 
BRANCH   5   9
ATOM      9  C   UNL A   1      33.562  26.098  22.892  1.00  0.00     0.222 C 
ATOM     10  O   UNL A   1      33.650  26.030  21.665  1.00  0.00    -0.275 OA
BRANCH   9  11
ATOM     11  C   UNL A   1      34.057  24.939  23.761  1.00  0.00     0.105 C 
BRANCH  11  12
ATOM     12  C   UNL A   1      34.394  23.625  23.039  1.00  0.00     0.045 C 
BRANCH  12  13
ATOM     13  C   UNL A   1      33.856  22.407  23.756  1.00  0.00    -0.047 A 
ATOM     14  C   UNL A   1      33.208  19.799  24.537  1.00  0.00     0.036 A 
ATOM     15  C   UNL A   1      32.295  20.562  23.794  1.00  0.00     0.026 A 
ATOM     16  C   UNL A   1      34.303  20.448  25.106  1.00  0.00     0.026 A 
ATOM     17  C   UNL A   1      32.621  21.860  23.398  1.00  0.00     0.006 A 
ATOM     18  C   UNL A   1      34.647  21.735  24.698  1.00  0.00     0.006 A 
BRANCH  14  19
ATOM     19  N   UNL A   1      33.296  18.425  24.236  1.00  0.00    -0.378 N 
ATOM     20  C   UNL A   1      34.536  17.665  24.250  1.00  0.00     0.143 C 
ATOM     21  C   UNL A   1      32.534  18.268  23.012  1.00  0.00     0.143 C 
ENDBRANCH  14  19
ENDBRANCH  12  13
ENDBRANCH  11  12
ENDBRANCH   9  11
ENDBRANCH   5   9
BRANCH   8  22
ATOM     22  C   UNL A   1      30.057  29.307  23.424  1.00  0.00    -0.024 A 
ATOM     23  C   UNL A   1      29.487  30.594  23.467  1.00  0.00     0.007 A 
ATOM     24  C   UNL A   1      29.176  28.272  23.136  1.00  0.00     0.115 A 
ATOM     25  C   UNL A   1      28.114  30.778  23.362  1.00  0.00     0.020 A 
ATOM     26  N   UNL A   1      27.835  28.424  22.988  1.00  0.00    -0.264 NA
ATOM     27  C   UNL A   1      27.332  29.668  23.133  1.00  0.00     0.111 A 
ENDBRANCH   8  22
ENDBRANCH   2   4
ENDBRANCH   1   2
BRANCH   1  28
ATOM     28  C   UNL A   1      31.464  31.616  26.501  1.00  0.00     0.274 C 
BRANCH  28  29
ATOM     29  C   UNL A   1      32.511  32.346  27.373  1.00  0.00     0.275 C 
BRANCH  29  30
ATOM     30  O   UNL A   1      32.454  33.798  27.242  1.00  0.00    -0.458 OA
BRANCH  30  31
ATOM     31  C   UNL A   1      32.878  34.529  28.309  1.00  0.00     0.338 C 
ATOM     32  O   UNL A   1      32.274  35.443  28.843  1.00  0.00    -0.246 OA
BRANCH  31  33
ATOM     33  C   UNL A   1      34.133  33.959  28.879  1.00  0.00     0.060 A 
ATOM     34  C   UNL A   1      34.032  33.137  30.010  1.00  0.00     0.016 A 
ATOM     35  C   UNL A   1      35.400  34.265  28.375  1.00  0.00     0.016 A 
ATOM     36  C   UNL A   1      35.180  32.589  30.608  1.00  0.00     0.010 A 
ATOM     37  C   UNL A   1      36.553  33.748  29.004  1.00  0.00     0.010 A 
ATOM     38  C   UNL A   1      36.460  32.905  30.126  1.00  0.00    -0.014 A 
BRANCH  38  39
ATOM     39  C   UNL A   1      37.692  32.398  30.811  1.00  0.00     0.031 A 
ATOM     40  C   UNL A   1      38.470  31.251  30.230  1.00  0.00     0.074 A 
ATOM     41  C   UNL A   1      38.139  32.949  31.956  1.00  0.00     0.049 A 
ATOM     42  N   UNL A   1      39.442  30.558  30.770  1.00  0.00    -0.248 NA
ATOM     43  C   UNL A   1      38.098  30.821  28.877  1.00  0.00     0.031 C 
ATOM     44  C   UNL A   1      37.518  34.086  32.615  1.00  0.00     0.029 A 
ATOM     45  N   UNL A   1      39.207  32.642  32.770  1.00  0.00    -0.354 N 
ATOM     46  C   UNL A   1      39.778  29.587  29.839  1.00  0.00     0.074 A 
ATOM     47  C   UNL A   1      38.920  29.797  28.689  1.00  0.00     0.031 C 
ATOM     48  C   UNL A   1      38.234  34.425  33.698  1.00  0.00     0.029 A 
ATOM     49  C   UNL A   1      39.292  33.436  33.892  1.00  0.00     0.049 A 
ATOM     50  H   UNL A   1      39.847  31.922  32.570  1.00  0.00     0.167 HD
ATOM     51  C   UNL A   1      40.694  28.594  29.943  1.00  0.00     0.037 A 
ATOM     52  C   UNL A   1      40.068  33.336  34.994  1.00  0.00     0.037 A 
ATOM     53  C   UNL A   1      41.533  28.366  31.093  1.00  0.00     0.049 A 
ATOM     54  C   UNL A   1      41.004  32.164  35.134  1.00  0.00     0.074 A 
ATOM     55  C   UNL A   1      42.461  27.357  31.297  1.00  0.00     0.029 A 
ATOM     56  N   UNL A   1      41.545  29.152  32.235  1.00  0.00    -0.354 N 
ATOM     57  N   UNL A   1      41.264  31.209  34.274  1.00  0.00    -0.248 NA
ATOM     58  C   UNL A   1      41.716  32.025  36.414  1.00  0.00     0.031 C 
ATOM     59  C   UNL A   1      43.000  27.507  32.579  1.00  0.00     0.029 A 
ATOM     60  C   UNL A   1      42.443  28.636  33.156  1.00  0.00     0.049 A 
ATOM     61  H   UNL A   1      40.996  29.958  32.371  1.00  0.00     0.167 HD
ATOM     62  C   UNL A   1      42.160  30.357  34.911  1.00  0.00     0.074 A 
ATOM     63  C   UNL A   1      42.426  30.922  36.216  1.00  0.00     0.031 C 
ATOM     64  C   UNL A   1      42.702  29.202  34.455  1.00  0.00     0.037 A 
BRANCH  51  65
ATOM     65  C   UNL A   1      40.786  27.628  28.801  1.00  0.00     0.057 A 
ATOM     66  C   UNL A   1      41.711  27.790  27.762  1.00  0.00     0.134 A 
ATOM     67  C   UNL A   1      39.944  26.509  28.750  1.00  0.00     0.134 A 
ATOM     68  F   UNL A   1      42.534  28.849  27.745  1.00  0.00    -0.206 F 
ATOM     69  C   UNL A   1      41.780  26.884  26.703  1.00  0.00     0.040 A 
ATOM     70  C   UNL A   1      40.020  25.584  27.709  1.00  0.00     0.040 A 
ATOM     71  F   UNL A   1      39.039  26.294  29.717  1.00  0.00    -0.206 F 
ATOM     72  C   UNL A   1      40.936  25.774  26.677  1.00  0.00     0.006 A 
ENDBRANCH  51  65
BRANCH  52  73
ATOM     73  C   UNL A   1      39.909  34.298  36.121  1.00  0.00     0.057 A 
ATOM     74  C   UNL A   1      40.644  35.487  36.179  1.00  0.00     0.134 A 
ATOM     75  C   UNL A   1      39.050  34.025  37.195  1.00  0.00     0.134 A 
ATOM     76  F   UNL A   1      41.518  35.789  35.207  1.00  0.00    -0.206 F 
ATOM     77  C   UNL A   1      40.536  36.365  37.262  1.00  0.00     0.040 A 
ATOM     78  C   UNL A   1      38.905  34.909  38.265  1.00  0.00     0.040 A 
ATOM     79  F   UNL A   1      38.327  32.895  37.214  1.00  0.00    -0.206 F 
ATOM     80  C   UNL A   1      39.656  36.080  38.304  1.00  0.00     0.006 A 
ENDBRANCH  52  73
BRANCH  64  81
ATOM     81  C   UNL A   1      43.650  28.476  35.366  1.00  0.00     0.057 A 
ATOM     82  C   UNL A   1      45.030  28.712  35.331  1.00  0.00     0.134 A 
ATOM     83  C   UNL A   1      43.173  27.566  36.317  1.00  0.00     0.134 A 
ATOM     84  F   UNL A   1      45.553  29.559  34.432  1.00  0.00    -0.206 F 
ATOM     85  C   UNL A   1      45.904  28.060  36.205  1.00  0.00     0.040 A 
ATOM     86  C   UNL A   1      44.033  26.924  37.210  1.00  0.00     0.040 A 
ATOM     87  F   UNL A   1      41.861  27.298  36.405  1.00  0.00    -0.206 F 
ATOM     88  C   UNL A   1      45.404  27.169  37.153  1.00  0.00     0.006 A 
ENDBRANCH  64  81
ENDBRANCH  38  39
ENDBRANCH  31  33
ENDBRANCH  30  31
ENDBRANCH  29  30
ENDBRANCH  28  29
ENDBRANCH   1  28
TORSDOF 17
ENDMDL
MODEL 2
REMARK VINA RESULT:     -12.1      5.036     10.771
REMARK SMILES CN(C)c1ccc(CCC(=O)N2C[C@@H](C(=O)OCCOC(=O)c3ccc(-c4c5nc(c(-c6c(F)cccc6F)c6ccc([nH]6)c(-c6c(F)cccc6F)c6nc(c(-c7c(F)cccc7F)c7ccc4[nH]7)C=C6)C=C5)cc3)[C@H](c3cccnc3)C2)cc1
REMARK SMILES IDX 17 1 15 2 16 3 14 4 12 5 13 6 84 7 77 8 10 9 11 10 9 11 8 12
REMARK SMILES IDX 7 13 4 14 5 15 86 16 6 17 85 18 2 19 1 20 3 21 78 22 79 23
REMARK SMILES IDX 83 24 80 25 82 26 81 27 18 28 19 29 20 30 21 31 22 32 23 33
REMARK SMILES IDX 24 34 76 35 25 36 75 37 26 38 27 39 28 40 69 41 29 42 74 43
REMARK SMILES IDX 68 44 70 45 30 46 73 47 67 48 66 49 31 51 57 52 40 53 56 54
REMARK SMILES IDX 41 55 44 56 55 57 71 58 42 59 43 60 54 62 72 63 45 64 32 65
REMARK SMILES IDX 33 66 38 67 34 68 35 69 37 70 39 71 36 72 58 73 59 74 64 75
REMARK SMILES IDX 60 76 61 77 63 78 65 79 62 80 46 81 47 82 52 83 48 84 49 85
REMARK SMILES IDX 51 86 53 87 50 88
REMARK H PARENT 70 50 44 61
REMARK Flexibility Score: inf
ROOT
ATOM      1  O   UNL A   1      36.811  21.253  25.242  1.00  0.00    -0.462 OA
ENDROOT
BRANCH   1   2
ATOM      2  C   UNL A   1      36.160  21.969  24.274  1.00  0.00     0.311 C 
ATOM      3  O   UNL A   1      36.671  22.442  23.286  1.00  0.00    -0.252 OA
BRANCH   2   4
ATOM      4  C   UNL A   1      34.680  21.999  24.619  1.00  0.00     0.128 C 
ATOM      5  N   UNL A   1      33.159  22.917  26.137  1.00  0.00    -0.341 N 
ATOM      6  C   UNL A   1      34.281  23.286  25.315  1.00  0.00     0.135 C 
ATOM      7  C   UNL A   1      33.292  21.530  26.564  1.00  0.00     0.128 C 
ATOM      8  C   UNL A   1      34.247  20.840  25.548  1.00  0.00     0.056 C 
BRANCH   5   9
ATOM      9  C   UNL A   1      32.229  23.780  26.685  1.00  0.00     0.222 C 
ATOM     10  O   UNL A   1      31.408  23.387  27.517  1.00  0.00    -0.275 OA
BRANCH   9  11
ATOM     11  C   UNL A   1      32.138  25.204  26.130  1.00  0.00     0.105 C 
BRANCH  11  12
ATOM     12  C   UNL A   1      30.737  25.717  25.763  1.00  0.00     0.045 C 
BRANCH  12  13
ATOM     13  C   UNL A   1      30.771  26.858  24.771  1.00  0.00    -0.047 A 
ATOM     14  C   UNL A   1      30.183  29.129  23.245  1.00  0.00     0.036 A 
ATOM     15  C   UNL A   1      29.911  27.848  22.742  1.00  0.00     0.026 A 
ATOM     16  C   UNL A   1      30.993  29.236  24.376  1.00  0.00     0.026 A 
ATOM     17  C   UNL A   1      30.197  26.716  23.506  1.00  0.00     0.006 A 
ATOM     18  C   UNL A   1      31.262  28.113  25.156  1.00  0.00     0.006 A 
BRANCH  14  19
ATOM     19  N   UNL A   1      29.250  30.146  22.961  1.00  0.00    -0.378 N 
ATOM     20  C   UNL A   1      27.855  30.109  23.368  1.00  0.00     0.143 C 
ATOM     21  C   UNL A   1      29.435  30.429  21.550  1.00  0.00     0.143 C 
ENDBRANCH  14  19
ENDBRANCH  12  13
ENDBRANCH  11  12
ENDBRANCH   9  11
ENDBRANCH   5   9
BRANCH   8  22
ATOM     22  C   UNL A   1      33.718  19.704  24.677  1.00  0.00    -0.024 A 
ATOM     23  C   UNL A   1      34.432  18.492  24.605  1.00  0.00     0.007 A 
ATOM     24  C   UNL A   1      32.588  19.780  23.873  1.00  0.00     0.115 A 
ATOM     25  C   UNL A   1      34.091  17.507  23.686  1.00  0.00     0.020 A 
ATOM     26  N   UNL A   1      32.204  18.819  22.994  1.00  0.00    -0.264 NA
ATOM     27  C   UNL A   1      32.980  17.719  22.900  1.00  0.00     0.111 A 
ENDBRANCH   8  22
ENDBRANCH   2   4
ENDBRANCH   1   2
BRANCH   1  28
ATOM     28  C   UNL A   1      38.236  21.413  25.377  1.00  0.00     0.274 C 
BRANCH  28  29
ATOM     29  C   UNL A   1      38.900  20.027  25.216  1.00  0.00     0.275 C 
BRANCH  29  30
ATOM     30  O   UNL A   1      39.732  19.654  26.355  1.00  0.00    -0.458 OA
BRANCH  30  31
ATOM     31  C   UNL A   1      41.073  19.572  26.136  1.00  0.00     0.338 C 
ATOM     32  O   UNL A   1      41.663  18.644  25.610  1.00  0.00    -0.246 OA
BRANCH  31  33
ATOM     33  C   UNL A   1      41.746  20.861  26.471  1.00  0.00     0.060 A 
ATOM     34  C   UNL A   1      41.995  21.146  27.821  1.00  0.00     0.016 A 
ATOM     35  C   UNL A   1      42.073  21.816  25.505  1.00  0.00     0.016 A 
ATOM     36  C   UNL A   1      42.604  22.354  28.202  1.00  0.00     0.010 A 
ATOM     37  C   UNL A   1      42.645  23.046  25.895  1.00  0.00     0.010 A 
ATOM     38  C   UNL A   1      42.919  23.332  27.245  1.00  0.00    -0.014 A 
BRANCH  38  39
ATOM     39  C   UNL A   1      43.485  24.658  27.651  1.00  0.00     0.031 A 
ATOM     40  C   UNL A   1      42.583  25.752  28.146  1.00  0.00     0.074 A 
ATOM     41  C   UNL A   1      44.807  24.908  27.590  1.00  0.00     0.049 A 
ATOM     42  N   UNL A   1      42.861  27.014  28.362  1.00  0.00    -0.248 NA
ATOM     43  C   UNL A   1      41.188  25.385  28.418  1.00  0.00     0.031 C 
ATOM     44  C   UNL A   1      45.807  23.938  27.172  1.00  0.00     0.029 A 
ATOM     45  N   UNL A   1      45.545  26.036  27.873  1.00  0.00    -0.354 N 
ATOM     46  C   UNL A   1      41.671  27.602  28.763  1.00  0.00     0.074 A 
ATOM     47  C   UNL A   1      40.672  26.551  28.783  1.00  0.00     0.031 C 
ATOM     48  C   UNL A   1      47.030  24.479  27.274  1.00  0.00     0.029 A 
ATOM     49  C   UNL A   1      46.893  25.889  27.633  1.00  0.00     0.049 A 
ATOM     50  H   UNL A   1      45.146  26.869  28.215  1.00  0.00     0.167 HD
ATOM     51  C   UNL A   1      41.425  28.902  29.058  1.00  0.00     0.037 A 
ATOM     52  C   UNL A   1      47.896  26.795  27.614  1.00  0.00     0.037 A 
ATOM     53  C   UNL A   1      42.408  29.955  29.017  1.00  0.00     0.049 A 
ATOM     54  C   UNL A   1      47.579  28.251  27.842  1.00  0.00     0.074 A 
ATOM     55  C   UNL A   1      42.233  31.308  29.263  1.00  0.00     0.029 A 
ATOM     56  N   UNL A   1      43.747  29.779  28.706  1.00  0.00    -0.354 N 
ATOM     57  N   UNL A   1      46.434  28.807  28.153  1.00  0.00    -0.248 NA
ATOM     58  C   UNL A   1      48.681  29.211  27.666  1.00  0.00     0.031 C 
ATOM     59  C   UNL A   1      43.456  31.954  29.056  1.00  0.00     0.029 A 
ATOM     60  C   UNL A   1      44.404  30.999  28.728  1.00  0.00     0.049 A 
ATOM     61  H   UNL A   1      44.170  28.914  28.500  1.00  0.00     0.167 HD
ATOM     62  C   UNL A   1      46.677  30.176  28.202  1.00  0.00     0.074 A 
ATOM     63  C   UNL A   1      48.083  30.366  27.921  1.00  0.00     0.031 C 
ATOM     64  C   UNL A   1      45.804  31.183  28.445  1.00  0.00     0.037 A 
BRANCH  51  65
ATOM     65  C   UNL A   1      40.009  29.270  29.384  1.00  0.00     0.057 A 
ATOM     66  C   UNL A   1      39.547  29.353  30.703  1.00  0.00     0.134 A 
ATOM     67  C   UNL A   1      39.100  29.564  28.359  1.00  0.00     0.134 A 
ATOM     68  F   UNL A   1      40.364  29.068  31.728  1.00  0.00    -0.206 F 
ATOM     69  C   UNL A   1      38.224  29.693  30.991  1.00  0.00     0.040 A 
ATOM     70  C   UNL A   1      37.781  29.928  28.635  1.00  0.00     0.040 A 
ATOM     71  F   UNL A   1      39.481  29.508  27.074  1.00  0.00    -0.206 F 
ATOM     72  C   UNL A   1      37.338  29.986  29.954  1.00  0.00     0.006 A 
ENDBRANCH  51  65
BRANCH  52  73
ATOM     73  C   UNL A   1      49.279  26.385  27.243  1.00  0.00     0.057 A 
ATOM     74  C   UNL A   1      50.228  26.045  28.213  1.00  0.00     0.134 A 
ATOM     75  C   UNL A   1      49.699  26.371  25.905  1.00  0.00     0.134 A 
ATOM     76  F   UNL A   1      49.906  26.081  29.515  1.00  0.00    -0.206 F 
ATOM     77  C   UNL A   1      51.542  25.711  27.870  1.00  0.00     0.040 A 
ATOM     78  C   UNL A   1      50.997  26.006  25.545  1.00  0.00     0.040 A 
ATOM     79  F   UNL A   1      48.847  26.702  24.924  1.00  0.00    -0.206 F 
ATOM     80  C   UNL A   1      51.926  25.682  26.531  1.00  0.00     0.006 A 
ENDBRANCH  52  73
BRANCH  64  81
ATOM     81  C   UNL A   1      46.345  32.584  28.435  1.00  0.00     0.057 A 
ATOM     82  C   UNL A   1      46.927  33.157  29.573  1.00  0.00     0.134 A 
ATOM     83  C   UNL A   1      46.324  33.351  27.264  1.00  0.00     0.134 A 
ATOM     84  F   UNL A   1      46.963  32.481  30.732  1.00  0.00    -0.206 F 
ATOM     85  C   UNL A   1      47.461  34.447  29.549  1.00  0.00     0.040 A 
ATOM     86  C   UNL A   1      46.874  34.634  27.221  1.00  0.00     0.040 A 
ATOM     87  F   UNL A   1      45.785  32.860  26.138  1.00  0.00    -0.206 F 
ATOM     88  C   UNL A   1      47.442  35.186  28.368  1.00  0.00     0.006 A 
ENDBRANCH  64  81
ENDBRANCH  38  39
ENDBRANCH  31  33
ENDBRANCH  30  31
ENDBRANCH  29  30
ENDBRANCH  28  29
ENDBRANCH   1  28
TORSDOF 17
ENDMDL
MODEL 3
REMARK VINA RESULT:     -12.1      4.679      8.454
REMARK SMILES CN(C)c1ccc(CCC(=O)N2C[C@@H](C(=O)OCCOC(=O)c3ccc(-c4c5nc(c(-c6c(F)cccc6F)c6ccc([nH]6)c(-c6c(F)cccc6F)c6nc(c(-c7c(F)cccc7F)c7ccc4[nH]7)C=C6)C=C5)cc3)[C@H](c3cccnc3)C2)cc1
REMARK SMILES IDX 17 1 15 2 16 3 14 4 12 5 13 6 84 7 77 8 10 9 11 10 9 11 8 12
REMARK SMILES IDX 7 13 4 14 5 15 86 16 6 17 85 18 2 19 1 20 3 21 78 22 79 23
REMARK SMILES IDX 83 24 80 25 82 26 81 27 18 28 19 29 20 30 21 31 22 32 23 33
REMARK SMILES IDX 24 34 76 35 25 36 75 37 26 38 27 39 28 40 69 41 29 42 74 43
REMARK SMILES IDX 68 44 70 45 30 46 73 47 67 48 66 49 31 51 57 52 40 53 56 54
REMARK SMILES IDX 41 55 44 56 55 57 71 58 42 59 43 60 54 62 72 63 45 64 32 65
REMARK SMILES IDX 33 66 38 67 34 68 35 69 37 70 39 71 36 72 58 73 59 74 64 75
REMARK SMILES IDX 60 76 61 77 63 78 65 79 62 80 46 81 47 82 52 83 48 84 49 85
REMARK SMILES IDX 51 86 53 87 50 88
REMARK H PARENT 70 50 44 61
REMARK Flexibility Score: inf
ROOT
ATOM      1  O   UNL A   1      32.422  28.913  26.288  1.00  0.00    -0.462 OA
ENDROOT
BRANCH   1   2
ATOM      2  C   UNL A   1      31.530  27.876  26.343  1.00  0.00     0.311 C 
ATOM      3  O   UNL A   1      31.021  27.439  27.350  1.00  0.00    -0.252 OA
BRANCH   2   4
ATOM      4  C   UNL A   1      31.237  27.424  24.922  1.00  0.00     0.128 C 
ATOM      5  N   UNL A   1      32.238  26.433  23.058  1.00  0.00    -0.341 N 
ATOM      6  C   UNL A   1      32.138  26.285  24.487  1.00  0.00     0.135 C 
ATOM      7  C   UNL A   1      32.133  27.840  22.696  1.00  0.00     0.128 C 
ATOM      8  C   UNL A   1      31.409  28.551  23.877  1.00  0.00     0.056 C 
BRANCH   5   9
ATOM      9  C   UNL A   1      32.645  25.462  22.163  1.00  0.00     0.222 C 
ATOM     10  O   UNL A   1      32.956  25.752  21.006  1.00  0.00    -0.275 OA
BRANCH   9  11
ATOM     11  C   UNL A   1      32.561  23.994  22.590  1.00  0.00     0.105 C 
BRANCH  11  12
ATOM     12  C   UNL A   1      33.822  23.139  22.387  1.00  0.00     0.045 C 
BRANCH  12  13
ATOM     13  C   UNL A   1      34.526  22.814  23.686  1.00  0.00    -0.047 A 
ATOM     14  C   UNL A   1      36.374  22.019  25.630  1.00  0.00     0.036 A 
ATOM     15  C   UNL A   1      35.371  21.135  25.204  1.00  0.00     0.026 A 
ATOM     16  C   UNL A   1      36.261  23.364  25.280  1.00  0.00     0.026 A 
ATOM     17  C   UNL A   1      34.454  21.528  24.229  1.00  0.00     0.006 A 
ATOM     18  C   UNL A   1      35.364  23.759  24.290  1.00  0.00     0.006 A 
BRANCH  14  19
ATOM     19  N   UNL A   1      37.647  21.473  25.890  1.00  0.00    -0.378 N 
ATOM     20  C   UNL A   1      38.842  22.269  26.125  1.00  0.00     0.143 C 
ATOM     21  C   UNL A   1      37.822  20.451  24.876  1.00  0.00     0.143 C 
ENDBRANCH  14  19
ENDBRANCH  12  13
ENDBRANCH  11  12
ENDBRANCH   9  11
ENDBRANCH   5   9
BRANCH   8  22
ATOM     22  C   UNL A   1      30.044  29.193  23.639  1.00  0.00    -0.024 A 
ATOM     23  C   UNL A   1      28.999  28.423  23.094  1.00  0.00     0.007 A 
ATOM     24  C   UNL A   1      29.746  30.531  23.865  1.00  0.00     0.115 A 
ATOM     25  C   UNL A   1      27.806  29.010  22.688  1.00  0.00     0.020 A 
ATOM     26  N   UNL A   1      28.576  31.126  23.518  1.00  0.00    -0.264 NA
ATOM     27  C   UNL A   1      27.646  30.359  22.912  1.00  0.00     0.111 A 
ENDBRANCH   8  22
ENDBRANCH   2   4
ENDBRANCH   1   2
BRANCH   1  28
ATOM     28  C   UNL A   1      32.247  30.022  27.189  1.00  0.00     0.274 C 
BRANCH  28  29
ATOM     29  C   UNL A   1      33.565  30.829  27.230  1.00  0.00     0.275 C 
BRANCH  29  30
ATOM     30  O   UNL A   1      34.698  30.050  27.718  1.00  0.00    -0.458 OA
BRANCH  30  31
ATOM     31  C   UNL A   1      35.556  30.678  28.568  1.00  0.00     0.338 C 
ATOM     32  O   UNL A   1      35.263  31.526  29.394  1.00  0.00    -0.246 OA
BRANCH  31  33
ATOM     33  C   UNL A   1      36.918  30.074  28.491  1.00  0.00     0.060 A 
ATOM     34  C   UNL A   1      37.570  29.759  29.692  1.00  0.00     0.016 A 
ATOM     35  C   UNL A   1      37.590  29.874  27.282  1.00  0.00     0.016 A 
ATOM     36  C   UNL A   1      38.864  29.208  29.687  1.00  0.00     0.010 A 
ATOM     37  C   UNL A   1      38.905  29.362  27.283  1.00  0.00     0.010 A 
ATOM     38  C   UNL A   1      39.559  29.022  28.482  1.00  0.00    -0.014 A 
BRANCH  38  39
ATOM     39  C   UNL A   1      40.971  28.521  28.472  1.00  0.00     0.031 A 
ATOM     40  C   UNL A   1      42.112  29.455  28.755  1.00  0.00     0.074 A 
ATOM     41  C   UNL A   1      41.259  27.231  28.216  1.00  0.00     0.049 A 
ATOM     42  N   UNL A   1      43.398  29.252  28.610  1.00  0.00    -0.248 NA
ATOM     43  C   UNL A   1      41.763  30.792  29.253  1.00  0.00     0.031 C 
ATOM     44  C   UNL A   1      40.262  26.203  27.963  1.00  0.00     0.029 A 
ATOM     45  N   UNL A   1      42.456  26.556  28.122  1.00  0.00    -0.354 N 
ATOM     46  C   UNL A   1      44.014  30.444  28.963  1.00  0.00     0.074 A 
ATOM     47  C   UNL A   1      42.958  31.358  29.354  1.00  0.00     0.031 C 
ATOM     48  C   UNL A   1      40.869  25.018  27.799  1.00  0.00     0.029 A 
ATOM     49  C   UNL A   1      42.316  25.225  27.793  1.00  0.00     0.049 A 
ATOM     50  H   UNL A   1      43.329  26.984  28.275  1.00  0.00     0.167 HD
ATOM     51  C   UNL A   1      45.332  30.758  28.936  1.00  0.00     0.037 A 
ATOM     52  C   UNL A   1      43.231  24.297  27.440  1.00  0.00     0.037 A 
ATOM     53  C   UNL A   1      46.383  29.861  28.525  1.00  0.00     0.049 A 
ATOM     54  C   UNL A   1      44.679  24.698  27.315  1.00  0.00     0.074 A 
ATOM     55  C   UNL A   1      47.742  30.112  28.430  1.00  0.00     0.029 A 
ATOM     56  N   UNL A   1      46.195  28.543  28.137  1.00  0.00    -0.354 N 
ATOM     57  N   UNL A   1      45.242  25.850  27.585  1.00  0.00    -0.248 NA
ATOM     58  C   UNL A   1      45.610  23.687  26.786  1.00  0.00     0.031 C 
ATOM     59  C   UNL A   1      48.369  28.961  27.941  1.00  0.00     0.029 A 
ATOM     60  C   UNL A   1      47.408  27.978  27.777  1.00  0.00     0.049 A 
ATOM     61  H   UNL A   1      45.327  28.078  28.119  1.00  0.00     0.167 HD
ATOM     62  C   UNL A   1      46.585  25.704  27.255  1.00  0.00     0.074 A 
ATOM     63  C   UNL A   1      46.761  24.344  26.794  1.00  0.00     0.031 C 
ATOM     64  C   UNL A   1      47.578  26.624  27.316  1.00  0.00     0.037 A 
BRANCH  51  65
ATOM     65  C   UNL A   1      45.705  32.164  29.297  1.00  0.00     0.057 A 
ATOM     66  C   UNL A   1      45.878  32.570  30.625  1.00  0.00     0.134 A 
ATOM     67  C   UNL A   1      45.911  33.122  28.295  1.00  0.00     0.134 A 
ATOM     68  F   UNL A   1      45.681  31.704  31.631  1.00  0.00    -0.206 F 
ATOM     69  C   UNL A   1      46.221  33.884  30.946  1.00  0.00     0.040 A 
ATOM     70  C   UNL A   1      46.276  34.432  28.601  1.00  0.00     0.040 A 
ATOM     71  F   UNL A   1      45.765  32.795  27.001  1.00  0.00    -0.206 F 
ATOM     72  C   UNL A   1      46.426  34.819  29.931  1.00  0.00     0.006 A 
ENDBRANCH  51  65
BRANCH  52  73
ATOM     73  C   UNL A   1      42.804  22.924  27.049  1.00  0.00     0.057 A 
ATOM     74  C   UNL A   1      42.497  21.951  28.008  1.00  0.00     0.134 A 
ATOM     75  C   UNL A   1      42.741  22.537  25.703  1.00  0.00     0.134 A 
ATOM     76  F   UNL A   1      42.581  22.241  29.315  1.00  0.00    -0.206 F 
ATOM     77  C   UNL A   1      42.147  20.647  27.644  1.00  0.00     0.040 A 
ATOM     78  C   UNL A   1      42.360  21.249  25.325  1.00  0.00     0.040 A 
ATOM     79  F   UNL A   1      43.040  23.412  24.732  1.00  0.00    -0.206 F 
ATOM     80  C   UNL A   1      42.069  20.297  26.298  1.00  0.00     0.006 A 
ENDBRANCH  52  73
BRANCH  64  81
ATOM     81  C   UNL A   1      48.951  26.189  26.890  1.00  0.00     0.057 A 
ATOM     82  C   UNL A   1      49.441  26.453  25.606  1.00  0.00     0.134 A 
ATOM     83  C   UNL A   1      49.807  25.542  27.789  1.00  0.00     0.134 A 
ATOM     84  F   UNL A   1      48.665  27.056  24.692  1.00  0.00    -0.206 F 
ATOM     85  C   UNL A   1      50.732  26.079  25.226  1.00  0.00     0.040 A 
ATOM     86  C   UNL A   1      51.107  25.181  27.429  1.00  0.00     0.040 A 
ATOM     87  F   UNL A   1      49.400  25.263  29.037  1.00  0.00    -0.206 F 
ATOM     88  C   UNL A   1      51.572  25.448  26.142  1.00  0.00     0.006 A 
ENDBRANCH  64  81
ENDBRANCH  38  39
ENDBRANCH  31  33
ENDBRANCH  30  31
ENDBRANCH  29  30
ENDBRANCH  28  29
ENDBRANCH   1  28
TORSDOF 17
ENDMDL
