MODEL 1
REMARK VINA RESULT:      -9.4      0.000      0.000
REMARK SMILES CN(CC(=O)OCCOC(=O)c1ccc(-c2c3nc(c(-c4c(F)cccc4F)c4ccc([nH]4)c(-c4c(F)cccc4F)c4nc(c(-c5c(F)cccc5F)c5ccc2[nH]5)C=C4)C=C3)cc1)c1nc2cc(N)ccc2[nH]1
REMARK SMILES IDX 7 1 6 2 4 3 5 4 3 5 2 6 1 7 66 8 67 9 75 10 68 11 74 12
REMARK SMILES IDX 69 14 73 15 70 16 72 17 71 18 8 21 9 22 10 23 11 24 12 25
REMARK SMILES IDX 13 26 65 27 14 28 64 29 15 30 16 31 17 32 58 33 18 34 63 35
REMARK SMILES IDX 57 36 59 37 19 38 62 39 56 40 55 41 20 43 46 44 29 45 45 46
REMARK SMILES IDX 30 47 33 48 44 49 60 50 31 51 32 52 43 54 61 55 34 56 21 57
REMARK SMILES IDX 22 58 27 59 23 60 24 61 26 62 28 63 25 64 47 65 48 66 53 67
REMARK SMILES IDX 49 68 50 69 52 70 54 71 51 72 35 73 36 74 41 75 37 76 38 77
REMARK SMILES IDX 40 78 42 79 39 80
REMARK H PARENT 75 13 71 19 71 20 59 42 33 53
REMARK Flexibility Score: inf
ROOT
ATOM      1  C   UNL A   1      32.948  36.081  31.307  1.00  0.00     0.274 C 
ENDROOT
BRANCH   1   2
ATOM      2  O   UNL A   1      33.131  34.902  32.115  1.00  0.00    -0.461 OA
BRANCH   2   3
ATOM      3  C   UNL A   1      34.315  34.844  32.784  1.00  0.00     0.325 C 
ATOM      4  O   UNL A   1      35.156  35.745  32.778  1.00  0.00    -0.250 OA
BRANCH   3   5
ATOM      5  C   UNL A   1      34.579  33.537  33.518  1.00  0.00     0.241 C 
BRANCH   5   6
ATOM      6  N   UNL A   1      35.786  33.460  34.353  1.00  0.00    -0.334 N 
ATOM      7  C   UNL A   1      35.856  34.306  35.526  1.00  0.00     0.147 C 
BRANCH   6   8
ATOM      8  C   UNL A   1      36.722  32.520  34.070  1.00  0.00     0.204 A 
ATOM      9  N   UNL A   1      37.965  32.462  34.488  1.00  0.00    -0.213 NA
ATOM     10  N   UNL A   1      36.451  31.461  33.237  1.00  0.00    -0.324 N 
ATOM     11  C   UNL A   1      38.474  31.279  33.997  1.00  0.00     0.093 A 
ATOM     12  C   UNL A   1      37.549  30.646  33.180  1.00  0.00     0.067 A 
ATOM     13  H   UNL A   1      35.603  31.312  32.758  1.00  0.00     0.170 HD
ATOM     14  C   UNL A   1      39.717  30.662  34.208  1.00  0.00     0.056 A 
ATOM     15  C   UNL A   1      37.805  29.446  32.516  1.00  0.00     0.030 A 
ATOM     16  C   UNL A   1      39.986  29.416  33.629  1.00  0.00     0.034 A 
ATOM     17  C   UNL A   1      39.053  28.851  32.756  1.00  0.00     0.028 A 
BRANCH  16  18
ATOM     18  N   UNL A   1      41.226  28.815  33.821  1.00  0.00    -0.399 N 
ATOM     19  H   UNL A   1      41.865  28.756  33.074  1.00  0.00     0.156 HD
ATOM     20  H   UNL A   1      41.466  28.451  34.704  1.00  0.00     0.156 HD
ENDBRANCH  16  18
ENDBRANCH   6   8
ENDBRANCH   5   6
ENDBRANCH   3   5
ENDBRANCH   2   3
ENDBRANCH   1   2
BRANCH   1  21
ATOM     21  C   UNL A   1      33.236  35.790  29.832  1.00  0.00     0.275 C 
BRANCH  21  22
ATOM     22  O   UNL A   1      32.378  34.738  29.363  1.00  0.00    -0.458 OA
BRANCH  22  23
ATOM     23  C   UNL A   1      32.903  33.977  28.373  1.00  0.00     0.338 C 
ATOM     24  O   UNL A   1      32.375  33.728  27.300  1.00  0.00    -0.246 OA
BRANCH  23  25
ATOM     25  C   UNL A   1      34.248  33.468  28.752  1.00  0.00     0.060 A 
ATOM     26  C   UNL A   1      34.432  32.583  29.820  1.00  0.00     0.016 A 
ATOM     27  C   UNL A   1      35.368  33.966  28.075  1.00  0.00     0.016 A 
ATOM     28  C   UNL A   1      35.717  32.218  30.225  1.00  0.00     0.010 A 
ATOM     29  C   UNL A   1      36.653  33.564  28.448  1.00  0.00     0.010 A 
ATOM     30  C   UNL A   1      36.837  32.682  29.523  1.00  0.00    -0.014 A 
BRANCH  30  31
ATOM     31  C   UNL A   1      38.191  32.151  29.821  1.00  0.00     0.031 A 
ATOM     32  C   UNL A   1      38.650  30.824  29.296  1.00  0.00     0.074 A 
ATOM     33  C   UNL A   1      38.985  32.863  30.643  1.00  0.00     0.049 A 
ATOM     34  N   UNL A   1      39.742  30.159  29.587  1.00  0.00    -0.248 NA
ATOM     35  C   UNL A   1      37.774  30.151  28.326  1.00  0.00     0.031 C 
ATOM     36  C   UNL A   1      38.649  34.167  31.221  1.00  0.00     0.029 A 
ATOM     37  N   UNL A   1      40.227  32.583  31.151  1.00  0.00    -0.354 N 
ATOM     38  C   UNL A   1      39.678  28.982  28.854  1.00  0.00     0.074 A 
ATOM     39  C   UNL A   1      38.434  29.019  28.109  1.00  0.00     0.031 C 
ATOM     40  C   UNL A   1      39.659  34.574  32.002  1.00  0.00     0.029 A 
ATOM     41  C   UNL A   1      40.686  33.539  32.025  1.00  0.00     0.049 A 
ATOM     42  H   UNL A   1      40.741  31.777  30.914  1.00  0.00     0.167 HD
ATOM     43  C   UNL A   1      40.576  27.968  28.811  1.00  0.00     0.037 A 
ATOM     44  C   UNL A   1      41.791  33.568  32.790  1.00  0.00     0.037 A 
ATOM     45  C   UNL A   1      41.818  27.938  29.546  1.00  0.00     0.049 A 
ATOM     46  C   UNL A   1      42.747  32.416  32.750  1.00  0.00     0.074 A 
ATOM     47  C   UNL A   1      42.806  26.968  29.531  1.00  0.00     0.029 A 
ATOM     48  N   UNL A   1      42.240  28.919  30.430  1.00  0.00    -0.354 N 
ATOM     49  N   UNL A   1      42.679  31.312  32.048  1.00  0.00    -0.248 NA
ATOM     50  C   UNL A   1      43.930  32.511  33.614  1.00  0.00     0.031 C 
ATOM     51  C   UNL A   1      43.809  27.344  30.434  1.00  0.00     0.029 A 
ATOM     52  C   UNL A   1      43.464  28.567  30.981  1.00  0.00     0.049 A 
ATOM     53  H   UNL A   1      41.744  29.745  30.636  1.00  0.00     0.167 HD
ATOM     54  C   UNL A   1      43.810  30.583  32.380  1.00  0.00     0.074 A 
ATOM     55  C   UNL A   1      44.561  31.380  33.329  1.00  0.00     0.031 C 
ATOM     56  C   UNL A   1      44.191  29.359  31.939  1.00  0.00     0.037 A 
BRANCH  43  57
ATOM     57  C   UNL A   1      40.251  26.784  27.949  1.00  0.00     0.057 A 
ATOM     58  C   UNL A   1      40.787  26.639  26.664  1.00  0.00     0.134 A 
ATOM     59  C   UNL A   1      39.462  25.738  28.443  1.00  0.00     0.134 A 
ATOM     60  F   UNL A   1      41.549  27.606  26.131  1.00  0.00    -0.206 F 
ATOM     61  C   UNL A   1      40.542  25.498  25.896  1.00  0.00     0.040 A 
ATOM     62  C   UNL A   1      39.224  24.584  27.693  1.00  0.00     0.040 A 
ATOM     63  F   UNL A   1      38.928  25.809  29.671  1.00  0.00    -0.206 F 
ATOM     64  C   UNL A   1      39.765  24.463  26.414  1.00  0.00     0.006 A 
ENDBRANCH  43  57
BRANCH  44  65
ATOM     65  C   UNL A   1      42.033  34.732  33.674  1.00  0.00     0.057 A 
ATOM     66  C   UNL A   1      41.507  34.773  34.968  1.00  0.00     0.134 A 
ATOM     67  C   UNL A   1      42.819  35.812  33.256  1.00  0.00     0.134 A 
ATOM     68  F   UNL A   1      40.730  33.774  35.413  1.00  0.00    -0.206 F 
ATOM     69  C   UNL A   1      41.749  35.852  35.818  1.00  0.00     0.040 A 
ATOM     70  C   UNL A   1      43.089  36.887  34.102  1.00  0.00     0.040 A 
ATOM     71  F   UNL A   1      43.355  35.824  32.026  1.00  0.00    -0.206 F 
ATOM     72  C   UNL A   1      42.550  36.910  35.387  1.00  0.00     0.006 A 
ENDBRANCH  44  65
BRANCH  56  73
ATOM     73  C   UNL A   1      45.482  28.825  32.481  1.00  0.00     0.057 A 
ATOM     74  C   UNL A   1      46.707  29.093  31.856  1.00  0.00     0.134 A 
ATOM     75  C   UNL A   1      45.501  28.023  33.629  1.00  0.00     0.134 A 
ATOM     76  F   UNL A   1      46.753  29.840  30.742  1.00  0.00    -0.206 F 
ATOM     77  C   UNL A   1      47.902  28.555  32.336  1.00  0.00     0.040 A 
ATOM     78  C   UNL A   1      46.692  27.497  34.130  1.00  0.00     0.040 A 
ATOM     79  F   UNL A   1      44.362  27.732  34.275  1.00  0.00    -0.206 F 
ATOM     80  C   UNL A   1      47.896  27.756  33.478  1.00  0.00     0.006 A 
ENDBRANCH  56  73
ENDBRANCH  30  31
ENDBRANCH  23  25
ENDBRANCH  22  23
ENDBRANCH  21  22
ENDBRANCH   1  21
TORSDOF 14
ENDMDL
MODEL 2
REMARK VINA RESULT:      -9.0      5.452     10.964
REMARK SMILES CN(CC(=O)OCCOC(=O)c1ccc(-c2c3nc(c(-c4c(F)cccc4F)c4ccc([nH]4)c(-c4c(F)cccc4F)c4nc(c(-c5c(F)cccc5F)c5ccc2[nH]5)C=C4)C=C3)cc1)c1nc2cc(N)ccc2[nH]1
REMARK SMILES IDX 7 1 6 2 4 3 5 4 3 5 2 6 1 7 66 8 67 9 75 10 68 11 74 12
REMARK SMILES IDX 69 14 73 15 70 16 72 17 71 18 8 21 9 22 10 23 11 24 12 25
REMARK SMILES IDX 13 26 65 27 14 28 64 29 15 30 16 31 17 32 58 33 18 34 63 35
REMARK SMILES IDX 57 36 59 37 19 38 62 39 56 40 55 41 20 43 46 44 29 45 45 46
REMARK SMILES IDX 30 47 33 48 44 49 60 50 31 51 32 52 43 54 61 55 34 56 21 57
REMARK SMILES IDX 22 58 27 59 23 60 24 61 26 62 28 63 25 64 47 65 48 66 53 67
REMARK SMILES IDX 49 68 50 69 52 70 54 71 51 72 35 73 36 74 41 75 37 76 38 77
REMARK SMILES IDX 40 78 42 79 39 80
REMARK H PARENT 75 13 71 19 71 20 59 42 33 53
REMARK Flexibility Score: inf
ROOT
ATOM      1  C   UNL A   1      45.736  22.257  25.578  1.00  0.00     0.274 C 
ENDROOT
BRANCH   1   2
ATOM      2  O   UNL A   1      45.781  20.840  25.320  1.00  0.00    -0.461 OA
BRANCH   2   3
ATOM      3  C   UNL A   1      44.569  20.259  25.104  1.00  0.00     0.325 C 
ATOM      4  O   UNL A   1      44.258  19.676  24.064  1.00  0.00    -0.250 OA
BRANCH   3   5
ATOM      5  C   UNL A   1      43.564  20.423  26.236  1.00  0.00     0.241 C 
BRANCH   5   6
ATOM      6  N   UNL A   1      42.448  19.468  26.296  1.00  0.00    -0.334 N 
ATOM      7  C   UNL A   1      42.717  18.140  26.805  1.00  0.00     0.147 C 
BRANCH   6   8
ATOM      8  C   UNL A   1      41.198  19.898  25.996  1.00  0.00     0.204 A 
ATOM      9  N   UNL A   1      40.207  19.213  25.472  1.00  0.00    -0.213 NA
ATOM     10  N   UNL A   1      40.813  21.201  26.208  1.00  0.00    -0.324 N 
ATOM     11  C   UNL A   1      39.128  20.069  25.444  1.00  0.00     0.093 A 
ATOM     12  C   UNL A   1      39.493  21.337  25.874  1.00  0.00     0.067 A 
ATOM     13  H   UNL A   1      41.395  21.922  26.545  1.00  0.00     0.170 HD
ATOM     14  C   UNL A   1      37.792  19.843  25.076  1.00  0.00     0.056 A 
ATOM     15  C   UNL A   1      38.611  22.417  25.916  1.00  0.00     0.030 A 
ATOM     16  C   UNL A   1      36.854  20.877  25.184  1.00  0.00     0.034 A 
ATOM     17  C   UNL A   1      37.282  22.154  25.551  1.00  0.00     0.028 A 
BRANCH  16  18
ATOM     18  N   UNL A   1      35.535  20.658  24.798  1.00  0.00    -0.399 N 
ATOM     19  H   UNL A   1      34.842  21.323  25.014  1.00  0.00     0.156 HD
ATOM     20  H   UNL A   1      35.295  19.839  24.307  1.00  0.00     0.156 HD
ENDBRANCH  16  18
ENDBRANCH   6   8
ENDBRANCH   5   6
ENDBRANCH   3   5
ENDBRANCH   2   3
ENDBRANCH   1   2
BRANCH   1  21
ATOM     21  C   UNL A   1      45.470  23.045  24.293  1.00  0.00     0.275 C 
BRANCH  21  22
ATOM     22  O   UNL A   1      44.655  24.190  24.579  1.00  0.00    -0.458 OA
BRANCH  22  23
ATOM     23  C   UNL A   1      43.403  23.903  25.012  1.00  0.00     0.338 C 
ATOM     24  O   UNL A   1      42.678  23.020  24.582  1.00  0.00    -0.246 OA
BRANCH  23  25
ATOM     25  C   UNL A   1      43.004  24.814  26.118  1.00  0.00     0.060 A 
ATOM     26  C   UNL A   1      42.053  24.446  27.075  1.00  0.00     0.016 A 
ATOM     27  C   UNL A   1      43.531  26.111  26.139  1.00  0.00     0.016 A 
ATOM     28  C   UNL A   1      41.613  25.367  28.028  1.00  0.00     0.010 A 
ATOM     29  C   UNL A   1      43.128  27.020  27.121  1.00  0.00     0.010 A 
ATOM     30  C   UNL A   1      42.169  26.653  28.077  1.00  0.00    -0.014 A 
BRANCH  30  31
ATOM     31  C   UNL A   1      41.853  27.572  29.198  1.00  0.00     0.031 A 
ATOM     32  C   UNL A   1      42.604  27.522  30.494  1.00  0.00     0.074 A 
ATOM     33  C   UNL A   1      40.815  28.417  29.052  1.00  0.00     0.049 A 
ATOM     34  N   UNL A   1      42.351  28.154  31.615  1.00  0.00    -0.248 NA
ATOM     35  C   UNL A   1      43.786  26.648  30.548  1.00  0.00     0.031 C 
ATOM     36  C   UNL A   1      40.004  28.556  27.840  1.00  0.00     0.029 A 
ATOM     37  N   UNL A   1      40.251  29.303  29.934  1.00  0.00    -0.354 N 
ATOM     38  C   UNL A   1      43.327  27.743  32.513  1.00  0.00     0.074 A 
ATOM     39  C   UNL A   1      44.174  26.799  31.809  1.00  0.00     0.031 C 
ATOM     40  C   UNL A   1      39.049  29.472  28.053  1.00  0.00     0.029 A 
ATOM     41  C   UNL A   1      39.145  29.943  29.430  1.00  0.00     0.049 A 
ATOM     42  H   UNL A   1      40.603  29.465  30.839  1.00  0.00     0.167 HD
ATOM     43  C   UNL A   1      43.496  28.121  33.804  1.00  0.00     0.037 A 
ATOM     44  C   UNL A   1      38.279  30.787  30.016  1.00  0.00     0.037 A 
ATOM     45  C   UNL A   1      42.657  29.068  34.499  1.00  0.00     0.049 A 
ATOM     46  C   UNL A   1      38.469  31.158  31.456  1.00  0.00     0.074 A 
ATOM     47  C   UNL A   1      42.780  29.539  35.796  1.00  0.00     0.029 A 
ATOM     48  N   UNL A   1      41.540  29.684  33.958  1.00  0.00    -0.354 N 
ATOM     49  N   UNL A   1      39.399  30.768  32.291  1.00  0.00    -0.248 NA
ATOM     50  C   UNL A   1      37.484  32.081  32.034  1.00  0.00     0.031 C 
ATOM     51  C   UNL A   1      41.715  30.412  36.051  1.00  0.00     0.029 A 
ATOM     52  C   UNL A   1      40.952  30.515  34.901  1.00  0.00     0.049 A 
ATOM     53  H   UNL A   1      41.212  29.553  33.038  1.00  0.00     0.167 HD
ATOM     54  C   UNL A   1      39.116  31.401  33.492  1.00  0.00     0.074 A 
ATOM     55  C   UNL A   1      37.941  32.219  33.270  1.00  0.00     0.031 C 
ATOM     56  C   UNL A   1      39.772  31.309  34.674  1.00  0.00     0.037 A 
BRANCH  43  57
ATOM     57  C   UNL A   1      44.627  27.501  34.571  1.00  0.00     0.057 A 
ATOM     58  C   UNL A   1      45.881  28.116  34.660  1.00  0.00     0.134 A 
ATOM     59  C   UNL A   1      44.432  26.319  35.296  1.00  0.00     0.134 A 
ATOM     60  F   UNL A   1      46.133  29.249  33.988  1.00  0.00    -0.206 F 
ATOM     61  C   UNL A   1      46.905  27.572  35.438  1.00  0.00     0.040 A 
ATOM     62  C   UNL A   1      45.442  25.775  36.092  1.00  0.00     0.040 A 
ATOM     63  F   UNL A   1      43.249  25.686  35.263  1.00  0.00    -0.206 F 
ATOM     64  C   UNL A   1      46.684  26.402  36.163  1.00  0.00     0.006 A 
ENDBRANCH  43  57
BRANCH  44  65
ATOM     65  C   UNL A   1      37.140  31.322  29.234  1.00  0.00     0.057 A 
ATOM     66  C   UNL A   1      35.996  30.551  29.012  1.00  0.00     0.134 A 
ATOM     67  C   UNL A   1      37.160  32.622  28.716  1.00  0.00     0.134 A 
ATOM     68  F   UNL A   1      35.932  29.291  29.468  1.00  0.00    -0.206 F 
ATOM     69  C   UNL A   1      34.908  31.052  28.298  1.00  0.00     0.040 A 
ATOM     70  C   UNL A   1      36.071  33.145  28.020  1.00  0.00     0.040 A 
ATOM     71  F   UNL A   1      38.230  33.410  28.903  1.00  0.00    -0.206 F 
ATOM     72  C   UNL A   1      34.941  32.357  27.806  1.00  0.00     0.006 A 
ENDBRANCH  44  65
BRANCH  56  73
ATOM     73  C   UNL A   1      39.226  32.125  35.807  1.00  0.00     0.057 A 
ATOM     74  C   UNL A   1      39.617  33.454  36.010  1.00  0.00     0.134 A 
ATOM     75  C   UNL A   1      38.313  31.572  36.714  1.00  0.00     0.134 A 
ATOM     76  F   UNL A   1      40.504  34.035  35.186  1.00  0.00    -0.206 F 
ATOM     77  C   UNL A   1      39.143  34.196  37.093  1.00  0.00     0.040 A 
ATOM     78  C   UNL A   1      37.816  32.311  37.788  1.00  0.00     0.040 A 
ATOM     79  F   UNL A   1      37.896  30.305  36.574  1.00  0.00    -0.206 F 
ATOM     80  C   UNL A   1      38.238  33.624  37.984  1.00  0.00     0.006 A 
ENDBRANCH  56  73
ENDBRANCH  30  31
ENDBRANCH  23  25
ENDBRANCH  22  23
ENDBRANCH  21  22
ENDBRANCH   1  21
TORSDOF 14
ENDMDL
MODEL 3
REMARK VINA RESULT:      -8.8      2.304      7.333
REMARK SMILES CN(CC(=O)OCCOC(=O)c1ccc(-c2c3nc(c(-c4c(F)cccc4F)c4ccc([nH]4)c(-c4c(F)cccc4F)c4nc(c(-c5c(F)cccc5F)c5ccc2[nH]5)C=C4)C=C3)cc1)c1nc2cc(N)ccc2[nH]1
REMARK SMILES IDX 7 1 6 2 4 3 5 4 3 5 2 6 1 7 66 8 67 9 75 10 68 11 74 12
REMARK SMILES IDX 69 14 73 15 70 16 72 17 71 18 8 21 9 22 10 23 11 24 12 25
REMARK SMILES IDX 13 26 65 27 14 28 64 29 15 30 16 31 17 32 58 33 18 34 63 35
REMARK SMILES IDX 57 36 59 37 19 38 62 39 56 40 55 41 20 43 46 44 29 45 45 46
REMARK SMILES IDX 30 47 33 48 44 49 60 50 31 51 32 52 43 54 61 55 34 56 21 57
REMARK SMILES IDX 22 58 27 59 23 60 24 61 26 62 28 63 25 64 47 65 48 66 53 67
REMARK SMILES IDX 49 68 50 69 52 70 54 71 51 72 35 73 36 74 41 75 37 76 38 77
REMARK SMILES IDX 40 78 42 79 39 80
REMARK H PARENT 75 13 71 19 71 20 59 42 33 53
REMARK Flexibility Score: inf
ROOT
ATOM      1  C   UNL A   1      33.362  34.364  28.397  1.00  0.00     0.274 C 
ENDROOT
BRANCH   1   2
ATOM      2  O   UNL A   1      32.797  35.015  29.552  1.00  0.00    -0.461 OA
BRANCH   2   3
ATOM      3  C   UNL A   1      33.000  36.360  29.607  1.00  0.00     0.325 C 
ATOM      4  O   UNL A   1      33.135  37.079  28.616  1.00  0.00    -0.250 OA
BRANCH   3   5
ATOM      5  C   UNL A   1      33.112  36.939  31.011  1.00  0.00     0.241 C 
BRANCH   5   6
ATOM      6  N   UNL A   1      32.903  36.022  32.140  1.00  0.00    -0.334 N 
ATOM      7  C   UNL A   1      31.557  35.872  32.653  1.00  0.00     0.147 C 
BRANCH   6   8
ATOM      8  C   UNL A   1      33.941  35.264  32.573  1.00  0.00     0.204 A 
ATOM      9  N   UNL A   1      34.945  35.624  33.340  1.00  0.00    -0.213 NA
ATOM     10  N   UNL A   1      34.070  33.945  32.210  1.00  0.00    -0.324 N 
ATOM     11  C   UNL A   1      35.680  34.480  33.562  1.00  0.00     0.093 A 
ATOM     12  C   UNL A   1      35.166  33.416  32.836  1.00  0.00     0.067 A 
ATOM     13  H   UNL A   1      33.470  33.458  31.598  1.00  0.00     0.170 HD
ATOM     14  C   UNL A   1      36.798  34.258  34.381  1.00  0.00     0.056 A 
ATOM     15  C   UNL A   1      35.732  32.141  32.839  1.00  0.00     0.030 A 
ATOM     16  C   UNL A   1      37.348  32.974  34.480  1.00  0.00     0.034 A 
ATOM     17  C   UNL A   1      36.843  31.950  33.674  1.00  0.00     0.028 A 
BRANCH  16  18
ATOM     18  N   UNL A   1      38.470  32.759  35.274  1.00  0.00    -0.399 N 
ATOM     19  H   UNL A   1      38.378  32.307  36.143  1.00  0.00     0.156 HD
ATOM     20  H   UNL A   1      39.355  33.059  34.966  1.00  0.00     0.156 HD
ENDBRANCH  16  18
ENDBRANCH   6   8
ENDBRANCH   5   6
ENDBRANCH   3   5
ENDBRANCH   2   3
ENDBRANCH   1   2
BRANCH   1  21
ATOM     21  C   UNL A   1      34.372  33.290  28.807  1.00  0.00     0.275 C 
BRANCH  21  22
ATOM     22  O   UNL A   1      34.767  32.524  27.660  1.00  0.00    -0.458 OA
BRANCH  22  23
ATOM     23  C   UNL A   1      34.654  31.181  27.808  1.00  0.00     0.338 C 
ATOM     24  O   UNL A   1      33.667  30.510  27.552  1.00  0.00    -0.246 OA
BRANCH  23  25
ATOM     25  C   UNL A   1      35.919  30.598  28.328  1.00  0.00     0.060 A 
ATOM     26  C   UNL A   1      37.139  30.757  27.663  1.00  0.00     0.016 A 
ATOM     27  C   UNL A   1      35.863  29.789  29.470  1.00  0.00     0.016 A 
ATOM     28  C   UNL A   1      38.284  30.098  28.113  1.00  0.00     0.010 A 
ATOM     29  C   UNL A   1      37.018  29.167  29.951  1.00  0.00     0.010 A 
ATOM     30  C   UNL A   1      38.239  29.321  29.279  1.00  0.00    -0.014 A 
BRANCH  30  31
ATOM     31  C   UNL A   1      39.485  28.776  29.873  1.00  0.00     0.031 A 
ATOM     32  C   UNL A   1      40.131  29.410  31.068  1.00  0.00     0.074 A 
ATOM     33  C   UNL A   1      40.071  27.726  29.266  1.00  0.00     0.049 A 
ATOM     34  N   UNL A   1      41.295  29.142  31.611  1.00  0.00    -0.248 NA
ATOM     35  C   UNL A   1      39.386  30.486  31.738  1.00  0.00     0.031 C 
ATOM     36  C   UNL A   1      39.541  27.025  28.094  1.00  0.00     0.029 A 
ATOM     37  N   UNL A   1      41.250  27.079  29.536  1.00  0.00    -0.354 N 
ATOM     38  C   UNL A   1      41.432  30.025  32.673  1.00  0.00     0.074 A 
ATOM     39  C   UNL A   1      40.235  30.844  32.694  1.00  0.00     0.031 C 
ATOM     40  C   UNL A   1      40.388  26.047  27.747  1.00  0.00     0.029 A 
ATOM     41  C   UNL A   1      41.545  26.086  28.634  1.00  0.00     0.049 A 
ATOM     42  H   UNL A   1      41.828  27.304  30.301  1.00  0.00     0.167 HD
ATOM     43  C   UNL A   1      42.462  30.138  33.546  1.00  0.00     0.037 A 
ATOM     44  C   UNL A   1      42.638  25.315  28.508  1.00  0.00     0.037 A 
ATOM     45  C   UNL A   1      43.648  29.314  33.529  1.00  0.00     0.049 A 
ATOM     46  C   UNL A   1      43.779  25.488  29.465  1.00  0.00     0.074 A 
ATOM     47  C   UNL A   1      44.724  29.333  34.400  1.00  0.00     0.029 A 
ATOM     48  N   UNL A   1      43.915  28.328  32.592  1.00  0.00    -0.354 N 
ATOM     49  N   UNL A   1      43.893  26.322  30.468  1.00  0.00    -0.248 NA
ATOM     50  C   UNL A   1      44.943  24.617  29.266  1.00  0.00     0.031 C 
ATOM     51  C   UNL A   1      45.659  28.384  33.969  1.00  0.00     0.029 A 
ATOM     52  C   UNL A   1      45.147  27.747  32.852  1.00  0.00     0.049 A 
ATOM     53  H   UNL A   1      43.317  28.076  31.851  1.00  0.00     0.167 HD
ATOM     54  C   UNL A   1      45.138  26.073  31.025  1.00  0.00     0.074 A 
ATOM     55  C   UNL A   1      45.732  24.994  30.262  1.00  0.00     0.031 C 
ATOM     56  C   UNL A   1      45.736  26.688  32.074  1.00  0.00     0.037 A 
BRANCH  43  57
ATOM     57  C   UNL A   1      42.373  31.204  34.598  1.00  0.00     0.057 A 
ATOM     58  C   UNL A   1      41.861  30.940  35.874  1.00  0.00     0.134 A 
ATOM     59  C   UNL A   1      42.882  32.486  34.357  1.00  0.00     0.134 A 
ATOM     60  F   UNL A   1      41.356  29.732  36.167  1.00  0.00    -0.206 F 
ATOM     61  C   UNL A   1      41.851  31.916  36.872  1.00  0.00     0.040 A 
ATOM     62  C   UNL A   1      42.895  33.466  35.352  1.00  0.00     0.040 A 
ATOM     63  F   UNL A   1      43.398  32.802  33.160  1.00  0.00    -0.206 F 
ATOM     64  C   UNL A   1      42.377  33.182  36.614  1.00  0.00     0.006 A 
ENDBRANCH  43  57
BRANCH  44  65
ATOM     65  C   UNL A   1      42.705  24.321  27.412  1.00  0.00     0.057 A 
ATOM     66  C   UNL A   1      42.265  23.009  27.605  1.00  0.00     0.134 A 
ATOM     67  C   UNL A   1      43.182  24.668  26.143  1.00  0.00     0.134 A 
ATOM     68  F   UNL A   1      41.818  22.616  28.807  1.00  0.00    -0.206 F 
ATOM     69  C   UNL A   1      42.300  22.070  26.574  1.00  0.00     0.040 A 
ATOM     70  C   UNL A   1      43.202  23.746  25.096  1.00  0.00     0.040 A 
ATOM     71  F   UNL A   1      43.612  25.914  25.897  1.00  0.00    -0.206 F 
ATOM     72  C   UNL A   1      42.763  22.442  25.312  1.00  0.00     0.006 A 
ENDBRANCH  44  65
BRANCH  56  73
ATOM     73  C   UNL A   1      47.100  26.192  32.451  1.00  0.00     0.057 A 
ATOM     74  C   UNL A   1      47.276  25.188  33.412  1.00  0.00     0.134 A 
ATOM     75  C   UNL A   1      48.248  26.733  31.860  1.00  0.00     0.134 A 
ATOM     76  F   UNL A   1      46.215  24.643  34.028  1.00  0.00    -0.206 F 
ATOM     77  C   UNL A   1      48.548  24.762  33.795  1.00  0.00     0.040 A 
ATOM     78  C   UNL A   1      49.525  26.299  32.220  1.00  0.00     0.040 A 
ATOM     79  F   UNL A   1      48.148  27.695  30.931  1.00  0.00    -0.206 F 
ATOM     80  C   UNL A   1      49.677  25.317  33.196  1.00  0.00     0.006 A 
ENDBRANCH  56  73
ENDBRANCH  30  31
ENDBRANCH  23  25
ENDBRANCH  22  23
ENDBRANCH  21  22
ENDBRANCH   1  21
TORSDOF 14
ENDMDL
