MODEL 1
REMARK VINA RESULT:     -11.6      0.000      0.000
REMARK SMILES CCc1cc(Nc2ccc(C(=O)OCCOC(=O)c3ccc(-c4c5nc(c(-c6c(F)cccc6F)c6ccc([nH]6)c(-c6c(F)cccc6F)c6nc(c(-c7c(F)cccc7F)c7ccc4[nH]7)C=C6)C=C5)cc3)cc2)nc(C(C)C)n1
REMARK SMILES IDX 14 1 13 2 11 3 12 4 10 5 7 6 8 7 74 8 9 9 73 10 6 11 5 13
REMARK SMILES IDX 3 14 4 15 80 16 76 17 75 18 2 19 1 20 77 21 78 22 79 23
REMARK SMILES IDX 15 24 16 25 17 26 18 27 19 28 20 29 72 30 21 31 71 32 22 33
REMARK SMILES IDX 23 34 24 35 65 36 25 37 70 38 64 39 66 40 26 41 69 42 63 43
REMARK SMILES IDX 62 44 27 46 53 47 36 48 52 49 37 50 40 51 51 52 67 53 38 54
REMARK SMILES IDX 39 55 50 57 68 58 41 59 28 60 29 61 34 62 30 63 31 64 33 65
REMARK SMILES IDX 35 66 32 67 54 68 55 69 60 70 56 71 57 72 59 73 61 74 58 75
REMARK SMILES IDX 42 76 43 77 48 78 44 79 45 80 47 81 49 82 46 83
REMARK H PARENT 6 12 66 45 40 56
REMARK Flexibility Score: inf
ROOT
ATOM      1  C   UNL A   1      42.396  20.621  26.080  1.00  0.00     0.275 C 
ENDROOT
BRANCH   1   2
ATOM      2  O   UNL A   1      41.089  21.110  25.717  1.00  0.00    -0.458 OA
BRANCH   2   3
ATOM      3  C   UNL A   1      40.299  21.476  26.756  1.00  0.00     0.338 C 
ATOM      4  O   UNL A   1      40.569  21.395  27.943  1.00  0.00    -0.246 OA
BRANCH   3   5
ATOM      5  C   UNL A   1      39.056  22.108  26.262  1.00  0.00     0.060 A 
ATOM      6  C   UNL A   1      36.775  23.284  25.124  1.00  0.00     0.040 A 
ATOM      7  C   UNL A   1      37.121  21.969  24.806  1.00  0.00     0.027 A 
ATOM      8  C   UNL A   1      37.574  23.996  26.033  1.00  0.00     0.027 A 
ATOM      9  C   UNL A   1      38.270  21.397  25.348  1.00  0.00     0.018 A 
ATOM     10  C   UNL A   1      38.696  23.407  26.623  1.00  0.00     0.018 A 
BRANCH   6  11
ATOM     11  N   UNL A   1      35.767  23.922  24.378  1.00  0.00    -0.340 N 
ATOM     12  H   UNL A   1      35.931  24.091  23.422  1.00  0.00     0.168 HD
BRANCH  11  13
ATOM     13  C   UNL A   1      34.534  24.336  24.925  1.00  0.00     0.134 A 
ATOM     14  C   UNL A   1      33.185  25.975  25.942  1.00  0.00     0.046 A 
ATOM     15  C   UNL A   1      34.408  25.622  25.404  1.00  0.00     0.071 A 
ATOM     16  N   UNL A   1      32.144  25.120  25.991  1.00  0.00    -0.238 NA
ATOM     17  C   UNL A   1      32.348  23.888  25.493  1.00  0.00     0.133 A 
ATOM     18  N   UNL A   1      33.503  23.475  24.955  1.00  0.00    -0.216 NA
BRANCH  14  19
ATOM     19  C   UNL A   1      32.959  27.363  26.479  1.00  0.00     0.053 C 
ATOM     20  C   UNL A   1      31.502  27.587  26.855  1.00  0.00     0.011 C 
ENDBRANCH  14  19
BRANCH  17  21
ATOM     21  C   UNL A   1      31.208  22.896  25.489  1.00  0.00     0.051 C 
ATOM     22  C   UNL A   1      31.703  21.468  25.272  1.00  0.00     0.016 C 
ATOM     23  C   UNL A   1      30.393  23.017  26.774  1.00  0.00     0.016 C 
ENDBRANCH  17  21
ENDBRANCH  11  13
ENDBRANCH   6  11
ENDBRANCH   3   5
ENDBRANCH   2   3
ENDBRANCH   1   2
BRANCH   1  24
ATOM     24  C   UNL A   1      43.482  21.554  25.547  1.00  0.00     0.275 C 
BRANCH  24  25
ATOM     25  O   UNL A   1      42.872  22.741  25.010  1.00  0.00    -0.458 OA
BRANCH  25  26
ATOM     26  C   UNL A   1      43.636  23.859  25.021  1.00  0.00     0.338 C 
ATOM     27  O   UNL A   1      44.648  24.064  24.375  1.00  0.00    -0.246 OA
BRANCH  26  28
ATOM     28  C   UNL A   1      43.070  24.843  25.968  1.00  0.00     0.060 A 
ATOM     29  C   UNL A   1      43.427  26.189  25.895  1.00  0.00     0.016 A 
ATOM     30  C   UNL A   1      42.248  24.405  27.006  1.00  0.00     0.016 A 
ATOM     31  C   UNL A   1      43.043  27.080  26.899  1.00  0.00     0.010 A 
ATOM     32  C   UNL A   1      41.781  25.320  27.957  1.00  0.00     0.010 A 
ATOM     33  C   UNL A   1      42.204  26.663  27.941  1.00  0.00    -0.014 A 
BRANCH  33  34
ATOM     34  C   UNL A   1      41.808  27.597  29.038  1.00  0.00     0.031 A 
ATOM     35  C   UNL A   1      42.623  27.663  30.306  1.00  0.00     0.074 A 
ATOM     36  C   UNL A   1      40.728  28.396  28.920  1.00  0.00     0.049 A 
ATOM     37  N   UNL A   1      42.334  28.229  31.450  1.00  0.00    -0.248 NA
ATOM     38  C   UNL A   1      43.929  26.983  30.289  1.00  0.00     0.031 C 
ATOM     39  C   UNL A   1      39.859  28.488  27.745  1.00  0.00     0.029 A 
ATOM     40  N   UNL A   1      40.178  29.292  29.805  1.00  0.00    -0.354 N 
ATOM     41  C   UNL A   1      43.381  27.911  32.308  1.00  0.00     0.074 A 
ATOM     42  C   UNL A   1      44.320  27.113  31.549  1.00  0.00     0.031 C 
ATOM     43  C   UNL A   1      38.918  29.420  27.964  1.00  0.00     0.029 A 
ATOM     44  C   UNL A   1      39.060  29.928  29.325  1.00  0.00     0.049 A 
ATOM     45  H   UNL A   1      40.552  29.462  30.700  1.00  0.00     0.167 HD
ATOM     46  C   UNL A   1      43.542  28.247  33.610  1.00  0.00     0.037 A 
ATOM     47  C   UNL A   1      38.215  30.794  29.918  1.00  0.00     0.037 A 
ATOM     48  C   UNL A   1      42.655  29.107  34.348  1.00  0.00     0.049 A 
ATOM     49  C   UNL A   1      38.418  31.163  31.359  1.00  0.00     0.074 A 
ATOM     50  C   UNL A   1      42.748  29.515  35.670  1.00  0.00     0.029 A 
ATOM     51  N   UNL A   1      41.528  29.718  33.821  1.00  0.00    -0.354 N 
ATOM     52  N   UNL A   1      39.364  30.783  32.182  1.00  0.00    -0.248 NA
ATOM     53  C   UNL A   1      37.420  32.059  31.960  1.00  0.00     0.031 C 
ATOM     54  C   UNL A   1      41.667  30.360  35.946  1.00  0.00     0.029 A 
ATOM     55  C   UNL A   1      40.919  30.498  34.788  1.00  0.00     0.049 A 
ATOM     56  H   UNL A   1      41.209  29.611  32.897  1.00  0.00     0.167 HD
ATOM     57  C   UNL A   1      39.073  31.388  33.397  1.00  0.00     0.074 A 
ATOM     58  C   UNL A   1      37.879  32.182  33.199  1.00  0.00     0.031 C 
ATOM     59  C   UNL A   1      39.732  31.283  34.577  1.00  0.00     0.037 A 
BRANCH  46  60
ATOM     60  C   UNL A   1      44.713  27.656  34.336  1.00  0.00     0.057 A 
ATOM     61  C   UNL A   1      44.649  26.407  34.963  1.00  0.00     0.134 A 
ATOM     62  C   UNL A   1      45.937  28.338  34.371  1.00  0.00     0.134 A 
ATOM     63  F   UNL A   1      43.501  25.712  34.977  1.00  0.00    -0.206 F 
ATOM     64  C   UNL A   1      45.757  25.862  35.616  1.00  0.00     0.040 A 
ATOM     65  C   UNL A   1      47.057  27.795  35.002  1.00  0.00     0.040 A 
ATOM     66  F   UNL A   1      46.066  29.537  33.784  1.00  0.00    -0.206 F 
ATOM     67  C   UNL A   1      46.967  26.554  35.630  1.00  0.00     0.006 A 
ENDBRANCH  46  60
BRANCH  47  68
ATOM     68  C   UNL A   1      37.065  31.341  29.156  1.00  0.00     0.057 A 
ATOM     69  C   UNL A   1      35.918  30.573  28.933  1.00  0.00     0.134 A 
ATOM     70  C   UNL A   1      37.085  32.643  28.641  1.00  0.00     0.134 A 
ATOM     71  F   UNL A   1      35.853  29.311  29.379  1.00  0.00    -0.206 F 
ATOM     72  C   UNL A   1      34.828  31.080  28.222  1.00  0.00     0.040 A 
ATOM     73  C   UNL A   1      35.993  33.170  27.949  1.00  0.00     0.040 A 
ATOM     74  F   UNL A   1      38.158  33.427  28.821  1.00  0.00    -0.206 F 
ATOM     75  C   UNL A   1      34.862  32.385  27.735  1.00  0.00     0.006 A 
ENDBRANCH  47  68
BRANCH  59  76
ATOM     76  C   UNL A   1      39.182  32.059  35.734  1.00  0.00     0.057 A 
ATOM     77  C   UNL A   1      38.303  31.473  36.654  1.00  0.00     0.134 A 
ATOM     78  C   UNL A   1      39.553  33.391  35.945  1.00  0.00     0.134 A 
ATOM     79  F   UNL A   1      37.900  30.204  36.496  1.00  0.00    -0.206 F 
ATOM     80  C   UNL A   1      37.798  32.195  37.737  1.00  0.00     0.040 A 
ATOM     81  C   UNL A   1      39.068  34.117  37.033  1.00  0.00     0.040 A 
ATOM     82  F   UNL A   1      40.396  34.005  35.100  1.00  0.00    -0.206 F 
ATOM     83  C   UNL A   1      38.185  33.520  37.930  1.00  0.00     0.006 A 
ENDBRANCH  59  76
ENDBRANCH  33  34
ENDBRANCH  26  28
ENDBRANCH  25  26
ENDBRANCH  24  25
ENDBRANCH   1  24
TORSDOF 15
ENDMDL
MODEL 2
REMARK VINA RESULT:     -11.6      0.476      1.715
REMARK SMILES CCc1cc(Nc2ccc(C(=O)OCCOC(=O)c3ccc(-c4c5nc(c(-c6c(F)cccc6F)c6ccc([nH]6)c(-c6c(F)cccc6F)c6nc(c(-c7c(F)cccc7F)c7ccc4[nH]7)C=C6)C=C5)cc3)cc2)nc(C(C)C)n1
REMARK SMILES IDX 14 1 13 2 11 3 12 4 10 5 7 6 8 7 74 8 9 9 73 10 6 11 5 13
REMARK SMILES IDX 3 14 4 15 80 16 76 17 75 18 2 19 1 20 77 21 78 22 79 23
REMARK SMILES IDX 15 24 16 25 17 26 18 27 19 28 20 29 72 30 21 31 71 32 22 33
REMARK SMILES IDX 23 34 24 35 65 36 25 37 70 38 64 39 66 40 26 41 69 42 63 43
REMARK SMILES IDX 62 44 27 46 53 47 36 48 52 49 37 50 40 51 51 52 67 53 38 54
REMARK SMILES IDX 39 55 50 57 68 58 41 59 28 60 29 61 34 62 30 63 31 64 33 65
REMARK SMILES IDX 35 66 32 67 54 68 55 69 60 70 56 71 57 72 59 73 61 74 58 75
REMARK SMILES IDX 42 76 43 77 48 78 44 79 45 80 47 81 49 82 46 83
REMARK H PARENT 6 12 66 45 40 56
REMARK Flexibility Score: inf
ROOT
ATOM      1  C   UNL A   1      42.649  20.578  26.095  1.00  0.00     0.275 C 
ENDROOT
BRANCH   1   2
ATOM      2  O   UNL A   1      41.280  20.885  25.764  1.00  0.00    -0.458 OA
BRANCH   2   3
ATOM      3  C   UNL A   1      40.492  21.219  26.815  1.00  0.00     0.338 C 
ATOM      4  O   UNL A   1      40.753  21.077  27.999  1.00  0.00    -0.246 OA
BRANCH   3   5
ATOM      5  C   UNL A   1      39.264  21.898  26.346  1.00  0.00     0.060 A 
ATOM      6  C   UNL A   1      37.011  23.166  25.252  1.00  0.00     0.040 A 
ATOM      7  C   UNL A   1      37.317  21.850  24.901  1.00  0.00     0.027 A 
ATOM      8  C   UNL A   1      37.837  23.833  26.172  1.00  0.00     0.027 A 
ATOM      9  C   UNL A   1      38.451  21.232  25.420  1.00  0.00     0.018 A 
ATOM     10  C   UNL A   1      38.945  23.198  26.740  1.00  0.00     0.018 A 
BRANCH   6  11
ATOM     11  N   UNL A   1      36.017  23.852  24.529  1.00  0.00    -0.340 N 
ATOM     12  H   UNL A   1      36.180  24.038  23.576  1.00  0.00     0.168 HD
BRANCH  11  13
ATOM     13  C   UNL A   1      34.800  24.287  25.094  1.00  0.00     0.134 A 
ATOM     14  C   UNL A   1      32.784  23.838  26.223  1.00  0.00     0.046 A 
ATOM     15  C   UNL A   1      33.971  23.365  25.697  1.00  0.00     0.071 A 
ATOM     16  N   UNL A   1      32.441  25.141  26.175  1.00  0.00    -0.238 NA
ATOM     17  C   UNL A   1      33.311  25.975  25.579  1.00  0.00     0.133 A 
ATOM     18  N   UNL A   1      34.479  25.591  25.048  1.00  0.00    -0.216 NA
BRANCH  14  19
ATOM     19  C   UNL A   1      31.825  22.901  26.908  1.00  0.00     0.053 C 
ATOM     20  C   UNL A   1      30.381  23.328  26.701  1.00  0.00     0.011 C 
ENDBRANCH  14  19
BRANCH  17  21
ATOM     21  C   UNL A   1      32.997  27.452  25.525  1.00  0.00     0.051 C 
ATOM     22  C   UNL A   1      31.544  27.735  25.903  1.00  0.00     0.016 C 
ATOM     23  C   UNL A   1      33.967  28.234  26.407  1.00  0.00     0.016 C 
ENDBRANCH  17  21
ENDBRANCH  11  13
ENDBRANCH   6  11
ENDBRANCH   3   5
ENDBRANCH   2   3
ENDBRANCH   1   2
BRANCH   1  24
ATOM     24  C   UNL A   1      43.598  21.547  25.391  1.00  0.00     0.275 C 
BRANCH  24  25
ATOM     25  O   UNL A   1      42.887  22.750  25.049  1.00  0.00    -0.458 OA
BRANCH  25  26
ATOM     26  C   UNL A   1      43.620  23.887  25.026  1.00  0.00     0.338 C 
ATOM     27  O   UNL A   1      44.608  24.113  24.349  1.00  0.00    -0.246 OA
BRANCH  26  28
ATOM     28  C   UNL A   1      43.055  24.868  25.979  1.00  0.00     0.060 A 
ATOM     29  C   UNL A   1      43.374  26.221  25.881  1.00  0.00     0.016 A 
ATOM     30  C   UNL A   1      42.273  24.420  27.043  1.00  0.00     0.016 A 
ATOM     31  C   UNL A   1      42.994  27.113  26.886  1.00  0.00     0.010 A 
ATOM     32  C   UNL A   1      41.808  25.333  27.997  1.00  0.00     0.010 A 
ATOM     33  C   UNL A   1      42.195  26.686  27.955  1.00  0.00    -0.014 A 
BRANCH  33  34
ATOM     34  C   UNL A   1      41.805  27.622  29.053  1.00  0.00     0.031 A 
ATOM     35  C   UNL A   1      42.620  27.682  30.320  1.00  0.00     0.074 A 
ATOM     36  C   UNL A   1      40.730  28.427  28.935  1.00  0.00     0.049 A 
ATOM     37  N   UNL A   1      42.335  28.249  31.466  1.00  0.00    -0.248 NA
ATOM     38  C   UNL A   1      43.923  26.995  30.303  1.00  0.00     0.031 C 
ATOM     39  C   UNL A   1      39.861  28.525  27.761  1.00  0.00     0.029 A 
ATOM     40  N   UNL A   1      40.186  29.326  29.822  1.00  0.00    -0.354 N 
ATOM     41  C   UNL A   1      43.380  27.924  32.322  1.00  0.00     0.074 A 
ATOM     42  C   UNL A   1      44.314  27.121  31.563  1.00  0.00     0.031 C 
ATOM     43  C   UNL A   1      38.926  29.463  27.981  1.00  0.00     0.029 A 
ATOM     44  C   UNL A   1      39.071  29.969  29.342  1.00  0.00     0.049 A 
ATOM     45  H   UNL A   1      40.560  29.493  30.717  1.00  0.00     0.167 HD
ATOM     46  C   UNL A   1      43.544  28.259  33.625  1.00  0.00     0.037 A 
ATOM     47  C   UNL A   1      38.231  30.839  29.936  1.00  0.00     0.037 A 
ATOM     48  C   UNL A   1      42.662  29.123  34.364  1.00  0.00     0.049 A 
ATOM     49  C   UNL A   1      38.437  31.206  31.377  1.00  0.00     0.074 A 
ATOM     50  C   UNL A   1      42.757  29.530  35.686  1.00  0.00     0.029 A 
ATOM     51  N   UNL A   1      41.539  29.741  33.837  1.00  0.00    -0.354 N 
ATOM     52  N   UNL A   1      39.381  30.820  32.200  1.00  0.00    -0.248 NA
ATOM     53  C   UNL A   1      37.444  32.107  31.979  1.00  0.00     0.031 C 
ATOM     54  C   UNL A   1      41.682  30.381  35.962  1.00  0.00     0.029 A 
ATOM     55  C   UNL A   1      40.934  30.524  34.805  1.00  0.00     0.049 A 
ATOM     56  H   UNL A   1      41.219  29.637  32.913  1.00  0.00     0.167 HD
ATOM     57  C   UNL A   1      39.094  31.426  33.415  1.00  0.00     0.074 A 
ATOM     58  C   UNL A   1      37.904  32.227  33.217  1.00  0.00     0.031 C 
ATOM     59  C   UNL A   1      39.752  31.317  34.594  1.00  0.00     0.037 A 
BRANCH  46  60
ATOM     60  C   UNL A   1      44.711  27.661  34.351  1.00  0.00     0.057 A 
ATOM     61  C   UNL A   1      44.621  26.443  35.033  1.00  0.00     0.134 A 
ATOM     62  C   UNL A   1      45.958  28.301  34.329  1.00  0.00     0.134 A 
ATOM     63  F   UNL A   1      43.451  25.788  35.102  1.00  0.00    -0.206 F 
ATOM     64  C   UNL A   1      45.725  25.889  35.685  1.00  0.00     0.040 A 
ATOM     65  C   UNL A   1      47.074  27.748  34.959  1.00  0.00     0.040 A 
ATOM     66  F   UNL A   1      46.112  29.469  33.687  1.00  0.00    -0.206 F 
ATOM     67  C   UNL A   1      46.958  26.540  35.642  1.00  0.00     0.006 A 
ENDBRANCH  46  60
BRANCH  47  68
ATOM     68  C   UNL A   1      37.085  31.394  29.174  1.00  0.00     0.057 A 
ATOM     69  C   UNL A   1      35.932  30.634  28.954  1.00  0.00     0.134 A 
ATOM     70  C   UNL A   1      37.113  32.695  28.657  1.00  0.00     0.134 A 
ATOM     71  F   UNL A   1      35.858  29.373  29.402  1.00  0.00    -0.206 F 
ATOM     72  C   UNL A   1      34.844  31.148  28.244  1.00  0.00     0.040 A 
ATOM     73  C   UNL A   1      36.024  33.228  27.966  1.00  0.00     0.040 A 
ATOM     74  F   UNL A   1      38.192  33.471  28.834  1.00  0.00    -0.206 F 
ATOM     75  C   UNL A   1      34.887  32.452  27.754  1.00  0.00     0.006 A 
ENDBRANCH  47  68
BRANCH  59  76
ATOM     76  C   UNL A   1      39.207  32.094  35.752  1.00  0.00     0.057 A 
ATOM     77  C   UNL A   1      39.571  33.429  35.972  1.00  0.00     0.134 A 
ATOM     78  C   UNL A   1      38.293  31.514  36.639  1.00  0.00     0.134 A 
ATOM     79  F   UNL A   1      40.453  34.035  35.164  1.00  0.00    -0.206 F 
ATOM     80  C   UNL A   1      39.055  34.155  37.047  1.00  0.00     0.040 A 
ATOM     81  C   UNL A   1      37.758  32.235  37.707  1.00  0.00     0.040 A 
ATOM     82  F   UNL A   1      37.903  30.240  36.478  1.00  0.00    -0.206 F 
ATOM     83  C   UNL A   1      38.142  33.558  37.915  1.00  0.00     0.006 A 
ENDBRANCH  59  76
ENDBRANCH  33  34
ENDBRANCH  26  28
ENDBRANCH  25  26
ENDBRANCH  24  25
ENDBRANCH   1  24
TORSDOF 15
ENDMDL
MODEL 3
REMARK VINA RESULT:     -11.3      3.514      8.083
REMARK SMILES CCc1cc(Nc2ccc(C(=O)OCCOC(=O)c3ccc(-c4c5nc(c(-c6c(F)cccc6F)c6ccc([nH]6)c(-c6c(F)cccc6F)c6nc(c(-c7c(F)cccc7F)c7ccc4[nH]7)C=C6)C=C5)cc3)cc2)nc(C(C)C)n1
REMARK SMILES IDX 14 1 13 2 11 3 12 4 10 5 7 6 8 7 74 8 9 9 73 10 6 11 5 13
REMARK SMILES IDX 3 14 4 15 80 16 76 17 75 18 2 19 1 20 77 21 78 22 79 23
REMARK SMILES IDX 15 24 16 25 17 26 18 27 19 28 20 29 72 30 21 31 71 32 22 33
REMARK SMILES IDX 23 34 24 35 65 36 25 37 70 38 64 39 66 40 26 41 69 42 63 43
REMARK SMILES IDX 62 44 27 46 53 47 36 48 52 49 37 50 40 51 51 52 67 53 38 54
REMARK SMILES IDX 39 55 50 57 68 58 41 59 28 60 29 61 34 62 30 63 31 64 33 65
REMARK SMILES IDX 35 66 32 67 54 68 55 69 60 70 56 71 57 72 59 73 61 74 58 75
REMARK SMILES IDX 42 76 43 77 48 78 44 79 45 80 47 81 49 82 46 83
REMARK H PARENT 6 12 66 45 40 56
REMARK Flexibility Score: inf
ROOT
ATOM      1  C   UNL A   1      31.596  29.054  24.463  1.00  0.00     0.275 C 
ENDROOT
BRANCH   1   2
ATOM      2  O   UNL A   1      31.096  27.924  25.205  1.00  0.00    -0.458 OA
BRANCH   2   3
ATOM      3  C   UNL A   1      30.383  27.026  24.482  1.00  0.00     0.338 C 
ATOM      4  O   UNL A   1      29.577  27.274  23.600  1.00  0.00    -0.246 OA
BRANCH   3   5
ATOM      5  C   UNL A   1      30.785  25.646  24.830  1.00  0.00     0.060 A 
ATOM      6  C   UNL A   1      31.348  22.962  25.429  1.00  0.00     0.040 A 
ATOM      7  C   UNL A   1      31.018  23.337  24.125  1.00  0.00     0.027 A 
ATOM      8  C   UNL A   1      31.412  23.950  26.425  1.00  0.00     0.027 A 
ATOM      9  C   UNL A   1      30.709  24.663  23.835  1.00  0.00     0.018 A 
ATOM     10  C   UNL A   1      31.158  25.291  26.127  1.00  0.00     0.018 A 
BRANCH   6  11
ATOM     11  N   UNL A   1      31.405  21.593  25.751  1.00  0.00    -0.340 N 
ATOM     12  H   UNL A   1      30.664  21.205  26.269  1.00  0.00     0.168 HD
BRANCH  11  13
ATOM     13  C   UNL A   1      32.468  20.745  25.372  1.00  0.00     0.134 A 
ATOM     14  C   UNL A   1      34.762  20.369  25.001  1.00  0.00     0.046 A 
ATOM     15  C   UNL A   1      33.758  21.233  25.394  1.00  0.00     0.071 A 
ATOM     16  N   UNL A   1      34.516  19.098  24.625  1.00  0.00    -0.238 NA
ATOM     17  C   UNL A   1      33.232  18.700  24.643  1.00  0.00     0.133 A 
ATOM     18  N   UNL A   1      32.207  19.478  25.012  1.00  0.00    -0.216 NA
BRANCH  14  19
ATOM     19  C   UNL A   1      36.199  20.817  25.005  1.00  0.00     0.053 C 
ATOM     20  C   UNL A   1      36.380  22.125  24.251  1.00  0.00     0.011 C 
ENDBRANCH  14  19
BRANCH  17  21
ATOM     21  C   UNL A   1      32.897  17.275  24.265  1.00  0.00     0.051 C 
ATOM     22  C   UNL A   1      34.029  16.620  23.475  1.00  0.00     0.016 C 
ATOM     23  C   UNL A   1      32.541  16.465  25.508  1.00  0.00     0.016 C 
ENDBRANCH  17  21
ENDBRANCH  11  13
ENDBRANCH   6  11
ENDBRANCH   3   5
ENDBRANCH   2   3
ENDBRANCH   1   2
BRANCH   1  24
ATOM     24  C   UNL A   1      31.391  30.345  25.255  1.00  0.00     0.275 C 
BRANCH  24  25
ATOM     25  O   UNL A   1      32.089  30.253  26.509  1.00  0.00    -0.458 OA
BRANCH  25  26
ATOM     26  C   UNL A   1      32.628  31.404  26.975  1.00  0.00     0.338 C 
ATOM     27  O   UNL A   1      32.129  32.516  26.945  1.00  0.00    -0.246 OA
BRANCH  26  28
ATOM     28  C   UNL A   1      33.967  31.137  27.544  1.00  0.00     0.060 A 
ATOM     29  C   UNL A   1      34.419  29.830  27.719  1.00  0.00     0.016 A 
ATOM     30  C   UNL A   1      34.744  32.201  28.001  1.00  0.00     0.016 A 
ATOM     31  C   UNL A   1      35.596  29.576  28.425  1.00  0.00     0.010 A 
ATOM     32  C   UNL A   1      35.974  31.948  28.621  1.00  0.00     0.010 A 
ATOM     33  C   UNL A   1      36.399  30.631  28.878  1.00  0.00    -0.014 A 
BRANCH  33  34
ATOM     34  C   UNL A   1      37.647  30.374  29.659  1.00  0.00     0.031 A 
ATOM     35  C   UNL A   1      38.776  29.586  29.044  1.00  0.00     0.074 A 
ATOM     36  C   UNL A   1      37.791  30.840  30.917  1.00  0.00     0.049 A 
ATOM     37  N   UNL A   1      39.835  29.068  29.614  1.00  0.00    -0.248 NA
ATOM     38  C   UNL A   1      38.692  29.330  27.596  1.00  0.00     0.031 C 
ATOM     39  C   UNL A   1      36.816  31.655  31.643  1.00  0.00     0.029 A 
ATOM     40  N   UNL A   1      38.827  30.695  31.809  1.00  0.00    -0.354 N 
ATOM     41  C   UNL A   1      40.499  28.364  28.616  1.00  0.00     0.074 A 
ATOM     42  C   UNL A   1      39.732  28.531  27.400  1.00  0.00     0.031 C 
ATOM     43  C   UNL A   1      37.318  31.976  32.846  1.00  0.00     0.029 A 
ATOM     44  C   UNL A   1      38.609  31.317  33.014  1.00  0.00     0.049 A 
ATOM     45  H   UNL A   1      39.648  30.192  31.603  1.00  0.00     0.167 HD
ATOM     46  C   UNL A   1      41.639  27.639  28.705  1.00  0.00     0.037 A 
ATOM     47  C   UNL A   1      39.341  31.330  34.145  1.00  0.00     0.037 A 
ATOM     48  C   UNL A   1      42.450  27.533  29.890  1.00  0.00     0.049 A 
ATOM     49  C   UNL A   1      40.608  30.529  34.220  1.00  0.00     0.074 A 
ATOM     50  C   UNL A   1      43.632  26.832  30.068  1.00  0.00     0.029 A 
ATOM     51  N   UNL A   1      42.181  28.173  31.089  1.00  0.00    -0.354 N 
ATOM     52  N   UNL A   1      41.177  29.796  33.294  1.00  0.00    -0.248 NA
ATOM     53  C   UNL A   1      41.320  30.534  35.506  1.00  0.00     0.031 C 
ATOM     54  C   UNL A   1      44.069  27.034  31.382  1.00  0.00     0.029 A 
ATOM     55  C   UNL A   1      43.173  27.883  32.011  1.00  0.00     0.049 A 
ATOM     56  H   UNL A   1      41.401  28.747  31.260  1.00  0.00     0.167 HD
ATOM     57  C   UNL A   1      42.308  29.250  33.885  1.00  0.00     0.074 A 
ATOM     58  C   UNL A   1      42.362  29.757  35.241  1.00  0.00     0.031 C 
ATOM     59  C   UNL A   1      43.215  28.395  33.355  1.00  0.00     0.037 A 
BRANCH  46  60
ATOM     60  C   UNL A   1      42.066  26.870  27.491  1.00  0.00     0.057 A 
ATOM     61  C   UNL A   1      42.859  27.439  26.488  1.00  0.00     0.134 A 
ATOM     62  C   UNL A   1      41.708  25.522  27.348  1.00  0.00     0.134 A 
ATOM     63  F   UNL A   1      43.223  28.729  26.560  1.00  0.00    -0.206 F 
ATOM     64  C   UNL A   1      43.266  26.701  25.375  1.00  0.00     0.040 A 
ATOM     65  C   UNL A   1      42.126  24.768  26.251  1.00  0.00     0.040 A 
ATOM     66  F   UNL A   1      40.955  24.916  28.278  1.00  0.00    -0.206 F 
ATOM     67  C   UNL A   1      42.905  25.359  25.258  1.00  0.00     0.006 A 
ENDBRANCH  46  60
BRANCH  47  68
ATOM     68  C   UNL A   1      38.867  32.099  35.322  1.00  0.00     0.057 A 
ATOM     69  C   UNL A   1      39.118  33.471  35.433  1.00  0.00     0.134 A 
ATOM     70  C   UNL A   1      38.150  31.485  36.355  1.00  0.00     0.134 A 
ATOM     71  F   UNL A   1      39.823  34.107  34.487  1.00  0.00    -0.206 F 
ATOM     72  C   UNL A   1      38.672  34.207  36.533  1.00  0.00     0.040 A 
ATOM     73  C   UNL A   1      37.678  32.213  37.449  1.00  0.00     0.040 A 
ATOM     74  F   UNL A   1      37.880  30.173  36.305  1.00  0.00    -0.206 F 
ATOM     75  C   UNL A   1      37.943  33.578  37.541  1.00  0.00     0.006 A 
ENDBRANCH  47  68
BRANCH  59  76
ATOM     76  C   UNL A   1      44.347  27.969  34.238  1.00  0.00     0.057 A 
ATOM     77  C   UNL A   1      45.529  28.715  34.321  1.00  0.00     0.134 A 
ATOM     78  C   UNL A   1      44.244  26.820  35.029  1.00  0.00     0.134 A 
ATOM     79  F   UNL A   1      45.691  29.817  33.576  1.00  0.00    -0.206 F 
ATOM     80  C   UNL A   1      46.580  28.321  35.152  1.00  0.00     0.040 A 
ATOM     81  C   UNL A   1      45.282  26.425  35.876  1.00  0.00     0.040 A 
ATOM     82  F   UNL A   1      43.134  26.066  34.996  1.00  0.00    -0.206 F 
ATOM     83  C   UNL A   1      46.455  27.174  35.935  1.00  0.00     0.006 A 
ENDBRANCH  59  76
ENDBRANCH  33  34
ENDBRANCH  26  28
ENDBRANCH  25  26
ENDBRANCH  24  25
ENDBRANCH   1  24
TORSDOF 15
ENDMDL
