MODEL 1
REMARK VINA RESULT:     -11.4      0.000      0.000
REMARK SMILES CC(C)[C@@](C)(CC(=O)N[C@H]1CCCC1(C)C)C(=O)OCCOC(=O)c1ccc(-c2c3nc(c(-c4c(F)cccc4F)c4ccc([nH]4)c(-c4c(F)cccc4F)c4nc(c(-c5c(F)cccc5F)c5ccc2[nH]5)C=C4)C=C3)cc1
REMARK SMILES IDX 20 1 19 2 17 3 18 4 4 5 5 6 2 7 1 8 3 9 6 10 7 11 8 12 9 13
REMARK SMILES IDX 10 15 11 16 14 17 12 18 13 19 15 20 16 21 21 22 22 23 23 24
REMARK SMILES IDX 24 25 25 26 26 27 78 28 27 29 77 30 28 31 29 32 30 33 71 34
REMARK SMILES IDX 31 35 76 36 70 37 72 38 32 39 75 40 69 41 68 42 33 44 59 45
REMARK SMILES IDX 42 46 58 47 43 48 46 49 57 50 73 51 44 52 45 53 56 55 74 56
REMARK SMILES IDX 47 57 34 58 35 59 40 60 36 61 37 62 39 63 41 64 38 65 60 66
REMARK SMILES IDX 61 67 66 68 62 69 63 70 65 71 67 72 64 73 48 74 49 75 54 76
REMARK SMILES IDX 50 77 51 78 53 79 55 80 52 81
REMARK H PARENT 9 14 72 43 46 54
REMARK Flexibility Score: inf
ROOT
ATOM      1  C   UNL A   1      35.318  21.564  25.374  1.00  0.00     0.274 C 
ENDROOT
BRANCH   1   2
ATOM      2  O   UNL A   1      34.489  21.853  24.227  1.00  0.00    -0.462 OA
BRANCH   2   3
ATOM      3  C   UNL A   1      34.699  23.049  23.633  1.00  0.00     0.312 C 
ATOM      4  O   UNL A   1      35.580  23.234  22.795  1.00  0.00    -0.252 OA
BRANCH   3   5
ATOM      5  C   UNL A   1      33.657  24.136  23.988  1.00  0.00     0.076 C 
ATOM      6  C   UNL A   1      32.296  23.513  23.565  1.00  0.00     0.024 C 
BRANCH   5   7
ATOM      7  C   UNL A   1      33.680  24.376  25.532  1.00  0.00     0.000 C 
ATOM      8  C   UNL A   1      33.995  25.799  26.014  1.00  0.00     0.008 C 
ATOM      9  C   UNL A   1      32.355  23.990  26.161  1.00  0.00     0.008 C 
ENDBRANCH   5   7
BRANCH   5  10
ATOM     10  C   UNL A   1      33.716  25.500  23.214  1.00  0.00     0.118 C 
BRANCH  10  11
ATOM     11  C   UNL A   1      32.934  25.747  21.943  1.00  0.00     0.221 C 
ATOM     12  O   UNL A   1      33.330  25.251  20.881  1.00  0.00    -0.275 OA
ATOM     13  N   UNL A   1      31.764  26.411  21.840  1.00  0.00    -0.353 N 
ATOM     14  H   UNL A   1      31.544  26.481  20.883  1.00  0.00     0.163 HD
BRANCH  13  15
ATOM     15  C   UNL A   1      30.682  27.077  22.603  1.00  0.00     0.087 C 
ATOM     16  C   UNL A   1      29.942  26.316  23.703  1.00  0.00     0.025 C 
ATOM     17  C   UNL A   1      31.222  28.362  23.333  1.00  0.00    -0.015 C 
ATOM     18  C   UNL A   1      30.459  26.816  25.054  1.00  0.00     0.003 C 
ATOM     19  C   UNL A   1      31.517  27.866  24.755  1.00  0.00     0.008 C 
ATOM     20  C   UNL A   1      32.486  28.956  22.691  1.00  0.00     0.013 C 
ATOM     21  C   UNL A   1      30.159  29.473  23.410  1.00  0.00     0.013 C 
ENDBRANCH  13  15
ENDBRANCH  10  11
ENDBRANCH   5  10
ENDBRANCH   3   5
ENDBRANCH   2   3
ENDBRANCH   1   2
BRANCH   1  22
ATOM     22  C   UNL A   1      36.375  20.524  25.001  1.00  0.00     0.275 C 
BRANCH  22  23
ATOM     23  O   UNL A   1      37.630  21.175  24.711  1.00  0.00    -0.458 OA
BRANCH  23  24
ATOM     24  C   UNL A   1      38.639  20.863  25.562  1.00  0.00     0.338 C 
ATOM     25  O   UNL A   1      39.152  19.751  25.681  1.00  0.00    -0.246 OA
BRANCH  24  26
ATOM     26  C   UNL A   1      39.142  22.060  26.292  1.00  0.00     0.060 A 
ATOM     27  C   UNL A   1      38.557  23.310  26.152  1.00  0.00     0.016 A 
ATOM     28  C   UNL A   1      40.298  21.967  27.072  1.00  0.00     0.016 A 
ATOM     29  C   UNL A   1      39.237  24.465  26.565  1.00  0.00     0.010 A 
ATOM     30  C   UNL A   1      40.888  23.119  27.626  1.00  0.00     0.010 A 
ATOM     31  C   UNL A   1      40.429  24.408  27.304  1.00  0.00    -0.014 A 
BRANCH  31  32
ATOM     32  C   UNL A   1      41.209  25.653  27.667  1.00  0.00     0.031 A 
ATOM     33  C   UNL A   1      40.580  26.769  28.497  1.00  0.00     0.074 A 
ATOM     34  C   UNL A   1      42.514  25.808  27.344  1.00  0.00     0.049 A 
ATOM     35  N   UNL A   1      41.046  27.963  28.788  1.00  0.00    -0.248 NA
ATOM     36  C   UNL A   1      39.265  26.504  29.094  1.00  0.00     0.031 C 
ATOM     37  C   UNL A   1      43.345  24.842  26.625  1.00  0.00     0.029 A 
ATOM     38  N   UNL A   1      43.381  26.854  27.590  1.00  0.00    -0.354 N 
ATOM     39  C   UNL A   1      40.080  28.577  29.585  1.00  0.00     0.074 A 
ATOM     40  C   UNL A   1      38.997  27.635  29.728  1.00  0.00     0.031 C 
ATOM     41  C   UNL A   1      44.600  25.303  26.547  1.00  0.00     0.029 A 
ATOM     42  C   UNL A   1      44.636  26.667  27.058  1.00  0.00     0.049 A 
ATOM     43  H   UNL A   1      43.126  27.658  28.097  1.00  0.00     0.167 HD
ATOM     44  C   UNL A   1      40.075  29.811  30.147  1.00  0.00     0.037 A 
ATOM     45  C   UNL A   1      45.680  27.504  26.894  1.00  0.00     0.037 A 
ATOM     46  C   UNL A   1      41.120  30.790  30.006  1.00  0.00     0.049 A 
ATOM     47  C   UNL A   1      45.576  28.937  27.325  1.00  0.00     0.074 A 
ATOM     48  C   UNL A   1      41.166  32.081  30.507  1.00  0.00     0.029 A 
ATOM     49  N   UNL A   1      42.295  30.591  29.306  1.00  0.00    -0.354 N 
ATOM     50  N   UNL A   1      44.615  29.531  27.986  1.00  0.00    -0.248 NA
ATOM     51  C   UNL A   1      46.684  29.826  26.943  1.00  0.00     0.031 C 
ATOM     52  C   UNL A   1      42.349  32.683  30.061  1.00  0.00     0.029 A 
ATOM     53  C   UNL A   1      43.056  31.749  29.326  1.00  0.00     0.049 A 
ATOM     54  H   UNL A   1      42.553  29.752  28.860  1.00  0.00     0.167 HD
ATOM     55  C   UNL A   1      44.997  30.863  28.092  1.00  0.00     0.074 A 
ATOM     56  C   UNL A   1      46.288  30.985  27.451  1.00  0.00     0.031 C 
ATOM     57  C   UNL A   1      44.327  31.889  28.668  1.00  0.00     0.037 A 
BRANCH  44  58
ATOM     58  C   UNL A   1      38.868  30.208  30.946  1.00  0.00     0.057 A 
ATOM     59  C   UNL A   1      37.772  30.849  30.358  1.00  0.00     0.134 A 
ATOM     60  C   UNL A   1      38.773  29.872  32.303  1.00  0.00     0.134 A 
ATOM     61  F   UNL A   1      37.808  31.209  29.065  1.00  0.00    -0.206 F 
ATOM     62  C   UNL A   1      36.621  31.143  31.092  1.00  0.00     0.040 A 
ATOM     63  C   UNL A   1      37.622  30.146  33.044  1.00  0.00     0.040 A 
ATOM     64  F   UNL A   1      39.789  29.254  32.923  1.00  0.00    -0.206 F 
ATOM     65  C   UNL A   1      36.542  30.783  32.437  1.00  0.00     0.006 A 
ENDBRANCH  44  58
BRANCH  45  66
ATOM     66  C   UNL A   1      46.877  27.032  26.148  1.00  0.00     0.057 A 
ATOM     67  C   UNL A   1      47.940  26.392  26.791  1.00  0.00     0.134 A 
ATOM     68  C   UNL A   1      46.966  27.198  24.758  1.00  0.00     0.134 A 
ATOM     69  F   UNL A   1      47.933  26.242  28.123  1.00  0.00    -0.206 F 
ATOM     70  C   UNL A   1      49.042  25.919  26.076  1.00  0.00     0.040 A 
ATOM     71  C   UNL A   1      48.042  26.699  24.028  1.00  0.00     0.040 A 
ATOM     72  F   UNL A   1      45.984  27.817  24.087  1.00  0.00    -0.206 F 
ATOM     73  C   UNL A   1      49.087  26.057  24.688  1.00  0.00     0.006 A 
ENDBRANCH  45  66
BRANCH  57  74
ATOM     74  C   UNL A   1      44.975  33.239  28.636  1.00  0.00     0.057 A 
ATOM     75  C   UNL A   1      44.683  34.168  27.630  1.00  0.00     0.134 A 
ATOM     76  C   UNL A   1      45.891  33.620  29.624  1.00  0.00     0.134 A 
ATOM     77  F   UNL A   1      43.823  33.858  26.648  1.00  0.00    -0.206 F 
ATOM     78  C   UNL A   1      45.297  35.422  27.595  1.00  0.00     0.040 A 
ATOM     79  C   UNL A   1      46.496  34.877  29.611  1.00  0.00     0.040 A 
ATOM     80  F   UNL A   1      46.209  32.779  30.619  1.00  0.00    -0.206 F 
ATOM     81  C   UNL A   1      46.204  35.780  28.590  1.00  0.00     0.006 A 
ENDBRANCH  57  74
ENDBRANCH  31  32
ENDBRANCH  24  26
ENDBRANCH  23  24
ENDBRANCH  22  23
ENDBRANCH   1  22
TORSDOF 15
ENDMDL
MODEL 2
REMARK VINA RESULT:     -11.3      1.156      2.011
REMARK SMILES CC(C)[C@@](C)(CC(=O)N[C@H]1CCCC1(C)C)C(=O)OCCOC(=O)c1ccc(-c2c3nc(c(-c4c(F)cccc4F)c4ccc([nH]4)c(-c4c(F)cccc4F)c4nc(c(-c5c(F)cccc5F)c5ccc2[nH]5)C=C4)C=C3)cc1
REMARK SMILES IDX 20 1 19 2 17 3 18 4 4 5 5 6 2 7 1 8 3 9 6 10 7 11 8 12 9 13
REMARK SMILES IDX 10 15 11 16 14 17 12 18 13 19 15 20 16 21 21 22 22 23 23 24
REMARK SMILES IDX 24 25 25 26 26 27 78 28 27 29 77 30 28 31 29 32 30 33 71 34
REMARK SMILES IDX 31 35 76 36 70 37 72 38 32 39 75 40 69 41 68 42 33 44 59 45
REMARK SMILES IDX 42 46 58 47 43 48 46 49 57 50 73 51 44 52 45 53 56 55 74 56
REMARK SMILES IDX 47 57 34 58 35 59 40 60 36 61 37 62 39 63 41 64 38 65 60 66
REMARK SMILES IDX 61 67 66 68 62 69 63 70 65 71 67 72 64 73 48 74 49 75 54 76
REMARK SMILES IDX 50 77 51 78 53 79 55 80 52 81
REMARK H PARENT 9 14 72 43 46 54
REMARK Flexibility Score: inf
ROOT
ATOM      1  C   UNL A   1      35.503  19.973  24.974  1.00  0.00     0.274 C 
ENDROOT
BRANCH   1   2
ATOM      2  O   UNL A   1      35.293  21.402  24.954  1.00  0.00    -0.462 OA
BRANCH   2   3
ATOM      3  C   UNL A   1      34.296  21.863  25.742  1.00  0.00     0.312 C 
ATOM      4  O   UNL A   1      33.836  21.220  26.684  1.00  0.00    -0.252 OA
BRANCH   3   5
ATOM      5  C   UNL A   1      33.869  23.321  25.452  1.00  0.00     0.076 C 
ATOM      6  C   UNL A   1      35.201  24.049  25.113  1.00  0.00     0.024 C 
BRANCH   5   7
ATOM      7  C   UNL A   1      32.920  23.336  24.211  1.00  0.00     0.000 C 
ATOM      8  C   UNL A   1      33.560  23.612  22.844  1.00  0.00     0.008 C 
ATOM      9  C   UNL A   1      32.174  22.021  24.082  1.00  0.00     0.008 C 
ENDBRANCH   5   7
BRANCH   5  10
ATOM     10  C   UNL A   1      33.257  24.161  26.627  1.00  0.00     0.118 C 
BRANCH  10  11
ATOM     11  C   UNL A   1      31.770  24.401  26.767  1.00  0.00     0.221 C 
ATOM     12  O   UNL A   1      31.060  23.526  27.280  1.00  0.00    -0.275 OA
ATOM     13  N   UNL A   1      31.109  25.534  26.455  1.00  0.00    -0.353 N 
ATOM     14  H   UNL A   1      30.147  25.362  26.575  1.00  0.00     0.163 HD
BRANCH  13  15
ATOM     15  C   UNL A   1      31.263  26.937  26.001  1.00  0.00     0.087 C 
ATOM     16  C   UNL A   1      32.554  27.700  26.301  1.00  0.00     0.025 C 
ATOM     17  C   UNL A   1      31.123  27.036  24.438  1.00  0.00    -0.015 C 
ATOM     18  C   UNL A   1      33.375  27.765  25.012  1.00  0.00     0.003 C 
ATOM     19  C   UNL A   1      32.577  27.028  23.948  1.00  0.00     0.008 C 
ATOM     20  C   UNL A   1      30.331  25.878  23.810  1.00  0.00     0.013 C 
ATOM     21  C   UNL A   1      30.463  28.357  23.999  1.00  0.00     0.013 C 
ENDBRANCH  13  15
ENDBRANCH  10  11
ENDBRANCH   5  10
ENDBRANCH   3   5
ENDBRANCH   2   3
ENDBRANCH   1   2
BRANCH   1  22
ATOM     22  C   UNL A   1      36.996  19.667  24.852  1.00  0.00     0.275 C 
BRANCH  22  23
ATOM     23  O   UNL A   1      37.766  20.873  25.042  1.00  0.00    -0.458 OA
BRANCH  23  24
ATOM     24  C   UNL A   1      38.939  20.697  25.700  1.00  0.00     0.338 C 
ATOM     25  O   UNL A   1      39.618  19.672  25.684  1.00  0.00    -0.246 OA
BRANCH  24  26
ATOM     26  C   UNL A   1      39.384  21.942  26.388  1.00  0.00     0.060 A 
ATOM     27  C   UNL A   1      38.814  23.178  26.118  1.00  0.00     0.016 A 
ATOM     28  C   UNL A   1      40.472  21.905  27.263  1.00  0.00     0.016 A 
ATOM     29  C   UNL A   1      39.460  24.360  26.507  1.00  0.00     0.010 A 
ATOM     30  C   UNL A   1      41.017  23.093  27.786  1.00  0.00     0.010 A 
ATOM     31  C   UNL A   1      40.588  24.356  27.342  1.00  0.00    -0.014 A 
BRANCH  31  32
ATOM     32  C   UNL A   1      41.339  25.625  27.684  1.00  0.00     0.031 A 
ATOM     33  C   UNL A   1      40.688  26.735  28.506  1.00  0.00     0.074 A 
ATOM     34  C   UNL A   1      42.636  25.810  27.348  1.00  0.00     0.049 A 
ATOM     35  N   UNL A   1      41.125  27.944  28.779  1.00  0.00    -0.248 NA
ATOM     36  C   UNL A   1      39.385  26.443  29.118  1.00  0.00     0.031 C 
ATOM     37  C   UNL A   1      43.487  24.857  26.634  1.00  0.00     0.029 A 
ATOM     38  N   UNL A   1      43.478  26.881  27.574  1.00  0.00    -0.354 N 
ATOM     39  C   UNL A   1      40.150  28.542  29.576  1.00  0.00     0.074 A 
ATOM     40  C   UNL A   1      39.093  27.574  29.740  1.00  0.00     0.031 C 
ATOM     41  C   UNL A   1      44.729  25.349  26.540  1.00  0.00     0.029 A 
ATOM     42  C   UNL A   1      44.734  26.720  27.034  1.00  0.00     0.049 A 
ATOM     43  H   UNL A   1      43.207  27.684  28.074  1.00  0.00     0.167 HD
ATOM     44  C   UNL A   1      40.118  29.782  30.124  1.00  0.00     0.037 A 
ATOM     45  C   UNL A   1      45.754  27.583  26.852  1.00  0.00     0.037 A 
ATOM     46  C   UNL A   1      41.135  30.786  29.963  1.00  0.00     0.049 A 
ATOM     47  C   UNL A   1      45.616  29.017  27.267  1.00  0.00     0.074 A 
ATOM     48  C   UNL A   1      41.152  32.084  30.448  1.00  0.00     0.029 A 
ATOM     49  N   UNL A   1      42.310  30.609  29.256  1.00  0.00    -0.354 N 
ATOM     50  N   UNL A   1      44.645  29.594  27.928  1.00  0.00    -0.248 NA
ATOM     51  C   UNL A   1      46.697  29.930  26.865  1.00  0.00     0.031 C 
ATOM     52  C   UNL A   1      42.315  32.711  29.985  1.00  0.00     0.029 A 
ATOM     53  C   UNL A   1      43.041  31.786  29.255  1.00  0.00     0.049 A 
ATOM     54  H   UNL A   1      42.585  29.772  28.817  1.00  0.00     0.167 HD
ATOM     55  C   UNL A   1      44.993  30.937  28.016  1.00  0.00     0.074 A 
ATOM     56  C   UNL A   1      46.275  31.084  27.363  1.00  0.00     0.031 C 
ATOM     57  C   UNL A   1      44.301  31.952  28.585  1.00  0.00     0.037 A 
BRANCH  44  58
ATOM     58  C   UNL A   1      38.906  30.157  30.928  1.00  0.00     0.057 A 
ATOM     59  C   UNL A   1      37.768  30.711  30.333  1.00  0.00     0.134 A 
ATOM     60  C   UNL A   1      38.855  29.886  32.302  1.00  0.00     0.134 A 
ATOM     61  F   UNL A   1      37.761  31.007  29.024  1.00  0.00    -0.206 F 
ATOM     62  C   UNL A   1      36.618  30.984  31.077  1.00  0.00     0.040 A 
ATOM     63  C   UNL A   1      37.707  30.139  33.053  1.00  0.00     0.040 A 
ATOM     64  F   UNL A   1      39.913  29.353  32.930  1.00  0.00    -0.206 F 
ATOM     65  C   UNL A   1      36.583  30.688  32.440  1.00  0.00     0.006 A 
ENDBRANCH  44  58
BRANCH  45  66
ATOM     66  C   UNL A   1      46.956  27.132  26.101  1.00  0.00     0.057 A 
ATOM     67  C   UNL A   1      47.071  27.311  24.720  1.00  0.00     0.134 A 
ATOM     68  C   UNL A   1      48.030  26.523  26.767  1.00  0.00     0.134 A 
ATOM     69  F   UNL A   1      46.061  27.848  24.020  1.00  0.00    -0.206 F 
ATOM     70  C   UNL A   1      48.220  26.918  24.030  1.00  0.00     0.040 A 
ATOM     71  C   UNL A   1      49.196  26.159  26.097  1.00  0.00     0.040 A 
ATOM     72  F   UNL A   1      47.972  26.310  28.089  1.00  0.00    -0.206 F 
ATOM     73  C   UNL A   1      49.293  26.356  24.722  1.00  0.00     0.006 A 
ENDBRANCH  45  66
BRANCH  57  74
ATOM     74  C   UNL A   1      44.914  33.318  28.532  1.00  0.00     0.057 A 
ATOM     75  C   UNL A   1      44.606  34.219  27.505  1.00  0.00     0.134 A 
ATOM     76  C   UNL A   1      45.811  33.741  29.519  1.00  0.00     0.134 A 
ATOM     77  F   UNL A   1      43.763  33.867  26.523  1.00  0.00    -0.206 F 
ATOM     78  C   UNL A   1      45.187  35.488  27.451  1.00  0.00     0.040 A 
ATOM     79  C   UNL A   1      46.383  35.014  29.486  1.00  0.00     0.040 A 
ATOM     80  F   UNL A   1      46.143  32.929  30.532  1.00  0.00    -0.206 F 
ATOM     81  C   UNL A   1      46.076  35.889  28.445  1.00  0.00     0.006 A 
ENDBRANCH  57  74
ENDBRANCH  31  32
ENDBRANCH  24  26
ENDBRANCH  23  24
ENDBRANCH  22  23
ENDBRANCH   1  22
TORSDOF 15
ENDMDL
MODEL 3
REMARK VINA RESULT:     -11.3      4.075      8.964
REMARK SMILES CC(C)[C@@](C)(CC(=O)N[C@H]1CCCC1(C)C)C(=O)OCCOC(=O)c1ccc(-c2c3nc(c(-c4c(F)cccc4F)c4ccc([nH]4)c(-c4c(F)cccc4F)c4nc(c(-c5c(F)cccc5F)c5ccc2[nH]5)C=C4)C=C3)cc1
REMARK SMILES IDX 20 1 19 2 17 3 18 4 4 5 5 6 2 7 1 8 3 9 6 10 7 11 8 12 9 13
REMARK SMILES IDX 10 15 11 16 14 17 12 18 13 19 15 20 16 21 21 22 22 23 23 24
REMARK SMILES IDX 24 25 25 26 26 27 78 28 27 29 77 30 28 31 29 32 30 33 71 34
REMARK SMILES IDX 31 35 76 36 70 37 72 38 32 39 75 40 69 41 68 42 33 44 59 45
REMARK SMILES IDX 42 46 58 47 43 48 46 49 57 50 73 51 44 52 45 53 56 55 74 56
REMARK SMILES IDX 47 57 34 58 35 59 40 60 36 61 37 62 39 63 41 64 38 65 60 66
REMARK SMILES IDX 61 67 66 68 62 69 63 70 65 71 67 72 64 73 48 74 49 75 54 76
REMARK SMILES IDX 50 77 51 78 53 79 55 80 52 81
REMARK H PARENT 9 14 72 43 46 54
REMARK Flexibility Score: inf
ROOT
ATOM      1  C   UNL A   1      32.082  29.154  24.984  1.00  0.00     0.274 C 
ENDROOT
BRANCH   1   2
ATOM      2  O   UNL A   1      31.074  28.142  24.772  1.00  0.00    -0.462 OA
BRANCH   2   3
ATOM      3  C   UNL A   1      31.166  27.044  25.553  1.00  0.00     0.312 C 
ATOM      4  O   UNL A   1      30.974  27.068  26.768  1.00  0.00    -0.252 OA
BRANCH   3   5
ATOM      5  C   UNL A   1      31.400  25.722  24.782  1.00  0.00     0.076 C 
ATOM      6  C   UNL A   1      30.740  25.969  23.395  1.00  0.00     0.024 C 
BRANCH   5   7
ATOM      7  C   UNL A   1      32.936  25.498  24.613  1.00  0.00     0.000 C 
ATOM      8  C   UNL A   1      33.599  26.107  23.369  1.00  0.00     0.008 C 
ATOM      9  C   UNL A   1      33.698  26.028  25.812  1.00  0.00     0.008 C 
ENDBRANCH   5   7
BRANCH   5  10
ATOM     10  C   UNL A   1      30.705  24.421  25.316  1.00  0.00     0.118 C 
BRANCH  10  11
ATOM     11  C   UNL A   1      31.344  23.526  26.355  1.00  0.00     0.221 C 
ATOM     12  O   UNL A   1      31.121  23.735  27.554  1.00  0.00    -0.275 OA
ATOM     13  N   UNL A   1      32.100  22.435  26.116  1.00  0.00    -0.353 N 
ATOM     14  H   UNL A   1      32.440  22.111  26.981  1.00  0.00     0.163 HD
BRANCH  13  15
ATOM     15  C   UNL A   1      32.618  21.532  25.061  1.00  0.00     0.087 C 
ATOM     16  C   UNL A   1      32.396  21.871  23.587  1.00  0.00     0.025 C 
ATOM     17  C   UNL A   1      34.180  21.376  25.179  1.00  0.00    -0.015 C 
ATOM     18  C   UNL A   1      33.714  22.402  23.019  1.00  0.00     0.003 C 
ATOM     19  C   UNL A   1      34.717  22.391  24.162  1.00  0.00     0.008 C 
ATOM     20  C   UNL A   1      34.729  21.670  26.584  1.00  0.00     0.013 C 
ATOM     21  C   UNL A   1      34.653  19.970  24.767  1.00  0.00     0.013 C 
ENDBRANCH  13  15
ENDBRANCH  10  11
ENDBRANCH   5  10
ENDBRANCH   3   5
ENDBRANCH   2   3
ENDBRANCH   1   2
BRANCH   1  22
ATOM     22  C   UNL A   1      31.455  30.380  25.647  1.00  0.00     0.275 C 
BRANCH  22  23
ATOM     23  O   UNL A   1      31.959  30.528  26.991  1.00  0.00    -0.458 OA
BRANCH  23  24
ATOM     24  C   UNL A   1      32.714  31.637  27.194  1.00  0.00     0.338 C 
ATOM     25  O   UNL A   1      32.302  32.795  27.155  1.00  0.00    -0.246 OA
BRANCH  24  26
ATOM     26  C   UNL A   1      34.114  31.296  27.574  1.00  0.00     0.060 A 
ATOM     27  C   UNL A   1      34.549  29.984  27.689  1.00  0.00     0.016 A 
ATOM     28  C   UNL A   1      35.007  32.311  27.926  1.00  0.00     0.016 A 
ATOM     29  C   UNL A   1      35.739  29.685  28.366  1.00  0.00     0.010 A 
ATOM     30  C   UNL A   1      36.275  32.002  28.455  1.00  0.00     0.010 A 
ATOM     31  C   UNL A   1      36.635  30.683  28.782  1.00  0.00    -0.014 A 
BRANCH  31  32
ATOM     32  C   UNL A   1      37.872  30.365  29.594  1.00  0.00     0.031 A 
ATOM     33  C   UNL A   1      38.981  29.478  29.035  1.00  0.00     0.074 A 
ATOM     34  C   UNL A   1      38.093  30.904  30.815  1.00  0.00     0.049 A 
ATOM     35  N   UNL A   1      40.045  28.987  29.632  1.00  0.00    -0.248 NA
ATOM     36  C   UNL A   1      38.898  29.111  27.616  1.00  0.00     0.031 C 
ATOM     37  C   UNL A   1      37.214  31.840  31.516  1.00  0.00     0.029 A 
ATOM     38  N   UNL A   1      39.148  30.741  31.691  1.00  0.00    -0.354 N 
ATOM     39  C   UNL A   1      40.734  28.256  28.665  1.00  0.00     0.074 A 
ATOM     40  C   UNL A   1      39.971  28.355  27.444  1.00  0.00     0.031 C 
ATOM     41  C   UNL A   1      37.787  32.215  32.668  1.00  0.00     0.029 A 
ATOM     42  C   UNL A   1      38.994  31.426  32.874  1.00  0.00     0.049 A 
ATOM     43  H   UNL A   1      39.935  30.186  31.489  1.00  0.00     0.167 HD
ATOM     44  C   UNL A   1      41.890  27.555  28.768  1.00  0.00     0.037 A 
ATOM     45  C   UNL A   1      39.667  31.372  34.042  1.00  0.00     0.037 A 
ATOM     46  C   UNL A   1      42.665  27.407  29.971  1.00  0.00     0.049 A 
ATOM     47  C   UNL A   1      40.815  30.422  34.210  1.00  0.00     0.074 A 
ATOM     48  C   UNL A   1      43.824  26.672  30.166  1.00  0.00     0.029 A 
ATOM     49  N   UNL A   1      42.355  27.994  31.183  1.00  0.00    -0.354 N 
ATOM     50  N   UNL A   1      41.392  29.659  33.316  1.00  0.00    -0.248 NA
ATOM     51  C   UNL A   1      41.374  30.291  35.564  1.00  0.00     0.031 C 
ATOM     52  C   UNL A   1      44.184  26.772  31.515  1.00  0.00     0.029 A 
ATOM     53  C   UNL A   1      43.277  27.606  32.143  1.00  0.00     0.049 A 
ATOM     54  H   UNL A   1      41.594  28.597  31.341  1.00  0.00     0.167 HD
ATOM     55  C   UNL A   1      42.375  28.953  33.999  1.00  0.00     0.074 A 
ATOM     56  C   UNL A   1      42.334  29.395  35.375  1.00  0.00     0.031 C 
ATOM     57  C   UNL A   1      43.228  28.017  33.520  1.00  0.00     0.037 A 
BRANCH  44  58
ATOM     58  C   UNL A   1      42.382  26.840  27.543  1.00  0.00     0.057 A 
ATOM     59  C   UNL A   1      42.018  25.519  27.263  1.00  0.00     0.134 A 
ATOM     60  C   UNL A   1      43.168  27.512  26.597  1.00  0.00     0.134 A 
ATOM     61  F   UNL A   1      41.279  24.818  28.136  1.00  0.00    -0.206 F 
ATOM     62  C   UNL A   1      42.416  24.889  26.082  1.00  0.00     0.040 A 
ATOM     63  C   UNL A   1      43.560  26.899  25.407  1.00  0.00     0.040 A 
ATOM     64  F   UNL A   1      43.549  28.781  26.807  1.00  0.00    -0.206 F 
ATOM     65  C   UNL A   1      43.183  25.584  25.146  1.00  0.00     0.006 A 
ENDBRANCH  44  58
BRANCH  45  66
ATOM     66  C   UNL A   1      39.165  32.154  35.203  1.00  0.00     0.057 A 
ATOM     67  C   UNL A   1      38.327  31.585  36.165  1.00  0.00     0.134 A 
ATOM     68  C   UNL A   1      39.537  33.495  35.378  1.00  0.00     0.134 A 
ATOM     69  F   UNL A   1      37.901  30.321  36.031  1.00  0.00    -0.206 F 
ATOM     70  C   UNL A   1      37.891  32.317  37.272  1.00  0.00     0.040 A 
ATOM     71  C   UNL A   1      39.139  34.225  36.496  1.00  0.00     0.040 A 
ATOM     72  F   UNL A   1      40.328  34.100  34.480  1.00  0.00    -0.206 F 
ATOM     73  C   UNL A   1      38.311  33.636  37.447  1.00  0.00     0.006 A 
ENDBRANCH  45  66
BRANCH  57  74
ATOM     74  C   UNL A   1      44.193  27.405  34.488  1.00  0.00     0.057 A 
ATOM     75  C   UNL A   1      43.908  26.201  35.144  1.00  0.00     0.134 A 
ATOM     76  C   UNL A   1      45.423  28.016  34.760  1.00  0.00     0.134 A 
ATOM     77  F   UNL A   1      42.741  25.574  34.935  1.00  0.00    -0.206 F 
ATOM     78  C   UNL A   1      44.804  25.638  36.055  1.00  0.00     0.040 A 
ATOM     79  C   UNL A   1      46.335  27.452  35.653  1.00  0.00     0.040 A 
ATOM     80  F   UNL A   1      45.759  29.167  34.159  1.00  0.00    -0.206 F 
ATOM     81  C   UNL A   1      46.023  26.263  36.309  1.00  0.00     0.006 A 
ENDBRANCH  57  74
ENDBRANCH  31  32
ENDBRANCH  24  26
ENDBRANCH  23  24
ENDBRANCH  22  23
ENDBRANCH   1  22
TORSDOF 15
ENDMDL
