MODEL 1
REMARK VINA RESULT:     -11.1      0.000      0.000
REMARK SMILES COc1ccc(F)c(NC(=O)N2CCCC[C@@H]2C(=O)OCCOC(=O)c2ccc(-c3c4nc(c(-c5c(F)cccc5F)c5ccc([nH]5)c(-c5c(F)cccc5F)c5nc(c(-c6c(F)cccc6F)c6ccc3[nH]6)C=C5)C=C4)cc2)c1
REMARK SMILES IDX 21 1 20 2 18 3 19 4 17 5 12 6 13 7 14 8 16 9 15 10 10 11
REMARK SMILES IDX 9 12 11 14 8 15 3 16 4 17 80 18 5 19 6 20 7 21 2 22 1 23
REMARK SMILES IDX 22 24 23 25 24 26 25 27 26 28 27 29 79 30 28 31 78 32 29 33
REMARK SMILES IDX 30 34 31 35 72 36 32 37 77 38 71 39 73 40 33 41 76 42 70 43
REMARK SMILES IDX 69 44 34 46 60 47 43 48 59 49 44 50 47 51 58 52 74 53 45 54
REMARK SMILES IDX 46 55 57 57 75 58 48 59 35 60 36 61 41 62 37 63 38 64 40 65
REMARK SMILES IDX 42 66 39 67 61 68 62 69 67 70 63 71 64 72 66 73 68 74 65 75
REMARK SMILES IDX 49 76 50 77 55 78 51 79 52 80 54 81 56 82 53 83
REMARK H PARENT 9 13 73 45 47 56
REMARK Flexibility Score: inf
ROOT
ATOM      1  C   UNL A   1      38.183  21.250  25.169  1.00  0.00     0.274 C 
ENDROOT
BRANCH   1   2
ATOM      2  O   UNL A   1      36.753  21.212  25.335  1.00  0.00    -0.461 OA
BRANCH   2   3
ATOM      3  C   UNL A   1      36.073  21.968  24.434  1.00  0.00     0.329 C 
ATOM      4  O   UNL A   1      36.631  22.703  23.630  1.00  0.00    -0.250 OA
BRANCH   3   5
ATOM      5  C   UNL A   1      34.552  21.781  24.489  1.00  0.00     0.196 C 
ATOM      6  N   UNL A   1      33.659  22.882  24.913  1.00  0.00    -0.311 N 
ATOM      7  C   UNL A   1      32.234  22.597  24.717  1.00  0.00     0.122 C 
ATOM      8  C   UNL A   1      31.805  21.236  25.282  1.00  0.00     0.022 C 
ATOM      9  C   UNL A   1      34.151  20.422  25.081  1.00  0.00     0.037 C 
ATOM     10  C   UNL A   1      32.693  20.118  24.750  1.00  0.00     0.005 C 
BRANCH   6  11
ATOM     11  C   UNL A   1      33.963  23.639  26.015  1.00  0.00     0.322 C 
ATOM     12  N   UNL A   1      34.060  24.991  25.908  1.00  0.00    -0.305 N 
ATOM     13  H   UNL A   1      34.405  25.406  26.731  1.00  0.00     0.171 HD
ATOM     14  O   UNL A   1      34.089  23.138  27.134  1.00  0.00    -0.248 OA
BRANCH  12  15
ATOM     15  C   UNL A   1      33.786  25.945  24.904  1.00  0.00     0.082 A 
ATOM     16  C   UNL A   1      33.576  26.716  22.638  1.00  0.00     0.121 A 
ATOM     17  C   UNL A   1      33.606  28.050  23.035  1.00  0.00     0.049 A 
ATOM     18  C   UNL A   1      33.535  25.668  23.568  1.00  0.00     0.075 A 
ATOM     19  C   UNL A   1      33.718  28.343  24.383  1.00  0.00     0.045 A 
ATOM     20  C   UNL A   1      33.835  27.296  25.295  1.00  0.00     0.147 A 
ATOM     21  F   UNL A   1      34.049  27.599  26.585  1.00  0.00    -0.205 F 
BRANCH  16  22
ATOM     22  O   UNL A   1      33.697  26.376  21.321  1.00  0.00    -0.497 OA
ATOM     23  C   UNL A   1      32.556  25.630  20.871  1.00  0.00     0.278 C 
ENDBRANCH  16  22
ENDBRANCH  12  15
ENDBRANCH   6  11
ENDBRANCH   3   5
ENDBRANCH   2   3
ENDBRANCH   1   2
BRANCH   1  24
ATOM     24  C   UNL A   1      38.819  19.849  25.117  1.00  0.00     0.275 C 
BRANCH  24  25
ATOM     25  O   UNL A   1      39.633  19.540  26.273  1.00  0.00    -0.458 OA
BRANCH  25  26
ATOM     26  C   UNL A   1      40.980  19.643  26.104  1.00  0.00     0.338 C 
ATOM     27  O   UNL A   1      41.687  18.901  25.453  1.00  0.00    -0.246 OA
BRANCH  26  28
ATOM     28  C   UNL A   1      41.467  20.927  26.671  1.00  0.00     0.060 A 
ATOM     29  C   UNL A   1      42.025  21.872  25.796  1.00  0.00     0.016 A 
ATOM     30  C   UNL A   1      41.369  21.222  28.030  1.00  0.00     0.016 A 
ATOM     31  C   UNL A   1      42.407  23.138  26.253  1.00  0.00     0.010 A 
ATOM     32  C   UNL A   1      41.785  22.478  28.496  1.00  0.00     0.010 A 
ATOM     33  C   UNL A   1      42.280  23.457  27.609  1.00  0.00    -0.014 A 
BRANCH  33  34
ATOM     34  C   UNL A   1      42.733  24.769  28.147  1.00  0.00     0.031 A 
ATOM     35  C   UNL A   1      41.721  25.848  28.351  1.00  0.00     0.074 A 
ATOM     36  C   UNL A   1      44.027  25.031  28.412  1.00  0.00     0.049 A 
ATOM     37  N   UNL A   1      41.907  27.099  28.674  1.00  0.00    -0.248 NA
ATOM     38  C   UNL A   1      40.312  25.458  28.194  1.00  0.00     0.031 C 
ATOM     39  C   UNL A   1      45.096  24.048  28.399  1.00  0.00     0.029 A 
ATOM     40  N   UNL A   1      44.673  26.204  28.719  1.00  0.00    -0.354 N 
ATOM     41  C   UNL A   1      40.640  27.643  28.787  1.00  0.00     0.074 A 
ATOM     42  C   UNL A   1      39.694  26.602  28.444  1.00  0.00     0.031 C 
ATOM     43  C   UNL A   1      46.279  24.657  28.570  1.00  0.00     0.029 A 
ATOM     44  C   UNL A   1      46.046  26.086  28.742  1.00  0.00     0.049 A 
ATOM     45  H   UNL A   1      44.202  27.048  28.903  1.00  0.00     0.167 HD
ATOM     46  C   UNL A   1      40.296  28.893  29.170  1.00  0.00     0.037 A 
ATOM     47  C   UNL A   1      47.007  27.020  28.882  1.00  0.00     0.037 A 
ATOM     48  C   UNL A   1      41.234  29.933  29.491  1.00  0.00     0.049 A 
ATOM     49  C   UNL A   1      46.607  28.445  29.135  1.00  0.00     0.074 A 
ATOM     50  C   UNL A   1      40.971  31.233  29.883  1.00  0.00     0.029 A 
ATOM     51  N   UNL A   1      42.613  29.798  29.445  1.00  0.00    -0.354 N 
ATOM     52  N   UNL A   1      45.403  28.947  29.262  1.00  0.00    -0.248 NA
ATOM     53  C   UNL A   1      47.687  29.431  29.287  1.00  0.00     0.031 C 
ATOM     54  C   UNL A   1      42.192  31.899  30.027  1.00  0.00     0.029 A 
ATOM     55  C   UNL A   1      43.215  31.002  29.767  1.00  0.00     0.049 A 
ATOM     56  H   UNL A   1      43.093  28.968  29.219  1.00  0.00     0.167 HD
ATOM     57  C   UNL A   1      45.580  30.292  29.553  1.00  0.00     0.074 A 
ATOM     58  C   UNL A   1      47.009  30.533  29.575  1.00  0.00     0.031 C 
ATOM     59  C   UNL A   1      44.638  31.234  29.795  1.00  0.00     0.037 A 
BRANCH  46  60
ATOM     60  C   UNL A   1      38.834  29.192  29.241  1.00  0.00     0.057 A 
ATOM     61  C   UNL A   1      38.141  29.084  30.450  1.00  0.00     0.134 A 
ATOM     62  C   UNL A   1      38.116  29.593  28.107  1.00  0.00     0.134 A 
ATOM     63  F   UNL A   1      38.777  28.710  31.570  1.00  0.00    -0.206 F 
ATOM     64  C   UNL A   1      36.778  29.365  30.531  1.00  0.00     0.040 A 
ATOM     65  C   UNL A   1      36.758  29.899  28.180  1.00  0.00     0.040 A 
ATOM     66  F   UNL A   1      38.735  29.736  26.925  1.00  0.00    -0.206 F 
ATOM     67  C   UNL A   1      36.084  29.781  29.395  1.00  0.00     0.006 A 
ENDBRANCH  46  60
BRANCH  47  68
ATOM     68  C   UNL A   1      48.441  26.639  28.807  1.00  0.00     0.057 A 
ATOM     69  C   UNL A   1      49.127  26.614  27.586  1.00  0.00     0.134 A 
ATOM     70  C   UNL A   1      49.165  26.316  29.959  1.00  0.00     0.134 A 
ATOM     71  F   UNL A   1      48.493  26.918  26.445  1.00  0.00    -0.206 F 
ATOM     72  C   UNL A   1      50.482  26.279  27.516  1.00  0.00     0.040 A 
ATOM     73  C   UNL A   1      50.523  25.995  29.906  1.00  0.00     0.040 A 
ATOM     74  F   UNL A   1      48.569  26.344  31.161  1.00  0.00    -0.206 F 
ATOM     75  C   UNL A   1      51.185  25.974  28.680  1.00  0.00     0.006 A 
ENDBRANCH  47  68
BRANCH  59  76
ATOM     76  C   UNL A   1      45.103  32.618  30.130  1.00  0.00     0.057 A 
ATOM     77  C   UNL A   1      45.309  32.997  31.462  1.00  0.00     0.134 A 
ATOM     78  C   UNL A   1      45.240  33.604  29.145  1.00  0.00     0.134 A 
ATOM     79  F   UNL A   1      45.188  32.100  32.452  1.00  0.00    -0.206 F 
ATOM     80  C   UNL A   1      45.607  34.316  31.807  1.00  0.00     0.040 A 
ATOM     81  C   UNL A   1      45.560  34.922  29.476  1.00  0.00     0.040 A 
ATOM     82  F   UNL A   1      45.068  33.299  27.850  1.00  0.00    -0.206 F 
ATOM     83  C   UNL A   1      45.730  35.283  30.812  1.00  0.00     0.006 A 
ENDBRANCH  59  76
ENDBRANCH  33  34
ENDBRANCH  26  28
ENDBRANCH  25  26
ENDBRANCH  24  25
ENDBRANCH   1  24
TORSDOF 14
ENDMDL
MODEL 2
REMARK VINA RESULT:     -11.0      4.382      8.078
REMARK SMILES COc1ccc(F)c(NC(=O)N2CCCC[C@@H]2C(=O)OCCOC(=O)c2ccc(-c3c4nc(c(-c5c(F)cccc5F)c5ccc([nH]5)c(-c5c(F)cccc5F)c5nc(c(-c6c(F)cccc6F)c6ccc3[nH]6)C=C5)C=C4)cc2)c1
REMARK SMILES IDX 21 1 20 2 18 3 19 4 17 5 12 6 13 7 14 8 16 9 15 10 10 11
REMARK SMILES IDX 9 12 11 14 8 15 3 16 4 17 80 18 5 19 6 20 7 21 2 22 1 23
REMARK SMILES IDX 22 24 23 25 24 26 25 27 26 28 27 29 79 30 28 31 78 32 29 33
REMARK SMILES IDX 30 34 31 35 72 36 32 37 77 38 71 39 73 40 33 41 76 42 70 43
REMARK SMILES IDX 69 44 34 46 60 47 43 48 59 49 44 50 47 51 58 52 74 53 45 54
REMARK SMILES IDX 46 55 57 57 75 58 48 59 35 60 36 61 41 62 37 63 38 64 40 65
REMARK SMILES IDX 42 66 39 67 61 68 62 69 67 70 63 71 64 72 66 73 68 74 65 75
REMARK SMILES IDX 49 76 50 77 55 78 51 79 52 80 54 81 56 82 53 83
REMARK H PARENT 9 13 73 45 47 56
REMARK Flexibility Score: inf
ROOT
ATOM      1  C   UNL A   1      38.362  21.567  25.590  1.00  0.00     0.274 C 
ENDROOT
BRANCH   1   2
ATOM      2  O   UNL A   1      37.090  22.233  25.706  1.00  0.00    -0.461 OA
BRANCH   2   3
ATOM      3  C   UNL A   1      36.444  22.398  24.523  1.00  0.00     0.329 C 
ATOM      4  O   UNL A   1      36.974  22.903  23.542  1.00  0.00    -0.250 OA
BRANCH   3   5
ATOM      5  C   UNL A   1      35.010  21.852  24.517  1.00  0.00     0.196 C 
ATOM      6  N   UNL A   1      33.869  22.691  24.948  1.00  0.00    -0.311 N 
ATOM      7  C   UNL A   1      32.559  22.084  24.691  1.00  0.00     0.122 C 
ATOM      8  C   UNL A   1      32.453  20.637  25.193  1.00  0.00     0.022 C 
ATOM      9  C   UNL A   1      34.930  20.413  25.047  1.00  0.00     0.037 C 
ATOM     10  C   UNL A   1      33.596  19.786  24.654  1.00  0.00     0.005 C 
BRANCH   6  11
ATOM     11  C   UNL A   1      33.956  23.451  26.086  1.00  0.00     0.322 C 
ATOM     12  N   UNL A   1      33.930  24.807  26.003  1.00  0.00    -0.305 N 
ATOM     13  H   UNL A   1      34.126  25.237  26.866  1.00  0.00     0.171 HD
ATOM     14  O   UNL A   1      33.988  22.941  27.207  1.00  0.00    -0.248 OA
BRANCH  12  15
ATOM     15  C   UNL A   1      33.692  25.751  24.980  1.00  0.00     0.082 A 
ATOM     16  C   UNL A   1      33.533  26.489  22.699  1.00  0.00     0.121 A 
ATOM     17  C   UNL A   1      33.586  27.829  23.075  1.00  0.00     0.049 A 
ATOM     18  C   UNL A   1      33.455  25.457  23.644  1.00  0.00     0.075 A 
ATOM     19  C   UNL A   1      33.683  28.141  24.420  1.00  0.00     0.045 A 
ATOM     20  C   UNL A   1      33.765  27.106  25.350  1.00  0.00     0.147 A 
ATOM     21  F   UNL A   1      33.966  27.426  26.638  1.00  0.00    -0.205 F 
BRANCH  16  22
ATOM     22  O   UNL A   1      33.666  26.126  21.389  1.00  0.00    -0.497 OA
ATOM     23  C   UNL A   1      32.390  25.841  20.798  1.00  0.00     0.278 C 
ENDBRANCH  16  22
ENDBRANCH  12  15
ENDBRANCH   6  11
ENDBRANCH   3   5
ENDBRANCH   2   3
ENDBRANCH   1   2
BRANCH   1  24
ATOM     24  C   UNL A   1      39.432  22.147  26.533  1.00  0.00     0.275 C 
BRANCH  24  25
ATOM     25  O   UNL A   1      39.457  23.593  26.561  1.00  0.00    -0.458 OA
BRANCH  25  26
ATOM     26  C   UNL A   1      40.686  24.172  26.648  1.00  0.00     0.338 C 
ATOM     27  O   UNL A   1      41.662  23.900  25.979  1.00  0.00    -0.246 OA
BRANCH  26  28
ATOM     28  C   UNL A   1      40.634  25.346  27.556  1.00  0.00     0.060 A 
ATOM     29  C   UNL A   1      39.569  25.438  28.465  1.00  0.00     0.016 A 
ATOM     30  C   UNL A   1      41.614  26.338  27.541  1.00  0.00     0.016 A 
ATOM     31  C   UNL A   1      39.520  26.465  29.414  1.00  0.00     0.010 A 
ATOM     32  C   UNL A   1      41.546  27.389  28.469  1.00  0.00     0.010 A 
ATOM     33  C   UNL A   1      40.516  27.446  29.431  1.00  0.00    -0.014 A 
BRANCH  33  34
ATOM     34  C   UNL A   1      40.467  28.590  30.382  1.00  0.00     0.031 A 
ATOM     35  C   UNL A   1      41.328  28.546  31.601  1.00  0.00     0.074 A 
ATOM     36  C   UNL A   1      39.641  29.639  30.205  1.00  0.00     0.049 A 
ATOM     37  N   UNL A   1      41.345  29.356  32.625  1.00  0.00    -0.248 NA
ATOM     38  C   UNL A   1      42.316  27.459  31.662  1.00  0.00     0.031 C 
ATOM     39  C   UNL A   1      38.856  29.889  29.010  1.00  0.00     0.029 A 
ATOM     40  N   UNL A   1      39.301  30.679  31.037  1.00  0.00    -0.354 N 
ATOM     41  C   UNL A   1      42.363  28.897  33.442  1.00  0.00     0.074 A 
ATOM     42  C   UNL A   1      42.904  27.703  32.824  1.00  0.00     0.031 C 
ATOM     43  C   UNL A   1      38.041  30.936  29.209  1.00  0.00     0.029 A 
ATOM     44  C   UNL A   1      38.274  31.459  30.550  1.00  0.00     0.049 A 
ATOM     45  H   UNL A   1      39.746  30.851  31.897  1.00  0.00     0.167 HD
ATOM     46  C   UNL A   1      42.824  29.438  34.592  1.00  0.00     0.037 A 
ATOM     47  C   UNL A   1      37.595  32.474  31.118  1.00  0.00     0.037 A 
ATOM     48  C   UNL A   1      42.276  30.610  35.217  1.00  0.00     0.049 A 
ATOM     49  C   UNL A   1      38.007  32.955  32.480  1.00  0.00     0.074 A 
ATOM     50  C   UNL A   1      42.678  31.223  36.389  1.00  0.00     0.029 A 
ATOM     51  N   UNL A   1      41.200  31.336  34.731  1.00  0.00    -0.354 N 
ATOM     52  N   UNL A   1      38.988  32.526  33.237  1.00  0.00    -0.248 NA
ATOM     53  C   UNL A   1      37.243  34.068  33.061  1.00  0.00     0.031 C 
ATOM     54  C   UNL A   1      41.814  32.294  36.638  1.00  0.00     0.029 A 
ATOM     55  C   UNL A   1      40.902  32.373  35.599  1.00  0.00     0.049 A 
ATOM     56  H   UNL A   1      40.720  31.145  33.892  1.00  0.00     0.167 HD
ATOM     57  C   UNL A   1      38.988  33.344  34.358  1.00  0.00     0.074 A 
ATOM     58  C   UNL A   1      37.904  34.290  34.189  1.00  0.00     0.031 C 
ATOM     59  C   UNL A   1      39.826  33.317  35.421  1.00  0.00     0.037 A 
BRANCH  46  60
ATOM     60  C   UNL A   1      43.973  28.741  35.245  1.00  0.00     0.057 A 
ATOM     61  C   UNL A   1      45.290  29.060  34.902  1.00  0.00     0.134 A 
ATOM     62  C   UNL A   1      43.769  27.756  36.220  1.00  0.00     0.134 A 
ATOM     63  F   UNL A   1      45.546  29.999  33.979  1.00  0.00    -0.206 F 
ATOM     64  C   UNL A   1      46.371  28.422  35.509  1.00  0.00     0.040 A 
ATOM     65  C   UNL A   1      44.843  27.127  36.850  1.00  0.00     0.040 A 
ATOM     66  F   UNL A   1      42.527  27.427  36.606  1.00  0.00    -0.206 F 
ATOM     67  C   UNL A   1      46.149  27.456  36.490  1.00  0.00     0.006 A 
ENDBRANCH  46  60
BRANCH  47  68
ATOM     68  C   UNL A   1      36.468  33.121  30.398  1.00  0.00     0.057 A 
ATOM     69  C   UNL A   1      36.693  34.038  29.363  1.00  0.00     0.134 A 
ATOM     70  C   UNL A   1      35.140  32.817  30.711  1.00  0.00     0.134 A 
ATOM     71  F   UNL A   1      37.943  34.368  29.009  1.00  0.00    -0.206 F 
ATOM     72  C   UNL A   1      35.635  34.629  28.667  1.00  0.00     0.040 A 
ATOM     73  C   UNL A   1      34.073  33.388  30.014  1.00  0.00     0.040 A 
ATOM     74  F   UNL A   1      34.861  31.929  31.678  1.00  0.00    -0.206 F 
ATOM     75  C   UNL A   1      34.320  34.300  28.989  1.00  0.00     0.006 A 
ENDBRANCH  47  68
BRANCH  59  76
ATOM     76  C   UNL A   1      39.634  34.349  36.490  1.00  0.00     0.057 A 
ATOM     77  C   UNL A   1      40.248  35.603  36.386  1.00  0.00     0.134 A 
ATOM     78  C   UNL A   1      38.933  34.064  37.668  1.00  0.00     0.134 A 
ATOM     79  F   UNL A   1      40.938  35.935  35.285  1.00  0.00    -0.206 F 
ATOM     80  C   UNL A   1      40.197  36.528  37.430  1.00  0.00     0.040 A 
ATOM     81  C   UNL A   1      38.856  34.989  38.710  1.00  0.00     0.040 A 
ATOM     82  F   UNL A   1      38.312  32.884  37.820  1.00  0.00    -0.206 F 
ATOM     83  C   UNL A   1      39.502  36.220  38.597  1.00  0.00     0.006 A 
ENDBRANCH  59  76
ENDBRANCH  33  34
ENDBRANCH  26  28
ENDBRANCH  25  26
ENDBRANCH  24  25
ENDBRANCH   1  24
TORSDOF 14
ENDMDL
MODEL 3
REMARK VINA RESULT:     -11.0      2.368      7.229
REMARK SMILES COc1ccc(F)c(NC(=O)N2CCCC[C@@H]2C(=O)OCCOC(=O)c2ccc(-c3c4nc(c(-c5c(F)cccc5F)c5ccc([nH]5)c(-c5c(F)cccc5F)c5nc(c(-c6c(F)cccc6F)c6ccc3[nH]6)C=C5)C=C4)cc2)c1
REMARK SMILES IDX 21 1 20 2 18 3 19 4 17 5 12 6 13 7 14 8 16 9 15 10 10 11
REMARK SMILES IDX 9 12 11 14 8 15 3 16 4 17 80 18 5 19 6 20 7 21 2 22 1 23
REMARK SMILES IDX 22 24 23 25 24 26 25 27 26 28 27 29 79 30 28 31 78 32 29 33
REMARK SMILES IDX 30 34 31 35 72 36 32 37 77 38 71 39 73 40 33 41 76 42 70 43
REMARK SMILES IDX 69 44 34 46 60 47 43 48 59 49 44 50 47 51 58 52 74 53 45 54
REMARK SMILES IDX 46 55 57 57 75 58 48 59 35 60 36 61 41 62 37 63 38 64 40 65
REMARK SMILES IDX 42 66 39 67 61 68 62 69 67 70 63 71 64 72 66 73 68 74 65 75
REMARK SMILES IDX 49 76 50 77 55 78 51 79 52 80 54 81 56 82 53 83
REMARK H PARENT 9 13 73 45 47 56
REMARK Flexibility Score: inf
ROOT
ATOM      1  C   UNL A   1      33.541  28.315  25.183  1.00  0.00     0.274 C 
ENDROOT
BRANCH   1   2
ATOM      2  O   UNL A   1      34.124  28.550  23.887  1.00  0.00    -0.461 OA
BRANCH   2   3
ATOM      3  C   UNL A   1      33.608  27.770  22.901  1.00  0.00     0.329 C 
ATOM      4  O   UNL A   1      34.019  27.802  21.748  1.00  0.00    -0.250 OA
BRANCH   3   5
ATOM      5  C   UNL A   1      32.502  26.820  23.375  1.00  0.00     0.196 C 
ATOM      6  N   UNL A   1      32.732  25.362  23.468  1.00  0.00    -0.311 N 
ATOM      7  C   UNL A   1      31.643  24.631  24.124  1.00  0.00     0.122 C 
ATOM      8  C   UNL A   1      30.257  24.977  23.563  1.00  0.00     0.022 C 
ATOM      9  C   UNL A   1      31.132  27.174  22.779  1.00  0.00     0.037 C 
ATOM     10  C   UNL A   1      30.024  26.483  23.568  1.00  0.00     0.005 C 
BRANCH   6  11
ATOM     11  C   UNL A   1      33.365  24.691  22.452  1.00  0.00     0.322 C 
ATOM     12  N   UNL A   1      34.365  23.815  22.734  1.00  0.00    -0.305 N 
ATOM     13  H   UNL A   1      34.820  23.497  21.922  1.00  0.00     0.171 HD
ATOM     14  O   UNL A   1      33.009  24.805  21.278  1.00  0.00    -0.248 OA
BRANCH  12  15
ATOM     15  C   UNL A   1      34.910  23.249  23.906  1.00  0.00     0.082 A 
ATOM     16  C   UNL A   1      36.578  22.975  25.615  1.00  0.00     0.121 A 
ATOM     17  C   UNL A   1      36.043  21.752  26.012  1.00  0.00     0.049 A 
ATOM     18  C   UNL A   1      35.946  23.784  24.659  1.00  0.00     0.075 A 
ATOM     19  C   UNL A   1      34.922  21.270  25.359  1.00  0.00     0.045 A 
ATOM     20  C   UNL A   1      34.388  22.004  24.301  1.00  0.00     0.147 A 
ATOM     21  F   UNL A   1      33.367  21.471  23.612  1.00  0.00    -0.205 F 
BRANCH  16  22
ATOM     22  O   UNL A   1      37.801  23.382  26.064  1.00  0.00    -0.497 OA
ATOM     23  C   UNL A   1      38.735  22.292  26.082  1.00  0.00     0.278 C 
ENDBRANCH  16  22
ENDBRANCH  12  15
ENDBRANCH   6  11
ENDBRANCH   3   5
ENDBRANCH   2   3
ENDBRANCH   1   2
BRANCH   1  24
ATOM     24  C   UNL A   1      33.445  29.591  26.038  1.00  0.00     0.275 C 
BRANCH  24  25
ATOM     25  O   UNL A   1      33.922  29.418  27.393  1.00  0.00    -0.458 OA
BRANCH  25  26
ATOM     26  C   UNL A   1      34.608  30.466  27.927  1.00  0.00     0.338 C 
ATOM     27  O   UNL A   1      34.147  31.540  28.256  1.00  0.00    -0.246 OA
BRANCH  26  28
ATOM     28  C   UNL A   1      35.998  30.053  28.250  1.00  0.00     0.060 A 
ATOM     29  C   UNL A   1      36.269  29.584  29.544  1.00  0.00     0.016 A 
ATOM     30  C   UNL A   1      37.024  30.103  27.307  1.00  0.00     0.016 A 
ATOM     31  C   UNL A   1      37.533  29.085  29.878  1.00  0.00     0.010 A 
ATOM     32  C   UNL A   1      38.302  29.637  27.652  1.00  0.00     0.010 A 
ATOM     33  C   UNL A   1      38.560  29.098  28.930  1.00  0.00    -0.014 A 
BRANCH  33  34
ATOM     34  C   UNL A   1      39.935  28.636  29.263  1.00  0.00     0.031 A 
ATOM     35  C   UNL A   1      40.874  29.592  29.922  1.00  0.00     0.074 A 
ATOM     36  C   UNL A   1      40.376  27.402  28.949  1.00  0.00     0.049 A 
ATOM     37  N   UNL A   1      42.147  29.453  30.175  1.00  0.00    -0.248 NA
ATOM     38  C   UNL A   1      40.293  30.863  30.379  1.00  0.00     0.031 C 
ATOM     39  C   UNL A   1      39.547  26.325  28.440  1.00  0.00     0.029 A 
ATOM     40  N   UNL A   1      41.634  26.850  28.985  1.00  0.00    -0.354 N 
ATOM     41  C   UNL A   1      42.519  30.604  30.845  1.00  0.00     0.074 A 
ATOM     42  C   UNL A   1      41.351  31.458  30.911  1.00  0.00     0.031 C 
ATOM     43  C   UNL A   1      40.313  25.278  28.102  1.00  0.00     0.029 A 
ATOM     44  C   UNL A   1      41.702  25.600  28.406  1.00  0.00     0.049 A 
ATOM     45  H   UNL A   1      42.412  27.302  29.384  1.00  0.00     0.167 HD
ATOM     46  C   UNL A   1      43.721  30.910  31.382  1.00  0.00     0.037 A 
ATOM     47  C   UNL A   1      42.760  24.808  28.148  1.00  0.00     0.037 A 
ATOM     48  C   UNL A   1      44.886  30.074  31.300  1.00  0.00     0.049 A 
ATOM     49  C   UNL A   1      44.125  25.244  28.597  1.00  0.00     0.074 A 
ATOM     50  C   UNL A   1      46.149  30.311  31.811  1.00  0.00     0.029 A 
ATOM     51  N   UNL A   1      44.936  28.847  30.655  1.00  0.00    -0.354 N 
ATOM     52  N   UNL A   1      44.464  26.328  29.250  1.00  0.00    -0.248 NA
ATOM     53  C   UNL A   1      45.251  24.347  28.299  1.00  0.00     0.031 C 
ATOM     54  C   UNL A   1      46.977  29.249  31.433  1.00  0.00     0.029 A 
ATOM     55  C   UNL A   1      46.219  28.331  30.725  1.00  0.00     0.049 A 
ATOM     56  H   UNL A   1      44.172  28.408  30.215  1.00  0.00     0.167 HD
ATOM     57  C   UNL A   1      45.828  26.222  29.482  1.00  0.00     0.074 A 
ATOM     58  C   UNL A   1      46.260  24.973  28.890  1.00  0.00     0.031 C 
ATOM     59  C   UNL A   1      46.640  27.082  30.141  1.00  0.00     0.037 A 
BRANCH  46  60
ATOM     60  C   UNL A   1      43.822  32.222  32.091  1.00  0.00     0.057 A 
ATOM     61  C   UNL A   1      43.563  32.315  33.461  1.00  0.00     0.134 A 
ATOM     62  C   UNL A   1      44.183  33.392  31.410  1.00  0.00     0.134 A 
ATOM     63  F   UNL A   1      43.218  31.227  34.165  1.00  0.00    -0.206 F 
ATOM     64  C   UNL A   1      43.659  33.532  34.135  1.00  0.00     0.040 A 
ATOM     65  C   UNL A   1      44.305  34.610  32.078  1.00  0.00     0.040 A 
ATOM     66  F   UNL A   1      44.466  33.357  30.099  1.00  0.00    -0.206 F 
ATOM     67  C   UNL A   1      44.038  34.683  33.444  1.00  0.00     0.006 A 
ENDBRANCH  46  60
BRANCH  47  68
ATOM     68  C   UNL A   1      42.574  23.512  27.445  1.00  0.00     0.057 A 
ATOM     69  C   UNL A   1      42.664  23.418  26.050  1.00  0.00     0.134 A 
ATOM     70  C   UNL A   1      42.326  22.333  28.155  1.00  0.00     0.134 A 
ATOM     71  F   UNL A   1      42.906  24.510  25.311  1.00  0.00    -0.206 F 
ATOM     72  C   UNL A   1      42.514  22.197  25.388  1.00  0.00     0.040 A 
ATOM     73  C   UNL A   1      42.189  21.103  27.508  1.00  0.00     0.040 A 
ATOM     74  F   UNL A   1      42.251  22.356  29.494  1.00  0.00    -0.206 F 
ATOM     75  C   UNL A   1      42.280  21.033  26.119  1.00  0.00     0.006 A 
ENDBRANCH  47  68
BRANCH  59  76
ATOM     76  C   UNL A   1      48.084  26.707  30.287  1.00  0.00     0.057 A 
ATOM     77  C   UNL A   1      49.018  27.080  29.313  1.00  0.00     0.134 A 
ATOM     78  C   UNL A   1      48.527  25.888  31.332  1.00  0.00     0.134 A 
ATOM     79  F   UNL A   1      48.654  27.859  28.283  1.00  0.00    -0.206 F 
ATOM     80  C   UNL A   1      50.337  26.626  29.356  1.00  0.00     0.040 A 
ATOM     81  C   UNL A   1      49.849  25.446  31.399  1.00  0.00     0.040 A 
ATOM     82  F   UNL A   1      47.682  25.509  32.304  1.00  0.00    -0.206 F 
ATOM     83  C   UNL A   1      50.754  25.804  30.400  1.00  0.00     0.006 A 
ENDBRANCH  59  76
ENDBRANCH  33  34
ENDBRANCH  26  28
ENDBRANCH  25  26
ENDBRANCH  24  25
ENDBRANCH   1  24
TORSDOF 14
ENDMDL
