MODEL 1
REMARK VINA RESULT:     -12.2      0.000      0.000
REMARK SMILES O=C(OCCOC(=O)[C@H]1O[C@@H](Oc2c(-c3cc(O)c(O)c(O)c3)oc3cc(O)cc(O)c3c2=O)[C@H](O)[C@@H](O)[C@@H]1O)c1ccc(-c2c3nc(c(-c4c(F)cccc4F)c4ccc([nH]4)c(-c4c(F)cccc4F)c4nc(c(-c5c(F)cccc5F)c5ccc2[nH]5)C=C4)C=C3)cc1
REMARK SMILES IDX 5 1 4 2 3 3 2 4 1 5 41 6 42 7 94 8 43 9 93 10 44 11 45 12
REMARK SMILES IDX 46 13 87 14 47 15 92 16 86 17 88 18 48 19 91 20 85 21 84 22
REMARK SMILES IDX 49 24 75 25 58 26 74 27 59 28 62 29 73 30 89 31 60 32 61 33
REMARK SMILES IDX 72 35 90 36 63 37 50 38 51 39 56 40 52 41 53 42 55 43 57 44
REMARK SMILES IDX 54 45 76 46 77 47 82 48 78 49 79 50 81 51 83 52 80 53 64 54
REMARK SMILES IDX 65 55 70 56 66 57 67 58 69 59 71 60 68 61 6 62 7 63 8 64
REMARK SMILES IDX 9 65 10 66 39 67 11 68 37 69 35 70 40 71 12 73 13 74 14 75
REMARK SMILES IDX 33 76 24 77 32 78 34 79 25 80 30 81 26 82 29 83 27 84 15 85
REMARK SMILES IDX 16 86 23 87 17 88 21 89 19 90 18 91 22 93 20 95 31 97 28 99
REMARK SMILES IDX 38 101 36 103
REMARK H PARENT 88 23 62 34 40 72 18 92 22 94 20 96 31 98 28 100 38 102 36 104
REMARK Flexibility Score: inf
ROOT
ATOM      1  C   UNL A   1      31.709  28.779  26.669  1.00  0.00     0.274 C 
ENDROOT
BRANCH   1   2
ATOM      2  C   UNL A   1      33.162  28.641  27.120  1.00  0.00     0.275 C 
BRANCH   2   3
ATOM      3  O   UNL A   1      33.963  29.821  26.971  1.00  0.00    -0.458 OA
BRANCH   3   4
ATOM      4  C   UNL A   1      34.644  30.499  27.921  1.00  0.00     0.338 C 
ATOM      5  O   UNL A   1      34.193  31.568  28.334  1.00  0.00    -0.246 OA
BRANCH   4   6
ATOM      6  C   UNL A   1      35.992  30.081  28.416  1.00  0.00     0.060 A 
ATOM      7  C   UNL A   1      36.321  29.675  29.715  1.00  0.00     0.016 A 
ATOM      8  C   UNL A   1      37.022  30.137  27.472  1.00  0.00     0.016 A 
ATOM      9  C   UNL A   1      37.627  29.261  30.043  1.00  0.00     0.010 A 
ATOM     10  C   UNL A   1      38.314  29.723  27.793  1.00  0.00     0.010 A 
ATOM     11  C   UNL A   1      38.637  29.278  29.081  1.00  0.00    -0.014 A 
BRANCH  11  12
ATOM     12  C   UNL A   1      40.067  28.981  29.378  1.00  0.00     0.031 A 
ATOM     13  C   UNL A   1      40.933  30.147  29.778  1.00  0.00     0.074 A 
ATOM     14  C   UNL A   1      40.617  27.781  29.100  1.00  0.00     0.049 A 
ATOM     15  N   UNL A   1      42.223  30.304  29.647  1.00  0.00    -0.248 NA
ATOM     16  C   UNL A   1      40.224  31.330  30.296  1.00  0.00     0.031 C 
ATOM     17  C   UNL A   1      39.889  26.604  28.629  1.00  0.00     0.029 A 
ATOM     18  N   UNL A   1      41.938  27.382  29.079  1.00  0.00    -0.354 N 
ATOM     19  C   UNL A   1      42.472  31.623  30.026  1.00  0.00     0.074 A 
ATOM     20  C   UNL A   1      41.195  32.229  30.328  1.00  0.00     0.031 C 
ATOM     21  C   UNL A   1      40.770  25.657  28.256  1.00  0.00     0.029 A 
ATOM     22  C   UNL A   1      42.123  26.168  28.442  1.00  0.00     0.049 A 
ATOM     23  H   UNL A   1      42.671  27.904  29.476  1.00  0.00     0.167 HD
ATOM     24  C   UNL A   1      43.662  32.260  30.138  1.00  0.00     0.037 A 
ATOM     25  C   UNL A   1      43.245  25.595  27.957  1.00  0.00     0.037 A 
ATOM     26  C   UNL A   1      44.926  31.607  29.936  1.00  0.00     0.049 A 
ATOM     27  C   UNL A   1      44.563  26.315  28.102  1.00  0.00     0.074 A 
ATOM     28  C   UNL A   1      46.197  32.076  30.217  1.00  0.00     0.029 A 
ATOM     29  N   UNL A   1      45.074  30.336  29.409  1.00  0.00    -0.354 N 
ATOM     30  N   UNL A   1      44.794  27.523  28.559  1.00  0.00    -0.248 NA
ATOM     31  C   UNL A   1      45.762  25.612  27.621  1.00  0.00     0.031 C 
ATOM     32  C   UNL A   1      47.116  31.096  29.830  1.00  0.00     0.029 A 
ATOM     33  C   UNL A   1      46.412  30.005  29.347  1.00  0.00     0.049 A 
ATOM     34  H   UNL A   1      44.333  29.754  29.121  1.00  0.00     0.167 HD
ATOM     35  C   UNL A   1      46.171  27.702  28.464  1.00  0.00     0.074 A 
ATOM     36  C   UNL A   1      46.715  26.495  27.881  1.00  0.00     0.031 C 
ATOM     37  C   UNL A   1      46.924  28.762  28.840  1.00  0.00     0.037 A 
BRANCH  24  38
ATOM     38  C   UNL A   1      43.669  33.710  30.535  1.00  0.00     0.057 A 
ATOM     39  C   UNL A   1      43.754  34.117  31.873  1.00  0.00     0.134 A 
ATOM     40  C   UNL A   1      43.660  34.716  29.559  1.00  0.00     0.134 A 
ATOM     41  F   UNL A   1      43.770  33.208  32.859  1.00  0.00    -0.206 F 
ATOM     42  C   UNL A   1      43.799  35.466  32.227  1.00  0.00     0.040 A 
ATOM     43  C   UNL A   1      43.736  36.068  29.899  1.00  0.00     0.040 A 
ATOM     44  F   UNL A   1      43.587  34.400  28.256  1.00  0.00    -0.206 F 
ATOM     45  C   UNL A   1      43.799  36.446  31.238  1.00  0.00     0.006 A 
ENDBRANCH  24  38
BRANCH  25  46
ATOM     46  C   UNL A   1      43.184  24.392  27.085  1.00  0.00     0.057 A 
ATOM     47  C   UNL A   1      43.326  23.100  27.600  1.00  0.00     0.134 A 
ATOM     48  C   UNL A   1      43.136  24.528  25.690  1.00  0.00     0.134 A 
ATOM     49  F   UNL A   1      43.433  22.912  28.923  1.00  0.00    -0.206 F 
ATOM     50  C   UNL A   1      43.452  21.989  26.760  1.00  0.00     0.040 A 
ATOM     51  C   UNL A   1      43.235  23.427  24.841  1.00  0.00     0.040 A 
ATOM     52  F   UNL A   1      43.042  25.743  25.132  1.00  0.00    -0.206 F 
ATOM     53  C   UNL A   1      43.408  22.153  25.375  1.00  0.00     0.006 A 
ENDBRANCH  25  46
BRANCH  37  54
ATOM     54  C   UNL A   1      48.411  28.589  28.817  1.00  0.00     0.057 A 
ATOM     55  C   UNL A   1      49.131  28.054  29.889  1.00  0.00     0.134 A 
ATOM     56  C   UNL A   1      49.120  28.930  27.657  1.00  0.00     0.134 A 
ATOM     57  F   UNL A   1      48.509  27.730  31.033  1.00  0.00    -0.206 F 
ATOM     58  C   UNL A   1      50.513  27.871  29.811  1.00  0.00     0.040 A 
ATOM     59  C   UNL A   1      50.495  28.732  27.560  1.00  0.00     0.040 A 
ATOM     60  F   UNL A   1      48.479  29.446  26.597  1.00  0.00    -0.206 F 
ATOM     61  C   UNL A   1      51.196  28.202  28.640  1.00  0.00     0.006 A 
ENDBRANCH  37  54
ENDBRANCH  11  12
ENDBRANCH   4   6
ENDBRANCH   3   4
ENDBRANCH   2   3
ENDBRANCH   1   2
BRANCH   1  62
ATOM     62  O   UNL A   1      31.141  27.553  26.185  1.00  0.00    -0.460 OA
BRANCH  62  63
ATOM     63  C   UNL A   1      31.068  27.437  24.827  1.00  0.00     0.338 C 
ATOM     64  O   UNL A   1      30.259  28.047  24.128  1.00  0.00    -0.249 OA
BRANCH  63  65
ATOM     65  C   UNL A   1      32.075  26.427  24.253  1.00  0.00     0.263 C 
ATOM     66  O   UNL A   1      31.999  25.069  24.740  1.00  0.00    -0.322 OA
ATOM     67  C   UNL A   1      32.021  26.418  22.721  1.00  0.00     0.186 C 
ATOM     68  C   UNL A   1      33.182  24.318  24.400  1.00  0.00     0.340 C 
ATOM     69  C   UNL A   1      33.254  25.676  22.223  1.00  0.00     0.181 C 
ATOM     70  C   UNL A   1      33.403  24.300  22.868  1.00  0.00     0.214 C 
BRANCH  67  71
ATOM     71  O   UNL A   1      32.047  27.727  22.137  1.00  0.00    -0.387 OA
ATOM     72  H   UNL A   1      31.278  28.232  22.443  1.00  0.00     0.211 HD
ENDBRANCH  67  71
BRANCH  68  73
ATOM     73  O   UNL A   1      33.339  23.000  25.000  1.00  0.00    -0.454 OA
BRANCH  73  74
ATOM     74  C   UNL A   1      34.539  22.348  25.217  1.00  0.00     0.214 A 
ATOM     75  C   UNL A   1      34.832  21.099  24.781  1.00  0.00     0.181 A 
ATOM     76  C   UNL A   1      35.729  23.179  25.622  1.00  0.00     0.239 A 
ATOM     77  O   UNL A   1      36.044  20.459  24.923  1.00  0.00    -0.452 OA
ATOM     78  C   UNL A   1      37.047  22.495  25.757  1.00  0.00     0.111 A 
ATOM     79  O   UNL A   1      35.593  24.387  25.815  1.00  0.00    -0.285 OA
ATOM     80  C   UNL A   1      37.109  21.146  25.424  1.00  0.00     0.146 A 
ATOM     81  C   UNL A   1      38.229  23.115  26.193  1.00  0.00     0.134 A 
ATOM     82  C   UNL A   1      38.290  20.410  25.562  1.00  0.00     0.094 A 
ATOM     83  C   UNL A   1      39.419  22.384  26.347  1.00  0.00     0.093 A 
ATOM     84  C   UNL A   1      39.432  21.029  26.042  1.00  0.00     0.123 A 
BRANCH  75  85
ATOM     85  C   UNL A   1      33.860  20.198  24.158  1.00  0.00     0.029 A 
ATOM     86  C   UNL A   1      33.004  20.741  23.190  1.00  0.00     0.062 A 
ATOM     87  C   UNL A   1      33.789  18.832  24.474  1.00  0.00     0.062 A 
ATOM     88  C   UNL A   1      32.227  19.887  22.432  1.00  0.00     0.162 A 
ATOM     89  C   UNL A   1      32.955  18.006  23.731  1.00  0.00     0.162 A 
ATOM     90  C   UNL A   1      32.217  18.526  22.680  1.00  0.00     0.200 A 
BRANCH  88  91
ATOM     91  O   UNL A   1      31.517  20.326  21.367  1.00  0.00    -0.504 OA
ATOM     92  H   UNL A   1      30.580  20.362  21.411  1.00  0.00     0.293 HD
ENDBRANCH  88  91
BRANCH  89  93
ATOM     93  O   UNL A   1      32.917  16.666  23.983  1.00  0.00    -0.504 OA
ATOM     94  H   UNL A   1      33.238  16.060  23.345  1.00  0.00     0.293 HD
ENDBRANCH  89  93
BRANCH  90  95
ATOM     95  O   UNL A   1      31.535  17.689  21.840  1.00  0.00    -0.502 OA
ATOM     96  H   UNL A   1      31.529  16.765  22.002  1.00  0.00     0.293 HD
ENDBRANCH  90  95
ENDBRANCH  75  85
BRANCH  81  97
ATOM     97  O   UNL A   1      38.250  24.450  26.478  1.00  0.00    -0.507 OA
ATOM     98  H   UNL A   1      38.920  24.800  27.031  1.00  0.00     0.293 HD
ENDBRANCH  81  97
BRANCH  84  99
ATOM     99  O   UNL A   1      40.551  20.265  26.196  1.00  0.00    -0.508 OA
ATOM    100  H   UNL A   1      41.029  20.291  27.002  1.00  0.00     0.293 HD
ENDBRANCH  84  99
ENDBRANCH  73  74
ENDBRANCH  68  73
BRANCH  69 101
ATOM    101  O   UNL A   1      33.202  25.603  20.786  1.00  0.00    -0.387 OA
ATOM    102  H   UNL A   1      32.411  25.113  20.515  1.00  0.00     0.211 HD
ENDBRANCH  69 101
BRANCH  70 103
ATOM    103  O   UNL A   1      34.722  23.846  22.560  1.00  0.00    -0.384 OA
ATOM    104  H   UNL A   1      34.739  23.490  21.658  1.00  0.00     0.211 HD
ENDBRANCH  70 103
ENDBRANCH  63  65
ENDBRANCH  62  63
ENDBRANCH   1  62
TORSDOF 22
ENDMDL
MODEL 2
REMARK VINA RESULT:     -12.2      2.288      7.153
REMARK SMILES O=C(OCCOC(=O)[C@H]1O[C@@H](Oc2c(-c3cc(O)c(O)c(O)c3)oc3cc(O)cc(O)c3c2=O)[C@H](O)[C@@H](O)[C@@H]1O)c1ccc(-c2c3nc(c(-c4c(F)cccc4F)c4ccc([nH]4)c(-c4c(F)cccc4F)c4nc(c(-c5c(F)cccc5F)c5ccc2[nH]5)C=C4)C=C3)cc1
REMARK SMILES IDX 5 1 4 2 3 3 2 4 1 5 41 6 42 7 94 8 43 9 93 10 44 11 45 12
REMARK SMILES IDX 46 13 87 14 47 15 92 16 86 17 88 18 48 19 91 20 85 21 84 22
REMARK SMILES IDX 49 24 75 25 58 26 74 27 59 28 62 29 73 30 89 31 60 32 61 33
REMARK SMILES IDX 72 35 90 36 63 37 50 38 51 39 56 40 52 41 53 42 55 43 57 44
REMARK SMILES IDX 54 45 76 46 77 47 82 48 78 49 79 50 81 51 83 52 80 53 64 54
REMARK SMILES IDX 65 55 70 56 66 57 67 58 69 59 71 60 68 61 6 62 7 63 8 64
REMARK SMILES IDX 9 65 10 66 39 67 11 68 37 69 35 70 40 71 12 73 13 74 14 75
REMARK SMILES IDX 33 76 24 77 32 78 34 79 25 80 30 81 26 82 29 83 27 84 15 85
REMARK SMILES IDX 16 86 23 87 17 88 21 89 19 90 18 91 22 93 20 95 31 97 28 99
REMARK SMILES IDX 38 101 36 103
REMARK H PARENT 88 23 62 34 40 72 18 92 22 94 20 96 31 98 28 100 38 102 36 104
REMARK Flexibility Score: inf
ROOT
ATOM      1  C   UNL A   1      34.354  21.402  25.232  1.00  0.00     0.274 C 
ENDROOT
BRANCH   1   2
ATOM      2  C   UNL A   1      35.782  21.500  24.700  1.00  0.00     0.275 C 
BRANCH   2   3
ATOM      3  O   UNL A   1      36.750  21.996  25.634  1.00  0.00    -0.458 OA
BRANCH   3   4
ATOM      4  C   UNL A   1      38.072  21.723  25.695  1.00  0.00     0.338 C 
ATOM      5  O   UNL A   1      38.481  20.640  25.275  1.00  0.00    -0.246 OA
BRANCH   4   6
ATOM      6  C   UNL A   1      39.063  22.620  26.367  1.00  0.00     0.060 A 
ATOM      7  C   UNL A   1      40.106  22.233  27.217  1.00  0.00     0.016 A 
ATOM      8  C   UNL A   1      38.892  23.987  26.128  1.00  0.00     0.016 A 
ATOM      9  C   UNL A   1      41.002  23.178  27.752  1.00  0.00     0.010 A 
ATOM     10  C   UNL A   1      39.782  24.925  26.652  1.00  0.00     0.010 A 
ATOM     11  C   UNL A   1      40.850  24.536  27.471  1.00  0.00    -0.014 A 
BRANCH  11  12
ATOM     12  C   UNL A   1      41.673  25.608  28.098  1.00  0.00     0.031 A 
ATOM     13  C   UNL A   1      40.929  26.685  28.845  1.00  0.00     0.074 A 
ATOM     14  C   UNL A   1      42.990  25.739  27.840  1.00  0.00     0.049 A 
ATOM     15  N   UNL A   1      41.277  27.922  29.078  1.00  0.00    -0.248 NA
ATOM     16  C   UNL A   1      39.568  26.340  29.289  1.00  0.00     0.031 C 
ATOM     17  C   UNL A   1      43.797  24.800  27.060  1.00  0.00     0.029 A 
ATOM     18  N   UNL A   1      43.864  26.768  28.122  1.00  0.00    -0.354 N 
ATOM     19  C   UNL A   1      40.156  28.515  29.659  1.00  0.00     0.074 A 
ATOM     20  C   UNL A   1      39.109  27.518  29.680  1.00  0.00     0.031 C 
ATOM     21  C   UNL A   1      45.007  25.341  26.827  1.00  0.00     0.029 A 
ATOM     22  C   UNL A   1      45.053  26.673  27.421  1.00  0.00     0.049 A 
ATOM     23  H   UNL A   1      43.664  27.494  28.756  1.00  0.00     0.167 HD
ATOM     24  C   UNL A   1      40.022  29.769  30.153  1.00  0.00     0.037 A 
ATOM     25  C   UNL A   1      46.008  27.597  27.187  1.00  0.00     0.037 A 
ATOM     26  C   UNL A   1      41.108  30.708  30.219  1.00  0.00     0.049 A 
ATOM     27  C   UNL A   1      45.849  28.985  27.757  1.00  0.00     0.074 A 
ATOM     28  C   UNL A   1      41.162  31.923  30.877  1.00  0.00     0.029 A 
ATOM     29  N   UNL A   1      42.336  30.527  29.607  1.00  0.00    -0.354 N 
ATOM     30  N   UNL A   1      44.823  29.498  28.395  1.00  0.00    -0.248 NA
ATOM     31  C   UNL A   1      46.954  29.929  27.533  1.00  0.00     0.031 C 
ATOM     32  C   UNL A   1      42.417  32.491  30.637  1.00  0.00     0.029 A 
ATOM     33  C   UNL A   1      43.153  31.610  29.863  1.00  0.00     0.049 A 
ATOM     34  H   UNL A   1      42.588  29.742  29.068  1.00  0.00     0.167 HD
ATOM     35  C   UNL A   1      45.184  30.810  28.688  1.00  0.00     0.074 A 
ATOM     36  C   UNL A   1      46.504  31.019  28.135  1.00  0.00     0.031 C 
ATOM     37  C   UNL A   1      44.495  31.755  29.369  1.00  0.00     0.037 A 
BRANCH  24  38
ATOM     38  C   UNL A   1      38.688  30.190  30.702  1.00  0.00     0.057 A 
ATOM     39  C   UNL A   1      38.281  29.867  32.004  1.00  0.00     0.134 A 
ATOM     40  C   UNL A   1      37.824  30.989  29.941  1.00  0.00     0.134 A 
ATOM     41  F   UNL A   1      39.059  29.108  32.790  1.00  0.00    -0.206 F 
ATOM     42  C   UNL A   1      37.055  30.296  32.516  1.00  0.00     0.040 A 
ATOM     43  C   UNL A   1      36.609  31.450  30.453  1.00  0.00     0.040 A 
ATOM     44  F   UNL A   1      38.152  31.343  28.688  1.00  0.00    -0.206 F 
ATOM     45  C   UNL A   1      36.219  31.098  31.743  1.00  0.00     0.006 A 
ENDBRANCH  24  38
BRANCH  25  46
ATOM     46  C   UNL A   1      47.092  27.355  26.198  1.00  0.00     0.057 A 
ATOM     47  C   UNL A   1      46.886  27.514  24.824  1.00  0.00     0.134 A 
ATOM     48  C   UNL A   1      48.318  26.810  26.607  1.00  0.00     0.134 A 
ATOM     49  F   UNL A   1      45.714  27.978  24.370  1.00  0.00    -0.206 F 
ATOM     50  C   UNL A   1      47.846  27.111  23.891  1.00  0.00     0.040 A 
ATOM     51  C   UNL A   1      49.295  26.427  25.689  1.00  0.00     0.040 A 
ATOM     52  F   UNL A   1      48.562  26.595  27.908  1.00  0.00    -0.206 F 
ATOM     53  C   UNL A   1      49.055  26.564  24.324  1.00  0.00     0.006 A 
ENDBRANCH  25  46
BRANCH  37  54
ATOM     54  C   UNL A   1      45.223  33.015  29.720  1.00  0.00     0.057 A 
ATOM     55  C   UNL A   1      46.034  33.134  30.852  1.00  0.00     0.134 A 
ATOM     56  C   UNL A   1      45.135  34.118  28.859  1.00  0.00     0.134 A 
ATOM     57  F   UNL A   1      46.139  32.121  31.725  1.00  0.00    -0.206 F 
ATOM     58  C   UNL A   1      46.730  34.315  31.121  1.00  0.00     0.040 A 
ATOM     59  C   UNL A   1      45.840  35.293  29.105  1.00  0.00     0.040 A 
ATOM     60  F   UNL A   1      44.372  34.058  27.756  1.00  0.00    -0.206 F 
ATOM     61  C   UNL A   1      46.640  35.394  30.240  1.00  0.00     0.006 A 
ENDBRANCH  37  54
ENDBRANCH  11  12
ENDBRANCH   4   6
ENDBRANCH   3   4
ENDBRANCH   2   3
ENDBRANCH   1   2
BRANCH   1  62
ATOM     62  O   UNL A   1      33.443  20.774  24.319  1.00  0.00    -0.460 OA
BRANCH  62  63
ATOM     63  C   UNL A   1      32.601  21.619  23.657  1.00  0.00     0.338 C 
ATOM     64  O   UNL A   1      32.166  21.408  22.524  1.00  0.00    -0.249 OA
BRANCH  63  65
ATOM     65  C   UNL A   1      32.279  22.895  24.451  1.00  0.00     0.263 C 
ATOM     66  O   UNL A   1      32.141  24.123  23.702  1.00  0.00    -0.322 OA
ATOM     67  C   UNL A   1      31.034  22.692  25.323  1.00  0.00     0.186 C 
ATOM     68  C   UNL A   1      32.185  25.277  24.566  1.00  0.00     0.340 C 
ATOM     69  C   UNL A   1      30.980  23.841  26.320  1.00  0.00     0.181 C 
ATOM     70  C   UNL A   1      31.072  25.205  25.640  1.00  0.00     0.214 C 
BRANCH  67  71
ATOM     71  O   UNL A   1      31.053  21.474  26.077  1.00  0.00    -0.387 OA
ATOM     72  H   UNL A   1      30.559  20.790  25.599  1.00  0.00     0.211 HD
ENDBRANCH  67  71
BRANCH  68  73
ATOM     73  O   UNL A   1      32.266  26.588  23.935  1.00  0.00    -0.454 OA
BRANCH  73  74
ATOM     74  C   UNL A   1      32.417  27.793  24.594  1.00  0.00     0.214 A 
ATOM     75  C   UNL A   1      31.448  28.730  24.727  1.00  0.00     0.181 A 
ATOM     76  C   UNL A   1      33.580  27.938  25.542  1.00  0.00     0.239 A 
ATOM     77  O   UNL A   1      31.553  29.905  25.440  1.00  0.00    -0.452 OA
ATOM     78  C   UNL A   1      33.688  29.199  26.330  1.00  0.00     0.111 A 
ATOM     79  O   UNL A   1      34.394  27.021  25.654  1.00  0.00    -0.285 OA
ATOM     80  C   UNL A   1      32.663  30.130  26.197  1.00  0.00     0.146 A 
ATOM     81  C   UNL A   1      34.747  29.512  27.197  1.00  0.00     0.134 A 
ATOM     82  C   UNL A   1      32.700  31.361  26.861  1.00  0.00     0.094 A 
ATOM     83  C   UNL A   1      34.802  30.749  27.861  1.00  0.00     0.093 A 
ATOM     84  C   UNL A   1      33.779  31.670  27.673  1.00  0.00     0.123 A 
BRANCH  75  85
ATOM     85  C   UNL A   1      30.149  28.669  24.054  1.00  0.00     0.029 A 
ATOM     86  C   UNL A   1      29.438  27.463  24.128  1.00  0.00     0.062 A 
ATOM     87  C   UNL A   1      29.598  29.770  23.379  1.00  0.00     0.062 A 
ATOM     88  C   UNL A   1      28.128  27.433  23.693  1.00  0.00     0.162 A 
ATOM     89  C   UNL A   1      28.295  29.692  22.901  1.00  0.00     0.162 A 
ATOM     90  C   UNL A   1      27.548  28.544  23.106  1.00  0.00     0.200 A 
BRANCH  88  91
ATOM     91  O   UNL A   1      27.332  26.358  23.900  1.00  0.00    -0.504 OA
ATOM     92  H   UNL A   1      26.692  26.118  23.258  1.00  0.00     0.293 HD
ENDBRANCH  88  91
BRANCH  89  93
ATOM     93  O   UNL A   1      27.721  30.771  22.297  1.00  0.00    -0.504 OA
ATOM     94  H   UNL A   1      27.242  31.394  22.807  1.00  0.00     0.293 HD
ENDBRANCH  89  93
BRANCH  90  95
ATOM     95  O   UNL A   1      26.215  28.528  22.794  1.00  0.00    -0.502 OA
ATOM     96  H   UNL A   1      25.860  27.821  22.292  1.00  0.00     0.293 HD
ENDBRANCH  90  95
ENDBRANCH  75  85
BRANCH  81  97
ATOM     97  O   UNL A   1      35.753  28.616  27.418  1.00  0.00    -0.507 OA
ATOM     98  H   UNL A   1      36.378  28.438  26.744  1.00  0.00     0.293 HD
ENDBRANCH  81  97
BRANCH  84  99
ATOM     99  O   UNL A   1      33.792  32.896  28.271  1.00  0.00    -0.508 OA
ATOM    100  H   UNL A   1      34.117  33.641  27.805  1.00  0.00     0.293 HD
ENDBRANCH  84  99
ENDBRANCH  73  74
ENDBRANCH  68  73
BRANCH  69 101
ATOM    101  O   UNL A   1      29.789  23.708  27.117  1.00  0.00    -0.387 OA
ATOM    102  H   UNL A   1      29.044  23.461  26.548  1.00  0.00     0.211 HD
ENDBRANCH  69 101
BRANCH  70 103
ATOM    103  O   UNL A   1      31.314  26.161  26.672  1.00  0.00    -0.384 OA
ATOM    104  H   UNL A   1      32.005  26.779  26.385  1.00  0.00     0.211 HD
ENDBRANCH  70 103
ENDBRANCH  63  65
ENDBRANCH  62  63
ENDBRANCH   1  62
TORSDOF 22
ENDMDL
MODEL 3
REMARK VINA RESULT:     -12.1      5.389      9.945
REMARK SMILES O=C(OCCOC(=O)[C@H]1O[C@@H](Oc2c(-c3cc(O)c(O)c(O)c3)oc3cc(O)cc(O)c3c2=O)[C@H](O)[C@@H](O)[C@@H]1O)c1ccc(-c2c3nc(c(-c4c(F)cccc4F)c4ccc([nH]4)c(-c4c(F)cccc4F)c4nc(c(-c5c(F)cccc5F)c5ccc2[nH]5)C=C4)C=C3)cc1
REMARK SMILES IDX 5 1 4 2 3 3 2 4 1 5 41 6 42 7 94 8 43 9 93 10 44 11 45 12
REMARK SMILES IDX 46 13 87 14 47 15 92 16 86 17 88 18 48 19 91 20 85 21 84 22
REMARK SMILES IDX 49 24 75 25 58 26 74 27 59 28 62 29 73 30 89 31 60 32 61 33
REMARK SMILES IDX 72 35 90 36 63 37 50 38 51 39 56 40 52 41 53 42 55 43 57 44
REMARK SMILES IDX 54 45 76 46 77 47 82 48 78 49 79 50 81 51 83 52 80 53 64 54
REMARK SMILES IDX 65 55 70 56 66 57 67 58 69 59 71 60 68 61 6 62 7 63 8 64
REMARK SMILES IDX 9 65 10 66 39 67 11 68 37 69 35 70 40 71 12 73 13 74 14 75
REMARK SMILES IDX 33 76 24 77 32 78 34 79 25 80 30 81 26 82 29 83 27 84 15 85
REMARK SMILES IDX 16 86 23 87 17 88 21 89 19 90 18 91 22 93 20 95 31 97 28 99
REMARK SMILES IDX 38 101 36 103
REMARK H PARENT 88 23 62 34 40 72 18 92 22 94 20 96 31 98 28 100 38 102 36 104
REMARK Flexibility Score: inf
ROOT
ATOM      1  C   UNL A   1      33.798  34.324  28.004  1.00  0.00     0.274 C 
ENDROOT
BRANCH   1   2
ATOM      2  C   UNL A   1      34.853  33.220  28.009  1.00  0.00     0.275 C 
BRANCH   2   3
ATOM      3  O   UNL A   1      34.346  31.889  28.176  1.00  0.00    -0.458 OA
BRANCH   3   4
ATOM      4  C   UNL A   1      34.840  30.734  27.678  1.00  0.00     0.338 C 
ATOM      5  O   UNL A   1      34.153  30.076  26.896  1.00  0.00    -0.246 OA
BRANCH   4   6
ATOM      6  C   UNL A   1      36.139  30.141  28.124  1.00  0.00     0.060 A 
ATOM      7  C   UNL A   1      37.341  30.116  27.406  1.00  0.00     0.016 A 
ATOM      8  C   UNL A   1      36.119  29.529  29.381  1.00  0.00     0.016 A 
ATOM      9  C   UNL A   1      38.512  29.562  27.960  1.00  0.00     0.010 A 
ATOM     10  C   UNL A   1      37.278  28.985  29.934  1.00  0.00     0.010 A 
ATOM     11  C   UNL A   1      38.491  28.993  29.234  1.00  0.00    -0.014 A 
BRANCH  11  12
ATOM     12  C   UNL A   1      39.649  28.274  29.837  1.00  0.00     0.031 A 
ATOM     13  C   UNL A   1      40.345  28.955  30.987  1.00  0.00     0.074 A 
ATOM     14  C   UNL A   1      40.187  27.180  29.261  1.00  0.00     0.049 A 
ATOM     15  N   UNL A   1      41.581  28.838  31.392  1.00  0.00    -0.248 NA
ATOM     16  C   UNL A   1      39.564  29.980  31.699  1.00  0.00     0.031 C 
ATOM     17  C   UNL A   1      39.644  26.483  28.095  1.00  0.00     0.029 A 
ATOM     18  N   UNL A   1      41.369  26.518  29.518  1.00  0.00    -0.354 N 
ATOM     19  C   UNL A   1      41.736  29.810  32.381  1.00  0.00     0.074 A 
ATOM     20  C   UNL A   1      40.490  30.539  32.462  1.00  0.00     0.031 C 
ATOM     21  C   UNL A   1      40.537  25.572  27.666  1.00  0.00     0.029 A 
ATOM     22  C   UNL A   1      41.722  25.635  28.514  1.00  0.00     0.049 A 
ATOM     23  H   UNL A   1      41.905  26.657  30.332  1.00  0.00     0.167 HD
ATOM     24  C   UNL A   1      42.811  30.053  33.167  1.00  0.00     0.037 A 
ATOM     25  C   UNL A   1      42.905  25.044  28.243  1.00  0.00     0.037 A 
ATOM     26  C   UNL A   1      44.001  29.247  33.143  1.00  0.00     0.049 A 
ATOM     27  C   UNL A   1      44.089  25.317  29.137  1.00  0.00     0.074 A 
ATOM     28  C   UNL A   1      45.070  29.255  34.022  1.00  0.00     0.029 A 
ATOM     29  N   UNL A   1      44.271  28.280  32.191  1.00  0.00    -0.354 N 
ATOM     30  N   UNL A   1      44.187  26.164  30.134  1.00  0.00    -0.248 NA
ATOM     31  C   UNL A   1      45.332  24.589  28.839  1.00  0.00     0.031 C 
ATOM     32  C   UNL A   1      46.002  28.311  33.580  1.00  0.00     0.029 A 
ATOM     33  C   UNL A   1      45.492  27.691  32.452  1.00  0.00     0.049 A 
ATOM     34  H   UNL A   1      43.680  28.048  31.438  1.00  0.00     0.167 HD
ATOM     35  C   UNL A   1      45.489  26.032  30.610  1.00  0.00     0.074 A 
ATOM     36  C   UNL A   1      46.147  25.050  29.776  1.00  0.00     0.031 C 
ATOM     37  C   UNL A   1      46.086  26.655  31.653  1.00  0.00     0.037 A 
BRANCH  24  38
ATOM     38  C   UNL A   1      42.747  31.192  34.146  1.00  0.00     0.057 A 
ATOM     39  C   UNL A   1      43.347  32.432  33.889  1.00  0.00     0.134 A 
ATOM     40  C   UNL A   1      42.016  31.069  35.335  1.00  0.00     0.134 A 
ATOM     41  F   UNL A   1      44.060  32.621  32.768  1.00  0.00    -0.206 F 
ATOM     42  C   UNL A   1      43.248  33.495  34.788  1.00  0.00     0.040 A 
ATOM     43  C   UNL A   1      41.883  32.134  36.229  1.00  0.00     0.040 A 
ATOM     44  F   UNL A   1      41.408  29.912  35.644  1.00  0.00    -0.206 F 
ATOM     45  C   UNL A   1      42.507  33.350  35.958  1.00  0.00     0.006 A 
ENDBRANCH  24  38
BRANCH  25  46
ATOM     46  C   UNL A   1      43.133  24.319  26.964  1.00  0.00     0.057 A 
ATOM     47  C   UNL A   1      42.937  22.940  26.853  1.00  0.00     0.134 A 
ATOM     48  C   UNL A   1      43.702  24.980  25.866  1.00  0.00     0.134 A 
ATOM     49  F   UNL A   1      42.447  22.245  27.889  1.00  0.00    -0.206 F 
ATOM     50  C   UNL A   1      43.326  22.238  25.708  1.00  0.00     0.040 A 
ATOM     51  C   UNL A   1      44.072  24.297  24.708  1.00  0.00     0.040 A 
ATOM     52  F   UNL A   1      43.953  26.296  25.924  1.00  0.00    -0.206 F 
ATOM     53  C   UNL A   1      43.897  22.918  24.632  1.00  0.00     0.006 A 
ENDBRANCH  25  46
BRANCH  37  54
ATOM     54  C   UNL A   1      47.436  26.155  32.068  1.00  0.00     0.057 A 
ATOM     55  C   UNL A   1      48.625  26.617  31.499  1.00  0.00     0.134 A 
ATOM     56  C   UNL A   1      47.526  25.217  33.106  1.00  0.00     0.134 A 
ATOM     57  F   UNL A   1      48.600  27.497  30.487  1.00  0.00    -0.206 F 
ATOM     58  C   UNL A   1      49.865  26.155  31.945  1.00  0.00     0.040 A 
ATOM     59  C   UNL A   1      48.757  24.765  33.574  1.00  0.00     0.040 A 
ATOM     60  F   UNL A   1      46.415  24.741  33.689  1.00  0.00    -0.206 F 
ATOM     61  C   UNL A   1      49.932  25.233  32.991  1.00  0.00     0.006 A 
ENDBRANCH  37  54
ENDBRANCH  11  12
ENDBRANCH   4   6
ENDBRANCH   3   4
ENDBRANCH   2   3
ENDBRANCH   1   2
BRANCH   1  62
ATOM     62  O   UNL A   1      34.142  35.450  28.823  1.00  0.00    -0.460 OA
BRANCH  62  63
ATOM     63  C   UNL A   1      33.244  35.760  29.801  1.00  0.00     0.338 C 
ATOM     64  O   UNL A   1      32.166  36.318  29.593  1.00  0.00    -0.249 OA
BRANCH  63  65
ATOM     65  C   UNL A   1      33.731  35.382  31.210  1.00  0.00     0.263 C 
ATOM     66  O   UNL A   1      35.039  34.777  31.317  1.00  0.00    -0.322 OA
ATOM     67  C   UNL A   1      33.653  36.588  32.153  1.00  0.00     0.186 C 
ATOM     68  C   UNL A   1      35.234  34.165  32.608  1.00  0.00     0.340 C 
ATOM     69  C   UNL A   1      33.810  36.068  33.575  1.00  0.00     0.181 C 
ATOM     70  C   UNL A   1      35.056  35.202  33.743  1.00  0.00     0.214 C 
BRANCH  67  71
ATOM     71  O   UNL A   1      32.404  37.287  32.091  1.00  0.00    -0.387 OA
ATOM     72  H   UNL A   1      32.077  37.446  32.990  1.00  0.00     0.211 HD
ENDBRANCH  67  71
BRANCH  68  73
ATOM     73  O   UNL A   1      36.421  33.340  32.789  1.00  0.00    -0.454 OA
BRANCH  73  74
ATOM     74  C   UNL A   1      37.721  33.724  32.520  1.00  0.00     0.214 A 
ATOM     75  C   UNL A   1      38.768  33.557  33.363  1.00  0.00     0.181 A 
ATOM     76  C   UNL A   1      38.093  33.997  31.085  1.00  0.00     0.239 A 
ATOM     77  O   UNL A   1      40.083  33.866  33.088  1.00  0.00    -0.452 OA
ATOM     78  C   UNL A   1      39.518  34.312  30.779  1.00  0.00     0.111 A 
ATOM     79  O   UNL A   1      37.230  33.940  30.209  1.00  0.00    -0.285 OA
ATOM     80  C   UNL A   1      40.429  34.257  31.829  1.00  0.00     0.146 A 
ATOM     81  C   UNL A   1      40.005  34.657  29.509  1.00  0.00     0.134 A 
ATOM     82  C   UNL A   1      41.777  34.581  31.648  1.00  0.00     0.094 A 
ATOM     83  C   UNL A   1      41.355  34.996  29.315  1.00  0.00     0.093 A 
ATOM     84  C   UNL A   1      42.228  34.968  30.396  1.00  0.00     0.123 A 
BRANCH  75  85
ATOM     85  C   UNL A   1      38.643  33.092  34.746  1.00  0.00     0.029 A 
ATOM     86  C   UNL A   1      38.808  34.041  35.764  1.00  0.00     0.062 A 
ATOM     87  C   UNL A   1      38.337  31.760  35.068  1.00  0.00     0.062 A 
ATOM     88  C   UNL A   1      38.489  33.690  37.061  1.00  0.00     0.162 A 
ATOM     89  C   UNL A   1      38.076  31.424  36.391  1.00  0.00     0.162 A 
ATOM     90  C   UNL A   1      38.101  32.399  37.374  1.00  0.00     0.200 A 
BRANCH  88  91
ATOM     91  O   UNL A   1      38.454  34.604  38.059  1.00  0.00    -0.504 OA
ATOM     92  H   UNL A   1      39.199  34.716  38.618  1.00  0.00     0.293 HD
ENDBRANCH  88  91
BRANCH  89  93
ATOM     93  O   UNL A   1      37.718  30.149  36.715  1.00  0.00    -0.504 OA
ATOM     94  H   UNL A   1      37.528  29.529  36.039  1.00  0.00     0.293 HD
ENDBRANCH  89  93
BRANCH  90  95
ATOM     95  O   UNL A   1      37.674  32.108  38.641  1.00  0.00    -0.502 OA
ATOM     96  H   UNL A   1      37.213  31.309  38.807  1.00  0.00     0.293 HD
ENDBRANCH  90  95
ENDBRANCH  75  85
BRANCH  81  97
ATOM     97  O   UNL A   1      39.175  34.671  28.425  1.00  0.00    -0.507 OA
ATOM     98  H   UNL A   1      38.643  33.925  28.233  1.00  0.00     0.293 HD
ENDBRANCH  81  97
BRANCH  84  99
ATOM     99  O   UNL A   1      43.541  35.311  30.273  1.00  0.00    -0.508 OA
ATOM    100  H   UNL A   1      44.022  35.059  29.509  1.00  0.00     0.293 HD
ENDBRANCH  84  99
ENDBRANCH  73  74
ENDBRANCH  68  73
BRANCH  69 101
ATOM    101  O   UNL A   1      33.797  37.187  34.482  1.00  0.00    -0.387 OA
ATOM    102  H   UNL A   1      34.654  37.640  34.449  1.00  0.00     0.211 HD
ENDBRANCH  69 101
BRANCH  70 103
ATOM    103  O   UNL A   1      34.929  34.543  35.004  1.00  0.00    -0.384 OA
ATOM    104  H   UNL A   1      35.427  35.034  35.676  1.00  0.00     0.211 HD
ENDBRANCH  70 103
ENDBRANCH  63  65
ENDBRANCH  62  63
ENDBRANCH   1  62
TORSDOF 22
ENDMDL
