MODEL 1
REMARK VINA RESULT:     -11.9      0.000      0.000
REMARK SMILES CC(C)Cc1cc2c(cc1Cl)C=C(C(=O)OCCOC(=O)c1ccc(-c3c4nc(c(-c5c(F)cccc5F)c5ccc([nH]5)c(-c5c(F)cccc5F)c5nc(c(-c6c(F)cccc6F)c6ccc3[nH]6)C=C5)C=C4)cc1)[C@@H](C(F)(F)F)O2
REMARK SMILES IDX 17 1 16 2 14 3 15 4 13 5 5 6 6 7 10 8 7 9 9 10 11 11 8 12
REMARK SMILES IDX 81 13 12 14 76 15 4 16 2 17 1 18 3 19 77 20 78 21 79 22
REMARK SMILES IDX 80 23 18 24 19 25 20 26 21 27 22 28 23 29 75 30 24 31 74 32
REMARK SMILES IDX 25 33 26 34 27 35 68 36 28 37 73 38 67 39 69 40 29 41 72 42
REMARK SMILES IDX 66 43 65 44 30 46 56 47 39 48 55 49 40 50 43 51 54 52 70 53
REMARK SMILES IDX 41 54 42 55 53 57 71 58 44 59 31 60 32 61 37 62 33 63 34 64
REMARK SMILES IDX 36 65 38 66 35 67 57 68 58 69 63 70 59 71 60 72 62 73 64 74
REMARK SMILES IDX 61 75 45 76 46 77 51 78 47 79 48 80 50 81 52 82 49 83
REMARK H PARENT 69 45 43 56
REMARK Flexibility Score: inf
ROOT
ATOM      1  C   UNL A   1      34.986  21.830  24.630  1.00  0.00     0.275 C 
ENDROOT
BRANCH   1   2
ATOM      2  O   UNL A   1      34.972  23.220  25.019  1.00  0.00    -0.459 OA
BRANCH   2   3
ATOM      3  C   UNL A   1      33.944  23.608  25.809  1.00  0.00     0.338 C 
ATOM      4  O   UNL A   1      33.631  23.126  26.887  1.00  0.00    -0.246 OA
BRANCH   3   5
ATOM      5  C   UNL A   1      33.267  24.782  25.220  1.00  0.00     0.087 C 
ATOM      6  C   UNL A   1      31.082  29.230  24.354  1.00  0.00    -0.025 A 
ATOM      7  C   UNL A   1      31.235  28.044  23.612  1.00  0.00     0.052 A 
ATOM      8  C   UNL A   1      31.802  29.350  25.557  1.00  0.00     0.045 A 
ATOM      9  C   UNL A   1      31.960  26.965  24.116  1.00  0.00     0.128 A 
ATOM     10  C   UNL A   1      32.566  28.288  26.041  1.00  0.00     0.032 A 
ATOM     11  Cl  UNL A   1      31.769  30.793  26.510  1.00  0.00    -0.084 Cl
ATOM     12  C   UNL A   1      32.601  27.081  25.342  1.00  0.00     0.019 A 
ATOM     13  O   UNL A   1      31.996  25.835  23.348  1.00  0.00    -0.475 OA
ATOM     14  C   UNL A   1      33.291  25.937  25.895  1.00  0.00     0.027 C 
ATOM     15  C   UNL A   1      32.465  24.601  23.962  1.00  0.00     0.316 C 
BRANCH   6  16
ATOM     16  C   UNL A   1      30.143  30.345  23.926  1.00  0.00     0.040 C 
BRANCH  16  17
ATOM     17  C   UNL A   1      28.902  29.991  23.081  1.00  0.00    -0.013 C 
ATOM     18  C   UNL A   1      27.650  30.773  23.499  1.00  0.00     0.008 C 
ATOM     19  C   UNL A   1      29.191  30.291  21.605  1.00  0.00     0.008 C 
ENDBRANCH  16  17
ENDBRANCH   6  16
BRANCH  15  20
ATOM     20  C   UNL A   1      31.265  23.679  24.244  1.00  0.00     0.430 C 
ATOM     21  F   UNL A   1      31.628  22.376  24.265  1.00  0.00    -0.167 F 
ATOM     22  F   UNL A   1      30.709  23.949  25.451  1.00  0.00    -0.167 F 
ATOM     23  F   UNL A   1      30.289  23.815  23.316  1.00  0.00    -0.167 F 
ENDBRANCH  15  20
ENDBRANCH   3   5
ENDBRANCH   2   3
ENDBRANCH   1   2
BRANCH   1  24
ATOM     24  C   UNL A   1      36.135  21.076  25.303  1.00  0.00     0.275 C 
BRANCH  24  25
ATOM     25  O   UNL A   1      37.403  21.669  24.963  1.00  0.00    -0.458 OA
BRANCH  25  26
ATOM     26  C   UNL A   1      38.456  21.237  25.693  1.00  0.00     0.338 C 
ATOM     27  O   UNL A   1      38.919  20.111  25.738  1.00  0.00    -0.246 OA
BRANCH  26  28
ATOM     28  C   UNL A   1      39.101  22.382  26.349  1.00  0.00     0.060 A 
ATOM     29  C   UNL A   1      40.274  22.262  27.079  1.00  0.00     0.016 A 
ATOM     30  C   UNL A   1      38.588  23.641  26.071  1.00  0.00     0.016 A 
ATOM     31  C   UNL A   1      40.907  23.426  27.540  1.00  0.00     0.010 A 
ATOM     32  C   UNL A   1      39.303  24.791  26.378  1.00  0.00     0.010 A 
ATOM     33  C   UNL A   1      40.453  24.710  27.163  1.00  0.00    -0.014 A 
BRANCH  33  34
ATOM     34  C   UNL A   1      41.160  25.955  27.593  1.00  0.00     0.031 A 
ATOM     35  C   UNL A   1      42.577  26.250  27.144  1.00  0.00     0.074 A 
ATOM     36  C   UNL A   1      40.538  26.818  28.423  1.00  0.00     0.049 A 
ATOM     37  N   UNL A   1      43.321  27.303  27.390  1.00  0.00    -0.248 NA
ATOM     38  C   UNL A   1      43.273  25.218  26.357  1.00  0.00     0.031 C 
ATOM     39  C   UNL A   1      39.224  26.611  29.037  1.00  0.00     0.029 A 
ATOM     40  N   UNL A   1      40.919  28.057  28.880  1.00  0.00    -0.354 N 
ATOM     41  C   UNL A   1      44.558  27.045  26.809  1.00  0.00     0.074 A 
ATOM     42  C   UNL A   1      44.502  25.703  26.280  1.00  0.00     0.031 C 
ATOM     43  C   UNL A   1      38.870  27.716  29.711  1.00  0.00     0.029 A 
ATOM     44  C   UNL A   1      39.949  28.692  29.620  1.00  0.00     0.049 A 
ATOM     45  H   UNL A   1      41.801  28.452  28.695  1.00  0.00     0.167 HD
ATOM     46  C   UNL A   1      45.632  27.861  26.675  1.00  0.00     0.037 A 
ATOM     47  C   UNL A   1      39.924  29.930  30.153  1.00  0.00     0.037 A 
ATOM     48  C   UNL A   1      45.675  29.217  27.152  1.00  0.00     0.049 A 
ATOM     49  C   UNL A   1      41.110  30.833  29.956  1.00  0.00     0.074 A 
ATOM     50  C   UNL A   1      46.677  30.158  26.994  1.00  0.00     0.029 A 
ATOM     51  N   UNL A   1      44.664  29.826  27.878  1.00  0.00    -0.354 N 
ATOM     52  N   UNL A   1      42.226  30.608  29.306  1.00  0.00    -0.248 NA
ATOM     53  C   UNL A   1      41.028  32.168  30.565  1.00  0.00     0.031 C 
ATOM     54  C   UNL A   1      46.290  31.325  27.661  1.00  0.00     0.029 A 
ATOM     55  C   UNL A   1      45.025  31.126  28.192  1.00  0.00     0.049 A 
ATOM     56  H   UNL A   1      43.814  29.399  28.134  1.00  0.00     0.167 HD
ATOM     57  C   UNL A   1      42.967  31.778  29.407  1.00  0.00     0.074 A 
ATOM     58  C   UNL A   1      42.160  32.720  30.155  1.00  0.00     0.031 C 
ATOM     59  C   UNL A   1      44.207  32.050  28.931  1.00  0.00     0.037 A 
BRANCH  46  60
ATOM     60  C   UNL A   1      46.835  27.321  25.951  1.00  0.00     0.057 A 
ATOM     61  C   UNL A   1      47.870  26.683  26.648  1.00  0.00     0.134 A 
ATOM     62  C   UNL A   1      46.989  27.462  24.565  1.00  0.00     0.134 A 
ATOM     63  F   UNL A   1      47.800  26.522  27.978  1.00  0.00    -0.206 F 
ATOM     64  C   UNL A   1      49.006  26.203  25.993  1.00  0.00     0.040 A 
ATOM     65  C   UNL A   1      48.105  26.959  23.894  1.00  0.00     0.040 A 
ATOM     66  F   UNL A   1      46.033  28.057  23.833  1.00  0.00    -0.206 F 
ATOM     67  C   UNL A   1      49.121  26.332  24.610  1.00  0.00     0.006 A 
ENDBRANCH  46  60
BRANCH  47  68
ATOM     68  C   UNL A   1      38.725  30.412  30.888  1.00  0.00     0.057 A 
ATOM     69  C   UNL A   1      37.685  31.083  30.236  1.00  0.00     0.134 A 
ATOM     70  C   UNL A   1      38.577  30.175  32.261  1.00  0.00     0.134 A 
ATOM     71  F   UNL A   1      37.768  31.353  28.926  1.00  0.00    -0.206 F 
ATOM     72  C   UNL A   1      36.539  31.495  30.920  1.00  0.00     0.040 A 
ATOM     73  C   UNL A   1      37.423  30.553  32.950  1.00  0.00     0.040 A 
ATOM     74  F   UNL A   1      39.532  29.523  32.941  1.00  0.00    -0.206 F 
ATOM     75  C   UNL A   1      36.400  31.218  32.278  1.00  0.00     0.006 A 
ENDBRANCH  47  68
BRANCH  59  76
ATOM     76  C   UNL A   1      44.745  33.427  29.179  1.00  0.00     0.057 A 
ATOM     77  C   UNL A   1      44.504  34.461  28.264  1.00  0.00     0.134 A 
ATOM     78  C   UNL A   1      45.514  33.729  30.310  1.00  0.00     0.134 A 
ATOM     79  F   UNL A   1      43.784  34.237  27.155  1.00  0.00    -0.206 F 
ATOM     80  C   UNL A   1      45.006  35.746  28.469  1.00  0.00     0.040 A 
ATOM     81  C   UNL A   1      45.996  35.018  30.541  1.00  0.00     0.040 A 
ATOM     82  F   UNL A   1      45.769  32.786  31.230  1.00  0.00    -0.206 F 
ATOM     83  C   UNL A   1      45.747  36.029  29.615  1.00  0.00     0.006 A 
ENDBRANCH  59  76
ENDBRANCH  33  34
ENDBRANCH  26  28
ENDBRANCH  25  26
ENDBRANCH  24  25
ENDBRANCH   1  24
TORSDOF 14
ENDMDL
MODEL 2
REMARK VINA RESULT:     -11.9      4.026      8.969
REMARK SMILES CC(C)Cc1cc2c(cc1Cl)C=C(C(=O)OCCOC(=O)c1ccc(-c3c4nc(c(-c5c(F)cccc5F)c5ccc([nH]5)c(-c5c(F)cccc5F)c5nc(c(-c6c(F)cccc6F)c6ccc3[nH]6)C=C5)C=C4)cc1)[C@@H](C(F)(F)F)O2
REMARK SMILES IDX 17 1 16 2 14 3 15 4 13 5 5 6 6 7 10 8 7 9 9 10 11 11 8 12
REMARK SMILES IDX 81 13 12 14 76 15 4 16 2 17 1 18 3 19 77 20 78 21 79 22
REMARK SMILES IDX 80 23 18 24 19 25 20 26 21 27 22 28 23 29 75 30 24 31 74 32
REMARK SMILES IDX 25 33 26 34 27 35 68 36 28 37 73 38 67 39 69 40 29 41 72 42
REMARK SMILES IDX 66 43 65 44 30 46 56 47 39 48 55 49 40 50 43 51 54 52 70 53
REMARK SMILES IDX 41 54 42 55 53 57 71 58 44 59 31 60 32 61 37 62 33 63 34 64
REMARK SMILES IDX 36 65 38 66 35 67 57 68 58 69 63 70 59 71 60 72 62 73 64 74
REMARK SMILES IDX 61 75 45 76 46 77 51 78 47 79 48 80 50 81 52 82 49 83
REMARK H PARENT 69 45 43 56
REMARK Flexibility Score: inf
ROOT
ATOM      1  C   UNL A   1      30.946  29.649  24.500  1.00  0.00     0.275 C 
ENDROOT
BRANCH   1   2
ATOM      2  O   UNL A   1      30.540  28.283  24.271  1.00  0.00    -0.459 OA
BRANCH   2   3
ATOM      3  C   UNL A   1      30.714  27.811  23.015  1.00  0.00     0.338 C 
ATOM      4  O   UNL A   1      30.166  28.217  22.001  1.00  0.00    -0.246 OA
BRANCH   3   5
ATOM      5  C   UNL A   1      31.747  26.754  23.008  1.00  0.00     0.087 C 
ATOM      6  C   UNL A   1      34.755  22.863  24.068  1.00  0.00    -0.025 A 
ATOM      7  C   UNL A   1      34.738  23.855  23.069  1.00  0.00     0.052 A 
ATOM      8  C   UNL A   1      33.631  22.760  24.909  1.00  0.00     0.045 A 
ATOM      9  C   UNL A   1      33.713  24.797  23.004  1.00  0.00     0.128 A 
ATOM     10  C   UNL A   1      32.582  23.673  24.815  1.00  0.00     0.032 A 
ATOM     11  Cl  UNL A   1      33.494  21.524  26.112  1.00  0.00    -0.084 Cl
ATOM     12  C   UNL A   1      32.651  24.720  23.895  1.00  0.00     0.019 A 
ATOM     13  O   UNL A   1      33.820  25.759  22.039  1.00  0.00    -0.475 OA
ATOM     14  C   UNL A   1      31.626  25.741  23.872  1.00  0.00     0.027 C 
ATOM     15  C   UNL A   1      32.956  26.927  22.133  1.00  0.00     0.316 C 
BRANCH   6  16
ATOM     16  C   UNL A   1      35.946  21.948  24.289  1.00  0.00     0.040 C 
BRANCH  16  17
ATOM     17  C   UNL A   1      37.276  22.560  24.777  1.00  0.00    -0.013 C 
ATOM     18  C   UNL A   1      37.079  23.652  25.837  1.00  0.00     0.008 C 
ATOM     19  C   UNL A   1      38.153  21.455  25.377  1.00  0.00     0.008 C 
ENDBRANCH  16  17
ENDBRANCH   6  16
BRANCH  15  20
ATOM     20  C   UNL A   1      33.776  28.135  22.618  1.00  0.00     0.430 C 
ATOM     21  F   UNL A   1      34.023  28.072  23.947  1.00  0.00    -0.167 F 
ATOM     22  F   UNL A   1      34.981  28.193  22.000  1.00  0.00    -0.167 F 
ATOM     23  F   UNL A   1      33.147  29.309  22.376  1.00  0.00    -0.167 F 
ENDBRANCH  15  20
ENDBRANCH   3   5
ENDBRANCH   2   3
ENDBRANCH   1   2
BRANCH   1  24
ATOM     24  C   UNL A   1      31.420  29.853  25.941  1.00  0.00     0.275 C 
BRANCH  24  25
ATOM     25  O   UNL A   1      32.811  30.225  25.973  1.00  0.00    -0.458 OA
BRANCH  25  26
ATOM     26  C   UNL A   1      33.125  31.206  26.848  1.00  0.00     0.338 C 
ATOM     27  O   UNL A   1      32.406  32.103  27.252  1.00  0.00    -0.246 OA
BRANCH  26  28
ATOM     28  C   UNL A   1      34.466  30.964  27.396  1.00  0.00     0.060 A 
ATOM     29  C   UNL A   1      35.317  31.992  27.773  1.00  0.00     0.016 A 
ATOM     30  C   UNL A   1      34.800  29.650  27.690  1.00  0.00     0.016 A 
ATOM     31  C   UNL A   1      36.514  31.674  28.431  1.00  0.00     0.010 A 
ATOM     32  C   UNL A   1      35.896  29.350  28.488  1.00  0.00     0.010 A 
ATOM     33  C   UNL A   1      36.804  30.350  28.834  1.00  0.00    -0.014 A 
BRANCH  33  34
ATOM     34  C   UNL A   1      38.046  30.011  29.594  1.00  0.00     0.031 A 
ATOM     35  C   UNL A   1      38.257  30.497  31.014  1.00  0.00     0.074 A 
ATOM     36  C   UNL A   1      39.013  29.284  28.996  1.00  0.00     0.049 A 
ATOM     37  N   UNL A   1      39.256  30.258  31.831  1.00  0.00    -0.248 NA
ATOM     38  C   UNL A   1      37.246  31.406  31.582  1.00  0.00     0.031 C 
ATOM     39  C   UNL A   1      39.007  28.849  27.597  1.00  0.00     0.029 A 
ATOM     40  N   UNL A   1      40.182  28.761  29.494  1.00  0.00    -0.354 N 
ATOM     41  C   UNL A   1      38.997  30.997  32.982  1.00  0.00     0.074 A 
ATOM     42  C   UNL A   1      37.801  31.764  32.728  1.00  0.00     0.031 C 
ATOM     43  C   UNL A   1      40.066  28.056  27.375  1.00  0.00     0.029 A 
ATOM     44  C   UNL A   1      40.853  27.962  28.599  1.00  0.00     0.049 A 
ATOM     45  H   UNL A   1      40.507  28.942  30.405  1.00  0.00     0.167 HD
ATOM     46  C   UNL A   1      39.658  31.002  34.165  1.00  0.00     0.037 A 
ATOM     47  C   UNL A   1      41.968  27.222  28.750  1.00  0.00     0.037 A 
ATOM     48  C   UNL A   1      40.817  30.198  34.442  1.00  0.00     0.049 A 
ATOM     49  C   UNL A   1      42.661  27.211  30.085  1.00  0.00     0.074 A 
ATOM     50  C   UNL A   1      41.511  30.063  35.632  1.00  0.00     0.029 A 
ATOM     51  N   UNL A   1      41.452  29.389  33.514  1.00  0.00    -0.354 N 
ATOM     52  N   UNL A   1      42.336  27.830  31.194  1.00  0.00    -0.248 NA
ATOM     53  C   UNL A   1      43.876  26.391  30.188  1.00  0.00     0.031 C 
ATOM     54  C   UNL A   1      42.591  29.202  35.411  1.00  0.00     0.029 A 
ATOM     55  C   UNL A   1      42.540  28.763  34.097  1.00  0.00     0.049 A 
ATOM     56  H   UNL A   1      41.170  29.275  32.576  1.00  0.00     0.167 HD
ATOM     57  C   UNL A   1      43.289  27.455  32.131  1.00  0.00     0.074 A 
ATOM     58  C   UNL A   1      44.188  26.534  31.468  1.00  0.00     0.031 C 
ATOM     59  C   UNL A   1      43.418  27.844  33.424  1.00  0.00     0.037 A 
BRANCH  46  60
ATOM     60  C   UNL A   1      39.117  31.878  35.263  1.00  0.00     0.057 A 
ATOM     61  C   UNL A   1      39.462  33.234  35.339  1.00  0.00     0.134 A 
ATOM     62  C   UNL A   1      38.281  31.372  36.268  1.00  0.00     0.134 A 
ATOM     63  F   UNL A   1      40.269  33.787  34.421  1.00  0.00    -0.206 F 
ATOM     64  C   UNL A   1      38.992  34.052  36.369  1.00  0.00     0.040 A 
ATOM     65  C   UNL A   1      37.779  32.186  37.285  1.00  0.00     0.040 A 
ATOM     66  F   UNL A   1      37.904  30.084  36.254  1.00  0.00    -0.206 F 
ATOM     67  C   UNL A   1      38.139  33.530  37.341  1.00  0.00     0.006 A 
ENDBRANCH  46  60
BRANCH  47  68
ATOM     68  C   UNL A   1      42.485  26.395  27.628  1.00  0.00     0.057 A 
ATOM     69  C   UNL A   1      43.397  26.907  26.698  1.00  0.00     0.134 A 
ATOM     70  C   UNL A   1      42.106  25.054  27.485  1.00  0.00     0.134 A 
ATOM     71  F   UNL A   1      43.792  28.186  26.769  1.00  0.00    -0.206 F 
ATOM     72  C   UNL A   1      43.916  26.116  25.672  1.00  0.00     0.040 A 
ATOM     73  C   UNL A   1      42.641  24.244  26.482  1.00  0.00     0.040 A 
ATOM     74  F   UNL A   1      41.246  24.500  28.353  1.00  0.00    -0.206 F 
ATOM     75  C   UNL A   1      43.548  24.775  25.570  1.00  0.00     0.006 A 
ENDBRANCH  47  68
BRANCH  59  76
ATOM     76  C   UNL A   1      44.549  27.246  34.206  1.00  0.00     0.057 A 
ATOM     77  C   UNL A   1      45.792  27.888  34.266  1.00  0.00     0.134 A 
ATOM     78  C   UNL A   1      44.414  26.028  34.886  1.00  0.00     0.134 A 
ATOM     79  F   UNL A   1      45.990  29.052  33.629  1.00  0.00    -0.206 F 
ATOM     80  C   UNL A   1      46.860  27.342  34.977  1.00  0.00     0.040 A 
ATOM     81  C   UNL A   1      45.467  25.487  35.625  1.00  0.00     0.040 A 
ATOM     82  F   UNL A   1      43.245  25.370  34.878  1.00  0.00    -0.206 F 
ATOM     83  C   UNL A   1      46.696  26.143  35.667  1.00  0.00     0.006 A 
ENDBRANCH  59  76
ENDBRANCH  33  34
ENDBRANCH  26  28
ENDBRANCH  25  26
ENDBRANCH  24  25
ENDBRANCH   1  24
TORSDOF 14
ENDMDL
MODEL 3
REMARK VINA RESULT:     -11.8      4.061      9.052
REMARK SMILES CC(C)Cc1cc2c(cc1Cl)C=C(C(=O)OCCOC(=O)c1ccc(-c3c4nc(c(-c5c(F)cccc5F)c5ccc([nH]5)c(-c5c(F)cccc5F)c5nc(c(-c6c(F)cccc6F)c6ccc3[nH]6)C=C5)C=C4)cc1)[C@@H](C(F)(F)F)O2
REMARK SMILES IDX 17 1 16 2 14 3 15 4 13 5 5 6 6 7 10 8 7 9 9 10 11 11 8 12
REMARK SMILES IDX 81 13 12 14 76 15 4 16 2 17 1 18 3 19 77 20 78 21 79 22
REMARK SMILES IDX 80 23 18 24 19 25 20 26 21 27 22 28 23 29 75 30 24 31 74 32
REMARK SMILES IDX 25 33 26 34 27 35 68 36 28 37 73 38 67 39 69 40 29 41 72 42
REMARK SMILES IDX 66 43 65 44 30 46 56 47 39 48 55 49 40 50 43 51 54 52 70 53
REMARK SMILES IDX 41 54 42 55 53 57 71 58 44 59 31 60 32 61 37 62 33 63 34 64
REMARK SMILES IDX 36 65 38 66 35 67 57 68 58 69 63 70 59 71 60 72 62 73 64 74
REMARK SMILES IDX 61 75 45 76 46 77 51 78 47 79 48 80 50 81 52 82 49 83
REMARK H PARENT 69 45 43 56
REMARK Flexibility Score: inf
ROOT
ATOM      1  C   UNL A   1      31.271  30.508  25.156  1.00  0.00     0.275 C 
ENDROOT
BRANCH   1   2
ATOM      2  O   UNL A   1      32.419  29.661  25.374  1.00  0.00    -0.459 OA
BRANCH   2   3
ATOM      3  C   UNL A   1      32.701  28.773  24.393  1.00  0.00     0.338 C 
ATOM      4  O   UNL A   1      33.012  29.034  23.240  1.00  0.00    -0.246 OA
BRANCH   3   5
ATOM      5  C   UNL A   1      32.660  27.395  24.927  1.00  0.00     0.087 C 
ATOM      6  C   UNL A   1      33.593  22.606  26.152  1.00  0.00    -0.025 A 
ATOM      7  C   UNL A   1      32.493  23.469  26.310  1.00  0.00     0.052 A 
ATOM      8  C   UNL A   1      34.805  23.163  25.705  1.00  0.00     0.045 A 
ATOM      9  C   UNL A   1      32.554  24.801  25.902  1.00  0.00     0.128 A 
ATOM     10  C   UNL A   1      34.883  24.507  25.341  1.00  0.00     0.032 A 
ATOM     11  Cl  UNL A   1      36.252  22.224  25.560  1.00  0.00    -0.084 Cl
ATOM     12  C   UNL A   1      33.741  25.309  25.393  1.00  0.00     0.019 A 
ATOM     13  O   UNL A   1      31.413  25.540  26.037  1.00  0.00    -0.475 OA
ATOM     14  C   UNL A   1      33.783  26.669  24.904  1.00  0.00     0.027 C 
ATOM     15  C   UNL A   1      31.337  26.819  25.346  1.00  0.00     0.316 C 
BRANCH   6  16
ATOM     16  C   UNL A   1      33.500  21.111  26.402  1.00  0.00     0.040 C 
BRANCH  16  17
ATOM     17  C   UNL A   1      33.423  20.156  25.192  1.00  0.00    -0.013 C 
ATOM     18  C   UNL A   1      32.855  18.777  25.552  1.00  0.00     0.008 C 
ATOM     19  C   UNL A   1      32.535  20.780  24.109  1.00  0.00     0.008 C 
ENDBRANCH  16  17
ENDBRANCH   6  16
BRANCH  15  20
ATOM     20  C   UNL A   1      30.420  26.686  24.117  1.00  0.00     0.430 C 
ATOM     21  F   UNL A   1      29.743  27.831  23.870  1.00  0.00    -0.167 F 
ATOM     22  F   UNL A   1      31.134  26.406  22.999  1.00  0.00    -0.167 F 
ATOM     23  F   UNL A   1      29.508  25.698  24.266  1.00  0.00    -0.167 F 
ENDBRANCH  15  20
ENDBRANCH   3   5
ENDBRANCH   2   3
ENDBRANCH   1   2
BRANCH   1  24
ATOM     24  C   UNL A   1      31.213  31.639  26.185  1.00  0.00     0.275 C 
BRANCH  24  25
ATOM     25  O   UNL A   1      32.221  31.460  27.197  1.00  0.00    -0.458 OA
BRANCH  25  26
ATOM     26  C   UNL A   1      32.948  32.563  27.488  1.00  0.00     0.338 C 
ATOM     27  O   UNL A   1      32.568  33.720  27.514  1.00  0.00    -0.246 OA
BRANCH  26  28
ATOM     28  C   UNL A   1      34.288  32.163  27.937  1.00  0.00     0.060 A 
ATOM     29  C   UNL A   1      35.283  33.083  28.234  1.00  0.00     0.016 A 
ATOM     30  C   UNL A   1      34.484  30.819  28.224  1.00  0.00     0.016 A 
ATOM     31  C   UNL A   1      36.480  32.625  28.804  1.00  0.00     0.010 A 
ATOM     32  C   UNL A   1      35.593  30.393  28.941  1.00  0.00     0.010 A 
ATOM     33  C   UNL A   1      36.639  31.278  29.203  1.00  0.00    -0.014 A 
BRANCH  33  34
ATOM     34  C   UNL A   1      37.885  30.795  29.872  1.00  0.00     0.031 A 
ATOM     35  C   UNL A   1      38.189  31.144  31.315  1.00  0.00     0.074 A 
ATOM     36  C   UNL A   1      38.773  30.060  29.171  1.00  0.00     0.049 A 
ATOM     37  N   UNL A   1      39.203  30.772  32.061  1.00  0.00    -0.248 NA
ATOM     38  C   UNL A   1      37.268  32.065  32.004  1.00  0.00     0.031 C 
ATOM     39  C   UNL A   1      38.679  29.748  27.742  1.00  0.00     0.029 A 
ATOM     40  N   UNL A   1      39.924  29.422  29.567  1.00  0.00    -0.354 N 
ATOM     41  C   UNL A   1      39.045  31.425  33.280  1.00  0.00     0.074 A 
ATOM     42  C   UNL A   1      37.895  32.287  33.148  1.00  0.00     0.031 C 
ATOM     43  C   UNL A   1      39.670  28.909  27.405  1.00  0.00     0.029 A 
ATOM     44  C   UNL A   1      40.499  28.660  28.578  1.00  0.00     0.049 A 
ATOM     45  H   UNL A   1      40.299  29.503  30.473  1.00  0.00     0.167 HD
ATOM     46  C   UNL A   1      39.754  31.286  34.427  1.00  0.00     0.037 A 
ATOM     47  C   UNL A   1      41.567  27.839  28.614  1.00  0.00     0.037 A 
ATOM     48  C   UNL A   1      40.866  30.388  34.580  1.00  0.00     0.049 A 
ATOM     49  C   UNL A   1      42.313  27.669  29.909  1.00  0.00     0.074 A 
ATOM     50  C   UNL A   1      41.598  30.106  35.720  1.00  0.00     0.029 A 
ATOM     51  N   UNL A   1      41.403  29.621  33.559  1.00  0.00    -0.354 N 
ATOM     52  N   UNL A   1      42.078  28.211  31.079  1.00  0.00    -0.248 NA
ATOM     53  C   UNL A   1      43.472  26.766  29.886  1.00  0.00     0.031 C 
ATOM     54  C   UNL A   1      42.606  29.199  35.378  1.00  0.00     0.029 A 
ATOM     55  C   UNL A   1      42.469  28.878  34.036  1.00  0.00     0.049 A 
ATOM     56  H   UNL A   1      41.075  29.606  32.630  1.00  0.00     0.167 HD
ATOM     57  C   UNL A   1      43.043  27.696  31.936  1.00  0.00     0.074 A 
ATOM     58  C   UNL A   1      43.847  26.779  31.156  1.00  0.00     0.031 C 
ATOM     59  C   UNL A   1      43.253  27.965  33.248  1.00  0.00     0.037 A 
BRANCH  46  60
ATOM     60  C   UNL A   1      39.322  32.099  35.617  1.00  0.00     0.057 A 
ATOM     61  C   UNL A   1      39.854  33.374  35.851  1.00  0.00     0.134 A 
ATOM     62  C   UNL A   1      38.404  31.605  36.555  1.00  0.00     0.134 A 
ATOM     63  F   UNL A   1      40.748  33.907  35.005  1.00  0.00    -0.206 F 
ATOM     64  C   UNL A   1      39.485  34.127  36.968  1.00  0.00     0.040 A 
ATOM     65  C   UNL A   1      38.003  32.361  37.658  1.00  0.00     0.040 A 
ATOM     66  F   UNL A   1      37.849  30.394  36.390  1.00  0.00    -0.206 F 
ATOM     67  C   UNL A   1      38.549  33.624  37.871  1.00  0.00     0.006 A 
ENDBRANCH  46  60
BRANCH  47  68
ATOM     68  C   UNL A   1      41.977  27.079  27.404  1.00  0.00     0.057 A 
ATOM     69  C   UNL A   1      42.835  27.631  26.446  1.00  0.00     0.134 A 
ATOM     70  C   UNL A   1      41.548  25.761  27.200  1.00  0.00     0.134 A 
ATOM     71  F   UNL A   1      43.273  28.891  26.574  1.00  0.00    -0.206 F 
ATOM     72  C   UNL A   1      43.256  26.899  25.334  1.00  0.00     0.040 A 
ATOM     73  C   UNL A   1      41.986  25.008  26.109  1.00  0.00     0.040 A 
ATOM     74  F   UNL A   1      40.737  25.169  28.089  1.00  0.00    -0.206 F 
ATOM     75  C   UNL A   1      42.842  25.579  25.170  1.00  0.00     0.006 A 
ENDBRANCH  47  68
BRANCH  59  76
ATOM     76  C   UNL A   1      44.372  27.229  33.923  1.00  0.00     0.057 A 
ATOM     77  C   UNL A   1      44.146  25.983  34.521  1.00  0.00     0.134 A 
ATOM     78  C   UNL A   1      45.666  27.759  33.997  1.00  0.00     0.134 A 
ATOM     79  F   UNL A   1      42.927  25.424  34.495  1.00  0.00    -0.206 F 
ATOM     80  C   UNL A   1      45.170  25.289  35.166  1.00  0.00     0.040 A 
ATOM     81  C   UNL A   1      46.705  27.061  34.612  1.00  0.00     0.040 A 
ATOM     82  F   UNL A   1      45.950  28.943  33.433  1.00  0.00    -0.206 F 
ATOM     83  C   UNL A   1      46.456  25.824  35.204  1.00  0.00     0.006 A 
ENDBRANCH  59  76
ENDBRANCH  33  34
ENDBRANCH  26  28
ENDBRANCH  25  26
ENDBRANCH  24  25
ENDBRANCH   1  24
TORSDOF 14
ENDMDL
