MODEL 1
REMARK VINA RESULT:      -9.4      0.000      0.000
REMARK SMILES O=C(CCCOc1ccc([N+](=O)[O-])cc1F)OCCOC(=O)c1ccc(-c2c3nc(c(-c4c(F)cccc4F)c4ccc([nH]4)c(-c4c(F)cccc4F)c4nc(c(-c5c(F)cccc5F)c5ccc2[nH]5)C=C4)C=C3)cc1
REMARK SMILES IDX 17 1 2 2 1 3 3 4 4 5 5 6 6 7 7 8 8 9 15 10 9 11 14 12 16 13
REMARK SMILES IDX 10 14 11 15 12 16 13 17 18 18 19 19 20 20 21 21 22 22 23 23
REMARK SMILES IDX 24 24 76 25 25 26 75 27 26 28 27 29 28 30 69 31 29 32 74 33
REMARK SMILES IDX 68 34 70 35 30 36 73 37 67 38 66 39 31 41 57 42 40 43 56 44
REMARK SMILES IDX 41 45 44 46 55 47 71 48 42 49 43 50 54 52 72 53 45 54 32 55
REMARK SMILES IDX 33 56 38 57 34 58 35 59 37 60 39 61 36 62 58 63 59 64 64 65
REMARK SMILES IDX 60 66 61 67 63 68 65 69 62 70 46 71 47 72 52 73 48 74 49 75
REMARK SMILES IDX 51 76 53 77 50 78
REMARK H PARENT 70 40 44 51
REMARK Flexibility Score: inf
ROOT
ATOM      1  O   UNL A   1      44.572  19.377  24.727  1.00  0.00    -0.462 OA
ENDROOT
BRANCH   1   2
ATOM      2  C   UNL A   1      45.814  19.927  24.703  1.00  0.00     0.306 C 
ATOM      3  O   UNL A   1      46.838  19.311  24.428  1.00  0.00    -0.252 OA
BRANCH   2   4
ATOM      4  C   UNL A   1      45.821  21.321  25.293  1.00  0.00     0.126 C 
BRANCH   4   5
ATOM      5  C   UNL A   1      45.791  22.506  24.324  1.00  0.00     0.053 C 
BRANCH   5   6
ATOM      6  C   UNL A   1      46.215  23.882  24.870  1.00  0.00     0.230 C 
BRANCH   6   7
ATOM      7  O   UNL A   1      45.205  24.864  24.622  1.00  0.00    -0.490 OA
BRANCH   7   8
ATOM      8  C   UNL A   1      45.357  26.073  25.242  1.00  0.00     0.155 A 
ATOM      9  C   UNL A   1      46.572  26.620  25.663  1.00  0.00     0.056 A 
ATOM     10  C   UNL A   1      44.183  26.798  25.457  1.00  0.00     0.171 A 
ATOM     11  C   UNL A   1      46.622  27.942  26.129  1.00  0.00     0.089 A 
ATOM     12  C   UNL A   1      44.211  28.110  25.921  1.00  0.00     0.128 A 
ATOM     13  F   UNL A   1      42.997  26.264  25.128  1.00  0.00    -0.203 F 
ATOM     14  C   UNL A   1      45.445  28.699  26.189  1.00  0.00     0.272 A 
BRANCH  14  15
ATOM     15  N   UNL A   1      45.509  30.143  26.439  1.00  0.00     0.062 N 
ATOM     16  O   UNL A   1      46.247  30.819  25.711  1.00  0.00    -0.258 OA
ATOM     17  O   UNL A   1      44.789  30.598  27.338  1.00  0.00    -0.258 OA
ENDBRANCH  14  15
ENDBRANCH   7   8
ENDBRANCH   6   7
ENDBRANCH   5   6
ENDBRANCH   4   5
ENDBRANCH   2   4
ENDBRANCH   1   2
BRANCH   1  18
ATOM     18  C   UNL A   1      44.383  18.371  25.728  1.00  0.00     0.274 C 
BRANCH  18  19
ATOM     19  C   UNL A   1      42.917  18.331  26.189  1.00  0.00     0.275 C 
BRANCH  19  20
ATOM     20  O   UNL A   1      42.038  19.067  25.310  1.00  0.00    -0.458 OA
BRANCH  20  21
ATOM     21  C   UNL A   1      41.061  19.799  25.889  1.00  0.00     0.338 C 
ATOM     22  O   UNL A   1      39.875  19.502  25.966  1.00  0.00    -0.246 OA
BRANCH  21  23
ATOM     23  C   UNL A   1      41.632  21.025  26.488  1.00  0.00     0.060 A 
ATOM     24  C   UNL A   1      41.561  21.216  27.869  1.00  0.00     0.016 A 
ATOM     25  C   UNL A   1      42.168  22.033  25.686  1.00  0.00     0.016 A 
ATOM     26  C   UNL A   1      41.979  22.432  28.433  1.00  0.00     0.010 A 
ATOM     27  C   UNL A   1      42.636  23.223  26.250  1.00  0.00     0.010 A 
ATOM     28  C   UNL A   1      42.491  23.460  27.624  1.00  0.00    -0.014 A 
BRANCH  28  29
ATOM     29  C   UNL A   1      42.742  24.826  28.163  1.00  0.00     0.031 A 
ATOM     30  C   UNL A   1      44.136  25.205  28.600  1.00  0.00     0.074 A 
ATOM     31  C   UNL A   1      41.743  25.717  28.311  1.00  0.00     0.049 A 
ATOM     32  N   UNL A   1      44.573  26.330  29.113  1.00  0.00    -0.248 NA
ATOM     33  C   UNL A   1      45.175  24.171  28.465  1.00  0.00     0.031 C 
ATOM     34  C   UNL A   1      40.342  25.476  27.978  1.00  0.00     0.029 A 
ATOM     35  N   UNL A   1      41.758  27.003  28.798  1.00  0.00    -0.354 N 
ATOM     36  C   UNL A   1      45.925  26.134  29.366  1.00  0.00     0.074 A 
ATOM     37  C   UNL A   1      46.226  24.765  29.007  1.00  0.00     0.031 C 
ATOM     38  C   UNL A   1      39.630  26.580  28.266  1.00  0.00     0.029 A 
ATOM     39  C   UNL A   1      40.522  27.601  28.816  1.00  0.00     0.049 A 
ATOM     40  H   UNL A   1      42.578  27.452  29.104  1.00  0.00     0.167 HD
ATOM     41  C   UNL A   1      46.844  27.017  29.825  1.00  0.00     0.037 A 
ATOM     42  C   UNL A   1      40.149  28.832  29.223  1.00  0.00     0.037 A 
ATOM     43  C   UNL A   1      46.558  28.386  30.161  1.00  0.00     0.049 A 
ATOM     44  C   UNL A   1      41.182  29.802  29.734  1.00  0.00     0.074 A 
ATOM     45  C   UNL A   1      47.439  29.375  30.560  1.00  0.00     0.029 A 
ATOM     46  N   UNL A   1      45.295  28.956  30.143  1.00  0.00    -0.354 N 
ATOM     47  N   UNL A   1      42.472  29.631  29.882  1.00  0.00    -0.248 NA
ATOM     48  C   UNL A   1      40.708  31.140  30.125  1.00  0.00     0.031 C 
ATOM     49  C   UNL A   1      46.704  30.532  30.831  1.00  0.00     0.029 A 
ATOM     50  C   UNL A   1      45.371  30.277  30.549  1.00  0.00     0.049 A 
ATOM     51  H   UNL A   1      44.469  28.491  29.881  1.00  0.00     0.167 HD
ATOM     52  C   UNL A   1      42.969  30.843  30.349  1.00  0.00     0.074 A 
ATOM     53  C   UNL A   1      41.842  31.743  30.463  1.00  0.00     0.031 C 
ATOM     54  C   UNL A   1      44.248  31.174  30.647  1.00  0.00     0.037 A 
BRANCH  41  55
ATOM     55  C   UNL A   1      48.259  26.537  29.973  1.00  0.00     0.057 A 
ATOM     56  C   UNL A   1      48.664  25.835  31.117  1.00  0.00     0.134 A 
ATOM     57  C   UNL A   1      49.237  26.819  29.010  1.00  0.00     0.134 A 
ATOM     58  F   UNL A   1      47.784  25.543  32.085  1.00  0.00    -0.206 F 
ATOM     59  C   UNL A   1      49.990  25.435  31.296  1.00  0.00     0.040 A 
ATOM     60  C   UNL A   1      50.559  26.399  29.164  1.00  0.00     0.040 A 
ATOM     61  F   UNL A   1      48.914  27.482  27.889  1.00  0.00    -0.206 F 
ATOM     62  C   UNL A   1      50.940  25.712  30.315  1.00  0.00     0.006 A 
ENDBRANCH  41  55
BRANCH  42  63
ATOM     63  C   UNL A   1      38.725  29.232  29.109  1.00  0.00     0.057 A 
ATOM     64  C   UNL A   1      37.864  29.204  30.212  1.00  0.00     0.134 A 
ATOM     65  C   UNL A   1      38.183  29.613  27.876  1.00  0.00     0.134 A 
ATOM     66  F   UNL A   1      38.322  28.845  31.419  1.00  0.00    -0.206 F 
ATOM     67  C   UNL A   1      36.510  29.521  30.089  1.00  0.00     0.040 A 
ATOM     68  C   UNL A   1      36.835  29.951  27.742  1.00  0.00     0.040 A 
ATOM     69  F   UNL A   1      38.965  29.679  26.787  1.00  0.00    -0.206 F 
ATOM     70  C   UNL A   1      35.992  29.896  28.850  1.00  0.00     0.006 A 
ENDBRANCH  42  63
BRANCH  54  71
ATOM     71  C   UNL A   1      44.533  32.578  31.098  1.00  0.00     0.057 A 
ATOM     72  C   UNL A   1      44.862  33.570  30.165  1.00  0.00     0.134 A 
ATOM     73  C   UNL A   1      44.602  32.916  32.455  1.00  0.00     0.134 A 
ATOM     74  F   UNL A   1      44.828  33.308  28.850  1.00  0.00    -0.206 F 
ATOM     75  C   UNL A   1      45.274  34.842  30.566  1.00  0.00     0.040 A 
ATOM     76  C   UNL A   1      44.993  34.191  32.868  1.00  0.00     0.040 A 
ATOM     77  F   UNL A   1      44.293  32.013  33.397  1.00  0.00    -0.206 F 
ATOM     78  C   UNL A   1      45.342  35.154  31.922  1.00  0.00     0.006 A 
ENDBRANCH  54  71
ENDBRANCH  28  29
ENDBRANCH  21  23
ENDBRANCH  20  21
ENDBRANCH  19  20
ENDBRANCH  18  19
ENDBRANCH   1  18
TORSDOF 16
ENDMDL
MODEL 2
REMARK VINA RESULT:      -9.1      0.491      6.502
REMARK SMILES O=C(CCCOc1ccc([N+](=O)[O-])cc1F)OCCOC(=O)c1ccc(-c2c3nc(c(-c4c(F)cccc4F)c4ccc([nH]4)c(-c4c(F)cccc4F)c4nc(c(-c5c(F)cccc5F)c5ccc2[nH]5)C=C4)C=C3)cc1
REMARK SMILES IDX 17 1 2 2 1 3 3 4 4 5 5 6 6 7 7 8 8 9 15 10 9 11 14 12 16 13
REMARK SMILES IDX 10 14 11 15 12 16 13 17 18 18 19 19 20 20 21 21 22 22 23 23
REMARK SMILES IDX 24 24 76 25 25 26 75 27 26 28 27 29 28 30 69 31 29 32 74 33
REMARK SMILES IDX 68 34 70 35 30 36 73 37 67 38 66 39 31 41 57 42 40 43 56 44
REMARK SMILES IDX 41 45 44 46 55 47 71 48 42 49 43 50 54 52 72 53 45 54 32 55
REMARK SMILES IDX 33 56 38 57 34 58 35 59 37 60 39 61 36 62 58 63 59 64 64 65
REMARK SMILES IDX 60 66 61 67 63 68 65 69 62 70 46 71 47 72 52 73 48 74 49 75
REMARK SMILES IDX 51 76 53 77 50 78
REMARK H PARENT 70 40 44 51
REMARK Flexibility Score: inf
ROOT
ATOM      1  O   UNL A   1      44.412  19.442  24.728  1.00  0.00    -0.462 OA
ENDROOT
BRANCH   1   2
ATOM      2  C   UNL A   1      45.664  19.968  24.718  1.00  0.00     0.306 C 
ATOM      3  O   UNL A   1      46.671  19.349  24.393  1.00  0.00    -0.252 OA
BRANCH   2   4
ATOM      4  C   UNL A   1      45.707  21.325  25.386  1.00  0.00     0.126 C 
BRANCH   4   5
ATOM      5  C   UNL A   1      45.899  22.555  24.494  1.00  0.00     0.053 C 
BRANCH   5   6
ATOM      6  C   UNL A   1      46.229  23.891  25.184  1.00  0.00     0.230 C 
BRANCH   6   7
ATOM      7  O   UNL A   1      45.569  24.980  24.532  1.00  0.00    -0.490 OA
BRANCH   7   8
ATOM      8  C   UNL A   1      45.390  26.120  25.265  1.00  0.00     0.155 A 
ATOM      9  C   UNL A   1      46.403  26.840  25.903  1.00  0.00     0.056 A 
ATOM     10  C   UNL A   1      44.075  26.577  25.366  1.00  0.00     0.171 A 
ATOM     11  C   UNL A   1      46.122  28.087  26.480  1.00  0.00     0.089 A 
ATOM     12  C   UNL A   1      43.774  27.811  25.936  1.00  0.00     0.128 A 
ATOM     13  F   UNL A   1      43.074  25.865  24.825  1.00  0.00    -0.203 F 
ATOM     14  C   UNL A   1      44.816  28.593  26.430  1.00  0.00     0.272 A 
BRANCH  14  15
ATOM     15  N   UNL A   1      44.551  29.985  26.805  1.00  0.00     0.062 N 
ATOM     16  O   UNL A   1      45.171  30.871  26.202  1.00  0.00    -0.258 OA
ATOM     17  O   UNL A   1      43.692  30.187  27.675  1.00  0.00    -0.258 OA
ENDBRANCH  14  15
ENDBRANCH   7   8
ENDBRANCH   6   7
ENDBRANCH   5   6
ENDBRANCH   4   5
ENDBRANCH   2   4
ENDBRANCH   1   2
BRANCH   1  18
ATOM     18  C   UNL A   1      44.192  18.440  25.728  1.00  0.00     0.274 C 
BRANCH  18  19
ATOM     19  C   UNL A   1      42.729  18.454  26.200  1.00  0.00     0.275 C 
BRANCH  19  20
ATOM     20  O   UNL A   1      41.873  19.230  25.333  1.00  0.00    -0.458 OA
BRANCH  20  21
ATOM     21  C   UNL A   1      40.941  20.009  25.924  1.00  0.00     0.338 C 
ATOM     22  O   UNL A   1      39.736  19.794  25.976  1.00  0.00    -0.246 OA
BRANCH  21  23
ATOM     23  C   UNL A   1      41.588  21.170  26.574  1.00  0.00     0.060 A 
ATOM     24  C   UNL A   1      41.525  21.308  27.962  1.00  0.00     0.016 A 
ATOM     25  C   UNL A   1      42.190  22.173  25.815  1.00  0.00     0.016 A 
ATOM     26  C   UNL A   1      42.019  22.470  28.576  1.00  0.00     0.010 A 
ATOM     27  C   UNL A   1      42.732  23.307  26.428  1.00  0.00     0.010 A 
ATOM     28  C   UNL A   1      42.598  23.496  27.810  1.00  0.00    -0.014 A 
BRANCH  28  29
ATOM     29  C   UNL A   1      42.934  24.820  28.405  1.00  0.00     0.031 A 
ATOM     30  C   UNL A   1      41.851  25.861  28.555  1.00  0.00     0.074 A 
ATOM     31  C   UNL A   1      44.193  25.126  28.771  1.00  0.00     0.049 A 
ATOM     32  N   UNL A   1      41.927  27.081  29.028  1.00  0.00    -0.248 NA
ATOM     33  C   UNL A   1      40.507  25.487  28.086  1.00  0.00     0.031 C 
ATOM     34  C   UNL A   1      45.348  24.242  28.641  1.00  0.00     0.029 A 
ATOM     35  N   UNL A   1      44.710  26.279  29.314  1.00  0.00    -0.354 N 
ATOM     36  C   UNL A   1      40.650  27.615  28.907  1.00  0.00     0.074 A 
ATOM     37  C   UNL A   1      39.832  26.612  28.262  1.00  0.00     0.031 C 
ATOM     38  C   UNL A   1      46.440  24.882  29.095  1.00  0.00     0.029 A 
ATOM     39  C   UNL A   1      46.064  26.226  29.536  1.00  0.00     0.049 A 
ATOM     40  H   UNL A   1      44.161  27.068  29.523  1.00  0.00     0.167 HD
ATOM     41  C   UNL A   1      40.187  28.819  29.321  1.00  0.00     0.037 A 
ATOM     42  C   UNL A   1      46.907  27.150  30.042  1.00  0.00     0.037 A 
ATOM     43  C   UNL A   1      40.987  29.813  29.985  1.00  0.00     0.049 A 
ATOM     44  C   UNL A   1      46.378  28.485  30.495  1.00  0.00     0.074 A 
ATOM     45  C   UNL A   1      40.586  31.030  30.509  1.00  0.00     0.029 A 
ATOM     46  N   UNL A   1      42.350  29.708  30.210  1.00  0.00    -0.354 N 
ATOM     47  N   UNL A   1      45.151  28.942  30.457  1.00  0.00    -0.248 NA
ATOM     48  C   UNL A   1      47.349  29.430  31.072  1.00  0.00     0.031 C 
ATOM     49  C   UNL A   1      41.715  31.683  31.009  1.00  0.00     0.029 A 
ATOM     50  C   UNL A   1      42.810  30.850  30.843  1.00  0.00     0.049 A 
ATOM     51  H   UNL A   1      42.907  28.937  29.957  1.00  0.00     0.167 HD
ATOM     52  C   UNL A   1      45.194  30.207  31.032  1.00  0.00     0.074 A 
ATOM     53  C   UNL A   1      46.569  30.450  31.409  1.00  0.00     0.031 C 
ATOM     54  C   UNL A   1      44.178  31.081  31.231  1.00  0.00     0.037 A 
BRANCH  41  55
ATOM     55  C   UNL A   1      38.735  29.126  29.087  1.00  0.00     0.057 A 
ATOM     56  C   UNL A   1      38.283  29.547  27.829  1.00  0.00     0.134 A 
ATOM     57  C   UNL A   1      37.793  29.060  30.123  1.00  0.00     0.134 A 
ATOM     58  F   UNL A   1      39.132  29.646  26.797  1.00  0.00    -0.206 F 
ATOM     59  C   UNL A   1      36.947  29.893  27.613  1.00  0.00     0.040 A 
ATOM     60  C   UNL A   1      36.450  29.375  29.910  1.00  0.00     0.040 A 
ATOM     61  F   UNL A   1      38.159  28.658  31.349  1.00  0.00    -0.206 F 
ATOM     62  C   UNL A   1      36.026  29.802  28.654  1.00  0.00     0.006 A 
ENDBRANCH  41  55
BRANCH  42  63
ATOM     63  C   UNL A   1      48.345  26.813  30.195  1.00  0.00     0.057 A 
ATOM     64  C   UNL A   1      49.286  27.153  29.216  1.00  0.00     0.134 A 
ATOM     65  C   UNL A   1      48.800  26.103  31.312  1.00  0.00     0.134 A 
ATOM     66  F   UNL A   1      48.911  27.830  28.123  1.00  0.00    -0.206 F 
ATOM     67  C   UNL A   1      50.627  26.780  29.333  1.00  0.00     0.040 A 
ATOM     68  C   UNL A   1      50.141  25.741  31.451  1.00  0.00     0.040 A 
ATOM     69  F   UNL A   1      47.947  25.768  32.292  1.00  0.00    -0.206 F 
ATOM     70  C   UNL A   1      51.057  26.071  30.454  1.00  0.00     0.006 A 
ENDBRANCH  42  63
BRANCH  54  71
ATOM     71  C   UNL A   1      44.482  32.381  31.918  1.00  0.00     0.057 A 
ATOM     72  C   UNL A   1      44.342  32.498  33.308  1.00  0.00     0.134 A 
ATOM     73  C   UNL A   1      44.792  33.540  31.198  1.00  0.00     0.134 A 
ATOM     74  F   UNL A   1      44.033  31.428  34.055  1.00  0.00    -0.206 F 
ATOM     75  C   UNL A   1      44.474  33.729  33.954  1.00  0.00     0.040 A 
ATOM     76  C   UNL A   1      44.948  34.773  31.836  1.00  0.00     0.040 A 
ATOM     77  F   UNL A   1      44.947  33.492  29.867  1.00  0.00    -0.206 F 
ATOM     78  C   UNL A   1      44.776  34.871  33.216  1.00  0.00     0.006 A 
ENDBRANCH  54  71
ENDBRANCH  28  29
ENDBRANCH  21  23
ENDBRANCH  20  21
ENDBRANCH  19  20
ENDBRANCH  18  19
ENDBRANCH   1  18
TORSDOF 16
ENDMDL
MODEL 3
REMARK VINA RESULT:      -8.5      6.714     11.826
REMARK SMILES O=C(CCCOc1ccc([N+](=O)[O-])cc1F)OCCOC(=O)c1ccc(-c2c3nc(c(-c4c(F)cccc4F)c4ccc([nH]4)c(-c4c(F)cccc4F)c4nc(c(-c5c(F)cccc5F)c5ccc2[nH]5)C=C4)C=C3)cc1
REMARK SMILES IDX 17 1 2 2 1 3 3 4 4 5 5 6 6 7 7 8 8 9 15 10 9 11 14 12 16 13
REMARK SMILES IDX 10 14 11 15 12 16 13 17 18 18 19 19 20 20 21 21 22 22 23 23
REMARK SMILES IDX 24 24 76 25 25 26 75 27 26 28 27 29 28 30 69 31 29 32 74 33
REMARK SMILES IDX 68 34 70 35 30 36 73 37 67 38 66 39 31 41 57 42 40 43 56 44
REMARK SMILES IDX 41 45 44 46 55 47 71 48 42 49 43 50 54 52 72 53 45 54 32 55
REMARK SMILES IDX 33 56 38 57 34 58 35 59 37 60 39 61 36 62 58 63 59 64 64 65
REMARK SMILES IDX 60 66 61 67 63 68 65 69 62 70 46 71 47 72 52 73 48 74 49 75
REMARK SMILES IDX 51 76 53 77 50 78
REMARK H PARENT 70 40 44 51
REMARK Flexibility Score: inf
ROOT
ATOM      1  O   UNL A   1      31.965  29.964  27.320  1.00  0.00    -0.462 OA
ENDROOT
BRANCH   1   2
ATOM      2  C   UNL A   1      31.648  28.660  27.112  1.00  0.00     0.306 C 
ATOM      3  O   UNL A   1      31.228  27.903  27.980  1.00  0.00    -0.252 OA
BRANCH   2   4
ATOM      4  C   UNL A   1      32.105  28.183  25.750  1.00  0.00     0.126 C 
BRANCH   4   5
ATOM      5  C   UNL A   1      31.803  26.733  25.362  1.00  0.00     0.053 C 
BRANCH   5   6
ATOM      6  C   UNL A   1      30.350  26.383  24.994  1.00  0.00     0.230 C 
BRANCH   6   7
ATOM      7  O   UNL A   1      30.133  26.516  23.586  1.00  0.00    -0.490 OA
BRANCH   7   8
ATOM      8  C   UNL A   1      29.441  27.620  23.171  1.00  0.00     0.155 A 
ATOM      9  C   UNL A   1      28.064  27.813  23.313  1.00  0.00     0.056 A 
ATOM     10  C   UNL A   1      30.200  28.618  22.558  1.00  0.00     0.171 A 
ATOM     11  C   UNL A   1      27.495  29.058  23.006  1.00  0.00     0.089 A 
ATOM     12  C   UNL A   1      29.653  29.860  22.243  1.00  0.00     0.128 A 
ATOM     13  F   UNL A   1      31.511  28.427  22.343  1.00  0.00    -0.203 F 
ATOM     14  C   UNL A   1      28.312  30.094  22.535  1.00  0.00     0.272 A 
BRANCH  14  15
ATOM     15  N   UNL A   1      27.787  31.460  22.441  1.00  0.00     0.062 N 
ATOM     16  O   UNL A   1      27.948  32.065  21.373  1.00  0.00    -0.258 OA
ATOM     17  O   UNL A   1      27.179  31.906  23.424  1.00  0.00    -0.258 OA
ENDBRANCH  14  15
ENDBRANCH   7   8
ENDBRANCH   6   7
ENDBRANCH   5   6
ENDBRANCH   4   5
ENDBRANCH   2   4
ENDBRANCH   1   2
BRANCH   1  18
ATOM     18  C   UNL A   1      31.534  30.855  26.285  1.00  0.00     0.274 C 
BRANCH  18  19
ATOM     19  C   UNL A   1      31.418  32.293  26.818  1.00  0.00     0.275 C 
BRANCH  19  20
ATOM     20  O   UNL A   1      32.650  33.036  26.685  1.00  0.00    -0.458 OA
BRANCH  20  21
ATOM     21  C   UNL A   1      33.170  33.574  27.810  1.00  0.00     0.338 C 
ATOM     22  O   UNL A   1      32.682  34.476  28.480  1.00  0.00    -0.246 OA
BRANCH  21  23
ATOM     23  C   UNL A   1      34.421  32.874  28.177  1.00  0.00     0.060 A 
ATOM     24  C   UNL A   1      34.408  31.491  28.363  1.00  0.00     0.016 A 
ATOM     25  C   UNL A   1      35.596  33.585  28.420  1.00  0.00     0.016 A 
ATOM     26  C   UNL A   1      35.555  30.835  28.840  1.00  0.00     0.010 A 
ATOM     27  C   UNL A   1      36.755  32.928  28.842  1.00  0.00     0.010 A 
ATOM     28  C   UNL A   1      36.730  31.554  29.114  1.00  0.00    -0.014 A 
BRANCH  28  29
ATOM     29  C   UNL A   1      37.885  30.924  29.816  1.00  0.00     0.031 A 
ATOM     30  C   UNL A   1      38.151  31.270  31.261  1.00  0.00     0.074 A 
ATOM     31  C   UNL A   1      38.723  30.088  29.177  1.00  0.00     0.049 A 
ATOM     32  N   UNL A   1      39.107  30.855  32.056  1.00  0.00    -0.248 NA
ATOM     33  C   UNL A   1      37.232  32.234  31.889  1.00  0.00     0.031 C 
ATOM     34  C   UNL A   1      38.621  29.700  27.773  1.00  0.00     0.029 A 
ATOM     35  N   UNL A   1      39.840  29.425  29.628  1.00  0.00    -0.354 N 
ATOM     36  C   UNL A   1      38.907  31.508  33.265  1.00  0.00     0.074 A 
ATOM     37  C   UNL A   1      37.777  32.392  33.085  1.00  0.00     0.031 C 
ATOM     38  C   UNL A   1      39.631  28.863  27.477  1.00  0.00     0.029 A 
ATOM     39  C   UNL A   1      40.460  28.666  28.666  1.00  0.00     0.049 A 
ATOM     40  H   UNL A   1      40.165  29.489  30.555  1.00  0.00     0.167 HD
ATOM     41  C   UNL A   1      39.580  31.366  34.433  1.00  0.00     0.037 A 
ATOM     42  C   UNL A   1      41.565  27.895  28.733  1.00  0.00     0.037 A 
ATOM     43  C   UNL A   1      40.689  30.471  34.627  1.00  0.00     0.049 A 
ATOM     44  C   UNL A   1      42.304  27.750  30.036  1.00  0.00     0.074 A 
ATOM     45  C   UNL A   1      41.383  30.204  35.794  1.00  0.00     0.029 A 
ATOM     46  N   UNL A   1      41.269  29.704  33.630  1.00  0.00    -0.354 N 
ATOM     47  N   UNL A   1      42.049  28.304  31.196  1.00  0.00    -0.248 NA
ATOM     48  C   UNL A   1      43.479  26.863  30.045  1.00  0.00     0.031 C 
ATOM     49  C   UNL A   1      42.415  29.311  35.494  1.00  0.00     0.029 A 
ATOM     50  C   UNL A   1      42.329  28.982  34.150  1.00  0.00     0.049 A 
ATOM     51  H   UNL A   1      40.972  29.677  32.692  1.00  0.00     0.167 HD
ATOM     52  C   UNL A   1      43.005  27.810  32.077  1.00  0.00     0.074 A 
ATOM     53  C   UNL A   1      43.849  26.913  31.319  1.00  0.00     0.031 C 
ATOM     54  C   UNL A   1      43.159  28.077  33.396  1.00  0.00     0.037 A 
BRANCH  41  55
ATOM     55  C   UNL A   1      39.122  32.185  35.606  1.00  0.00     0.057 A 
ATOM     56  C   UNL A   1      39.563  33.504  35.778  1.00  0.00     0.134 A 
ATOM     57  C   UNL A   1      38.289  31.648  36.597  1.00  0.00     0.134 A 
ATOM     58  F   UNL A   1      40.372  34.076  34.875  1.00  0.00    -0.206 F 
ATOM     59  C   UNL A   1      39.193  34.256  36.894  1.00  0.00     0.040 A 
ATOM     60  C   UNL A   1      37.890  32.401  37.703  1.00  0.00     0.040 A 
ATOM     61  F   UNL A   1      37.826  30.393  36.490  1.00  0.00    -0.206 F 
ATOM     62  C   UNL A   1      38.350  33.707  37.857  1.00  0.00     0.006 A 
ENDBRANCH  41  55
BRANCH  42  63
ATOM     63  C   UNL A   1      42.006  27.155  27.525  1.00  0.00     0.057 A 
ATOM     64  C   UNL A   1      42.815  27.754  26.551  1.00  0.00     0.134 A 
ATOM     65  C   UNL A   1      41.590  25.838  27.298  1.00  0.00     0.134 A 
ATOM     66  F   UNL A   1      43.244  29.014  26.710  1.00  0.00    -0.206 F 
ATOM     67  C   UNL A   1      43.178  27.076  25.386  1.00  0.00     0.040 A 
ATOM     68  C   UNL A   1      41.961  25.142  26.146  1.00  0.00     0.040 A 
ATOM     69  F   UNL A   1      40.831  25.206  28.206  1.00  0.00    -0.206 F 
ATOM     70  C   UNL A   1      42.749  25.765  25.181  1.00  0.00     0.006 A 
ENDBRANCH  42  63
BRANCH  54  71
ATOM     71  C   UNL A   1      44.257  27.376  34.141  1.00  0.00     0.057 A 
ATOM     72  C   UNL A   1      44.015  26.148  34.771  1.00  0.00     0.134 A 
ATOM     73  C   UNL A   1      45.510  27.969  34.337  1.00  0.00     0.134 A 
ATOM     74  F   UNL A   1      42.831  25.533  34.633  1.00  0.00    -0.206 F 
ATOM     75  C   UNL A   1      44.972  25.547  35.591  1.00  0.00     0.040 A 
ATOM     76  C   UNL A   1      46.482  27.367  35.139  1.00  0.00     0.040 A 
ATOM     77  F   UNL A   1      45.806  29.141  33.756  1.00  0.00    -0.206 F 
ATOM     78  C   UNL A   1      46.209  26.160  35.778  1.00  0.00     0.006 A 
ENDBRANCH  54  71
ENDBRANCH  28  29
ENDBRANCH  21  23
ENDBRANCH  20  21
ENDBRANCH  19  20
ENDBRANCH  18  19
ENDBRANCH   1  18
TORSDOF 16
ENDMDL
