MODEL 1
REMARK VINA RESULT:     -13.1      0.000      0.000
REMARK SMILES O=C(COc1cccc(NC(=O)c2ccc3c(c2)C(=O)N(c2ccccc2-c2ccccc2)C3=O)c1)OCCOC(=O)c1ccc(-c2c3nc(c(-c4c(F)cccc4F)c4ccc([nH]4)c(-c4c(F)cccc4F)c4nc(c(-c5c(F)cccc5F)c5ccc2[nH]5)C=C4)C=C3)cc1
REMARK SMILES IDX 1 1 2 2 3 3 4 4 5 5 6 6 36 7 7 8 9 9 8 10 10 11 11 12 12 14
REMARK SMILES IDX 13 15 14 16 18 17 15 18 17 19 16 20 19 21 34 22 20 23 21 24
REMARK SMILES IDX 35 25 22 26 23 27 27 28 24 29 26 30 25 31 28 32 29 33 33 34
REMARK SMILES IDX 30 35 32 36 31 37 37 38 38 39 39 40 40 41 41 42 42 43 43 44
REMARK SMILES IDX 44 45 96 46 45 47 95 48 46 49 47 50 48 51 89 52 49 53 94 54
REMARK SMILES IDX 88 55 90 56 50 57 93 58 87 59 86 60 51 62 77 63 60 64 76 65
REMARK SMILES IDX 61 66 64 67 75 68 91 69 62 70 63 71 74 73 92 74 65 75 52 76
REMARK SMILES IDX 53 77 58 78 54 79 55 80 57 81 59 82 56 83 78 84 79 85 84 86
REMARK SMILES IDX 80 87 81 88 83 89 85 90 82 91 66 92 67 93 72 94 68 95 69 96
REMARK SMILES IDX 71 97 73 98 70 99
REMARK H PARENT 10 13 90 61 64 72
REMARK Flexibility Score: inf
ROOT
ATOM      1  O   UNL A   1      32.566  35.168  30.008  1.00  0.00    -0.248 OA
ATOM      2  C   UNL A   1      33.660  34.798  30.433  1.00  0.00     0.344 C 
ENDROOT
BRANCH   2   3
ATOM      3  C   UNL A   1      34.507  33.813  29.641  1.00  0.00     0.351 C 
BRANCH   3   4
ATOM      4  O   UNL A   1      34.763  32.559  30.243  1.00  0.00    -0.482 OA
BRANCH   4   5
ATOM      5  C   UNL A   1      34.964  31.529  29.371  1.00  0.00     0.122 A 
ATOM      6  C   UNL A   1      36.006  30.673  29.710  1.00  0.00     0.046 A 
ATOM      7  C   UNL A   1      34.278  31.374  28.157  1.00  0.00     0.072 A 
ATOM      8  C   UNL A   1      36.373  29.671  28.829  1.00  0.00     0.006 A 
ATOM      9  C   UNL A   1      34.622  30.350  27.269  1.00  0.00     0.045 A 
ATOM     10  C   UNL A   1      35.696  29.530  27.615  1.00  0.00     0.026 A 
BRANCH   9  11
ATOM     11  N   UNL A   1      33.910  30.278  26.043  1.00  0.00    -0.322 N 
ATOM     12  C   UNL A   1      33.247  29.239  25.412  1.00  0.00     0.255 C 
ATOM     13  H   UNL A   1      33.882  31.129  25.549  1.00  0.00     0.170 HD
ATOM     14  O   UNL A   1      32.873  29.321  24.247  1.00  0.00    -0.269 OA
BRANCH  12  15
ATOM     15  C   UNL A   1      32.850  28.064  26.204  1.00  0.00     0.041 A 
ATOM     16  C   UNL A   1      31.573  28.011  26.807  1.00  0.00     0.015 A 
ATOM     17  C   UNL A   1      33.649  26.930  26.065  1.00  0.00     0.028 A 
ATOM     18  C   UNL A   1      30.991  26.762  27.086  1.00  0.00     0.015 A 
ATOM     19  C   UNL A   1      33.034  25.730  26.336  1.00  0.00     0.054 A 
ATOM     20  C   UNL A   1      31.732  25.634  26.764  1.00  0.00     0.053 A 
ATOM     21  C   UNL A   1      33.465  24.422  25.902  1.00  0.00     0.266 C 
ATOM     22  C   UNL A   1      31.318  24.245  26.535  1.00  0.00     0.266 C 
ATOM     23  O   UNL A   1      34.641  24.235  25.645  1.00  0.00    -0.268 OA
ATOM     24  N   UNL A   1      32.336  23.631  25.832  1.00  0.00    -0.242 N 
ATOM     25  O   UNL A   1      30.272  23.835  27.001  1.00  0.00    -0.268 OA
BRANCH  24  26
ATOM     26  C   UNL A   1      32.287  22.409  25.071  1.00  0.00     0.060 A 
ATOM     27  C   UNL A   1      32.481  21.189  25.764  1.00  0.00     0.027 A 
ATOM     28  C   UNL A   1      32.199  22.325  23.656  1.00  0.00     0.006 A 
ATOM     29  C   UNL A   1      32.620  19.959  25.123  1.00  0.00     0.002 A 
ATOM     30  C   UNL A   1      32.290  21.050  23.033  1.00  0.00     0.011 A 
ATOM     31  C   UNL A   1      32.519  19.887  23.752  1.00  0.00     0.001 A 
BRANCH  28  32
ATOM     32  C   UNL A   1      32.182  23.441  22.700  1.00  0.00    -0.016 A 
ATOM     33  C   UNL A   1      33.134  23.528  21.672  1.00  0.00     0.009 A 
ATOM     34  C   UNL A   1      31.318  24.530  22.905  1.00  0.00     0.009 A 
ATOM     35  C   UNL A   1      33.184  24.648  20.840  1.00  0.00     0.001 A 
ATOM     36  C   UNL A   1      31.374  25.653  22.078  1.00  0.00     0.001 A 
ATOM     37  C   UNL A   1      32.303  25.707  21.041  1.00  0.00     0.000 A 
ENDBRANCH  28  32
ENDBRANCH  24  26
ENDBRANCH  12  15
ENDBRANCH   9  11
ENDBRANCH   4   5
ENDBRANCH   3   4
ENDBRANCH   2   3
BRANCH   2  38
ATOM     38  O   UNL A   1      34.148  35.299  31.592  1.00  0.00    -0.460 OA
BRANCH  38  39
ATOM     39  C   UNL A   1      34.020  34.657  32.880  1.00  0.00     0.274 C 
BRANCH  39  40
ATOM     40  C   UNL A   1      35.291  34.855  33.705  1.00  0.00     0.275 C 
BRANCH  40  41
ATOM     41  O   UNL A   1      36.399  34.238  33.021  1.00  0.00    -0.458 OA
BRANCH  41  42
ATOM     42  C   UNL A   1      36.971  33.182  33.654  1.00  0.00     0.338 C 
ATOM     43  O   UNL A   1      36.681  32.740  34.751  1.00  0.00    -0.246 OA
BRANCH  42  44
ATOM     44  C   UNL A   1      37.876  32.497  32.700  1.00  0.00     0.060 A 
ATOM     45  C   UNL A   1      38.616  31.404  33.166  1.00  0.00     0.016 A 
ATOM     46  C   UNL A   1      37.965  32.887  31.359  1.00  0.00     0.016 A 
ATOM     47  C   UNL A   1      39.474  30.722  32.301  1.00  0.00     0.010 A 
ATOM     48  C   UNL A   1      38.830  32.206  30.495  1.00  0.00     0.010 A 
ATOM     49  C   UNL A   1      39.610  31.139  30.969  1.00  0.00    -0.014 A 
BRANCH  49  50
ATOM     50  C   UNL A   1      40.702  30.571  30.141  1.00  0.00     0.031 A 
ATOM     51  C   UNL A   1      41.858  31.463  29.767  1.00  0.00     0.074 A 
ATOM     52  C   UNL A   1      40.696  29.283  29.751  1.00  0.00     0.049 A 
ATOM     53  N   UNL A   1      42.958  31.171  29.121  1.00  0.00    -0.248 NA
ATOM     54  C   UNL A   1      41.753  32.874  30.172  1.00  0.00     0.031 C 
ATOM     55  C   UNL A   1      39.634  28.312  30.007  1.00  0.00     0.029 A 
ATOM     56  N   UNL A   1      41.633  28.576  29.038  1.00  0.00    -0.354 N 
ATOM     57  C   UNL A   1      43.686  32.352  29.066  1.00  0.00     0.074 A 
ATOM     58  C   UNL A   1      42.881  33.377  29.694  1.00  0.00     0.031 C 
ATOM     59  C   UNL A   1      39.971  27.135  29.444  1.00  0.00     0.029 A 
ATOM     60  C   UNL A   1      41.278  27.270  28.803  1.00  0.00     0.049 A 
ATOM     61  H   UNL A   1      42.480  28.968  28.725  1.00  0.00     0.167 HD
ATOM     62  C   UNL A   1      44.923  32.568  28.560  1.00  0.00     0.037 A 
ATOM     63  C   UNL A   1      41.942  26.301  28.147  1.00  0.00     0.037 A 
ATOM     64  C   UNL A   1      45.728  31.569  27.911  1.00  0.00     0.049 A 
ATOM     65  C   UNL A   1      43.313  26.571  27.582  1.00  0.00     0.074 A 
ATOM     66  C   UNL A   1      46.998  31.695  27.375  1.00  0.00     0.029 A 
ATOM     67  N   UNL A   1      45.336  30.258  27.702  1.00  0.00    -0.354 N 
ATOM     68  N   UNL A   1      44.011  27.679  27.585  1.00  0.00    -0.248 NA
ATOM     69  C   UNL A   1      43.992  25.435  26.936  1.00  0.00     0.031 C 
ATOM     70  C   UNL A   1      47.362  30.467  26.810  1.00  0.00     0.029 A 
ATOM     71  C   UNL A   1      46.333  29.568  27.031  1.00  0.00     0.049 A 
ATOM     72  H   UNL A   1      44.476  29.873  27.987  1.00  0.00     0.167 HD
ATOM     73  C   UNL A   1      45.207  27.372  26.947  1.00  0.00     0.074 A 
ATOM     74  C   UNL A   1      45.154  25.969  26.599  1.00  0.00     0.031 C 
ATOM     75  C   UNL A   1      46.257  28.180  26.668  1.00  0.00     0.037 A 
BRANCH  62  76
ATOM     76  C   UNL A   1      45.487  33.948  28.698  1.00  0.00     0.057 A 
ATOM     77  C   UNL A   1      45.255  34.930  27.725  1.00  0.00     0.134 A 
ATOM     78  C   UNL A   1      46.238  34.311  29.822  1.00  0.00     0.134 A 
ATOM     79  F   UNL A   1      44.555  34.638  26.618  1.00  0.00    -0.206 F 
ATOM     80  C   UNL A   1      45.764  36.222  27.859  1.00  0.00     0.040 A 
ATOM     81  C   UNL A   1      46.734  35.606  29.976  1.00  0.00     0.040 A 
ATOM     82  F   UNL A   1      46.494  33.417  30.788  1.00  0.00    -0.206 F 
ATOM     83  C   UNL A   1      46.501  36.564  28.991  1.00  0.00     0.006 A 
ENDBRANCH  62  76
BRANCH  63  84
ATOM     84  C   UNL A   1      41.349  24.961  27.938  1.00  0.00     0.057 A 
ATOM     85  C   UNL A   1      41.837  23.837  28.615  1.00  0.00     0.134 A 
ATOM     86  C   UNL A   1      40.403  24.758  26.929  1.00  0.00     0.134 A 
ATOM     87  F   UNL A   1      42.770  23.976  29.567  1.00  0.00    -0.206 F 
ATOM     88  C   UNL A   1      41.430  22.548  28.268  1.00  0.00     0.040 A 
ATOM     89  C   UNL A   1      39.985  23.474  26.575  1.00  0.00     0.040 A 
ATOM     90  F   UNL A   1      39.906  25.798  26.246  1.00  0.00    -0.206 F 
ATOM     91  C   UNL A   1      40.504  22.365  27.241  1.00  0.00     0.006 A 
ENDBRANCH  63  84
BRANCH  75  92
ATOM     92  C   UNL A   1      47.420  27.561  25.954  1.00  0.00     0.057 A 
ATOM     93  C   UNL A   1      47.501  27.550  24.554  1.00  0.00     0.134 A 
ATOM     94  C   UNL A   1      48.466  26.967  26.668  1.00  0.00     0.134 A 
ATOM     95  F   UNL A   1      46.519  28.088  23.813  1.00  0.00    -0.206 F 
ATOM     96  C   UNL A   1      48.568  26.944  23.891  1.00  0.00     0.040 A 
ATOM     97  C   UNL A   1      49.551  26.377  26.016  1.00  0.00     0.040 A 
ATOM     98  F   UNL A   1      48.451  26.946  28.009  1.00  0.00    -0.206 F 
ATOM     99  C   UNL A   1      49.599  26.358  24.623  1.00  0.00     0.006 A 
ENDBRANCH  75  92
ENDBRANCH  49  50
ENDBRANCH  42  44
ENDBRANCH  41  42
ENDBRANCH  40  41
ENDBRANCH  39  40
ENDBRANCH  38  39
ENDBRANCH   2  38
TORSDOF 17
ENDMDL
MODEL 2
REMARK VINA RESULT:     -12.9      4.985      9.141
REMARK SMILES O=C(COc1cccc(NC(=O)c2ccc3c(c2)C(=O)N(c2ccccc2-c2ccccc2)C3=O)c1)OCCOC(=O)c1ccc(-c2c3nc(c(-c4c(F)cccc4F)c4ccc([nH]4)c(-c4c(F)cccc4F)c4nc(c(-c5c(F)cccc5F)c5ccc2[nH]5)C=C4)C=C3)cc1
REMARK SMILES IDX 1 1 2 2 3 3 4 4 5 5 6 6 36 7 7 8 9 9 8 10 10 11 11 12 12 14
REMARK SMILES IDX 13 15 14 16 18 17 15 18 17 19 16 20 19 21 34 22 20 23 21 24
REMARK SMILES IDX 35 25 22 26 23 27 27 28 24 29 26 30 25 31 28 32 29 33 33 34
REMARK SMILES IDX 30 35 32 36 31 37 37 38 38 39 39 40 40 41 41 42 42 43 43 44
REMARK SMILES IDX 44 45 96 46 45 47 95 48 46 49 47 50 48 51 89 52 49 53 94 54
REMARK SMILES IDX 88 55 90 56 50 57 93 58 87 59 86 60 51 62 77 63 60 64 76 65
REMARK SMILES IDX 61 66 64 67 75 68 91 69 62 70 63 71 74 73 92 74 65 75 52 76
REMARK SMILES IDX 53 77 58 78 54 79 55 80 57 81 59 82 56 83 78 84 79 85 84 86
REMARK SMILES IDX 80 87 81 88 83 89 85 90 82 91 66 92 67 93 72 94 68 95 69 96
REMARK SMILES IDX 71 97 73 98 70 99
REMARK H PARENT 10 13 90 61 64 72
REMARK Flexibility Score: inf
ROOT
ATOM      1  O   UNL A   1      34.691  35.100  27.738  1.00  0.00    -0.248 OA
ATOM      2  C   UNL A   1      33.599  35.283  28.273  1.00  0.00     0.344 C 
ENDROOT
BRANCH   2   3
ATOM      3  C   UNL A   1      33.290  36.594  28.979  1.00  0.00     0.351 C 
BRANCH   3   4
ATOM      4  O   UNL A   1      32.442  36.530  30.108  1.00  0.00    -0.482 OA
BRANCH   4   5
ATOM      5  C   UNL A   1      33.071  36.262  31.289  1.00  0.00     0.122 A 
ATOM      6  C   UNL A   1      33.296  37.373  32.096  1.00  0.00     0.046 A 
ATOM      7  C   UNL A   1      33.575  35.004  31.651  1.00  0.00     0.072 A 
ATOM      8  C   UNL A   1      34.038  37.229  33.255  1.00  0.00     0.006 A 
ATOM      9  C   UNL A   1      34.304  34.839  32.833  1.00  0.00     0.045 A 
ATOM     10  C   UNL A   1      34.549  35.976  33.603  1.00  0.00     0.026 A 
BRANCH   9  11
ATOM     11  N   UNL A   1      34.815  33.545  33.114  1.00  0.00    -0.322 N 
ATOM     12  C   UNL A   1      36.073  32.988  32.957  1.00  0.00     0.255 C 
ATOM     13  H   UNL A   1      34.148  32.927  33.493  1.00  0.00     0.170 HD
ATOM     14  O   UNL A   1      36.264  31.780  33.058  1.00  0.00    -0.269 OA
BRANCH  12  15
ATOM     15  C   UNL A   1      37.234  33.880  32.811  1.00  0.00     0.041 A 
ATOM     16  C   UNL A   1      38.006  34.233  33.941  1.00  0.00     0.015 A 
ATOM     17  C   UNL A   1      37.688  34.092  31.510  1.00  0.00     0.028 A 
ATOM     18  C   UNL A   1      39.350  34.608  33.770  1.00  0.00     0.015 A 
ATOM     19  C   UNL A   1      39.011  34.445  31.390  1.00  0.00     0.054 A 
ATOM     20  C   UNL A   1      39.840  34.630  32.471  1.00  0.00     0.053 A 
ATOM     21  C   UNL A   1      39.831  34.331  30.207  1.00  0.00     0.266 C 
ATOM     22  C   UNL A   1      41.214  34.570  31.961  1.00  0.00     0.266 C 
ATOM     23  O   UNL A   1      39.301  34.336  29.110  1.00  0.00    -0.268 OA
ATOM     24  N   UNL A   1      41.135  34.187  30.636  1.00  0.00    -0.242 N 
ATOM     25  O   UNL A   1      42.144  34.894  32.673  1.00  0.00    -0.268 OA
BRANCH  24  26
ATOM     26  C   UNL A   1      42.177  33.652  29.797  1.00  0.00     0.060 A 
ATOM     27  C   UNL A   1      42.569  32.307  30.003  1.00  0.00     0.027 A 
ATOM     28  C   UNL A   1      42.947  34.400  28.866  1.00  0.00     0.006 A 
ATOM     29  C   UNL A   1      43.669  31.726  29.374  1.00  0.00     0.002 A 
ATOM     30  C   UNL A   1      44.030  33.765  28.199  1.00  0.00     0.011 A 
ATOM     31  C   UNL A   1      44.400  32.455  28.463  1.00  0.00     0.001 A 
BRANCH  28  32
ATOM     32  C   UNL A   1      42.868  35.844  28.606  1.00  0.00    -0.016 A 
ATOM     33  C   UNL A   1      43.434  36.770  29.496  1.00  0.00     0.009 A 
ATOM     34  C   UNL A   1      42.076  36.327  27.552  1.00  0.00     0.009 A 
ATOM     35  C   UNL A   1      43.256  38.142  29.304  1.00  0.00     0.001 A 
ATOM     36  C   UNL A   1      41.890  37.698  27.366  1.00  0.00     0.001 A 
ATOM     37  C   UNL A   1      42.488  38.605  28.239  1.00  0.00     0.000 A 
ENDBRANCH  28  32
ENDBRANCH  24  26
ENDBRANCH  12  15
ENDBRANCH   9  11
ENDBRANCH   4   5
ENDBRANCH   3   4
ENDBRANCH   2   3
BRANCH   2  38
ATOM     38  O   UNL A   1      32.636  34.334  28.201  1.00  0.00    -0.460 OA
BRANCH  38  39
ATOM     39  C   UNL A   1      32.566  33.314  27.180  1.00  0.00     0.274 C 
BRANCH  39  40
ATOM     40  C   UNL A   1      32.921  31.948  27.764  1.00  0.00     0.275 C 
BRANCH  40  41
ATOM     41  O   UNL A   1      34.343  31.883  27.987  1.00  0.00    -0.458 OA
BRANCH  41  42
ATOM     42  C   UNL A   1      34.744  31.952  29.281  1.00  0.00     0.338 C 
ATOM     43  O   UNL A   1      34.100  32.369  30.227  1.00  0.00    -0.246 OA
BRANCH  42  44
ATOM     44  C   UNL A   1      36.031  31.230  29.414  1.00  0.00     0.060 A 
ATOM     45  C   UNL A   1      36.059  30.076  30.205  1.00  0.00     0.016 A 
ATOM     46  C   UNL A   1      37.183  31.646  28.737  1.00  0.00     0.016 A 
ATOM     47  C   UNL A   1      37.247  29.357  30.350  1.00  0.00     0.010 A 
ATOM     48  C   UNL A   1      38.374  30.928  28.888  1.00  0.00     0.010 A 
ATOM     49  C   UNL A   1      38.419  29.797  29.719  1.00  0.00    -0.014 A 
BRANCH  49  50
ATOM     50  C   UNL A   1      39.716  29.175  30.084  1.00  0.00     0.031 A 
ATOM     51  C   UNL A   1      40.454  29.705  31.286  1.00  0.00     0.074 A 
ATOM     52  C   UNL A   1      40.222  28.138  29.391  1.00  0.00     0.049 A 
ATOM     53  N   UNL A   1      41.558  29.273  31.841  1.00  0.00    -0.248 NA
ATOM     54  C   UNL A   1      39.869  30.885  31.945  1.00  0.00     0.031 C 
ATOM     55  C   UNL A   1      39.639  27.541  28.190  1.00  0.00     0.029 A 
ATOM     56  N   UNL A   1      41.364  27.407  29.610  1.00  0.00    -0.354 N 
ATOM     57  C   UNL A   1      41.784  30.110  32.927  1.00  0.00     0.074 A 
ATOM     58  C   UNL A   1      40.736  31.106  32.921  1.00  0.00     0.031 C 
ATOM     59  C   UNL A   1      40.439  26.542  27.767  1.00  0.00     0.029 A 
ATOM     60  C   UNL A   1      41.577  26.424  28.676  1.00  0.00     0.049 A 
ATOM     61  H   UNL A   1      41.972  27.573  30.366  1.00  0.00     0.167 HD
ATOM     62  C   UNL A   1      42.761  30.046  33.861  1.00  0.00     0.037 A 
ATOM     63  C   UNL A   1      42.580  25.531  28.578  1.00  0.00     0.037 A 
ATOM     64  C   UNL A   1      43.825  29.079  33.870  1.00  0.00     0.049 A 
ATOM     65  C   UNL A   1      43.662  25.490  29.625  1.00  0.00     0.074 A 
ATOM     66  C   UNL A   1      44.855  28.933  34.784  1.00  0.00     0.029 A 
ATOM     67  N   UNL A   1      44.000  28.095  32.912  1.00  0.00    -0.354 N 
ATOM     68  N   UNL A   1      43.833  26.253  30.676  1.00  0.00    -0.248 NA
ATOM     69  C   UNL A   1      44.684  24.440  29.473  1.00  0.00     0.031 C 
ATOM     70  C   UNL A   1      45.675  27.881  34.359  1.00  0.00     0.029 A 
ATOM     71  C   UNL A   1      45.129  27.347  33.204  1.00  0.00     0.049 A 
ATOM     72  H   UNL A   1      43.409  27.948  32.139  1.00  0.00     0.167 HD
ATOM     73  C   UNL A   1      44.975  25.774  31.307  1.00  0.00     0.074 A 
ATOM     74  C   UNL A   1      45.438  24.637  30.541  1.00  0.00     0.031 C 
ATOM     75  C   UNL A   1      45.592  26.236  32.420  1.00  0.00     0.037 A 
BRANCH  62  76
ATOM     76  C   UNL A   1      42.718  31.057  34.965  1.00  0.00     0.057 A 
ATOM     77  C   UNL A   1      42.042  30.798  36.165  1.00  0.00     0.134 A 
ATOM     78  C   UNL A   1      43.382  32.284  34.845  1.00  0.00     0.134 A 
ATOM     79  F   UNL A   1      41.374  29.646  36.333  1.00  0.00    -0.206 F 
ATOM     80  C   UNL A   1      42.014  31.731  37.201  1.00  0.00     0.040 A 
ATOM     81  C   UNL A   1      43.379  33.216  35.883  1.00  0.00     0.040 A 
ATOM     82  F   UNL A   1      44.048  32.591  33.722  1.00  0.00    -0.206 F 
ATOM     83  C   UNL A   1      42.690  32.942  37.064  1.00  0.00     0.006 A 
ENDBRANCH  62  76
BRANCH  63  84
ATOM     84  C   UNL A   1      42.667  24.587  27.441  1.00  0.00     0.057 A 
ATOM     85  C   UNL A   1      42.221  23.266  27.559  1.00  0.00     0.134 A 
ATOM     86  C   UNL A   1      43.359  24.944  26.280  1.00  0.00     0.134 A 
ATOM     87  F   UNL A   1      41.583  22.865  28.668  1.00  0.00    -0.206 F 
ATOM     88  C   UNL A   1      42.492  22.317  26.571  1.00  0.00     0.040 A 
ATOM     89  C   UNL A   1      43.634  24.006  25.284  1.00  0.00     0.040 A 
ATOM     90  F   UNL A   1      43.813  26.194  26.118  1.00  0.00    -0.206 F 
ATOM     91  C   UNL A   1      43.206  22.687  25.432  1.00  0.00     0.006 A 
ENDBRANCH  63  84
BRANCH  75  92
ATOM     92  C   UNL A   1      46.827  25.511  32.864  1.00  0.00     0.057 A 
ATOM     93  C   UNL A   1      46.777  24.501  33.835  1.00  0.00     0.134 A 
ATOM     94  C   UNL A   1      48.077  25.826  32.320  1.00  0.00     0.134 A 
ATOM     95  F   UNL A   1      45.610  24.166  34.407  1.00  0.00    -0.206 F 
ATOM     96  C   UNL A   1      47.933  23.851  34.270  1.00  0.00     0.040 A 
ATOM     97  C   UNL A   1      49.237  25.166  32.730  1.00  0.00     0.040 A 
ATOM     98  F   UNL A   1      48.193  26.781  31.384  1.00  0.00    -0.206 F 
ATOM     99  C   UNL A   1      49.168  24.181  33.713  1.00  0.00     0.006 A 
ENDBRANCH  75  92
ENDBRANCH  49  50
ENDBRANCH  42  44
ENDBRANCH  41  42
ENDBRANCH  40  41
ENDBRANCH  39  40
ENDBRANCH  38  39
ENDBRANCH   2  38
TORSDOF 17
ENDMDL
MODEL 3
REMARK VINA RESULT:     -12.4      1.387      3.124
REMARK SMILES O=C(COc1cccc(NC(=O)c2ccc3c(c2)C(=O)N(c2ccccc2-c2ccccc2)C3=O)c1)OCCOC(=O)c1ccc(-c2c3nc(c(-c4c(F)cccc4F)c4ccc([nH]4)c(-c4c(F)cccc4F)c4nc(c(-c5c(F)cccc5F)c5ccc2[nH]5)C=C4)C=C3)cc1
REMARK SMILES IDX 1 1 2 2 3 3 4 4 5 5 6 6 36 7 7 8 9 9 8 10 10 11 11 12 12 14
REMARK SMILES IDX 13 15 14 16 18 17 15 18 17 19 16 20 19 21 34 22 20 23 21 24
REMARK SMILES IDX 35 25 22 26 23 27 27 28 24 29 26 30 25 31 28 32 29 33 33 34
REMARK SMILES IDX 30 35 32 36 31 37 37 38 38 39 39 40 40 41 41 42 42 43 43 44
REMARK SMILES IDX 44 45 96 46 45 47 95 48 46 49 47 50 48 51 89 52 49 53 94 54
REMARK SMILES IDX 88 55 90 56 50 57 93 58 87 59 86 60 51 62 77 63 60 64 76 65
REMARK SMILES IDX 61 66 64 67 75 68 91 69 62 70 63 71 74 73 92 74 65 75 52 76
REMARK SMILES IDX 53 77 58 78 54 79 55 80 57 81 59 82 56 83 78 84 79 85 84 86
REMARK SMILES IDX 80 87 81 88 83 89 85 90 82 91 66 92 67 93 72 94 68 95 69 96
REMARK SMILES IDX 71 97 73 98 70 99
REMARK H PARENT 10 13 90 61 64 72
REMARK Flexibility Score: inf
ROOT
ATOM      1  O   UNL A   1      36.291  32.561  28.276  1.00  0.00    -0.248 OA
ATOM      2  C   UNL A   1      35.142  32.248  28.587  1.00  0.00     0.344 C 
ENDROOT
BRANCH   2   3
ATOM      3  C   UNL A   1      34.474  31.032  27.964  1.00  0.00     0.351 C 
BRANCH   3   4
ATOM      4  O   UNL A   1      33.597  31.268  26.880  1.00  0.00    -0.482 OA
BRANCH   4   5
ATOM      5  C   UNL A   1      32.878  30.183  26.471  1.00  0.00     0.122 A 
ATOM      6  C   UNL A   1      33.275  28.975  27.034  1.00  0.00     0.046 A 
ATOM      7  C   UNL A   1      31.888  30.217  25.478  1.00  0.00     0.072 A 
ATOM      8  C   UNL A   1      32.694  27.799  26.593  1.00  0.00     0.006 A 
ATOM      9  C   UNL A   1      31.275  29.039  25.040  1.00  0.00     0.045 A 
ATOM     10  C   UNL A   1      31.719  27.837  25.592  1.00  0.00     0.026 A 
BRANCH   9  11
ATOM     11  N   UNL A   1      30.311  29.147  24.005  1.00  0.00    -0.322 N 
ATOM     12  C   UNL A   1      30.260  28.625  22.722  1.00  0.00     0.255 C 
ATOM     13  H   UNL A   1      29.530  29.697  24.244  1.00  0.00     0.170 HD
ATOM     14  O   UNL A   1      29.439  29.011  21.898  1.00  0.00    -0.269 OA
BRANCH  12  15
ATOM     15  C   UNL A   1      31.116  27.476  22.388  1.00  0.00     0.041 A 
ATOM     16  C   UNL A   1      32.431  27.683  21.913  1.00  0.00     0.015 A 
ATOM     17  C   UNL A   1      30.683  26.232  22.845  1.00  0.00     0.028 A 
ATOM     18  C   UNL A   1      33.398  26.679  22.097  1.00  0.00     0.015 A 
ATOM     19  C   UNL A   1      31.665  25.286  23.022  1.00  0.00     0.054 A 
ATOM     20  C   UNL A   1      32.988  25.514  22.729  1.00  0.00     0.053 A 
ATOM     21  C   UNL A   1      31.580  24.097  23.837  1.00  0.00     0.266 C 
ATOM     22  C   UNL A   1      33.755  24.477  23.427  1.00  0.00     0.266 C 
ATOM     23  O   UNL A   1      30.489  23.609  24.070  1.00  0.00    -0.268 OA
ATOM     24  N   UNL A   1      32.867  23.790  24.231  1.00  0.00    -0.242 N 
ATOM     25  O   UNL A   1      34.938  24.326  23.186  1.00  0.00    -0.268 OA
BRANCH  24  26
ATOM     26  C   UNL A   1      33.154  22.935  25.354  1.00  0.00     0.060 A 
ATOM     27  C   UNL A   1      33.632  23.539  26.542  1.00  0.00     0.027 A 
ATOM     28  C   UNL A   1      33.133  21.514  25.332  1.00  0.00     0.006 A 
ATOM     29  C   UNL A   1      34.100  22.812  27.636  1.00  0.00     0.002 A 
ATOM     30  C   UNL A   1      33.565  20.800  26.482  1.00  0.00     0.011 A 
ATOM     31  C   UNL A   1      34.061  21.436  27.609  1.00  0.00     0.001 A 
BRANCH  28  32
ATOM     32  C   UNL A   1      32.860  20.649  24.176  1.00  0.00    -0.016 A 
ATOM     33  C   UNL A   1      32.380  21.184  22.970  1.00  0.00     0.009 A 
ATOM     34  C   UNL A   1      32.911  19.252  24.315  1.00  0.00     0.009 A 
ATOM     35  C   UNL A   1      32.013  20.346  21.915  1.00  0.00     0.001 A 
ATOM     36  C   UNL A   1      32.535  18.414  23.263  1.00  0.00     0.001 A 
ATOM     37  C   UNL A   1      32.094  18.963  22.061  1.00  0.00     0.000 A 
ENDBRANCH  28  32
ENDBRANCH  24  26
ENDBRANCH  12  15
ENDBRANCH   9  11
ENDBRANCH   4   5
ENDBRANCH   3   4
ENDBRANCH   2   3
BRANCH   2  38
ATOM     38  O   UNL A   1      34.471  32.957  29.525  1.00  0.00    -0.460 OA
BRANCH  38  39
ATOM     39  C   UNL A   1      35.096  33.814  30.506  1.00  0.00     0.274 C 
BRANCH  39  40
ATOM     40  C   UNL A   1      34.582  33.488  31.907  1.00  0.00     0.275 C 
BRANCH  40  41
ATOM     41  O   UNL A   1      35.019  32.165  32.276  1.00  0.00    -0.458 OA
BRANCH  41  42
ATOM     42  C   UNL A   1      36.136  32.104  33.044  1.00  0.00     0.338 C 
ATOM     43  O   UNL A   1      36.231  32.387  34.224  1.00  0.00    -0.246 OA
BRANCH  42  44
ATOM     44  C   UNL A   1      37.201  31.423  32.270  1.00  0.00     0.060 A 
ATOM     45  C   UNL A   1      38.505  31.457  32.776  1.00  0.00     0.016 A 
ATOM     46  C   UNL A   1      36.922  30.720  31.092  1.00  0.00     0.016 A 
ATOM     47  C   UNL A   1      39.540  30.821  32.087  1.00  0.00     0.010 A 
ATOM     48  C   UNL A   1      37.960  30.087  30.400  1.00  0.00     0.010 A 
ATOM     49  C   UNL A   1      39.279  30.160  30.878  1.00  0.00    -0.014 A 
BRANCH  49  50
ATOM     50  C   UNL A   1      40.416  29.712  30.037  1.00  0.00     0.031 A 
ATOM     51  C   UNL A   1      41.517  30.696  29.735  1.00  0.00     0.074 A 
ATOM     52  C   UNL A   1      40.499  28.452  29.573  1.00  0.00     0.049 A 
ATOM     53  N   UNL A   1      42.642  30.513  29.092  1.00  0.00    -0.248 NA
ATOM     54  C   UNL A   1      41.315  32.072  30.219  1.00  0.00     0.031 C 
ATOM     55  C   UNL A   1      39.498  27.401  29.756  1.00  0.00     0.029 A 
ATOM     56  N   UNL A   1      41.489  27.848  28.838  1.00  0.00    -0.354 N 
ATOM     57  C   UNL A   1      43.293  31.740  29.118  1.00  0.00     0.074 A 
ATOM     58  C   UNL A   1      42.415  32.673  29.789  1.00  0.00     0.031 C 
ATOM     59  C   UNL A   1      39.919  26.283  29.131  1.00  0.00     0.029 A 
ATOM     60  C   UNL A   1      41.222  26.539  28.522  1.00  0.00     0.049 A 
ATOM     61  H   UNL A   1      42.313  28.311  28.562  1.00  0.00     0.167 HD
ATOM     62  C   UNL A   1      44.520  32.063  28.647  1.00  0.00     0.037 A 
ATOM     63  C   UNL A   1      41.957  25.653  27.823  1.00  0.00     0.037 A 
ATOM     64  C   UNL A   1      45.396  31.157  27.955  1.00  0.00     0.049 A 
ATOM     65  C   UNL A   1      43.314  26.043  27.298  1.00  0.00     0.074 A 
ATOM     66  C   UNL A   1      46.663  31.396  27.449  1.00  0.00     0.029 A 
ATOM     67  N   UNL A   1      45.093  29.839  27.664  1.00  0.00    -0.354 N 
ATOM     68  N   UNL A   1      43.939  27.191  27.377  1.00  0.00    -0.248 NA
ATOM     69  C   UNL A   1      44.074  24.992  26.600  1.00  0.00     0.031 C 
ATOM     70  C   UNL A   1      47.113  30.228  26.820  1.00  0.00     0.029 A 
ATOM     71  C   UNL A   1      46.141  29.254  26.972  1.00  0.00     0.049 A 
ATOM     72  H   UNL A   1      44.256  29.383  27.912  1.00  0.00     0.167 HD
ATOM     73  C   UNL A   1      45.161  26.999  26.743  1.00  0.00     0.074 A 
ATOM     74  C   UNL A   1      45.204  25.618  26.313  1.00  0.00     0.031 C 
ATOM     75  C   UNL A   1      46.160  27.887  26.529  1.00  0.00     0.037 A 
BRANCH  62  76
ATOM     76  C   UNL A   1      44.991  33.466  28.873  1.00  0.00     0.057 A 
ATOM     77  C   UNL A   1      45.722  33.814  30.017  1.00  0.00     0.134 A 
ATOM     78  C   UNL A   1      44.744  34.471  27.930  1.00  0.00     0.134 A 
ATOM     79  F   UNL A   1      45.976  32.898  30.965  1.00  0.00    -0.206 F 
ATOM     80  C   UNL A   1      46.177  35.116  30.223  1.00  0.00     0.040 A 
ATOM     81  C   UNL A   1      45.213  35.772  28.114  1.00  0.00     0.040 A 
ATOM     82  F   UNL A   1      44.052  34.201  26.813  1.00  0.00    -0.206 F 
ATOM     83  C   UNL A   1      45.928  36.098  29.266  1.00  0.00     0.006 A 
ENDBRANCH  62  76
BRANCH  63  84
ATOM     84  C   UNL A   1      41.454  24.293  27.527  1.00  0.00     0.057 A 
ATOM     85  C   UNL A   1      40.439  24.083  26.587  1.00  0.00     0.134 A 
ATOM     86  C   UNL A   1      41.859  23.206  28.308  1.00  0.00     0.134 A 
ATOM     87  F   UNL A   1      39.991  25.101  25.838  1.00  0.00    -0.206 F 
ATOM     88  C   UNL A   1      39.815  22.841  26.457  1.00  0.00     0.040 A 
ATOM     89  C   UNL A   1      41.246  21.959  28.185  1.00  0.00     0.040 A 
ATOM     90  F   UNL A   1      42.823  23.353  29.227  1.00  0.00    -0.206 F 
ATOM     91  C   UNL A   1      40.216  21.776  27.263  1.00  0.00     0.006 A 
ENDBRANCH  63  84
BRANCH  75  92
ATOM     92  C   UNL A   1      47.370  27.387  25.800  1.00  0.00     0.057 A 
ATOM     93  C   UNL A   1      48.443  26.792  26.478  1.00  0.00     0.134 A 
ATOM     94  C   UNL A   1      47.468  27.503  24.409  1.00  0.00     0.134 A 
ATOM     95  F   UNL A   1      48.417  26.670  27.815  1.00  0.00    -0.206 F 
ATOM     96  C   UNL A   1      49.583  26.358  25.801  1.00  0.00     0.040 A 
ATOM     97  C   UNL A   1      48.593  27.050  23.717  1.00  0.00     0.040 A 
ATOM     98  F   UNL A   1      46.474  28.060  23.699  1.00  0.00    -0.206 F 
ATOM     99  C   UNL A   1      49.658  26.483  24.414  1.00  0.00     0.006 A 
ENDBRANCH  75  92
ENDBRANCH  49  50
ENDBRANCH  42  44
ENDBRANCH  41  42
ENDBRANCH  40  41
ENDBRANCH  39  40
ENDBRANCH  38  39
ENDBRANCH   2  38
TORSDOF 17
ENDMDL
