MODEL 1
REMARK VINA RESULT:     -10.9      0.000      0.000
REMARK SMILES COCc1cc(SCC(=O)OCCOC(=O)c2ccc(-c3c4nc(c(-c5c(F)cccc5F)c5ccc([nH]5)c(-c5c(F)cccc5F)c5nc(c(-c6c(F)cccc6F)c6ccc3[nH]6)C=C5)C=C4)cc2)nc(-c2cccnc2)n1
REMARK SMILES IDX 12 1 11 2 9 3 10 4 8 5 7 6 6 7 4 8 5 9 79 10 72 11 71 12
REMARK SMILES IDX 3 13 2 14 1 15 73 16 74 17 78 18 75 19 77 20 76 21 13 22
REMARK SMILES IDX 14 23 15 24 16 25 17 26 18 27 70 28 19 29 69 30 20 31 21 32
REMARK SMILES IDX 22 33 63 34 23 35 68 36 62 37 64 38 24 39 67 40 61 41 60 42
REMARK SMILES IDX 25 44 51 45 34 46 50 47 35 48 38 49 49 50 65 51 36 52 37 53
REMARK SMILES IDX 48 55 66 56 39 57 26 58 27 59 32 60 28 61 29 62 31 63 33 64
REMARK SMILES IDX 30 65 52 66 53 67 58 68 54 69 55 70 57 71 59 72 56 73 40 74
REMARK SMILES IDX 41 75 46 76 42 77 43 78 45 79 47 80 44 81
REMARK H PARENT 64 43 38 54
REMARK Flexibility Score: inf
ROOT
ATOM      1  C   UNL A   1      41.696  20.803  26.930  1.00  0.00     0.274 C 
ENDROOT
BRANCH   1   2
ATOM      2  O   UNL A   1      40.401  21.030  26.338  1.00  0.00    -0.461 OA
BRANCH   2   3
ATOM      3  C   UNL A   1      39.823  19.958  25.735  1.00  0.00     0.316 C 
ATOM      4  O   UNL A   1      40.294  18.824  25.751  1.00  0.00    -0.251 OA
BRANCH   3   5
ATOM      5  C   UNL A   1      38.505  20.243  25.047  1.00  0.00     0.199 C 
BRANCH   5   6
ATOM      6  S   UNL A   1      37.780  21.875  25.377  1.00  0.00    -0.094 SA
BRANCH   6   7
ATOM      7  C   UNL A   1      36.045  21.673  25.018  1.00  0.00     0.101 A 
ATOM      8  C   UNL A   1      33.883  22.361  24.369  1.00  0.00     0.071 A 
ATOM      9  C   UNL A   1      35.193  22.698  24.666  1.00  0.00     0.062 A 
ATOM     10  N   UNL A   1      33.460  21.086  24.397  1.00  0.00    -0.230 NA
ATOM     11  C   UNL A   1      34.354  20.154  24.749  1.00  0.00     0.162 A 
ATOM     12  N   UNL A   1      35.631  20.395  25.081  1.00  0.00    -0.222 NA
BRANCH   8  13
ATOM     13  C   UNL A   1      32.889  23.446  24.010  1.00  0.00     0.215 C 
BRANCH  13  14
ATOM     14  O   UNL A   1      32.072  23.916  25.086  1.00  0.00    -0.378 OA
ATOM     15  C   UNL A   1      32.617  25.079  25.701  1.00  0.00     0.195 C 
ENDBRANCH  13  14
ENDBRANCH   8  13
BRANCH  11  16
ATOM     16  C   UNL A   1      33.896  18.778  24.715  1.00  0.00     0.038 A 
ATOM     17  C   UNL A   1      34.695  17.731  24.243  1.00  0.00     0.015 A 
ATOM     18  C   UNL A   1      32.636  18.438  25.202  1.00  0.00     0.123 A 
ATOM     19  C   UNL A   1      34.219  16.421  24.288  1.00  0.00     0.021 A 
ATOM     20  N   UNL A   1      32.138  17.178  25.245  1.00  0.00    -0.264 NA
ATOM     21  C   UNL A   1      32.947  16.199  24.791  1.00  0.00     0.111 A 
ENDBRANCH  11  16
ENDBRANCH   6   7
ENDBRANCH   5   6
ENDBRANCH   3   5
ENDBRANCH   2   3
ENDBRANCH   1   2
BRANCH   1  22
ATOM     22  C   UNL A   1      42.801  21.473  26.121  1.00  0.00     0.275 C 
BRANCH  22  23
ATOM     23  O   UNL A   1      42.279  22.618  25.418  1.00  0.00    -0.458 OA
BRANCH  23  24
ATOM     24  C   UNL A   1      43.073  23.705  25.427  1.00  0.00     0.338 C 
ATOM     25  O   UNL A   1      43.917  24.014  24.591  1.00  0.00    -0.246 OA
BRANCH  24  26
ATOM     26  C   UNL A   1      42.792  24.571  26.585  1.00  0.00     0.060 A 
ATOM     27  C   UNL A   1      41.703  24.325  27.427  1.00  0.00     0.016 A 
ATOM     28  C   UNL A   1      43.532  25.751  26.717  1.00  0.00     0.016 A 
ATOM     29  C   UNL A   1      41.330  25.283  28.373  1.00  0.00     0.010 A 
ATOM     30  C   UNL A   1      43.188  26.683  27.697  1.00  0.00     0.010 A 
ATOM     31  C   UNL A   1      42.074  26.466  28.521  1.00  0.00    -0.014 A 
BRANCH  31  32
ATOM     32  C   UNL A   1      41.744  27.450  29.582  1.00  0.00     0.031 A 
ATOM     33  C   UNL A   1      42.478  27.462  30.895  1.00  0.00     0.074 A 
ATOM     34  C   UNL A   1      40.738  28.316  29.370  1.00  0.00     0.049 A 
ATOM     35  N   UNL A   1      42.248  28.188  31.961  1.00  0.00    -0.248 NA
ATOM     36  C   UNL A   1      43.624  26.552  31.025  1.00  0.00     0.031 C 
ATOM     37  C   UNL A   1      39.956  28.417  28.136  1.00  0.00     0.029 A 
ATOM     38  N   UNL A   1      40.188  29.265  30.194  1.00  0.00    -0.354 N 
ATOM     39  C   UNL A   1      43.226  27.832  32.881  1.00  0.00     0.074 A 
ATOM     40  C   UNL A   1      44.042  26.813  32.257  1.00  0.00     0.031 C 
ATOM     41  C   UNL A   1      39.025  29.372  28.286  1.00  0.00     0.029 A 
ATOM     42  C   UNL A   1      39.112  29.912  29.639  1.00  0.00     0.049 A 
ATOM     43  H   UNL A   1      40.530  29.462  31.096  1.00  0.00     0.167 HD
ATOM     44  C   UNL A   1      43.426  28.314  34.131  1.00  0.00     0.037 A 
ATOM     45  C   UNL A   1      38.266  30.812  30.168  1.00  0.00     0.037 A 
ATOM     46  C   UNL A   1      42.597  29.302  34.771  1.00  0.00     0.049 A 
ATOM     47  C   UNL A   1      38.444  31.250  31.591  1.00  0.00     0.074 A 
ATOM     48  C   UNL A   1      42.715  29.836  36.044  1.00  0.00     0.029 A 
ATOM     49  N   UNL A   1      41.490  29.896  34.189  1.00  0.00    -0.354 N 
ATOM     50  N   UNL A   1      39.365  30.897  32.452  1.00  0.00    -0.248 NA
ATOM     51  C   UNL A   1      37.456  32.202  32.117  1.00  0.00     0.031 C 
ATOM     52  C   UNL A   1      41.660  30.735  36.241  1.00  0.00     0.029 A 
ATOM     53  C   UNL A   1      40.903  30.779  35.082  1.00  0.00     0.049 A 
ATOM     54  H   UNL A   1      41.167  29.718  33.276  1.00  0.00     0.167 HD
ATOM     55  C   UNL A   1      39.075  31.588  33.619  1.00  0.00     0.074 A 
ATOM     56  C   UNL A   1      37.898  32.388  33.354  1.00  0.00     0.031 C 
ATOM     57  C   UNL A   1      39.727  31.560  34.806  1.00  0.00     0.037 A 
BRANCH  44  58
ATOM     58  C   UNL A   1      44.588  27.771  34.904  1.00  0.00     0.057 A 
ATOM     59  C   UNL A   1      45.835  28.407  34.882  1.00  0.00     0.134 A 
ATOM     60  C   UNL A   1      44.444  26.646  35.725  1.00  0.00     0.134 A 
ATOM     61  F   UNL A   1      46.034  29.485  34.110  1.00  0.00    -0.206 F 
ATOM     62  C   UNL A   1      46.903  27.940  35.651  1.00  0.00     0.040 A 
ATOM     63  C   UNL A   1      45.501  26.177  36.507  1.00  0.00     0.040 A 
ATOM     64  F   UNL A   1      43.272  25.997  35.790  1.00  0.00    -0.206 F 
ATOM     65  C   UNL A   1      46.734  26.826  36.472  1.00  0.00     0.006 A 
ENDBRANCH  44  58
BRANCH  45  66
ATOM     66  C   UNL A   1      37.149  31.331  29.348  1.00  0.00     0.057 A 
ATOM     67  C   UNL A   1      36.000  30.567  29.128  1.00  0.00     0.134 A 
ATOM     68  C   UNL A   1      37.198  32.613  28.785  1.00  0.00     0.134 A 
ATOM     69  F   UNL A   1      35.909  29.327  29.630  1.00  0.00    -0.206 F 
ATOM     70  C   UNL A   1      34.935  31.057  28.373  1.00  0.00     0.040 A 
ATOM     71  C   UNL A   1      36.133  33.122  28.043  1.00  0.00     0.040 A 
ATOM     72  F   UNL A   1      38.274  33.391  28.967  1.00  0.00    -0.206 F 
ATOM     73  C   UNL A   1      34.998  32.341  27.834  1.00  0.00     0.006 A 
ENDBRANCH  45  66
BRANCH  57  74
ATOM     74  C   UNL A   1      39.185  32.431  35.894  1.00  0.00     0.057 A 
ATOM     75  C   UNL A   1      38.241  31.953  36.809  1.00  0.00     0.134 A 
ATOM     76  C   UNL A   1      39.620  33.754  36.035  1.00  0.00     0.134 A 
ATOM     77  F   UNL A   1      37.776  30.699  36.714  1.00  0.00    -0.206 F 
ATOM     78  C   UNL A   1      37.733  32.769  37.820  1.00  0.00     0.040 A 
ATOM     79  C   UNL A   1      39.130  34.576  37.050  1.00  0.00     0.040 A 
ATOM     80  F   UNL A   1      40.525  34.267  35.187  1.00  0.00    -0.206 F 
ATOM     81  C   UNL A   1      38.180  34.083  37.944  1.00  0.00     0.006 A 
ENDBRANCH  57  74
ENDBRANCH  31  32
ENDBRANCH  24  26
ENDBRANCH  23  24
ENDBRANCH  22  23
ENDBRANCH   1  22
TORSDOF 16
ENDMDL
MODEL 2
REMARK VINA RESULT:     -10.8      4.251      8.669
REMARK SMILES COCc1cc(SCC(=O)OCCOC(=O)c2ccc(-c3c4nc(c(-c5c(F)cccc5F)c5ccc([nH]5)c(-c5c(F)cccc5F)c5nc(c(-c6c(F)cccc6F)c6ccc3[nH]6)C=C5)C=C4)cc2)nc(-c2cccnc2)n1
REMARK SMILES IDX 12 1 11 2 9 3 10 4 8 5 7 6 6 7 4 8 5 9 79 10 72 11 71 12
REMARK SMILES IDX 3 13 2 14 1 15 73 16 74 17 78 18 75 19 77 20 76 21 13 22
REMARK SMILES IDX 14 23 15 24 16 25 17 26 18 27 70 28 19 29 69 30 20 31 21 32
REMARK SMILES IDX 22 33 63 34 23 35 68 36 62 37 64 38 24 39 67 40 61 41 60 42
REMARK SMILES IDX 25 44 51 45 34 46 50 47 35 48 38 49 49 50 65 51 36 52 37 53
REMARK SMILES IDX 48 55 66 56 39 57 26 58 27 59 32 60 28 61 29 62 31 63 33 64
REMARK SMILES IDX 30 65 52 66 53 67 58 68 54 69 55 70 57 71 59 72 56 73 40 74
REMARK SMILES IDX 41 75 46 76 42 77 43 78 45 79 47 80 44 81
REMARK H PARENT 64 43 38 54
REMARK Flexibility Score: inf
ROOT
ATOM      1  C   UNL A   1      33.629  27.254  26.164  1.00  0.00     0.274 C 
ENDROOT
BRANCH   1   2
ATOM      2  O   UNL A   1      32.253  26.908  25.906  1.00  0.00    -0.461 OA
BRANCH   2   3
ATOM      3  C   UNL A   1      31.952  25.584  25.951  1.00  0.00     0.316 C 
ATOM      4  O   UNL A   1      31.379  25.040  26.892  1.00  0.00    -0.251 OA
BRANCH   3   5
ATOM      5  C   UNL A   1      32.346  24.795  24.719  1.00  0.00     0.199 C 
BRANCH   5   6
ATOM      6  S   UNL A   1      31.412  23.264  24.433  1.00  0.00    -0.094 SA
BRANCH   6   7
ATOM      7  C   UNL A   1      32.620  21.965  24.619  1.00  0.00     0.101 A 
ATOM      8  C   UNL A   1      33.439  19.754  24.530  1.00  0.00     0.071 A 
ATOM      9  C   UNL A   1      32.374  20.629  24.387  1.00  0.00     0.062 A 
ATOM     10  N   UNL A   1      34.668  20.187  24.857  1.00  0.00    -0.230 NA
ATOM     11  C   UNL A   1      34.816  21.502  25.065  1.00  0.00     0.162 A 
ATOM     12  N   UNL A   1      33.836  22.413  24.978  1.00  0.00    -0.222 NA
BRANCH   8  13
ATOM     13  C   UNL A   1      33.227  18.269  24.323  1.00  0.00     0.215 C 
BRANCH  13  14
ATOM     14  O   UNL A   1      32.099  17.706  24.998  1.00  0.00    -0.378 OA
ATOM     15  C   UNL A   1      32.421  16.479  25.646  1.00  0.00     0.195 C 
ENDBRANCH  13  14
ENDBRANCH   8  13
BRANCH  11  16
ATOM     16  C   UNL A   1      36.162  21.959  25.358  1.00  0.00     0.038 A 
ATOM     17  C   UNL A   1      36.440  23.270  25.756  1.00  0.00     0.015 A 
ATOM     18  C   UNL A   1      37.239  21.078  25.295  1.00  0.00     0.123 A 
ATOM     19  C   UNL A   1      37.746  23.635  26.079  1.00  0.00     0.021 A 
ATOM     20  N   UNL A   1      38.522  21.404  25.585  1.00  0.00    -0.264 NA
ATOM     21  C   UNL A   1      38.742  22.676  25.976  1.00  0.00     0.111 A 
ENDBRANCH  11  16
ENDBRANCH   6   7
ENDBRANCH   5   6
ENDBRANCH   3   5
ENDBRANCH   2   3
ENDBRANCH   1   2
BRANCH   1  22
ATOM     22  C   UNL A   1      33.798  28.759  26.344  1.00  0.00     0.275 C 
BRANCH  22  23
ATOM     23  O   UNL A   1      34.027  29.073  27.731  1.00  0.00    -0.458 OA
BRANCH  23  24
ATOM     24  C   UNL A   1      34.688  30.224  27.955  1.00  0.00     0.338 C 
ATOM     25  O   UNL A   1      34.221  31.359  27.953  1.00  0.00    -0.246 OA
BRANCH  24  26
ATOM     26  C   UNL A   1      36.107  29.982  28.265  1.00  0.00     0.060 A 
ATOM     27  C   UNL A   1      37.097  30.124  27.287  1.00  0.00     0.016 A 
ATOM     28  C   UNL A   1      36.422  29.430  29.511  1.00  0.00     0.016 A 
ATOM     29  C   UNL A   1      38.394  29.671  27.545  1.00  0.00     0.010 A 
ATOM     30  C   UNL A   1      37.730  29.025  29.783  1.00  0.00     0.010 A 
ATOM     31  C   UNL A   1      38.723  29.126  28.797  1.00  0.00    -0.014 A 
BRANCH  31  32
ATOM     32  C   UNL A   1      40.116  28.726  29.116  1.00  0.00     0.031 A 
ATOM     33  C   UNL A   1      41.072  29.679  29.779  1.00  0.00     0.074 A 
ATOM     34  C   UNL A   1      40.533  27.497  28.762  1.00  0.00     0.049 A 
ATOM     35  N   UNL A   1      42.347  29.521  30.035  1.00  0.00    -0.248 NA
ATOM     36  C   UNL A   1      40.527  30.969  30.221  1.00  0.00     0.031 C 
ATOM     37  C   UNL A   1      39.701  26.474  28.126  1.00  0.00     0.029 A 
ATOM     38  N   UNL A   1      41.766  26.907  28.870  1.00  0.00    -0.354 N 
ATOM     39  C   UNL A   1      42.751  30.683  30.680  1.00  0.00     0.074 A 
ATOM     40  C   UNL A   1      41.593  31.547  30.759  1.00  0.00     0.031 C 
ATOM     41  C   UNL A   1      40.449  25.384  27.897  1.00  0.00     0.029 A 
ATOM     42  C   UNL A   1      41.819  25.650  28.323  1.00  0.00     0.049 A 
ATOM     43  H   UNL A   1      42.538  27.343  29.297  1.00  0.00     0.167 HD
ATOM     44  C   UNL A   1      43.977  31.000  31.162  1.00  0.00     0.037 A 
ATOM     45  C   UNL A   1      42.859  24.816  28.147  1.00  0.00     0.037 A 
ATOM     46  C   UNL A   1      45.142  30.161  31.054  1.00  0.00     0.049 A 
ATOM     47  C   UNL A   1      44.227  25.235  28.594  1.00  0.00     0.074 A 
ATOM     48  C   UNL A   1      46.430  30.410  31.499  1.00  0.00     0.029 A 
ATOM     49  N   UNL A   1      45.161  28.915  30.450  1.00  0.00    -0.354 N 
ATOM     50  N   UNL A   1      44.597  26.341  29.190  1.00  0.00    -0.248 NA
ATOM     51  C   UNL A   1      45.324  24.294  28.330  1.00  0.00     0.031 C 
ATOM     52  C   UNL A   1      47.236  29.323  31.138  1.00  0.00     0.029 A 
ATOM     53  C   UNL A   1      46.442  28.388  30.493  1.00  0.00     0.049 A 
ATOM     54  H   UNL A   1      44.380  28.470  30.049  1.00  0.00     0.167 HD
ATOM     55  C   UNL A   1      45.966  26.227  29.381  1.00  0.00     0.074 A 
ATOM     56  C   UNL A   1      46.361  24.940  28.846  1.00  0.00     0.031 C 
ATOM     57  C   UNL A   1      46.820  27.112  29.949  1.00  0.00     0.037 A 
BRANCH  44  58
ATOM     58  C   UNL A   1      44.130  32.323  31.847  1.00  0.00     0.057 A 
ATOM     59  C   UNL A   1      44.001  32.440  33.236  1.00  0.00     0.134 A 
ATOM     60  C   UNL A   1      44.472  33.472  31.125  1.00  0.00     0.134 A 
ATOM     61  F   UNL A   1      43.670  31.373  33.980  1.00  0.00    -0.206 F 
ATOM     62  C   UNL A   1      44.206  33.658  33.886  1.00  0.00     0.040 A 
ATOM     63  C   UNL A   1      44.690  34.694  31.764  1.00  0.00     0.040 A 
ATOM     64  F   UNL A   1      44.612  33.421  29.793  1.00  0.00    -0.206 F 
ATOM     65  C   UNL A   1      44.559  34.789  33.149  1.00  0.00     0.006 A 
ENDBRANCH  44  58
BRANCH  45  66
ATOM     66  C   UNL A   1      42.642  23.512  27.484  1.00  0.00     0.057 A 
ATOM     67  C   UNL A   1      42.329  22.370  28.225  1.00  0.00     0.134 A 
ATOM     68  C   UNL A   1      42.721  23.384  26.092  1.00  0.00     0.134 A 
ATOM     69  F   UNL A   1      42.258  22.432  29.563  1.00  0.00    -0.206 F 
ATOM     70  C   UNL A   1      42.104  21.140  27.606  1.00  0.00     0.040 A 
ATOM     71  C   UNL A   1      42.482  22.166  25.457  1.00  0.00     0.040 A 
ATOM     72  F   UNL A   1      43.015  24.449  25.331  1.00  0.00    -0.206 F 
ATOM     73  C   UNL A   1      42.174  21.039  26.217  1.00  0.00     0.006 A 
ENDBRANCH  45  66
BRANCH  57  74
ATOM     74  C   UNL A   1      48.257  26.705  30.030  1.00  0.00     0.057 A 
ATOM     75  C   UNL A   1      48.746  25.966  31.113  1.00  0.00     0.134 A 
ATOM     76  C   UNL A   1      49.155  27.046  29.012  1.00  0.00     0.134 A 
ATOM     77  F   UNL A   1      47.936  25.624  32.125  1.00  0.00    -0.206 F 
ATOM     78  C   UNL A   1      50.089  25.593  31.188  1.00  0.00     0.040 A 
ATOM     79  C   UNL A   1      50.496  26.667  29.070  1.00  0.00     0.040 A 
ATOM     80  F   UNL A   1      48.742  27.753  27.949  1.00  0.00    -0.206 F 
ATOM     81  C   UNL A   1      50.967  25.941  30.163  1.00  0.00     0.006 A 
ENDBRANCH  57  74
ENDBRANCH  31  32
ENDBRANCH  24  26
ENDBRANCH  23  24
ENDBRANCH  22  23
ENDBRANCH   1  22
TORSDOF 16
ENDMDL
MODEL 3
REMARK VINA RESULT:     -10.6      3.839      7.586
REMARK SMILES COCc1cc(SCC(=O)OCCOC(=O)c2ccc(-c3c4nc(c(-c5c(F)cccc5F)c5ccc([nH]5)c(-c5c(F)cccc5F)c5nc(c(-c6c(F)cccc6F)c6ccc3[nH]6)C=C5)C=C4)cc2)nc(-c2cccnc2)n1
REMARK SMILES IDX 12 1 11 2 9 3 10 4 8 5 7 6 6 7 4 8 5 9 79 10 72 11 71 12
REMARK SMILES IDX 3 13 2 14 1 15 73 16 74 17 78 18 75 19 77 20 76 21 13 22
REMARK SMILES IDX 14 23 15 24 16 25 17 26 18 27 70 28 19 29 69 30 20 31 21 32
REMARK SMILES IDX 22 33 63 34 23 35 68 36 62 37 64 38 24 39 67 40 61 41 60 42
REMARK SMILES IDX 25 44 51 45 34 46 50 47 35 48 38 49 49 50 65 51 36 52 37 53
REMARK SMILES IDX 48 55 66 56 39 57 26 58 27 59 32 60 28 61 29 62 31 63 33 64
REMARK SMILES IDX 30 65 52 66 53 67 58 68 54 69 55 70 57 71 59 72 56 73 40 74
REMARK SMILES IDX 41 75 46 76 42 77 43 78 45 79 47 80 44 81
REMARK H PARENT 64 43 38 54
REMARK Flexibility Score: inf
ROOT
ATOM      1  C   UNL A   1      38.436  21.129  25.277  1.00  0.00     0.274 C 
ENDROOT
BRANCH   1   2
ATOM      2  O   UNL A   1      37.319  21.225  24.370  1.00  0.00    -0.461 OA
BRANCH   2   3
ATOM      3  C   UNL A   1      36.894  22.481  24.077  1.00  0.00     0.316 C 
ATOM      4  O   UNL A   1      36.673  22.885  22.938  1.00  0.00    -0.251 OA
BRANCH   3   5
ATOM      5  C   UNL A   1      36.669  23.378  25.276  1.00  0.00     0.199 C 
BRANCH   5   6
ATOM      6  S   UNL A   1      35.442  22.792  26.480  1.00  0.00    -0.094 SA
BRANCH   6   7
ATOM      7  C   UNL A   1      34.152  22.067  25.484  1.00  0.00     0.101 A 
ATOM      8  C   UNL A   1      32.365  22.060  23.943  1.00  0.00     0.071 A 
ATOM      9  C   UNL A   1      33.275  22.783  24.696  1.00  0.00     0.062 A 
ATOM     10  N   UNL A   1      32.347  20.717  23.957  1.00  0.00    -0.230 NA
ATOM     11  C   UNL A   1      33.234  20.103  24.751  1.00  0.00     0.162 A 
ATOM     12  N   UNL A   1      34.128  20.723  25.533  1.00  0.00    -0.222 NA
BRANCH   8  13
ATOM     13  C   UNL A   1      31.351  22.788  23.085  1.00  0.00     0.215 C 
BRANCH  13  14
ATOM     14  O   UNL A   1      31.517  24.206  23.001  1.00  0.00    -0.378 OA
ATOM     15  C   UNL A   1      30.393  24.907  23.524  1.00  0.00     0.195 C 
ENDBRANCH  13  14
ENDBRANCH   8  13
BRANCH  11  16
ATOM     16  C   UNL A   1      33.240  18.653  24.707  1.00  0.00     0.038 A 
ATOM     17  C   UNL A   1      33.910  17.933  23.713  1.00  0.00     0.015 A 
ATOM     18  C   UNL A   1      32.603  17.911  25.700  1.00  0.00     0.123 A 
ATOM     19  C   UNL A   1      33.928  16.540  23.757  1.00  0.00     0.021 A 
ATOM     20  N   UNL A   1      32.586  16.557  25.762  1.00  0.00    -0.264 NA
ATOM     21  C   UNL A   1      33.256  15.905  24.789  1.00  0.00     0.111 A 
ENDBRANCH  11  16
ENDBRANCH   6   7
ENDBRANCH   5   6
ENDBRANCH   3   5
ENDBRANCH   2   3
ENDBRANCH   1   2
BRANCH   1  22
ATOM     22  C   UNL A   1      39.176  19.807  25.106  1.00  0.00     0.275 C 
BRANCH  22  23
ATOM     23  O   UNL A   1      40.055  19.580  26.224  1.00  0.00    -0.458 OA
BRANCH  23  24
ATOM     24  C   UNL A   1      41.363  19.777  25.973  1.00  0.00     0.338 C 
ATOM     25  O   UNL A   1      42.103  19.070  25.296  1.00  0.00    -0.246 OA
BRANCH  24  26
ATOM     26  C   UNL A   1      41.851  21.022  26.590  1.00  0.00     0.060 A 
ATOM     27  C   UNL A   1      41.836  21.198  27.977  1.00  0.00     0.016 A 
ATOM     28  C   UNL A   1      42.159  22.096  25.748  1.00  0.00     0.016 A 
ATOM     29  C   UNL A   1      42.088  22.462  28.518  1.00  0.00     0.010 A 
ATOM     30  C   UNL A   1      42.460  23.345  26.292  1.00  0.00     0.010 A 
ATOM     31  C   UNL A   1      42.410  23.544  27.680  1.00  0.00    -0.014 A 
BRANCH  31  32
ATOM     32  C   UNL A   1      42.769  24.868  28.245  1.00  0.00     0.031 A 
ATOM     33  C   UNL A   1      41.733  25.937  28.456  1.00  0.00     0.074 A 
ATOM     34  C   UNL A   1      44.059  25.121  28.530  1.00  0.00     0.049 A 
ATOM     35  N   UNL A   1      41.897  27.178  28.844  1.00  0.00    -0.248 NA
ATOM     36  C   UNL A   1      40.334  25.565  28.211  1.00  0.00     0.031 C 
ATOM     37  C   UNL A   1      45.159  24.165  28.384  1.00  0.00     0.029 A 
ATOM     38  N   UNL A   1      44.666  26.263  28.985  1.00  0.00    -0.354 N 
ATOM     39  C   UNL A   1      40.623  27.728  28.904  1.00  0.00     0.074 A 
ATOM     40  C   UNL A   1      39.697  26.695  28.493  1.00  0.00     0.031 C 
ATOM     41  C   UNL A   1      46.307  24.763  28.738  1.00  0.00     0.029 A 
ATOM     42  C   UNL A   1      46.030  26.152  29.087  1.00  0.00     0.049 A 
ATOM     43  H   UNL A   1      44.172  27.083  29.214  1.00  0.00     0.167 HD
ATOM     44  C   UNL A   1      40.259  28.981  29.268  1.00  0.00     0.037 A 
ATOM     45  C   UNL A   1      46.962  27.073  29.391  1.00  0.00     0.037 A 
ATOM     46  C   UNL A   1      41.177  30.025  29.643  1.00  0.00     0.049 A 
ATOM     47  C   UNL A   1      46.542  28.482  29.687  1.00  0.00     0.074 A 
ATOM     48  C   UNL A   1      40.898  31.331  30.011  1.00  0.00     0.029 A 
ATOM     49  N   UNL A   1      42.554  29.883  29.688  1.00  0.00    -0.354 N 
ATOM     50  N   UNL A   1      45.336  28.990  29.727  1.00  0.00    -0.248 NA
ATOM     51  C   UNL A   1      47.615  29.445  29.966  1.00  0.00     0.031 C 
ATOM     52  C   UNL A   1      42.111  31.987  30.252  1.00  0.00     0.029 A 
ATOM     53  C   UNL A   1      43.142  31.081  30.059  1.00  0.00     0.049 A 
ATOM     54  H   UNL A   1      43.043  29.052  29.485  1.00  0.00     0.167 HD
ATOM     55  C   UNL A   1      45.501  30.331  30.044  1.00  0.00     0.074 A 
ATOM     56  C   UNL A   1      46.925  30.555  30.195  1.00  0.00     0.031 C 
ATOM     57  C   UNL A   1      44.558  31.290  30.196  1.00  0.00     0.037 A 
BRANCH  44  58
ATOM     58  C   UNL A   1      38.797  29.303  29.272  1.00  0.00     0.057 A 
ATOM     59  C   UNL A   1      38.127  29.654  28.094  1.00  0.00     0.134 A 
ATOM     60  C   UNL A   1      38.040  29.198  30.445  1.00  0.00     0.134 A 
ATOM     61  F   UNL A   1      38.801  29.775  26.940  1.00  0.00    -0.206 F 
ATOM     62  C   UNL A   1      36.752  29.892  28.081  1.00  0.00     0.040 A 
ATOM     63  C   UNL A   1      36.662  29.423  30.444  1.00  0.00     0.040 A 
ATOM     64  F   UNL A   1      38.625  28.863  31.604  1.00  0.00    -0.206 F 
ATOM     65  C   UNL A   1      36.014  29.769  29.259  1.00  0.00     0.006 A 
ENDBRANCH  44  58
BRANCH  45  66
ATOM     66  C   UNL A   1      48.391  26.690  29.394  1.00  0.00     0.057 A 
ATOM     67  C   UNL A   1      49.179  26.839  28.251  1.00  0.00     0.134 A 
ATOM     68  C   UNL A   1      49.004  26.188  30.548  1.00  0.00     0.134 A 
ATOM     69  F   UNL A   1      48.639  27.300  27.113  1.00  0.00    -0.206 F 
ATOM     70  C   UNL A   1      50.532  26.499  28.251  1.00  0.00     0.040 A 
ATOM     71  C   UNL A   1      50.359  25.860  30.569  1.00  0.00     0.040 A 
ATOM     72  F   UNL A   1      48.295  26.027  31.675  1.00  0.00    -0.206 F 
ATOM     73  C   UNL A   1      51.126  26.014  29.416  1.00  0.00     0.006 A 
ENDBRANCH  45  66
BRANCH  57  74
ATOM     74  C   UNL A   1      45.040  32.659  30.556  1.00  0.00     0.057 A 
ATOM     75  C   UNL A   1      45.224  33.041  31.890  1.00  0.00     0.134 A 
ATOM     76  C   UNL A   1      45.332  33.599  29.561  1.00  0.00     0.134 A 
ATOM     77  F   UNL A   1      44.945  32.188  32.886  1.00  0.00    -0.206 F 
ATOM     78  C   UNL A   1      45.668  34.321  32.223  1.00  0.00     0.040 A 
ATOM     79  C   UNL A   1      45.791  34.877  29.881  1.00  0.00     0.040 A 
ATOM     80  F   UNL A   1      45.176  33.289  28.265  1.00  0.00    -0.206 F 
ATOM     81  C   UNL A   1      45.956  35.242  31.217  1.00  0.00     0.006 A 
ENDBRANCH  57  74
ENDBRANCH  31  32
ENDBRANCH  24  26
ENDBRANCH  23  24
ENDBRANCH  22  23
ENDBRANCH   1  22
TORSDOF 16
ENDMDL
