MODEL 1
REMARK VINA RESULT:     -11.8      0.000      0.000
REMARK SMILES CCN(CC)c1ccc([C@@H]2c3[nH]c4ccccc4c3C[C@@H](C(=O)OCCOC(=O)c3ccc(-c4c5nc(c(-c6c(F)cccc6F)c6ccc([nH]6)c(-c6c(F)cccc6F)c6nc(c(-c7c(F)cccc7F)c7ccc4[nH]7)C=C6)C=C5)cc3)N2C(C)=O)cc1
REMARK SMILES IDX 25 1 24 2 22 3 23 4 21 5 10 6 11 7 84 8 12 9 19 10 13 11
REMARK SMILES IDX 18 13 20 14 14 15 17 16 15 17 16 18 9 19 6 20 7 21 89 22
REMARK SMILES IDX 8 23 88 24 3 25 2 26 1 27 4 28 5 29 85 30 86 31 87 32 26 33
REMARK SMILES IDX 27 34 28 35 29 36 30 37 31 38 83 39 32 40 82 41 33 42 34 43
REMARK SMILES IDX 35 44 76 45 36 46 81 47 75 48 77 49 37 50 80 51 74 52 73 53
REMARK SMILES IDX 38 55 64 56 47 57 63 58 48 59 51 60 62 61 78 62 49 63 50 64
REMARK SMILES IDX 61 66 79 67 52 68 39 69 40 70 45 71 41 72 42 73 44 74 46 75
REMARK SMILES IDX 43 76 65 77 66 78 71 79 67 80 68 81 70 82 72 83 69 84 53 85
REMARK SMILES IDX 54 86 59 87 55 88 56 89 58 90 60 91 57 92
REMARK H PARENT 12 12 77 54 51 65
REMARK Flexibility Score: inf
ROOT
ATOM      1  C   UNL A   1      30.251  24.709  26.233  1.00  0.00     0.274 C 
ENDROOT
BRANCH   1   2
ATOM      2  O   UNL A   1      31.497  24.427  26.899  1.00  0.00    -0.461 OA
BRANCH   2   3
ATOM      3  C   UNL A   1      32.183  23.286  26.669  1.00  0.00     0.329 C 
ATOM      4  O   UNL A   1      32.492  22.489  27.546  1.00  0.00    -0.250 OA
BRANCH   3   5
ATOM      5  C   UNL A   1      32.774  23.248  25.224  1.00  0.00     0.200 C 
ATOM      6  C   UNL A   1      35.009  22.216  25.759  1.00  0.00     0.163 C 
ATOM      7  C   UNL A   1      34.331  20.907  25.425  1.00  0.00     0.047 A 
ATOM      8  N   UNL A   1      34.258  23.181  24.931  1.00  0.00    -0.316 N 
ATOM      9  N   UNL A   1      34.855  19.648  25.499  1.00  0.00    -0.356 N 
ATOM     10  C   UNL A   1      33.057  20.784  24.867  1.00  0.00    -0.014 A 
ATOM     11  C   UNL A   1      34.201  18.867  24.569  1.00  0.00     0.046 A 
ATOM     12  H   UNL A   1      35.571  19.351  26.107  1.00  0.00     0.166 HD
ATOM     13  C   UNL A   1      33.010  19.516  24.246  1.00  0.00     0.003 A 
ATOM     14  C   UNL A   1      32.129  21.952  24.645  1.00  0.00     0.075 C 
ATOM     15  C   UNL A   1      34.600  17.684  23.942  1.00  0.00     0.026 A 
ATOM     16  C   UNL A   1      32.134  18.940  23.312  1.00  0.00     0.010 A 
ATOM     17  C   UNL A   1      33.765  17.187  22.936  1.00  0.00     0.002 A 
ATOM     18  C   UNL A   1      32.543  17.790  22.638  1.00  0.00     0.001 A 
BRANCH   6  19
ATOM     19  C   UNL A   1      36.521  22.385  25.750  1.00  0.00    -0.019 A 
ATOM     20  C   UNL A   1      39.322  22.736  26.184  1.00  0.00     0.037 A 
ATOM     21  C   UNL A   1      38.801  21.558  25.644  1.00  0.00     0.026 A 
ATOM     22  C   UNL A   1      38.421  23.786  26.371  1.00  0.00     0.026 A 
ATOM     23  C   UNL A   1      37.431  21.387  25.414  1.00  0.00     0.008 A 
ATOM     24  C   UNL A   1      37.050  23.619  26.160  1.00  0.00     0.008 A 
BRANCH  20  25
ATOM     25  N   UNL A   1      40.647  22.862  26.573  1.00  0.00    -0.372 N 
BRANCH  25  26
ATOM     26  C   UNL A   1      40.916  23.516  27.861  1.00  0.00     0.113 C 
ATOM     27  C   UNL A   1      41.974  22.782  28.673  1.00  0.00     0.027 C 
ENDBRANCH  25  26
BRANCH  25  28
ATOM     28  C   UNL A   1      41.717  22.071  25.960  1.00  0.00     0.113 C 
ATOM     29  C   UNL A   1      42.791  22.914  25.284  1.00  0.00     0.027 C 
ENDBRANCH  25  28
ENDBRANCH  20  25
ENDBRANCH   6  19
BRANCH   8  30
ATOM     30  C   UNL A   1      34.695  23.261  23.587  1.00  0.00     0.221 C 
ATOM     31  C   UNL A   1      33.858  24.043  22.615  1.00  0.00     0.114 C 
ATOM     32  O   UNL A   1      35.703  22.701  23.151  1.00  0.00    -0.275 OA
ENDBRANCH   8  30
ENDBRANCH   3   5
ENDBRANCH   2   3
ENDBRANCH   1   2
BRANCH   1  33
ATOM     33  C   UNL A   1      30.412  26.067  25.548  1.00  0.00     0.275 C 
BRANCH  33  34
ATOM     34  O   UNL A   1      31.784  26.141  25.129  1.00  0.00    -0.458 OA
BRANCH  34  35
ATOM     35  C   UNL A   1      32.153  27.247  24.443  1.00  0.00     0.338 C 
ATOM     36  O   UNL A   1      31.727  27.661  23.387  1.00  0.00    -0.246 OA
BRANCH  35  37
ATOM     37  C   UNL A   1      33.094  27.955  25.322  1.00  0.00     0.060 A 
ATOM     38  C   UNL A   1      33.678  29.134  24.846  1.00  0.00     0.016 A 
ATOM     39  C   UNL A   1      33.370  27.483  26.601  1.00  0.00     0.016 A 
ATOM     40  C   UNL A   1      34.535  29.866  25.654  1.00  0.00     0.010 A 
ATOM     41  C   UNL A   1      34.207  28.236  27.425  1.00  0.00     0.010 A 
ATOM     42  C   UNL A   1      34.790  29.430  26.957  1.00  0.00    -0.014 A 
BRANCH  42  43
ATOM     43  C   UNL A   1      35.712  30.197  27.822  1.00  0.00     0.031 A 
ATOM     44  C   UNL A   1      37.140  29.759  27.931  1.00  0.00     0.074 A 
ATOM     45  C   UNL A   1      35.265  31.269  28.498  1.00  0.00     0.049 A 
ATOM     46  N   UNL A   1      38.072  30.175  28.746  1.00  0.00    -0.248 NA
ATOM     47  C   UNL A   1      37.571  28.703  27.001  1.00  0.00     0.031 C 
ATOM     48  C   UNL A   1      33.911  31.821  28.417  1.00  0.00     0.029 A 
ATOM     49  N   UNL A   1      35.904  32.082  29.398  1.00  0.00    -0.354 N 
ATOM     50  C   UNL A   1      39.192  29.410  28.453  1.00  0.00     0.074 A 
ATOM     51  C   UNL A   1      38.821  28.499  27.391  1.00  0.00     0.031 C 
ATOM     52  C   UNL A   1      33.819  32.877  29.242  1.00  0.00     0.029 A 
ATOM     53  C   UNL A   1      35.086  33.042  29.945  1.00  0.00     0.049 A 
ATOM     54  H   UNL A   1      36.856  31.988  29.630  1.00  0.00     0.167 HD
ATOM     55  C   UNL A   1      40.417  29.464  29.025  1.00  0.00     0.037 A 
ATOM     56  C   UNL A   1      35.328  33.926  30.931  1.00  0.00     0.037 A 
ATOM     57  C   UNL A   1      40.775  30.387  30.070  1.00  0.00     0.049 A 
ATOM     58  C   UNL A   1      36.683  33.934  31.583  1.00  0.00     0.074 A 
ATOM     59  C   UNL A   1      41.985  30.522  30.728  1.00  0.00     0.029 A 
ATOM     60  N   UNL A   1      39.919  31.339  30.605  1.00  0.00    -0.354 N 
ATOM     61  N   UNL A   1      37.727  33.182  31.329  1.00  0.00    -0.248 NA
ATOM     62  C   UNL A   1      36.890  34.906  32.665  1.00  0.00     0.031 C 
ATOM     63  C   UNL A   1      41.850  31.537  31.683  1.00  0.00     0.029 A 
ATOM     64  C   UNL A   1      40.570  32.060  31.591  1.00  0.00     0.049 A 
ATOM     65  H   UNL A   1      38.986  31.480  30.324  1.00  0.00     0.167 HD
ATOM     66  C   UNL A   1      38.721  33.605  32.201  1.00  0.00     0.074 A 
ATOM     67  C   UNL A   1      38.158  34.689  32.981  1.00  0.00     0.031 C 
ATOM     68  C   UNL A   1      39.986  33.139  32.346  1.00  0.00     0.037 A 
BRANCH  55  69
ATOM     69  C   UNL A   1      41.436  28.472  28.554  1.00  0.00     0.057 A 
ATOM     70  C   UNL A   1      42.146  28.646  27.360  1.00  0.00     0.134 A 
ATOM     71  C   UNL A   1      41.707  27.321  29.305  1.00  0.00     0.134 A 
ATOM     72  F   UNL A   1      41.918  29.716  26.583  1.00  0.00    -0.206 F 
ATOM     73  C   UNL A   1      43.074  27.700  26.918  1.00  0.00     0.040 A 
ATOM     74  C   UNL A   1      42.649  26.380  28.887  1.00  0.00     0.040 A 
ATOM     75  F   UNL A   1      41.060  27.093  30.458  1.00  0.00    -0.206 F 
ATOM     76  C   UNL A   1      43.331  26.566  27.686  1.00  0.00     0.006 A 
ENDBRANCH  55  69
BRANCH  56  77
ATOM     77  C   UNL A   1      34.260  34.854  31.379  1.00  0.00     0.057 A 
ATOM     78  C   UNL A   1      33.636  34.694  32.621  1.00  0.00     0.134 A 
ATOM     79  C   UNL A   1      33.829  35.915  30.573  1.00  0.00     0.134 A 
ATOM     80  F   UNL A   1      33.990  33.682  33.427  1.00  0.00    -0.206 F 
ATOM     81  C   UNL A   1      32.614  35.546  33.041  1.00  0.00     0.040 A 
ATOM     82  C   UNL A   1      32.825  36.789  30.991  1.00  0.00     0.040 A 
ATOM     83  F   UNL A   1      34.387  36.124  29.371  1.00  0.00    -0.206 F 
ATOM     84  C   UNL A   1      32.208  36.601  32.226  1.00  0.00     0.006 A 
ENDBRANCH  56  77
BRANCH  68  85
ATOM     85  C   UNL A   1      40.850  33.831  33.358  1.00  0.00     0.057 A 
ATOM     86  C   UNL A   1      40.802  33.503  34.719  1.00  0.00     0.134 A 
ATOM     87  C   UNL A   1      41.754  34.823  32.960  1.00  0.00     0.134 A 
ATOM     88  F   UNL A   1      39.945  32.571  35.163  1.00  0.00    -0.206 F 
ATOM     89  C   UNL A   1      41.607  34.155  35.653  1.00  0.00     0.040 A 
ATOM     90  C   UNL A   1      42.582  35.466  33.882  1.00  0.00     0.040 A 
ATOM     91  F   UNL A   1      41.852  35.177  31.670  1.00  0.00    -0.206 F 
ATOM     92  C   UNL A   1      42.504  35.137  35.233  1.00  0.00     0.006 A 
ENDBRANCH  68  85
ENDBRANCH  42  43
ENDBRANCH  35  37
ENDBRANCH  34  35
ENDBRANCH  33  34
ENDBRANCH   1  33
TORSDOF 16
ENDMDL
MODEL 2
REMARK VINA RESULT:     -11.7      2.787      5.814
REMARK SMILES CCN(CC)c1ccc([C@@H]2c3[nH]c4ccccc4c3C[C@@H](C(=O)OCCOC(=O)c3ccc(-c4c5nc(c(-c6c(F)cccc6F)c6ccc([nH]6)c(-c6c(F)cccc6F)c6nc(c(-c7c(F)cccc7F)c7ccc4[nH]7)C=C6)C=C5)cc3)N2C(C)=O)cc1
REMARK SMILES IDX 25 1 24 2 22 3 23 4 21 5 10 6 11 7 84 8 12 9 19 10 13 11
REMARK SMILES IDX 18 13 20 14 14 15 17 16 15 17 16 18 9 19 6 20 7 21 89 22
REMARK SMILES IDX 8 23 88 24 3 25 2 26 1 27 4 28 5 29 85 30 86 31 87 32 26 33
REMARK SMILES IDX 27 34 28 35 29 36 30 37 31 38 83 39 32 40 82 41 33 42 34 43
REMARK SMILES IDX 35 44 76 45 36 46 81 47 75 48 77 49 37 50 80 51 74 52 73 53
REMARK SMILES IDX 38 55 64 56 47 57 63 58 48 59 51 60 62 61 78 62 49 63 50 64
REMARK SMILES IDX 61 66 79 67 52 68 39 69 40 70 45 71 41 72 42 73 44 74 46 75
REMARK SMILES IDX 43 76 65 77 66 78 71 79 67 80 68 81 70 82 72 83 69 84 53 85
REMARK SMILES IDX 54 86 59 87 55 88 56 89 58 90 60 91 57 92
REMARK H PARENT 12 12 77 54 51 65
REMARK Flexibility Score: inf
ROOT
ATOM      1  C   UNL A   1      33.153  27.847  23.944  1.00  0.00     0.274 C 
ENDROOT
BRANCH   1   2
ATOM      2  O   UNL A   1      33.950  26.770  24.473  1.00  0.00    -0.461 OA
BRANCH   2   3
ATOM      3  C   UNL A   1      33.589  25.477  24.315  1.00  0.00     0.329 C 
ATOM      4  O   UNL A   1      33.014  25.048  23.322  1.00  0.00    -0.250 OA
BRANCH   3   5
ATOM      5  C   UNL A   1      33.732  24.671  25.644  1.00  0.00     0.200 C 
ATOM      6  C   UNL A   1      34.447  22.461  24.667  1.00  0.00     0.163 C 
ATOM      7  C   UNL A   1      35.851  22.960  24.919  1.00  0.00     0.047 A 
ATOM      8  N   UNL A   1      33.672  23.159  25.713  1.00  0.00    -0.316 N 
ATOM      9  N   UNL A   1      37.029  22.343  24.607  1.00  0.00    -0.356 N 
ATOM     10  C   UNL A   1      36.175  24.117  25.631  1.00  0.00    -0.014 A 
ATOM     11  C   UNL A   1      37.980  22.774  25.510  1.00  0.00     0.046 A 
ATOM     12  H   UNL A   1      37.175  21.706  23.871  1.00  0.00     0.166 HD
ATOM     13  C   UNL A   1      37.505  23.955  26.080  1.00  0.00     0.003 A 
ATOM     14  C   UNL A   1      35.148  25.100  26.133  1.00  0.00     0.075 C 
ATOM     15  C   UNL A   1      39.177  22.179  25.913  1.00  0.00     0.026 A 
ATOM     16  C   UNL A   1      38.277  24.621  27.045  1.00  0.00     0.010 A 
ATOM     17  C   UNL A   1      39.876  22.802  26.953  1.00  0.00     0.002 A 
ATOM     18  C   UNL A   1      39.447  24.013  27.498  1.00  0.00     0.001 A 
BRANCH   6  19
ATOM     19  C   UNL A   1      34.119  20.987  24.484  1.00  0.00    -0.019 A 
ATOM     20  C   UNL A   1      33.602  18.179  24.581  1.00  0.00     0.037 A 
ATOM     21  C   UNL A   1      32.597  19.105  24.293  1.00  0.00     0.026 A 
ATOM     22  C   UNL A   1      34.900  18.682  24.681  1.00  0.00     0.026 A 
ATOM     23  C   UNL A   1      32.848  20.481  24.228  1.00  0.00     0.008 A 
ATOM     24  C   UNL A   1      35.158  20.055  24.634  1.00  0.00     0.008 A 
BRANCH  20  25
ATOM     25  N   UNL A   1      33.342  16.837  24.813  1.00  0.00    -0.372 N 
BRANCH  25  26
ATOM     26  C   UNL A   1      34.343  15.864  24.356  1.00  0.00     0.113 C 
ATOM     27  C   UNL A   1      35.500  15.720  25.334  1.00  0.00     0.027 C 
ENDBRANCH  25  26
BRANCH  25  28
ATOM     28  C   UNL A   1      32.339  16.395  25.784  1.00  0.00     0.113 C 
ATOM     29  C   UNL A   1      32.104  14.890  25.780  1.00  0.00     0.027 C 
ENDBRANCH  25  28
ENDBRANCH  20  25
ENDBRANCH   6  19
BRANCH   8  30
ATOM     30  C   UNL A   1      33.703  22.529  26.980  1.00  0.00     0.221 C 
ATOM     31  C   UNL A   1      32.501  22.671  27.871  1.00  0.00     0.114 C 
ATOM     32  O   UNL A   1      34.666  21.898  27.418  1.00  0.00    -0.275 OA
ENDBRANCH   8  30
ENDBRANCH   3   5
ENDBRANCH   2   3
ENDBRANCH   1   2
BRANCH   1  33
ATOM     33  C   UNL A   1      32.568  28.596  25.144  1.00  0.00     0.275 C 
BRANCH  33  34
ATOM     34  O   UNL A   1      33.509  29.634  25.461  1.00  0.00    -0.458 OA
BRANCH  34  35
ATOM     35  C   UNL A   1      33.236  30.391  26.548  1.00  0.00     0.338 C 
ATOM     36  O   UNL A   1      32.178  30.872  26.892  1.00  0.00    -0.246 OA
BRANCH  35  37
ATOM     37  C   UNL A   1      34.475  30.397  27.340  1.00  0.00     0.060 A 
ATOM     38  C   UNL A   1      35.022  29.163  27.714  1.00  0.00     0.016 A 
ATOM     39  C   UNL A   1      35.101  31.591  27.679  1.00  0.00     0.016 A 
ATOM     40  C   UNL A   1      36.215  29.112  28.418  1.00  0.00     0.010 A 
ATOM     41  C   UNL A   1      36.317  31.538  28.361  1.00  0.00     0.010 A 
ATOM     42  C   UNL A   1      36.879  30.301  28.731  1.00  0.00    -0.014 A 
BRANCH  42  43
ATOM     43  C   UNL A   1      38.146  30.257  29.493  1.00  0.00     0.031 A 
ATOM     44  C   UNL A   1      39.320  29.534  28.911  1.00  0.00     0.074 A 
ATOM     45  C   UNL A   1      38.230  30.858  30.693  1.00  0.00     0.049 A 
ATOM     46  N   UNL A   1      40.462  29.229  29.467  1.00  0.00    -0.248 NA
ATOM     47  C   UNL A   1      39.184  29.086  27.516  1.00  0.00     0.031 C 
ATOM     48  C   UNL A   1      37.169  31.643  31.327  1.00  0.00     0.029 A 
ATOM     49  N   UNL A   1      39.258  30.893  31.599  1.00  0.00    -0.354 N 
ATOM     50  C   UNL A   1      41.169  28.524  28.503  1.00  0.00     0.074 A 
ATOM     51  C   UNL A   1      40.325  28.439  27.331  1.00  0.00     0.031 C 
ATOM     52  C   UNL A   1      37.600  32.074  32.524  1.00  0.00     0.029 A 
ATOM     53  C   UNL A   1      38.941  31.553  32.761  1.00  0.00     0.049 A 
ATOM     54  H   UNL A   1      40.139  30.485  31.433  1.00  0.00     0.167 HD
ATOM     55  C   UNL A   1      42.410  27.994  28.596  1.00  0.00     0.037 A 
ATOM     56  C   UNL A   1      39.644  31.685  33.902  1.00  0.00     0.037 A 
ATOM     57  C   UNL A   1      43.244  28.099  29.764  1.00  0.00     0.049 A 
ATOM     58  C   UNL A   1      41.001  31.045  33.996  1.00  0.00     0.074 A 
ATOM     59  C   UNL A   1      44.515  27.591  29.970  1.00  0.00     0.029 A 
ATOM     60  N   UNL A   1      42.886  28.769  30.926  1.00  0.00    -0.354 N 
ATOM     61  N   UNL A   1      41.651  30.347  33.096  1.00  0.00    -0.248 NA
ATOM     62  C   UNL A   1      41.720  31.205  35.268  1.00  0.00     0.031 C 
ATOM     63  C   UNL A   1      44.913  27.927  31.269  1.00  0.00     0.029 A 
ATOM     64  C   UNL A   1      43.908  28.680  31.857  1.00  0.00     0.049 A 
ATOM     65  H   UNL A   1      42.032  29.236  31.068  1.00  0.00     0.167 HD
ATOM     66  C   UNL A   1      42.862  30.003  33.682  1.00  0.00     0.074 A 
ATOM     67  C   UNL A   1      42.862  30.583  35.010  1.00  0.00     0.031 C 
ATOM     68  C   UNL A   1      43.883  29.273  33.169  1.00  0.00     0.037 A 
BRANCH  55  69
ATOM     69  C   UNL A   1      42.914  27.222  27.414  1.00  0.00     0.057 A 
ATOM     70  C   UNL A   1      42.743  25.836  27.304  1.00  0.00     0.134 A 
ATOM     71  C   UNL A   1      43.583  27.876  26.372  1.00  0.00     0.134 A 
ATOM     72  F   UNL A   1      42.130  25.147  28.278  1.00  0.00    -0.206 F 
ATOM     73  C   UNL A   1      43.241  25.125  26.210  1.00  0.00     0.040 A 
ATOM     74  C   UNL A   1      44.064  27.180  25.262  1.00  0.00     0.040 A 
ATOM     75  F   UNL A   1      43.782  29.202  26.417  1.00  0.00    -0.206 F 
ATOM     76  C   UNL A   1      43.899  25.798  25.183  1.00  0.00     0.006 A 
ENDBRANCH  55  69
BRANCH  56  77
ATOM     77  C   UNL A   1      39.068  32.427  35.051  1.00  0.00     0.057 A 
ATOM     78  C   UNL A   1      38.333  31.769  36.043  1.00  0.00     0.134 A 
ATOM     79  C   UNL A   1      39.229  33.812  35.181  1.00  0.00     0.134 A 
ATOM     80  F   UNL A   1      38.125  30.446  35.961  1.00  0.00    -0.206 F 
ATOM     81  C   UNL A   1      37.766  32.461  37.114  1.00  0.00     0.040 A 
ATOM     82  C   UNL A   1      38.689  34.513  36.260  1.00  0.00     0.040 A 
ATOM     83  F   UNL A   1      39.924  34.502  34.265  1.00  0.00    -0.206 F 
ATOM     84  C   UNL A   1      37.948  33.838  37.227  1.00  0.00     0.006 A 
ENDBRANCH  56  77
BRANCH  68  85
ATOM     85  C   UNL A   1      45.093  29.100  34.038  1.00  0.00     0.057 A 
ATOM     86  C   UNL A   1      46.150  30.018  34.025  1.00  0.00     0.134 A 
ATOM     87  C   UNL A   1      45.188  28.010  34.912  1.00  0.00     0.134 A 
ATOM     88  F   UNL A   1      46.123  31.074  33.198  1.00  0.00    -0.206 F 
ATOM     89  C   UNL A   1      47.273  29.845  34.834  1.00  0.00     0.040 A 
ATOM     90  C   UNL A   1      46.295  27.839  35.744  1.00  0.00     0.040 A 
ATOM     91  F   UNL A   1      44.205  27.100  34.976  1.00  0.00    -0.206 F 
ATOM     92  C   UNL A   1      47.345  28.755  35.701  1.00  0.00     0.006 A 
ENDBRANCH  68  85
ENDBRANCH  42  43
ENDBRANCH  35  37
ENDBRANCH  34  35
ENDBRANCH  33  34
ENDBRANCH   1  33
TORSDOF 16
ENDMDL
MODEL 3
REMARK VINA RESULT:     -11.2      5.919     10.426
REMARK SMILES CCN(CC)c1ccc([C@@H]2c3[nH]c4ccccc4c3C[C@@H](C(=O)OCCOC(=O)c3ccc(-c4c5nc(c(-c6c(F)cccc6F)c6ccc([nH]6)c(-c6c(F)cccc6F)c6nc(c(-c7c(F)cccc7F)c7ccc4[nH]7)C=C6)C=C5)cc3)N2C(C)=O)cc1
REMARK SMILES IDX 25 1 24 2 22 3 23 4 21 5 10 6 11 7 84 8 12 9 19 10 13 11
REMARK SMILES IDX 18 13 20 14 14 15 17 16 15 17 16 18 9 19 6 20 7 21 89 22
REMARK SMILES IDX 8 23 88 24 3 25 2 26 1 27 4 28 5 29 85 30 86 31 87 32 26 33
REMARK SMILES IDX 27 34 28 35 29 36 30 37 31 38 83 39 32 40 82 41 33 42 34 43
REMARK SMILES IDX 35 44 76 45 36 46 81 47 75 48 77 49 37 50 80 51 74 52 73 53
REMARK SMILES IDX 38 55 64 56 47 57 63 58 48 59 51 60 62 61 78 62 49 63 50 64
REMARK SMILES IDX 61 66 79 67 52 68 39 69 40 70 45 71 41 72 42 73 44 74 46 75
REMARK SMILES IDX 43 76 65 77 66 78 71 79 67 80 68 81 70 82 72 83 69 84 53 85
REMARK SMILES IDX 54 86 59 87 55 88 56 89 58 90 60 91 57 92
REMARK H PARENT 12 12 77 54 51 65
REMARK Flexibility Score: inf
ROOT
ATOM      1  C   UNL A   1      46.861  24.141  24.572  1.00  0.00     0.274 C 
ENDROOT
BRANCH   1   2
ATOM      2  O   UNL A   1      47.467  25.199  25.339  1.00  0.00    -0.461 OA
BRANCH   2   3
ATOM      3  C   UNL A   1      47.138  26.495  25.144  1.00  0.00     0.329 C 
ATOM      4  O   UNL A   1      46.342  26.874  24.293  1.00  0.00    -0.250 OA
BRANCH   3   5
ATOM      5  C   UNL A   1      48.092  27.457  25.921  1.00  0.00     0.200 C 
ATOM      6  C   UNL A   1      46.524  28.120  27.778  1.00  0.00     0.163 C 
ATOM      7  C   UNL A   1      47.175  26.993  28.545  1.00  0.00     0.047 A 
ATOM      8  N   UNL A   1      47.601  28.540  26.858  1.00  0.00    -0.316 N 
ATOM      9  N   UNL A   1      46.869  26.545  29.798  1.00  0.00    -0.356 N 
ATOM     10  C   UNL A   1      48.300  26.281  28.122  1.00  0.00    -0.014 A 
ATOM     11  C   UNL A   1      48.015  25.999  30.340  1.00  0.00     0.046 A 
ATOM     12  H   UNL A   1      45.989  26.600  30.237  1.00  0.00     0.166 HD
ATOM     13  C   UNL A   1      48.881  25.722  29.282  1.00  0.00     0.003 A 
ATOM     14  C   UNL A   1      48.937  26.459  26.768  1.00  0.00     0.075 C 
ATOM     15  C   UNL A   1      48.376  25.797  31.673  1.00  0.00     0.026 A 
ATOM     16  C   UNL A   1      50.138  25.154  29.543  1.00  0.00     0.010 A 
ATOM     17  C   UNL A   1      49.674  25.334  31.915  1.00  0.00     0.002 A 
ATOM     18  C   UNL A   1      50.535  24.998  30.871  1.00  0.00     0.001 A 
BRANCH   6  19
ATOM     19  C   UNL A   1      45.769  29.251  28.460  1.00  0.00    -0.019 A 
ATOM     20  C   UNL A   1      43.990  31.105  29.710  1.00  0.00     0.037 A 
ATOM     21  C   UNL A   1      45.076  30.550  30.391  1.00  0.00     0.026 A 
ATOM     22  C   UNL A   1      43.899  30.817  28.347  1.00  0.00     0.026 A 
ATOM     23  C   UNL A   1      45.960  29.654  29.779  1.00  0.00     0.008 A 
ATOM     24  C   UNL A   1      44.766  29.911  27.731  1.00  0.00     0.008 A 
BRANCH  20  25
ATOM     25  N   UNL A   1      43.014  31.858  30.343  1.00  0.00    -0.372 N 
BRANCH  25  26
ATOM     26  C   UNL A   1      42.761  31.584  31.764  1.00  0.00     0.113 C 
ATOM     27  C   UNL A   1      42.345  32.832  32.530  1.00  0.00     0.027 C 
ENDBRANCH  25  26
BRANCH  25  28
ATOM     28  C   UNL A   1      42.511  33.113  29.778  1.00  0.00     0.113 C 
ATOM     29  C   UNL A   1      43.598  34.147  29.520  1.00  0.00     0.027 C 
ENDBRANCH  25  28
ENDBRANCH  20  25
ENDBRANCH   6  19
BRANCH   8  30
ATOM     30  C   UNL A   1      48.541  29.430  27.430  1.00  0.00     0.221 C 
ATOM     31  C   UNL A   1      48.399  30.896  27.133  1.00  0.00     0.114 C 
ATOM     32  O   UNL A   1      49.493  29.078  28.128  1.00  0.00    -0.275 OA
ENDBRANCH   8  30
ENDBRANCH   3   5
ENDBRANCH   2   3
ENDBRANCH   1   2
BRANCH   1  33
ATOM     33  C   UNL A   1      45.683  23.615  25.394  1.00  0.00     0.275 C 
BRANCH  33  34
ATOM     34  O   UNL A   1      44.508  24.229  24.841  1.00  0.00    -0.458 OA
BRANCH  34  35
ATOM     35  C   UNL A   1      43.315  23.772  25.287  1.00  0.00     0.338 C 
ATOM     36  O   UNL A   1      42.718  22.768  24.963  1.00  0.00    -0.246 OA
BRANCH  35  37
ATOM     37  C   UNL A   1      42.937  24.676  26.382  1.00  0.00     0.060 A 
ATOM     38  C   UNL A   1      43.439  25.983  26.360  1.00  0.00     0.016 A 
ATOM     39  C   UNL A   1      42.080  24.255  27.393  1.00  0.00     0.016 A 
ATOM     40  C   UNL A   1      43.073  26.890  27.342  1.00  0.00     0.010 A 
ATOM     41  C   UNL A   1      41.687  25.176  28.364  1.00  0.00     0.010 A 
ATOM     42  C   UNL A   1      42.180  26.496  28.342  1.00  0.00    -0.014 A 
BRANCH  42  43
ATOM     43  C   UNL A   1      41.794  27.452  29.402  1.00  0.00     0.031 A 
ATOM     44  C   UNL A   1      42.551  27.450  30.693  1.00  0.00     0.074 A 
ATOM     45  C   UNL A   1      40.775  28.306  29.200  1.00  0.00     0.049 A 
ATOM     46  N   UNL A   1      42.286  28.077  31.809  1.00  0.00    -0.248 NA
ATOM     47  C   UNL A   1      43.767  26.621  30.736  1.00  0.00     0.031 C 
ATOM     48  C   UNL A   1      40.010  28.436  27.959  1.00  0.00     0.029 A 
ATOM     49  N   UNL A   1      40.201  29.220  30.044  1.00  0.00    -0.354 N 
ATOM     50  C   UNL A   1      43.281  27.694  32.697  1.00  0.00     0.074 A 
ATOM     51  C   UNL A   1      44.150  26.774  31.995  1.00  0.00     0.031 C 
ATOM     52  C   UNL A   1      39.060  29.372  28.126  1.00  0.00     0.029 A 
ATOM     53  C   UNL A   1      39.117  29.864  29.499  1.00  0.00     0.049 A 
ATOM     54  H   UNL A   1      40.533  29.399  30.954  1.00  0.00     0.167 HD
ATOM     55  C   UNL A   1      43.446  28.076  33.985  1.00  0.00     0.037 A 
ATOM     56  C   UNL A   1      38.247  30.724  30.060  1.00  0.00     0.037 A 
ATOM     57  C   UNL A   1      42.581  29.004  34.665  1.00  0.00     0.049 A 
ATOM     58  C   UNL A   1      38.425  31.095  31.506  1.00  0.00     0.074 A 
ATOM     59  C   UNL A   1      42.651  29.454  35.971  1.00  0.00     0.029 A 
ATOM     60  N   UNL A   1      41.488  29.630  34.082  1.00  0.00    -0.354 N 
ATOM     61  N   UNL A   1      39.345  30.701  32.354  1.00  0.00    -0.248 NA
ATOM     62  C   UNL A   1      37.440  32.025  32.076  1.00  0.00     0.031 C 
ATOM     63  C   UNL A   1      41.580  30.330  36.188  1.00  0.00     0.029 A 
ATOM     64  C   UNL A   1      40.869  30.456  35.005  1.00  0.00     0.049 A 
ATOM     65  H   UNL A   1      41.195  29.505  33.151  1.00  0.00     0.167 HD
ATOM     66  C   UNL A   1      39.064  31.350  33.549  1.00  0.00     0.074 A 
ATOM     67  C   UNL A   1      37.896  32.175  33.311  1.00  0.00     0.031 C 
ATOM     68  C   UNL A   1      39.712  31.272  34.738  1.00  0.00     0.037 A 
BRANCH  55  69
ATOM     69  C   UNL A   1      44.582  27.456  34.741  1.00  0.00     0.057 A 
ATOM     70  C   UNL A   1      45.885  27.964  34.672  1.00  0.00     0.134 A 
ATOM     71  C   UNL A   1      44.367  26.331  35.547  1.00  0.00     0.134 A 
ATOM     72  F   UNL A   1      46.161  29.026  33.900  1.00  0.00    -0.206 F 
ATOM     73  C   UNL A   1      46.940  27.360  35.361  1.00  0.00     0.040 A 
ATOM     74  C   UNL A   1      45.408  25.734  36.259  1.00  0.00     0.040 A 
ATOM     75  F   UNL A   1      43.143  25.794  35.655  1.00  0.00    -0.206 F 
ATOM     76  C   UNL A   1      46.701  26.245  36.161  1.00  0.00     0.006 A 
ENDBRANCH  55  69
BRANCH  56  77
ATOM     77  C   UNL A   1      37.119  31.269  29.266  1.00  0.00     0.057 A 
ATOM     78  C   UNL A   1      35.983  30.497  28.998  1.00  0.00     0.134 A 
ATOM     79  C   UNL A   1      37.152  32.569  28.745  1.00  0.00     0.134 A 
ATOM     80  F   UNL A   1      35.903  29.237  29.450  1.00  0.00    -0.206 F 
ATOM     81  C   UNL A   1      34.927  30.992  28.230  1.00  0.00     0.040 A 
ATOM     82  C   UNL A   1      36.093  33.084  27.997  1.00  0.00     0.040 A 
ATOM     83  F   UNL A   1      38.212  33.360  28.967  1.00  0.00    -0.206 F 
ATOM     84  C   UNL A   1      34.978  32.291  27.731  1.00  0.00     0.006 A 
ENDBRANCH  56  77
BRANCH  68  85
ATOM     85  C   UNL A   1      39.190  32.130  35.850  1.00  0.00     0.057 A 
ATOM     86  C   UNL A   1      38.258  31.651  36.779  1.00  0.00     0.134 A 
ATOM     87  C   UNL A   1      39.643  33.446  36.004  1.00  0.00     0.134 A 
ATOM     88  F   UNL A   1      37.775  30.404  36.676  1.00  0.00    -0.206 F 
ATOM     89  C   UNL A   1      37.776  32.460  37.809  1.00  0.00     0.040 A 
ATOM     90  C   UNL A   1      39.186  34.257  37.043  1.00  0.00     0.040 A 
ATOM     91  F   UNL A   1      40.541  33.961  35.150  1.00  0.00    -0.206 F 
ATOM     92  C   UNL A   1      38.245  33.767  37.945  1.00  0.00     0.006 A 
ENDBRANCH  68  85
ENDBRANCH  42  43
ENDBRANCH  35  37
ENDBRANCH  34  35
ENDBRANCH  33  34
ENDBRANCH   1  33
TORSDOF 16
ENDMDL
