MODEL 1
REMARK VINA RESULT:     -11.3      0.000      0.000
REMARK SMILES COC(=O)c1sc(SCC(=O)OCCOC(=O)c2ccc(-c3c4nc(c(-c5c(F)cccc5F)c5ccc([nH]5)c(-c5c(F)cccc5F)c5nc(c(-c6c(F)cccc6F)c6ccc3[nH]6)C=C5)C=C4)cc2)c(NC(=O)c2ccccc2)c1O
REMARK SMILES IDX 13 1 12 2 10 3 11 4 9 5 8 6 7 7 5 8 6 9 82 10 72 11 3 12
REMARK SMILES IDX 4 13 2 14 1 15 83 16 73 18 74 19 75 21 76 22 77 23 81 24
REMARK SMILES IDX 78 25 80 26 79 27 14 28 15 29 16 30 17 31 18 32 19 33 71 34
REMARK SMILES IDX 20 35 70 36 21 37 22 38 23 39 64 40 24 41 69 42 63 43 65 44
REMARK SMILES IDX 25 45 68 46 62 47 61 48 26 50 52 51 35 52 51 53 36 54 39 55
REMARK SMILES IDX 50 56 66 57 37 58 38 59 49 61 67 62 40 63 27 64 28 65 33 66
REMARK SMILES IDX 29 67 30 68 32 69 34 70 31 71 53 72 54 73 59 74 55 75 56 76
REMARK SMILES IDX 58 77 60 78 57 79 41 80 42 81 47 82 43 83 44 84 46 85 48 86
REMARK SMILES IDX 45 87
REMARK H PARENT 83 17 73 20 65 49 39 60
REMARK Flexibility Score: inf
ROOT
ATOM      1  C   UNL A   1      35.253  33.625  29.480  1.00  0.00     0.274 C 
ENDROOT
BRANCH   1   2
ATOM      2  O   UNL A   1      34.879  32.227  29.369  1.00  0.00    -0.461 OA
BRANCH   2   3
ATOM      3  C   UNL A   1      35.161  31.579  28.182  1.00  0.00     0.316 C 
ATOM      4  O   UNL A   1      36.203  31.744  27.551  1.00  0.00    -0.251 OA
BRANCH   3   5
ATOM      5  C   UNL A   1      33.771  30.778  27.551  1.00  0.00     0.198 C 
BRANCH   5   6
ATOM      6  S   UNL A   1      33.355  28.285  27.017  1.00  0.00    -0.101 SA
BRANCH   6   7
ATOM      7  C   UNL A   1      31.965  27.816  25.890  1.00  0.00     0.089 A 
ATOM      8  C   UNL A   1      30.298  27.842  24.019  1.00  0.00     0.157 A 
ATOM      9  S   UNL A   1      31.630  28.810  24.510  1.00  0.00    -0.116 S 
ATOM     10  C   UNL A   1      30.167  26.750  24.847  1.00  0.00     0.166 A 
ATOM     11  C   UNL A   1      31.125  26.707  25.896  1.00  0.00     0.109 A 
BRANCH   8  12
ATOM     12  C   UNL A   1      29.503  28.208  22.867  1.00  0.00     0.352 C 
ATOM     13  O   UNL A   1      29.913  28.599  21.780  1.00  0.00    -0.245 OA
BRANCH  12  14
ATOM     14  O   UNL A   1      28.185  28.019  23.171  1.00  0.00    -0.465 OA
ATOM     15  C   UNL A   1      27.283  29.084  22.878  1.00  0.00     0.282 C 
ENDBRANCH  12  14
ENDBRANCH   8  12
BRANCH  10  16
ATOM     16  O   UNL A   1      29.204  25.807  24.723  1.00  0.00    -0.504 OA
ATOM     17  H   UNL A   1      28.623  25.636  25.437  1.00  0.00     0.293 HD
ENDBRANCH  10  16
BRANCH  11  18
ATOM     18  N   UNL A   1      31.093  25.654  26.798  1.00  0.00    -0.317 N 
ATOM     19  C   UNL A   1      31.701  24.446  26.650  1.00  0.00     0.255 C 
ATOM     20  H   UNL A   1      30.580  25.796  27.627  1.00  0.00     0.170 HD
ATOM     21  O   UNL A   1      31.468  23.482  27.368  1.00  0.00    -0.269 OA
BRANCH  19  22
ATOM     22  C   UNL A   1      32.632  24.352  25.527  1.00  0.00     0.040 A 
ATOM     23  C   UNL A   1      34.356  24.554  25.962  1.00  0.00     0.014 A 
ATOM     24  C   UNL A   1      32.170  23.540  23.942  1.00  0.00     0.014 A 
ATOM     25  C   UNL A   1      35.624  23.921  24.862  1.00  0.00     0.001 A 
ATOM     26  C   UNL A   1      33.457  22.904  22.860  1.00  0.00     0.001 A 
ATOM     27  C   UNL A   1      35.183  23.101  23.335  1.00  0.00     0.000 A 
ENDBRANCH  19  22
ENDBRANCH  11  18
ENDBRANCH   6   7
ENDBRANCH   5   6
ENDBRANCH   3   5
ENDBRANCH   2   3
ENDBRANCH   1   2
BRANCH   1  28
ATOM     28  C   UNL A   1      34.296  34.426  30.380  1.00  0.00     0.275 C 
BRANCH  28  29
ATOM     29  O   UNL A   1      34.793  34.707  31.706  1.00  0.00    -0.458 OA
BRANCH  29  30
ATOM     30  C   UNL A   1      34.626  33.679  32.554  1.00  0.00     0.338 C 
ATOM     31  O   UNL A   1      33.604  33.444  33.177  1.00  0.00    -0.246 OA
BRANCH  30  32
ATOM     32  C   UNL A   1      35.848  32.985  32.958  1.00  0.00     0.060 A 
ATOM     33  C   UNL A   1      36.999  33.777  33.002  1.00  0.00     0.016 A 
ATOM     34  C   UNL A   1      35.937  31.603  32.811  1.00  0.00     0.016 A 
ATOM     35  C   UNL A   1      38.213  33.234  32.631  1.00  0.00     0.010 A 
ATOM     36  C   UNL A   1      37.179  31.045  32.531  1.00  0.00     0.010 A 
ATOM     37  C   UNL A   1      38.294  31.875  32.321  1.00  0.00    -0.014 A 
BRANCH  37  38
ATOM     38  C   UNL A   1      39.589  31.351  31.849  1.00  0.00     0.031 A 
ATOM     39  C   UNL A   1      40.657  31.171  32.886  1.00  0.00     0.074 A 
ATOM     40  C   UNL A   1      39.759  30.887  30.591  1.00  0.00     0.049 A 
ATOM     41  N   UNL A   1      41.944  31.304  32.765  1.00  0.00    -0.248 NA
ATOM     42  C   UNL A   1      40.214  30.823  34.250  1.00  0.00     0.031 C 
ATOM     43  C   UNL A   1      38.743  30.814  29.535  1.00  0.00     0.029 A 
ATOM     44  N   UNL A   1      40.818  30.204  30.048  1.00  0.00    -0.354 N 
ATOM     45  C   UNL A   1      42.475  30.892  33.986  1.00  0.00     0.074 A 
ATOM     46  C   UNL A   1      41.372  30.713  34.893  1.00  0.00     0.031 C 
ATOM     47  C   UNL A   1      39.113  29.880  28.637  1.00  0.00     0.029 A 
ATOM     48  C   UNL A   1      40.426  29.374  29.005  1.00  0.00     0.049 A 
ATOM     49  H   UNL A   1      41.747  30.291  30.362  1.00  0.00     0.167 HD
ATOM     50  C   UNL A   1      43.767  30.508  34.157  1.00  0.00     0.037 A 
ATOM     51  C   UNL A   1      41.049  28.262  28.543  1.00  0.00     0.037 A 
ATOM     52  C   UNL A   1      44.670  31.077  33.206  1.00  0.00     0.049 A 
ATOM     53  C   UNL A   1      42.441  28.236  29.038  1.00  0.00     0.074 A 
ATOM     54  C   UNL A   1      45.010  32.366  32.844  1.00  0.00     0.029 A 
ATOM     55  N   UNL A   1      45.262  30.270  32.271  1.00  0.00    -0.354 N 
ATOM     56  N   UNL A   1      43.415  28.970  28.582  1.00  0.00    -0.248 NA
ATOM     57  C   UNL A   1      42.694  27.584  30.314  1.00  0.00     0.031 C 
ATOM     58  C   UNL A   1      45.379  32.291  31.474  1.00  0.00     0.029 A 
ATOM     59  C   UNL A   1      45.230  30.961  31.087  1.00  0.00     0.049 A 
ATOM     60  H   UNL A   1      45.635  29.370  32.419  1.00  0.00     0.167 HD
ATOM     61  C   UNL A   1      44.216  29.211  29.686  1.00  0.00     0.074 A 
ATOM     62  C   UNL A   1      43.801  28.230  30.680  1.00  0.00     0.031 C 
ATOM     63  C   UNL A   1      44.940  30.362  29.805  1.00  0.00     0.037 A 
BRANCH  50  64
ATOM     64  C   UNL A   1      44.124  29.371  35.070  1.00  0.00     0.057 A 
ATOM     65  C   UNL A   1      45.036  29.541  36.117  1.00  0.00     0.134 A 
ATOM     66  C   UNL A   1      43.750  28.039  34.794  1.00  0.00     0.134 A 
ATOM     67  F   UNL A   1      45.516  30.756  36.419  1.00  0.00    -0.206 F 
ATOM     68  C   UNL A   1      45.534  28.456  36.848  1.00  0.00     0.040 A 
ATOM     69  C   UNL A   1      44.196  26.955  35.548  1.00  0.00     0.040 A 
ATOM     70  F   UNL A   1      42.999  27.726  33.729  1.00  0.00    -0.206 F 
ATOM     71  C   UNL A   1      45.106  27.161  36.573  1.00  0.00     0.006 A 
ENDBRANCH  50  64
BRANCH  51  72
ATOM     72  C   UNL A   1      40.424  27.090  27.890  1.00  0.00     0.057 A 
ATOM     73  C   UNL A   1      40.819  26.664  26.617  1.00  0.00     0.134 A 
ATOM     74  C   UNL A   1      39.549  26.235  28.585  1.00  0.00     0.134 A 
ATOM     75  F   UNL A   1      41.702  27.376  25.903  1.00  0.00    -0.206 F 
ATOM     76  C   UNL A   1      40.347  25.470  26.055  1.00  0.00     0.040 A 
ATOM     77  C   UNL A   1      39.055  25.052  28.030  1.00  0.00     0.040 A 
ATOM     78  F   UNL A   1      39.200  26.486  29.856  1.00  0.00    -0.206 F 
ATOM     79  C   UNL A   1      39.457  24.665  26.760  1.00  0.00     0.006 A 
ENDBRANCH  51  72
BRANCH  63  80
ATOM     80  C   UNL A   1      45.161  31.220  28.590  1.00  0.00     0.057 A 
ATOM     81  C   UNL A   1      44.241  32.162  28.107  1.00  0.00     0.134 A 
ATOM     82  C   UNL A   1      46.426  31.208  27.982  1.00  0.00     0.134 A 
ATOM     83  F   UNL A   1      43.052  32.348  28.698  1.00  0.00    -0.206 F 
ATOM     84  C   UNL A   1      44.547  33.004  27.032  1.00  0.00     0.040 A 
ATOM     85  C   UNL A   1      46.759  32.083  26.946  1.00  0.00     0.040 A 
ATOM     86  F   UNL A   1      47.382  30.375  28.425  1.00  0.00    -0.206 F 
ATOM     87  C   UNL A   1      45.814  32.977  26.459  1.00  0.00     0.006 A 
ENDBRANCH  63  80
ENDBRANCH  37  38
ENDBRANCH  30  32
ENDBRANCH  29  30
ENDBRANCH  28  29
ENDBRANCH   1  28
TORSDOF 18
ENDMDL
MODEL 2
REMARK VINA RESULT:     -11.2      4.078      8.331
REMARK SMILES COC(=O)c1sc(SCC(=O)OCCOC(=O)c2ccc(-c3c4nc(c(-c5c(F)cccc5F)c5ccc([nH]5)c(-c5c(F)cccc5F)c5nc(c(-c6c(F)cccc6F)c6ccc3[nH]6)C=C5)C=C4)cc2)c(NC(=O)c2ccccc2)c1O
REMARK SMILES IDX 13 1 12 2 10 3 11 4 9 5 8 6 7 7 5 8 6 9 82 10 72 11 3 12
REMARK SMILES IDX 4 13 2 14 1 15 83 16 73 18 74 19 75 21 76 22 77 23 81 24
REMARK SMILES IDX 78 25 80 26 79 27 14 28 15 29 16 30 17 31 18 32 19 33 71 34
REMARK SMILES IDX 20 35 70 36 21 37 22 38 23 39 64 40 24 41 69 42 63 43 65 44
REMARK SMILES IDX 25 45 68 46 62 47 61 48 26 50 52 51 35 52 51 53 36 54 39 55
REMARK SMILES IDX 50 56 66 57 37 58 38 59 49 61 67 62 40 63 27 64 28 65 33 66
REMARK SMILES IDX 29 67 30 68 32 69 34 70 31 71 53 72 54 73 59 74 55 75 56 76
REMARK SMILES IDX 58 77 60 78 57 79 41 80 42 81 47 82 43 83 44 84 46 85 48 86
REMARK SMILES IDX 45 87
REMARK H PARENT 83 17 73 20 65 49 39 60
REMARK Flexibility Score: inf
ROOT
ATOM      1  C   UNL A   1      41.130  22.714  27.185  1.00  0.00     0.274 C 
ENDROOT
BRANCH   1   2
ATOM      2  O   UNL A   1      39.786  23.259  27.245  1.00  0.00    -0.461 OA
BRANCH   2   3
ATOM      3  C   UNL A   1      38.840  22.732  26.389  1.00  0.00     0.316 C 
ATOM      4  O   UNL A   1      39.045  21.755  25.672  1.00  0.00    -0.251 OA
BRANCH   3   5
ATOM      5  C   UNL A   1      37.483  23.780  26.219  1.00  0.00     0.198 C 
BRANCH   5   6
ATOM      6  S   UNL A   1      35.845  24.118  24.249  1.00  0.00    -0.101 SA
BRANCH   6   7
ATOM      7  C   UNL A   1      34.575  22.822  23.890  1.00  0.00     0.089 A 
ATOM      8  C   UNL A   1      33.221  20.717  23.989  1.00  0.00     0.157 A 
ATOM      9  S   UNL A   1      34.513  21.407  24.887  1.00  0.00    -0.116 S 
ATOM     10  C   UNL A   1      32.804  21.584  23.005  1.00  0.00     0.166 A 
ATOM     11  C   UNL A   1      33.543  22.796  22.956  1.00  0.00     0.109 A 
BRANCH   8  12
ATOM     12  C   UNL A   1      32.707  19.406  24.321  1.00  0.00     0.352 C 
ATOM     13  O   UNL A   1      31.973  19.114  25.258  1.00  0.00    -0.245 OA
BRANCH  12  14
ATOM     14  O   UNL A   1      33.154  18.514  23.387  1.00  0.00    -0.465 OA
ATOM     15  C   UNL A   1      32.178  17.884  22.560  1.00  0.00     0.282 C 
ENDBRANCH  12  14
ENDBRANCH   8  12
BRANCH  10  16
ATOM     16  O   UNL A   1      31.809  21.321  22.126  1.00  0.00    -0.504 OA
ATOM     17  H   UNL A   1      31.731  20.467  21.748  1.00  0.00     0.293 HD
ENDBRANCH  10  16
BRANCH  11  18
ATOM     18  N   UNL A   1      33.218  23.749  22.003  1.00  0.00    -0.317 N 
ATOM     19  C   UNL A   1      32.528  24.902  22.218  1.00  0.00     0.255 C 
ATOM     20  H   UNL A   1      33.516  23.573  21.080  1.00  0.00     0.170 HD
ATOM     21  O   UNL A   1      32.084  25.599  21.315  1.00  0.00    -0.269 OA
BRANCH  19  22
ATOM     22  C   UNL A   1      32.303  25.239  23.622  1.00  0.00     0.040 A 
ATOM     23  C   UNL A   1      33.291  26.598  24.237  1.00  0.00     0.014 A 
ATOM     24  C   UNL A   1      30.775  24.734  24.514  1.00  0.00     0.014 A 
ATOM     25  C   UNL A   1      32.757  27.487  25.700  1.00  0.00     0.001 A 
ATOM     26  C   UNL A   1      30.253  25.646  25.972  1.00  0.00     0.001 A 
ATOM     27  C   UNL A   1      31.255  27.024  26.554  1.00  0.00     0.000 A 
ENDBRANCH  19  22
ENDBRANCH  11  18
ENDBRANCH   6   7
ENDBRANCH   5   6
ENDBRANCH   3   5
ENDBRANCH   2   3
ENDBRANCH   1   2
BRANCH   1  28
ATOM     28  C   UNL A   1      42.099  23.608  26.393  1.00  0.00     0.275 C 
BRANCH  28  29
ATOM     29  O   UNL A   1      41.509  24.794  25.818  1.00  0.00    -0.458 OA
BRANCH  29  30
ATOM     30  C   UNL A   1      41.955  25.927  26.386  1.00  0.00     0.338 C 
ATOM     31  O   UNL A   1      43.121  26.286  26.411  1.00  0.00    -0.246 OA
BRANCH  30  32
ATOM     32  C   UNL A   1      41.010  26.608  27.270  1.00  0.00     0.060 A 
ATOM     33  C   UNL A   1      40.501  27.815  26.782  1.00  0.00     0.016 A 
ATOM     34  C   UNL A   1      41.024  26.338  28.635  1.00  0.00     0.016 A 
ATOM     35  C   UNL A   1      40.258  28.854  27.659  1.00  0.00     0.010 A 
ATOM     36  C   UNL A   1      40.687  27.359  29.517  1.00  0.00     0.010 A 
ATOM     37  C   UNL A   1      40.422  28.650  29.031  1.00  0.00    -0.014 A 
BRANCH  37  38
ATOM     38  C   UNL A   1      40.236  29.807  29.927  1.00  0.00     0.031 A 
ATOM     39  C   UNL A   1      41.446  30.651  30.191  1.00  0.00     0.074 A 
ATOM     40  C   UNL A   1      39.012  30.197  30.347  1.00  0.00     0.049 A 
ATOM     41  N   UNL A   1      41.771  31.299  31.270  1.00  0.00    -0.248 NA
ATOM     42  C   UNL A   1      42.438  30.759  29.105  1.00  0.00     0.031 C 
ATOM     43  C   UNL A   1      37.725  29.585  29.999  1.00  0.00     0.029 A 
ATOM     44  N   UNL A   1      38.641  31.338  31.015  1.00  0.00    -0.354 N 
ATOM     45  C   UNL A   1      42.913  32.024  30.937  1.00  0.00     0.074 A 
ATOM     46  C   UNL A   1      43.342  31.575  29.639  1.00  0.00     0.031 C 
ATOM     47  C   UNL A   1      36.747  30.496  30.175  1.00  0.00     0.029 A 
ATOM     48  C   UNL A   1      37.330  31.704  30.738  1.00  0.00     0.049 A 
ATOM     49  H   UNL A   1      39.236  31.838  31.619  1.00  0.00     0.167 HD
ATOM     50  C   UNL A   1      43.348  33.109  31.631  1.00  0.00     0.037 A 
ATOM     51  C   UNL A   1      36.771  32.935  30.825  1.00  0.00     0.037 A 
ATOM     52  C   UNL A   1      42.936  33.123  32.999  1.00  0.00     0.049 A 
ATOM     53  C   UNL A   1      37.636  33.813  31.641  1.00  0.00     0.074 A 
ATOM     54  C   UNL A   1      43.100  32.265  34.069  1.00  0.00     0.029 A 
ATOM     55  N   UNL A   1      42.031  34.061  33.421  1.00  0.00    -0.354 N 
ATOM     56  N   UNL A   1      37.743  33.770  32.937  1.00  0.00    -0.248 NA
ATOM     57  C   UNL A   1      38.672  34.570  30.953  1.00  0.00     0.031 C 
ATOM     58  C   UNL A   1      41.952  32.454  34.887  1.00  0.00     0.029 A 
ATOM     59  C   UNL A   1      41.158  33.409  34.255  1.00  0.00     0.049 A 
ATOM     60  H   UNL A   1      42.010  35.014  33.174  1.00  0.00     0.167 HD
ATOM     61  C   UNL A   1      39.058  34.122  33.191  1.00  0.00     0.074 A 
ATOM     62  C   UNL A   1      39.535  34.730  31.956  1.00  0.00     0.031 C 
ATOM     63  C   UNL A   1      39.732  33.634  34.273  1.00  0.00     0.037 A 
BRANCH  50  64
ATOM     64  C   UNL A   1      43.942  34.293  30.925  1.00  0.00     0.057 A 
ATOM     65  C   UNL A   1      43.186  35.058  30.031  1.00  0.00     0.134 A 
ATOM     66  C   UNL A   1      45.327  34.562  30.940  1.00  0.00     0.134 A 
ATOM     67  F   UNL A   1      41.872  34.838  29.880  1.00  0.00    -0.206 F 
ATOM     68  C   UNL A   1      43.769  36.034  29.215  1.00  0.00     0.040 A 
ATOM     69  C   UNL A   1      45.912  35.567  30.173  1.00  0.00     0.040 A 
ATOM     70  F   UNL A   1      46.181  33.805  31.642  1.00  0.00    -0.206 F 
ATOM     71  C   UNL A   1      45.133  36.300  29.293  1.00  0.00     0.006 A 
ENDBRANCH  50  64
BRANCH  51  72
ATOM     72  C   UNL A   1      35.638  33.464  30.033  1.00  0.00     0.057 A 
ATOM     73  C   UNL A   1      34.500  33.998  30.648  1.00  0.00     0.134 A 
ATOM     74  C   UNL A   1      35.727  33.637  28.639  1.00  0.00     0.134 A 
ATOM     75  F   UNL A   1      34.355  33.942  31.979  1.00  0.00    -0.206 F 
ATOM     76  C   UNL A   1      33.493  34.639  29.914  1.00  0.00     0.040 A 
ATOM     77  C   UNL A   1      34.722  34.257  27.893  1.00  0.00     0.040 A 
ATOM     78  F   UNL A   1      36.827  33.270  27.965  1.00  0.00    -0.206 F 
ATOM     79  C   UNL A   1      33.600  34.764  28.532  1.00  0.00     0.006 A 
ENDBRANCH  51  72
BRANCH  63  80
ATOM     80  C   UNL A   1      38.959  32.996  35.394  1.00  0.00     0.057 A 
ATOM     81  C   UNL A   1      38.619  31.637  35.449  1.00  0.00     0.134 A 
ATOM     82  C   UNL A   1      38.691  33.757  36.542  1.00  0.00     0.134 A 
ATOM     83  F   UNL A   1      38.947  30.791  34.461  1.00  0.00    -0.206 F 
ATOM     84  C   UNL A   1      37.989  31.081  36.567  1.00  0.00     0.040 A 
ATOM     85  C   UNL A   1      38.113  33.199  37.684  1.00  0.00     0.040 A 
ATOM     86  F   UNL A   1      39.038  35.054  36.591  1.00  0.00    -0.206 F 
ATOM     87  C   UNL A   1      37.748  31.858  37.695  1.00  0.00     0.006 A 
ENDBRANCH  63  80
ENDBRANCH  37  38
ENDBRANCH  30  32
ENDBRANCH  29  30
ENDBRANCH  28  29
ENDBRANCH   1  28
TORSDOF 18
ENDMDL
MODEL 3
REMARK VINA RESULT:     -11.1      1.870      2.310
REMARK SMILES COC(=O)c1sc(SCC(=O)OCCOC(=O)c2ccc(-c3c4nc(c(-c5c(F)cccc5F)c5ccc([nH]5)c(-c5c(F)cccc5F)c5nc(c(-c6c(F)cccc6F)c6ccc3[nH]6)C=C5)C=C4)cc2)c(NC(=O)c2ccccc2)c1O
REMARK SMILES IDX 13 1 12 2 10 3 11 4 9 5 8 6 7 7 5 8 6 9 82 10 72 11 3 12
REMARK SMILES IDX 4 13 2 14 1 15 83 16 73 18 74 19 75 21 76 22 77 23 81 24
REMARK SMILES IDX 78 25 80 26 79 27 14 28 15 29 16 30 17 31 18 32 19 33 71 34
REMARK SMILES IDX 20 35 70 36 21 37 22 38 23 39 64 40 24 41 69 42 63 43 65 44
REMARK SMILES IDX 25 45 68 46 62 47 61 48 26 50 52 51 35 52 51 53 36 54 39 55
REMARK SMILES IDX 50 56 66 57 37 58 38 59 49 61 67 62 40 63 27 64 28 65 33 66
REMARK SMILES IDX 29 67 30 68 32 69 34 70 31 71 53 72 54 73 59 74 55 75 56 76
REMARK SMILES IDX 58 77 60 78 57 79 41 80 42 81 47 82 43 83 44 84 46 85 48 86
REMARK SMILES IDX 45 87
REMARK H PARENT 83 17 73 20 65 49 39 60
REMARK Flexibility Score: inf
ROOT
ATOM      1  C   UNL A   1      34.078  34.389  28.856  1.00  0.00     0.274 C 
ENDROOT
BRANCH   1   2
ATOM      2  O   UNL A   1      34.135  32.944  28.977  1.00  0.00    -0.461 OA
BRANCH   2   3
ATOM      3  C   UNL A   1      33.716  32.191  27.898  1.00  0.00     0.316 C 
ATOM      4  O   UNL A   1      32.643  32.369  27.324  1.00  0.00    -0.251 OA
BRANCH   3   5
ATOM      5  C   UNL A   1      34.710  30.802  27.668  1.00  0.00     0.198 C 
BRANCH   5   6
ATOM      6  S   UNL A   1      34.142  28.449  26.766  1.00  0.00    -0.101 SA
BRANCH   6   7
ATOM      7  C   UNL A   1      32.635  28.216  25.718  1.00  0.00     0.089 A 
ATOM      8  C   UNL A   1      30.899  28.514  23.937  1.00  0.00     0.157 A 
ATOM      9  S   UNL A   1      32.398  29.246  24.345  1.00  0.00    -0.116 S 
ATOM     10  C   UNL A   1      30.632  27.462  24.784  1.00  0.00     0.166 A 
ATOM     11  C   UNL A   1      31.623  27.262  25.782  1.00  0.00     0.109 A 
BRANCH   8  12
ATOM     12  C   UNL A   1      30.116  29.003  22.822  1.00  0.00     0.352 C 
ATOM     13  O   UNL A   1      30.522  29.636  21.854  1.00  0.00    -0.245 OA
BRANCH  12  14
ATOM     14  O   UNL A   1      28.818  28.617  23.001  1.00  0.00    -0.465 OA
ATOM     15  C   UNL A   1      27.799  29.519  22.576  1.00  0.00     0.282 C 
ENDBRANCH  12  14
ENDBRANCH   8  12
BRANCH  10  16
ATOM     16  O   UNL A   1      29.519  26.694  24.722  1.00  0.00    -0.504 OA
ATOM     17  H   UNL A   1      29.591  25.783  24.514  1.00  0.00     0.293 HD
ENDBRANCH  10  16
BRANCH  11  18
ATOM     18  N   UNL A   1      31.464  26.234  26.698  1.00  0.00    -0.317 N 
ATOM     19  C   UNL A   1      31.880  24.947  26.546  1.00  0.00     0.255 C 
ATOM     20  H   UNL A   1      31.004  26.458  27.541  1.00  0.00     0.170 HD
ATOM     21  O   UNL A   1      31.529  24.035  27.283  1.00  0.00    -0.269 OA
BRANCH  19  22
ATOM     22  C   UNL A   1      32.750  24.706  25.397  1.00  0.00     0.040 A 
ATOM     23  C   UNL A   1      34.500  24.691  25.770  1.00  0.00     0.014 A 
ATOM     24  C   UNL A   1      32.131  23.925  23.850  1.00  0.00     0.014 A 
ATOM     25  C   UNL A   1      35.635  23.873  24.647  1.00  0.00     0.001 A 
ATOM     26  C   UNL A   1      33.285  23.102  22.745  1.00  0.00     0.001 A 
ATOM     27  C   UNL A   1      35.037  23.082  23.159  1.00  0.00     0.000 A 
ENDBRANCH  19  22
ENDBRANCH  11  18
ENDBRANCH   6   7
ENDBRANCH   5   6
ENDBRANCH   3   5
ENDBRANCH   2   3
ENDBRANCH   1   2
BRANCH   1  28
ATOM     28  C   UNL A   1      32.853  34.996  29.561  1.00  0.00     0.275 C 
BRANCH  28  29
ATOM     29  O   UNL A   1      33.145  35.760  30.750  1.00  0.00    -0.458 OA
BRANCH  29  30
ATOM     30  C   UNL A   1      32.973  35.054  31.880  1.00  0.00     0.338 C 
ATOM     31  O   UNL A   1      31.957  35.053  32.556  1.00  0.00    -0.246 OA
BRANCH  30  32
ATOM     32  C   UNL A   1      34.187  34.488  32.466  1.00  0.00     0.060 A 
ATOM     33  C   UNL A   1      35.233  35.393  32.663  1.00  0.00     0.016 A 
ATOM     34  C   UNL A   1      34.434  33.122  32.355  1.00  0.00     0.016 A 
ATOM     35  C   UNL A   1      36.537  34.976  32.480  1.00  0.00     0.010 A 
ATOM     36  C   UNL A   1      35.754  32.692  32.266  1.00  0.00     0.010 A 
ATOM     37  C   UNL A   1      36.798  33.631  32.207  1.00  0.00    -0.014 A 
BRANCH  37  38
ATOM     38  C   UNL A   1      38.194  33.241  31.935  1.00  0.00     0.031 A 
ATOM     39  C   UNL A   1      39.166  33.401  33.065  1.00  0.00     0.074 A 
ATOM     40  C   UNL A   1      38.552  32.607  30.796  1.00  0.00     0.049 A 
ATOM     41  N   UNL A   1      40.429  33.708  33.020  1.00  0.00    -0.248 NA
ATOM     42  C   UNL A   1      38.640  33.220  34.431  1.00  0.00     0.031 C 
ATOM     43  C   UNL A   1      37.667  32.205  29.697  1.00  0.00     0.029 A 
ATOM     44  N   UNL A   1      39.744  32.013  30.466  1.00  0.00    -0.354 N 
ATOM     45  C   UNL A   1      40.885  33.590  34.331  1.00  0.00     0.074 A 
ATOM     46  C   UNL A   1      39.732  33.397  35.170  1.00  0.00     0.031 C 
ATOM     47  C   UNL A   1      38.251  31.203  29.010  1.00  0.00     0.029 A 
ATOM     48  C   UNL A   1      39.578  30.972  29.561  1.00  0.00     0.049 A 
ATOM     49  H   UNL A   1      40.616  32.293  30.828  1.00  0.00     0.167 HD
ATOM     50  C   UNL A   1      42.194  33.442  34.664  1.00  0.00     0.037 A 
ATOM     51  C   UNL A   1      40.391  29.908  29.353  1.00  0.00     0.037 A 
ATOM     52  C   UNL A   1      43.101  33.977  33.698  1.00  0.00     0.049 A 
ATOM     53  C   UNL A   1      41.717  30.178  29.948  1.00  0.00     0.074 A 
ATOM     54  C   UNL A   1      43.294  35.226  33.139  1.00  0.00     0.029 A 
ATOM     55  N   UNL A   1      43.890  33.127  32.969  1.00  0.00    -0.354 N 
ATOM     56  N   UNL A   1      42.621  30.966  29.444  1.00  0.00    -0.248 NA
ATOM     57  C   UNL A   1      41.927  29.793  31.336  1.00  0.00     0.031 C 
ATOM     58  C   UNL A   1      43.807  34.982  31.835  1.00  0.00     0.029 A 
ATOM     59  C   UNL A   1      43.882  33.600  31.682  1.00  0.00     0.049 A 
ATOM     60  H   UNL A   1      44.367  32.333  33.303  1.00  0.00     0.167 HD
ATOM     61  C   UNL A   1      43.266  31.507  30.544  1.00  0.00     0.074 A 
ATOM     62  C   UNL A   1      42.892  30.653  31.662  1.00  0.00     0.031 C 
ATOM     63  C   UNL A   1      43.809  32.759  30.510  1.00  0.00     0.037 A 
BRANCH  50  64
ATOM     64  C   UNL A   1      42.610  32.541  35.790  1.00  0.00     0.057 A 
ATOM     65  C   UNL A   1      43.376  33.020  36.858  1.00  0.00     0.134 A 
ATOM     66  C   UNL A   1      42.458  31.139  35.728  1.00  0.00     0.134 A 
ATOM     67  F   UNL A   1      43.646  34.328  36.976  1.00  0.00    -0.206 F 
ATOM     68  C   UNL A   1      43.942  32.161  37.807  1.00  0.00     0.040 A 
ATOM     69  C   UNL A   1      42.971  30.277  36.695  1.00  0.00     0.040 A 
ATOM     70  F   UNL A   1      41.873  30.543  34.679  1.00  0.00    -0.206 F 
ATOM     71  C   UNL A   1      43.731  30.788  37.734  1.00  0.00     0.006 A 
ENDBRANCH  50  64
BRANCH  51  72
ATOM     72  C   UNL A   1      40.003  28.563  28.875  1.00  0.00     0.057 A 
ATOM     73  C   UNL A   1      40.379  28.099  27.610  1.00  0.00     0.134 A 
ATOM     74  C   UNL A   1      39.412  27.615  29.731  1.00  0.00     0.134 A 
ATOM     75  F   UNL A   1      41.010  28.907  26.747  1.00  0.00    -0.206 F 
ATOM     76  C   UNL A   1      40.151  26.776  27.207  1.00  0.00     0.040 A 
ATOM     77  C   UNL A   1      39.160  26.299  29.336  1.00  0.00     0.040 A 
ATOM     78  F   UNL A   1      39.121  27.920  31.004  1.00  0.00    -0.206 F 
ATOM     79  C   UNL A   1      39.534  25.874  28.069  1.00  0.00     0.006 A 
ENDBRANCH  51  72
BRANCH  63  80
ATOM     80  C   UNL A   1      44.031  33.428  29.181  1.00  0.00     0.057 A 
ATOM     81  C   UNL A   1      43.095  34.256  28.544  1.00  0.00     0.134 A 
ATOM     82  C   UNL A   1      45.307  33.362  28.603  1.00  0.00     0.134 A 
ATOM     83  F   UNL A   1      41.889  34.494  29.080  1.00  0.00    -0.206 F 
ATOM     84  C   UNL A   1      43.399  34.933  27.358  1.00  0.00     0.040 A 
ATOM     85  C   UNL A   1      45.637  34.078  27.450  1.00  0.00     0.040 A 
ATOM     86  F   UNL A   1      46.277  32.636  29.183  1.00  0.00    -0.206 F 
ATOM     87  C   UNL A   1      44.677  34.858  26.816  1.00  0.00     0.006 A 
ENDBRANCH  63  80
ENDBRANCH  37  38
ENDBRANCH  30  32
ENDBRANCH  29  30
ENDBRANCH  28  29
ENDBRANCH   1  28
TORSDOF 18
ENDMDL
