MODEL 1
REMARK VINA RESULT:     -11.3      0.000      0.000
REMARK SMILES O=C(OCCOC(=O)[C@@H]1C=C[C@@H]([NH+]2CC3(CCOCC3)C2)C1)c1ccc(-c2c3nc(c(-c4c(F)cccc4F)c4ccc([nH]4)c(-c4c(F)cccc4F)c4nc(c(-c5c(F)cccc5F)c5ccc2[nH]5)C=C4)C=C3)cc1
REMARK SMILES IDX 4 1 3 2 2 3 1 4 23 5 24 6 76 7 25 8 75 9 26 10 27 11 28 12
REMARK SMILES IDX 69 13 29 14 74 15 68 16 70 17 30 18 73 19 67 20 66 21 31 23
REMARK SMILES IDX 57 24 40 25 56 26 41 27 44 28 55 29 71 30 42 31 43 32 54 34
REMARK SMILES IDX 72 35 45 36 32 37 33 38 38 39 34 40 35 41 37 42 39 43 36 44
REMARK SMILES IDX 58 45 59 46 64 47 60 48 61 49 63 50 65 51 62 52 46 53 47 54
REMARK SMILES IDX 52 55 48 56 49 57 51 58 53 59 50 60 5 61 6 62 7 63 8 64 9 65
REMARK SMILES IDX 10 66 22 67 11 68 12 69 13 70 14 71 21 72 15 74 16 75 20 76
REMARK SMILES IDX 17 77 19 78 18 79
REMARK H PARENT 70 22 44 33 13 73
REMARK Flexibility Score: inf
ROOT
ATOM      1  C   UNL A   1      33.159  36.065  28.923  1.00  0.00     0.275 C 
ENDROOT
BRANCH   1   2
ATOM      2  O   UNL A   1      33.255  36.625  30.239  1.00  0.00    -0.458 OA
BRANCH   2   3
ATOM      3  C   UNL A   1      32.901  36.084  31.425  1.00  0.00     0.338 C 
ATOM      4  O   UNL A   1      31.826  36.432  31.914  1.00  0.00    -0.246 OA
BRANCH   3   5
ATOM      5  C   UNL A   1      33.774  35.172  32.246  1.00  0.00     0.060 A 
ATOM      6  C   UNL A   1      33.389  34.092  33.052  1.00  0.00     0.016 A 
ATOM      7  C   UNL A   1      35.146  35.425  32.144  1.00  0.00     0.016 A 
ATOM      8  C   UNL A   1      34.334  33.207  33.613  1.00  0.00     0.010 A 
ATOM      9  C   UNL A   1      36.078  34.556  32.710  1.00  0.00     0.010 A 
ATOM     10  C   UNL A   1      35.696  33.396  33.400  1.00  0.00    -0.014 A 
BRANCH  10  11
ATOM     11  C   UNL A   1      36.760  32.434  33.828  1.00  0.00     0.031 A 
ATOM     12  C   UNL A   1      37.630  32.800  35.003  1.00  0.00     0.074 A 
ATOM     13  C   UNL A   1      37.118  31.398  33.033  1.00  0.00     0.049 A 
ATOM     14  N   UNL A   1      38.831  32.385  35.313  1.00  0.00    -0.248 NA
ATOM     15  C   UNL A   1      37.096  33.833  35.904  1.00  0.00     0.031 C 
ATOM     16  C   UNL A   1      36.424  30.967  31.816  1.00  0.00     0.029 A 
ATOM     17  N   UNL A   1      38.251  30.608  33.054  1.00  0.00    -0.354 N 
ATOM     18  C   UNL A   1      39.212  33.136  36.421  1.00  0.00     0.074 A 
ATOM     19  C   UNL A   1      38.140  34.073  36.683  1.00  0.00     0.031 C 
ATOM     20  C   UNL A   1      37.196  30.090  31.150  1.00  0.00     0.029 A 
ATOM     21  C   UNL A   1      38.442  29.903  31.881  1.00  0.00     0.049 A 
ATOM     22  H   UNL A   1      38.860  30.554  33.826  1.00  0.00     0.167 HD
ATOM     23  C   UNL A   1      40.336  33.037  37.172  1.00  0.00     0.037 A 
ATOM     24  C   UNL A   1      39.525  29.252  31.409  1.00  0.00     0.037 A 
ATOM     25  C   UNL A   1      41.364  32.055  36.952  1.00  0.00     0.049 A 
ATOM     26  C   UNL A   1      40.761  29.147  32.256  1.00  0.00     0.074 A 
ATOM     27  C   UNL A   1      42.439  31.733  37.761  1.00  0.00     0.029 A 
ATOM     28  N   UNL A   1      41.446  31.245  35.833  1.00  0.00    -0.354 N 
ATOM     29  N   UNL A   1      41.048  29.755  33.380  1.00  0.00    -0.248 NA
ATOM     30  C   UNL A   1      41.809  28.229  31.783  1.00  0.00     0.031 C 
ATOM     31  C   UNL A   1      43.193  30.747  37.115  1.00  0.00     0.029 A 
ATOM     32  C   UNL A   1      42.561  30.431  35.924  1.00  0.00     0.049 A 
ATOM     33  H   UNL A   1      40.806  31.247  35.084  1.00  0.00     0.167 HD
ATOM     34  C   UNL A   1      42.264  29.224  33.790  1.00  0.00     0.074 A 
ATOM     35  C   UNL A   1      42.688  28.290  32.771  1.00  0.00     0.031 C 
ATOM     36  C   UNL A   1      42.949  29.466  34.932  1.00  0.00     0.037 A 
BRANCH  23  37
ATOM     37  C   UNL A   1      40.498  33.985  38.325  1.00  0.00     0.057 A 
ATOM     38  C   UNL A   1      41.203  35.190  38.199  1.00  0.00     0.134 A 
ATOM     39  C   UNL A   1      39.907  33.713  39.565  1.00  0.00     0.134 A 
ATOM     40  F   UNL A   1      41.792  35.516  37.038  1.00  0.00    -0.206 F 
ATOM     41  C   UNL A   1      41.351  36.068  39.274  1.00  0.00     0.040 A 
ATOM     42  C   UNL A   1      40.021  34.597  40.638  1.00  0.00     0.040 A 
ATOM     43  F   UNL A   1      39.196  32.589  39.751  1.00  0.00    -0.206 F 
ATOM     44  C   UNL A   1      40.755  35.774  40.498  1.00  0.00     0.006 A 
ENDBRANCH  23  37
BRANCH  24  45
ATOM     45  C   UNL A   1      39.551  28.664  30.045  1.00  0.00     0.057 A 
ATOM     46  C   UNL A   1      39.141  27.347  29.813  1.00  0.00     0.134 A 
ATOM     47  C   UNL A   1      40.132  29.356  28.977  1.00  0.00     0.134 A 
ATOM     48  F   UNL A   1      38.632  26.615  30.815  1.00  0.00    -0.206 F 
ATOM     49  C   UNL A   1      39.335  26.729  28.575  1.00  0.00     0.040 A 
ATOM     50  C   UNL A   1      40.306  28.761  27.726  1.00  0.00     0.040 A 
ATOM     51  F   UNL A   1      40.597  30.599  29.153  1.00  0.00    -0.206 F 
ATOM     52  C   UNL A   1      39.920  27.438  27.527  1.00  0.00     0.006 A 
ENDBRANCH  24  45
BRANCH  36  53
ATOM     53  C   UNL A   1      44.143  28.609  35.216  1.00  0.00     0.057 A 
ATOM     54  C   UNL A   1      44.052  27.380  35.875  1.00  0.00     0.134 A 
ATOM     55  C   UNL A   1      45.410  29.019  34.776  1.00  0.00     0.134 A 
ATOM     56  F   UNL A   1      42.871  26.943  36.340  1.00  0.00    -0.206 F 
ATOM     57  C   UNL A   1      45.182  26.590  36.099  1.00  0.00     0.040 A 
ATOM     58  C   UNL A   1      46.542  28.229  34.972  1.00  0.00     0.040 A 
ATOM     59  F   UNL A   1      45.562  30.190  34.139  1.00  0.00    -0.206 F 
ATOM     60  C   UNL A   1      46.429  27.011  35.639  1.00  0.00     0.006 A 
ENDBRANCH  36  53
ENDBRANCH  10  11
ENDBRANCH   3   5
ENDBRANCH   2   3
ENDBRANCH   1   2
BRANCH   1  61
ATOM     61  C   UNL A   1      34.384  35.251  28.491  1.00  0.00     0.274 C 
BRANCH  61  62
ATOM     62  O   UNL A   1      34.029  33.948  27.986  1.00  0.00    -0.462 OA
BRANCH  62  63
ATOM     63  C   UNL A   1      34.958  32.963  28.146  1.00  0.00     0.313 C 
ATOM     64  O   UNL A   1      36.157  33.177  28.277  1.00  0.00    -0.252 OA
BRANCH  63  65
ATOM     65  C   UNL A   1      34.327  31.571  28.296  1.00  0.00     0.128 C 
ATOM     66  C   UNL A   1      35.380  30.505  28.211  1.00  0.00    -0.010 C 
ATOM     67  C   UNL A   1      33.298  31.114  27.247  1.00  0.00     0.089 C 
ATOM     68  C   UNL A   1      35.150  29.623  27.232  1.00  0.00     0.033 C 
ATOM     69  C   UNL A   1      33.909  29.930  26.458  1.00  0.00     0.208 C 
BRANCH  69  70
ATOM     70  N   UNL A   1      33.119  28.736  26.144  1.00  0.00    -0.328 N 
ATOM     71  C   UNL A   1      32.993  28.491  24.707  1.00  0.00     0.275 C 
ATOM     72  C   UNL A   1      31.670  28.826  26.318  1.00  0.00     0.275 C 
ATOM     73  H   UNL A   1      33.618  28.080  26.746  1.00  0.00     0.348 HD
ATOM     74  C   UNL A   1      31.460  28.352  24.847  1.00  0.00     0.073 C 
ATOM     75  C   UNL A   1      30.960  26.914  24.622  1.00  0.00     0.047 C 
ATOM     76  C   UNL A   1      30.597  29.336  24.047  1.00  0.00     0.047 C 
ATOM     77  C   UNL A   1      30.879  26.635  23.119  1.00  0.00     0.161 C 
ATOM     78  C   UNL A   1      30.500  28.887  22.594  1.00  0.00     0.161 C 
ATOM     79  O   UNL A   1      29.975  27.567  22.514  1.00  0.00    -0.381 OA
ENDBRANCH  69  70
ENDBRANCH  63  65
ENDBRANCH  62  63
ENDBRANCH  61  62
ENDBRANCH   1  61
TORSDOF 12
ENDMDL
MODEL 2
REMARK VINA RESULT:     -11.3      6.015      8.532
REMARK SMILES O=C(OCCOC(=O)[C@@H]1C=C[C@@H]([NH+]2CC3(CCOCC3)C2)C1)c1ccc(-c2c3nc(c(-c4c(F)cccc4F)c4ccc([nH]4)c(-c4c(F)cccc4F)c4nc(c(-c5c(F)cccc5F)c5ccc2[nH]5)C=C4)C=C3)cc1
REMARK SMILES IDX 4 1 3 2 2 3 1 4 23 5 24 6 76 7 25 8 75 9 26 10 27 11 28 12
REMARK SMILES IDX 69 13 29 14 74 15 68 16 70 17 30 18 73 19 67 20 66 21 31 23
REMARK SMILES IDX 57 24 40 25 56 26 41 27 44 28 55 29 71 30 42 31 43 32 54 34
REMARK SMILES IDX 72 35 45 36 32 37 33 38 38 39 34 40 35 41 37 42 39 43 36 44
REMARK SMILES IDX 58 45 59 46 64 47 60 48 61 49 63 50 65 51 62 52 46 53 47 54
REMARK SMILES IDX 52 55 48 56 49 57 51 58 53 59 50 60 5 61 6 62 7 63 8 64 9 65
REMARK SMILES IDX 10 66 22 67 11 68 12 69 13 70 14 71 21 72 15 74 16 75 20 76
REMARK SMILES IDX 17 77 19 78 18 79
REMARK H PARENT 70 22 44 33 13 73
REMARK Flexibility Score: inf
ROOT
ATOM      1  C   UNL A   1      34.127  31.037  27.497  1.00  0.00     0.275 C 
ENDROOT
BRANCH   1   2
ATOM      2  O   UNL A   1      35.296  31.530  28.166  1.00  0.00    -0.458 OA
BRANCH   2   3
ATOM      3  C   UNL A   1      36.022  30.957  29.151  1.00  0.00     0.338 C 
ATOM      4  O   UNL A   1      35.670  31.161  30.313  1.00  0.00    -0.246 OA
BRANCH   3   5
ATOM      5  C   UNL A   1      37.293  30.180  28.936  1.00  0.00     0.060 A 
ATOM      6  C   UNL A   1      37.928  29.868  27.726  1.00  0.00     0.016 A 
ATOM      7  C   UNL A   1      37.930  29.760  30.109  1.00  0.00     0.016 A 
ATOM      8  C   UNL A   1      39.217  29.296  27.687  1.00  0.00     0.010 A 
ATOM      9  C   UNL A   1      39.199  29.184  30.066  1.00  0.00     0.010 A 
ATOM     10  C   UNL A   1      39.897  28.998  28.865  1.00  0.00    -0.014 A 
BRANCH  10  11
ATOM     11  C   UNL A   1      41.317  28.529  28.925  1.00  0.00     0.031 A 
ATOM     12  C   UNL A   1      42.417  29.552  28.807  1.00  0.00     0.074 A 
ATOM     13  C   UNL A   1      41.618  27.213  28.815  1.00  0.00     0.049 A 
ATOM     14  N   UNL A   1      43.659  29.402  28.421  1.00  0.00    -0.248 NA
ATOM     15  C   UNL A   1      42.037  30.945  29.091  1.00  0.00     0.031 C 
ATOM     16  C   UNL A   1      40.657  26.107  28.830  1.00  0.00     0.029 A 
ATOM     17  N   UNL A   1      42.817  26.595  28.516  1.00  0.00    -0.354 N 
ATOM     18  C   UNL A   1      44.194  30.686  28.377  1.00  0.00     0.074 A 
ATOM     19  C   UNL A   1      43.123  31.601  28.712  1.00  0.00     0.031 C 
ATOM     20  C   UNL A   1      41.273  24.977  28.438  1.00  0.00     0.029 A 
ATOM     21  C   UNL A   1      42.665  25.277  28.131  1.00  0.00     0.049 A 
ATOM     22  H   UNL A   1      43.689  27.048  28.572  1.00  0.00     0.167 HD
ATOM     23  C   UNL A   1      45.467  31.069  28.112  1.00  0.00     0.037 A 
ATOM     24  C   UNL A   1      43.521  24.432  27.521  1.00  0.00     0.037 A 
ATOM     25  C   UNL A   1      46.544  30.152  27.853  1.00  0.00     0.049 A 
ATOM     26  C   UNL A   1      44.930  24.870  27.240  1.00  0.00     0.074 A 
ATOM     27  C   UNL A   1      47.900  30.411  27.771  1.00  0.00     0.029 A 
ATOM     28  N   UNL A   1      46.379  28.797  27.624  1.00  0.00    -0.354 N 
ATOM     29  N   UNL A   1      45.461  26.062  27.342  1.00  0.00    -0.248 NA
ATOM     30  C   UNL A   1      45.869  23.828  26.796  1.00  0.00     0.031 C 
ATOM     31  C   UNL A   1      48.557  29.216  27.460  1.00  0.00     0.029 A 
ATOM     32  C   UNL A   1      47.609  28.208  27.388  1.00  0.00     0.049 A 
ATOM     33  H   UNL A   1      45.517  28.322  27.628  1.00  0.00     0.167 HD
ATOM     34  C   UNL A   1      46.812  25.894  27.062  1.00  0.00     0.074 A 
ATOM     35  C   UNL A   1      47.008  24.500  26.733  1.00  0.00     0.031 C 
ATOM     36  C   UNL A   1      47.805  26.811  27.113  1.00  0.00     0.037 A 
BRANCH  23  37
ATOM     37  C   UNL A   1      45.778  32.538  28.129  1.00  0.00     0.057 A 
ATOM     38  C   UNL A   1      46.213  33.189  29.291  1.00  0.00     0.134 A 
ATOM     39  C   UNL A   1      45.685  33.303  26.960  1.00  0.00     0.134 A 
ATOM     40  F   UNL A   1      46.329  32.515  30.446  1.00  0.00    -0.206 F 
ATOM     41  C   UNL A   1      46.501  34.555  29.301  1.00  0.00     0.040 A 
ATOM     42  C   UNL A   1      45.999  34.663  26.950  1.00  0.00     0.040 A 
ATOM     43  F   UNL A   1      45.298  32.741  25.804  1.00  0.00    -0.206 F 
ATOM     44  C   UNL A   1      46.398  35.295  28.126  1.00  0.00     0.006 A 
ENDBRANCH  23  37
BRANCH  24  45
ATOM     45  C   UNL A   1      43.101  23.078  27.076  1.00  0.00     0.057 A 
ATOM     46  C   UNL A   1      42.780  22.819  25.740  1.00  0.00     0.134 A 
ATOM     47  C   UNL A   1      42.862  22.060  28.007  1.00  0.00     0.134 A 
ATOM     48  F   UNL A   1      42.931  23.776  24.814  1.00  0.00    -0.206 F 
ATOM     49  C   UNL A   1      42.210  21.604  25.349  1.00  0.00     0.040 A 
ATOM     50  C   UNL A   1      42.319  20.831  27.626  1.00  0.00     0.040 A 
ATOM     51  F   UNL A   1      43.093  22.269  29.308  1.00  0.00    -0.206 F 
ATOM     52  C   UNL A   1      41.977  20.607  26.294  1.00  0.00     0.006 A 
ENDBRANCH  24  45
BRANCH  36  53
ATOM     53  C   UNL A   1      49.210  26.318  26.954  1.00  0.00     0.057 A 
ATOM     54  C   UNL A   1      49.848  26.244  25.712  1.00  0.00     0.134 A 
ATOM     55  C   UNL A   1      49.946  25.946  28.087  1.00  0.00     0.134 A 
ATOM     56  F   UNL A   1      49.188  26.563  24.588  1.00  0.00    -0.206 F 
ATOM     57  C   UNL A   1      51.169  25.807  25.600  1.00  0.00     0.040 A 
ATOM     58  C   UNL A   1      51.274  25.531  27.991  1.00  0.00     0.040 A 
ATOM     59  F   UNL A   1      49.389  25.994  29.307  1.00  0.00    -0.206 F 
ATOM     60  C   UNL A   1      51.888  25.458  26.743  1.00  0.00     0.006 A 
ENDBRANCH  36  53
ENDBRANCH  10  11
ENDBRANCH   3   5
ENDBRANCH   2   3
ENDBRANCH   1   2
BRANCH   1  61
ATOM     61  C   UNL A   1      34.256  29.601  26.976  1.00  0.00     0.274 C 
BRANCH  61  62
ATOM     62  O   UNL A   1      33.201  28.745  27.458  1.00  0.00    -0.462 OA
BRANCH  62  63
ATOM     63  C   UNL A   1      32.775  27.770  26.604  1.00  0.00     0.313 C 
ATOM     64  O   UNL A   1      33.345  26.696  26.465  1.00  0.00    -0.252 OA
BRANCH  63  65
ATOM     65  C   UNL A   1      31.424  28.102  25.954  1.00  0.00     0.128 C 
ATOM     66  C   UNL A   1      30.706  26.842  25.565  1.00  0.00    -0.010 C 
ATOM     67  C   UNL A   1      31.417  28.912  24.646  1.00  0.00     0.089 C 
ATOM     68  C   UNL A   1      30.414  26.791  24.261  1.00  0.00     0.033 C 
ATOM     69  C   UNL A   1      30.890  27.995  23.514  1.00  0.00     0.208 C 
BRANCH  69  70
ATOM     70  N   UNL A   1      29.919  28.481  22.530  1.00  0.00    -0.328 N 
ATOM     71  C   UNL A   1      30.171  29.858  22.105  1.00  0.00     0.275 C 
ATOM     72  C   UNL A   1      28.581  28.811  23.016  1.00  0.00     0.275 C 
ATOM     73  H   UNL A   1      29.995  27.707  21.870  1.00  0.00     0.348 HD
ATOM     74  C   UNL A   1      28.699  30.234  22.389  1.00  0.00     0.073 C 
ATOM     75  C   UNL A   1      27.891  30.523  21.110  1.00  0.00     0.047 C 
ATOM     76  C   UNL A   1      28.450  31.338  23.424  1.00  0.00     0.047 C 
ATOM     77  C   UNL A   1      28.194  31.945  20.631  1.00  0.00     0.161 C 
ATOM     78  C   UNL A   1      28.673  32.708  22.795  1.00  0.00     0.161 C 
ATOM     79  O   UNL A   1      27.834  32.876  21.658  1.00  0.00    -0.381 OA
ENDBRANCH  69  70
ENDBRANCH  63  65
ENDBRANCH  62  63
ENDBRANCH  61  62
ENDBRANCH   1  61
TORSDOF 12
ENDMDL
MODEL 3
REMARK VINA RESULT:     -11.2      2.822      7.949
REMARK SMILES O=C(OCCOC(=O)[C@@H]1C=C[C@@H]([NH+]2CC3(CCOCC3)C2)C1)c1ccc(-c2c3nc(c(-c4c(F)cccc4F)c4ccc([nH]4)c(-c4c(F)cccc4F)c4nc(c(-c5c(F)cccc5F)c5ccc2[nH]5)C=C4)C=C3)cc1
REMARK SMILES IDX 4 1 3 2 2 3 1 4 23 5 24 6 76 7 25 8 75 9 26 10 27 11 28 12
REMARK SMILES IDX 69 13 29 14 74 15 68 16 70 17 30 18 73 19 67 20 66 21 31 23
REMARK SMILES IDX 57 24 40 25 56 26 41 27 44 28 55 29 71 30 42 31 43 32 54 34
REMARK SMILES IDX 72 35 45 36 32 37 33 38 38 39 34 40 35 41 37 42 39 43 36 44
REMARK SMILES IDX 58 45 59 46 64 47 60 48 61 49 63 50 65 51 62 52 46 53 47 54
REMARK SMILES IDX 52 55 48 56 49 57 51 58 53 59 50 60 5 61 6 62 7 63 8 64 9 65
REMARK SMILES IDX 10 66 22 67 11 68 12 69 13 70 14 71 21 72 15 74 16 75 20 76
REMARK SMILES IDX 17 77 19 78 18 79
REMARK H PARENT 70 22 44 33 13 73
REMARK Flexibility Score: inf
ROOT
ATOM      1  C   UNL A   1      31.878  28.522  26.217  1.00  0.00     0.275 C 
ENDROOT
BRANCH   1   2
ATOM      2  O   UNL A   1      32.036  29.471  27.280  1.00  0.00    -0.458 OA
BRANCH   2   3
ATOM      3  C   UNL A   1      32.678  30.659  27.276  1.00  0.00     0.338 C 
ATOM      4  O   UNL A   1      32.048  31.649  26.902  1.00  0.00    -0.246 OA
BRANCH   3   5
ATOM      5  C   UNL A   1      34.140  30.844  27.588  1.00  0.00     0.060 A 
ATOM      6  C   UNL A   1      34.875  32.036  27.634  1.00  0.00     0.016 A 
ATOM      7  C   UNL A   1      34.824  29.667  27.912  1.00  0.00     0.016 A 
ATOM      8  C   UNL A   1      36.196  32.077  28.128  1.00  0.00     0.010 A 
ATOM      9  C   UNL A   1      36.134  29.710  28.388  1.00  0.00     0.010 A 
ATOM     10  C   UNL A   1      36.826  30.916  28.567  1.00  0.00    -0.014 A 
BRANCH  10  11
ATOM     11  C   UNL A   1      38.163  30.883  29.240  1.00  0.00     0.031 A 
ATOM     12  C   UNL A   1      39.187  29.888  28.756  1.00  0.00     0.074 A 
ATOM     13  C   UNL A   1      38.365  31.525  30.414  1.00  0.00     0.049 A 
ATOM     14  N   UNL A   1      40.211  29.372  29.384  1.00  0.00    -0.248 NA
ATOM     15  C   UNL A   1      38.973  29.349  27.403  1.00  0.00     0.031 C 
ATOM     16  C   UNL A   1      37.433  32.459  31.055  1.00  0.00     0.029 A 
ATOM     17  N   UNL A   1      39.364  31.371  31.355  1.00  0.00    -0.354 N 
ATOM     18  C   UNL A   1      40.739  28.419  28.519  1.00  0.00     0.074 A 
ATOM     19  C   UNL A   1      39.882  28.387  27.353  1.00  0.00     0.031 C 
ATOM     20  C   UNL A   1      37.838  32.695  32.316  1.00  0.00     0.029 A 
ATOM     21  C   UNL A   1      39.046  31.925  32.580  1.00  0.00     0.049 A 
ATOM     22  H   UNL A   1      40.216  30.912  31.171  1.00  0.00     0.167 HD
ATOM     23  C   UNL A   1      41.853  27.660  28.665  1.00  0.00     0.037 A 
ATOM     24  C   UNL A   1      39.610  31.764  33.794  1.00  0.00     0.037 A 
ATOM     25  C   UNL A   1      42.742  27.749  29.791  1.00  0.00     0.049 A 
ATOM     26  C   UNL A   1      40.846  30.924  33.938  1.00  0.00     0.074 A 
ATOM     27  C   UNL A   1      43.994  27.180  29.952  1.00  0.00     0.029 A 
ATOM     28  N   UNL A   1      42.465  28.445  30.954  1.00  0.00    -0.354 N 
ATOM     29  N   UNL A   1      41.418  30.137  33.062  1.00  0.00    -0.248 NA
ATOM     30  C   UNL A   1      41.539  30.985  35.235  1.00  0.00     0.031 C 
ATOM     31  C   UNL A   1      44.463  27.508  31.229  1.00  0.00     0.029 A 
ATOM     32  C   UNL A   1      43.517  28.312  31.844  1.00  0.00     0.049 A 
ATOM     33  H   UNL A   1      41.643  28.959  31.124  1.00  0.00     0.167 HD
ATOM     34  C   UNL A   1      42.582  29.684  33.671  1.00  0.00     0.074 A 
ATOM     35  C   UNL A   1      42.607  30.236  35.007  1.00  0.00     0.031 C 
ATOM     36  C   UNL A   1      43.560  28.907  33.151  1.00  0.00     0.037 A 
BRANCH  23  37
ATOM     37  C   UNL A   1      42.198  26.696  27.566  1.00  0.00     0.057 A 
ATOM     38  C   UNL A   1      41.761  25.364  27.585  1.00  0.00     0.134 A 
ATOM     39  C   UNL A   1      42.937  27.114  26.452  1.00  0.00     0.134 A 
ATOM     40  F   UNL A   1      41.045  24.898  28.620  1.00  0.00    -0.206 F 
ATOM     41  C   UNL A   1      42.084  24.473  26.561  1.00  0.00     0.040 A 
ATOM     42  C   UNL A   1      43.240  26.241  25.407  1.00  0.00     0.040 A 
ATOM     43  F   UNL A   1      43.367  28.382  26.355  1.00  0.00    -0.206 F 
ATOM     44  C   UNL A   1      42.823  24.912  25.465  1.00  0.00     0.006 A 
ENDBRANCH  23  37
BRANCH  24  45
ATOM     45  C   UNL A   1      39.017  32.364  35.018  1.00  0.00     0.057 A 
ATOM     46  C   UNL A   1      39.277  33.691  35.376  1.00  0.00     0.134 A 
ATOM     47  C   UNL A   1      38.308  31.576  35.931  1.00  0.00     0.134 A 
ATOM     48  F   UNL A   1      40.002  34.476  34.567  1.00  0.00    -0.206 F 
ATOM     49  C   UNL A   1      38.877  34.204  36.613  1.00  0.00     0.040 A 
ATOM     50  C   UNL A   1      37.878  32.083  37.158  1.00  0.00     0.040 A 
ATOM     51  F   UNL A   1      38.080  30.283  35.671  1.00  0.00    -0.206 F 
ATOM     52  C   UNL A   1      38.175  33.399  37.508  1.00  0.00     0.006 A 
ENDBRANCH  24  45
BRANCH  36  53
ATOM     53  C   UNL A   1      44.805  28.728  33.963  1.00  0.00     0.057 A 
ATOM     54  C   UNL A   1      44.998  27.641  34.820  1.00  0.00     0.134 A 
ATOM     55  C   UNL A   1      45.849  29.657  33.844  1.00  0.00     0.134 A 
ATOM     56  F   UNL A   1      44.027  26.731  34.994  1.00  0.00    -0.206 F 
ATOM     57  C   UNL A   1      46.184  27.487  35.541  1.00  0.00     0.040 A 
ATOM     58  C   UNL A   1      47.047  29.502  34.541  1.00  0.00     0.040 A 
ATOM     59  F   UNL A   1      45.723  30.723  33.038  1.00  0.00    -0.206 F 
ATOM     60  C   UNL A   1      47.215  28.415  35.395  1.00  0.00     0.006 A 
ENDBRANCH  36  53
ENDBRANCH  10  11
ENDBRANCH   3   5
ENDBRANCH   2   3
ENDBRANCH   1   2
BRANCH   1  61
ATOM     61  C   UNL A   1      32.108  27.064  26.632  1.00  0.00     0.274 C 
BRANCH  61  62
ATOM     62  O   UNL A   1      30.921  26.259  26.489  1.00  0.00    -0.462 OA
BRANCH  62  63
ATOM     63  C   UNL A   1      30.986  25.239  25.586  1.00  0.00     0.313 C 
ATOM     64  O   UNL A   1      31.405  24.121  25.856  1.00  0.00    -0.252 OA
BRANCH  63  65
ATOM     65  C   UNL A   1      30.337  25.597  24.240  1.00  0.00     0.128 C 
ATOM     66  C   UNL A   1      31.385  25.995  23.243  1.00  0.00    -0.010 C 
ATOM     67  C   UNL A   1      29.356  26.781  24.189  1.00  0.00     0.089 C 
ATOM     68  C   UNL A   1      31.196  27.223  22.750  1.00  0.00     0.033 C 
ATOM     69  C   UNL A   1      29.995  27.898  23.329  1.00  0.00     0.208 C 
BRANCH  69  70
ATOM     70  N   UNL A   1      29.212  28.632  22.331  1.00  0.00    -0.328 N 
ATOM     71  C   UNL A   1      29.728  29.975  22.068  1.00  0.00     0.275 C 
ATOM     72  C   UNL A   1      27.909  29.148  22.748  1.00  0.00     0.275 C 
ATOM     73  H   UNL A   1      29.215  27.918  21.603  1.00  0.00     0.348 HD
ATOM     74  C   UNL A   1      28.320  30.578  22.280  1.00  0.00     0.073 C 
ATOM     75  C   UNL A   1      27.691  31.115  20.982  1.00  0.00     0.047 C 
ATOM     76  C   UNL A   1      28.168  31.613  23.401  1.00  0.00     0.047 C 
ATOM     77  C   UNL A   1      28.270  32.498  20.674  1.00  0.00     0.161 C 
ATOM     78  C   UNL A   1      28.673  32.972  22.933  1.00  0.00     0.161 C 
ATOM     79  O   UNL A   1      27.980  33.384  21.761  1.00  0.00    -0.381 OA
ENDBRANCH  69  70
ENDBRANCH  63  65
ENDBRANCH  62  63
ENDBRANCH  61  62
ENDBRANCH   1  61
TORSDOF 12
ENDMDL
