MODEL 1
REMARK VINA RESULT:     -13.4      0.000      0.000
REMARK SMILES O=C(OCCOC(=O)[C@H]1CCCN(c2cc(-c3ccccn3)nc(-c3ccccc3F)n2)C1)c1ccc(-c2c3nc(c(-c4c(F)cccc4F)c4ccc([nH]4)c(-c4c(F)cccc4F)c4nc(c(-c5c(F)cccc5F)c5ccc2[nH]5)C=C4)C=C3)cc1
REMARK SMILES IDX 4 1 3 2 2 3 1 4 34 5 35 6 87 7 36 8 86 9 37 10 38 11 39 12
REMARK SMILES IDX 80 13 40 14 85 15 79 16 81 17 41 18 84 19 78 20 77 21 42 23
REMARK SMILES IDX 68 24 51 25 67 26 52 27 55 28 66 29 82 30 53 31 54 32 65 34
REMARK SMILES IDX 83 35 56 36 43 37 44 38 49 39 45 40 46 41 48 42 50 43 47 44
REMARK SMILES IDX 69 45 70 46 75 47 71 48 72 49 74 50 76 51 73 52 57 53 58 54
REMARK SMILES IDX 63 55 59 56 60 57 62 58 64 59 61 60 5 61 6 62 7 63 8 64 9 65
REMARK SMILES IDX 10 66 33 67 11 68 13 69 12 70 14 71 15 72 32 73 16 74 24 75
REMARK SMILES IDX 23 76 17 77 18 78 22 79 19 80 21 81 20 82 25 83 26 84 30 85
REMARK SMILES IDX 27 86 29 87 31 88 28 89
REMARK H PARENT 81 22 55 33
REMARK Flexibility Score: inf
ROOT
ATOM      1  C   UNL A   1      31.697  29.379  25.092  1.00  0.00     0.275 C 
ENDROOT
BRANCH   1   2
ATOM      2  O   UNL A   1      32.303  29.556  26.382  1.00  0.00    -0.458 OA
BRANCH   2   3
ATOM      3  C   UNL A   1      32.785  30.671  26.977  1.00  0.00     0.338 C 
ATOM      4  O   UNL A   1      32.058  31.666  26.997  1.00  0.00    -0.246 OA
BRANCH   3   5
ATOM      5  C   UNL A   1      34.184  30.831  27.512  1.00  0.00     0.060 A 
ATOM      6  C   UNL A   1      34.892  32.025  27.720  1.00  0.00     0.016 A 
ATOM      7  C   UNL A   1      34.789  29.641  27.956  1.00  0.00     0.016 A 
ATOM      8  C   UNL A   1      36.090  32.060  28.461  1.00  0.00     0.010 A 
ATOM      9  C   UNL A   1      35.958  29.673  28.723  1.00  0.00     0.010 A 
ATOM     10  C   UNL A   1      36.610  30.891  29.005  1.00  0.00    -0.014 A 
BRANCH  10  11
ATOM     11  C   UNL A   1      37.910  30.828  29.724  1.00  0.00     0.031 A 
ATOM     12  C   UNL A   1      38.923  29.885  29.154  1.00  0.00     0.074 A 
ATOM     13  C   UNL A   1      38.158  31.452  30.894  1.00  0.00     0.049 A 
ATOM     14  N   UNL A   1      40.020  29.423  29.682  1.00  0.00    -0.248 NA
ATOM     15  C   UNL A   1      38.629  29.372  27.802  1.00  0.00     0.031 C 
ATOM     16  C   UNL A   1      37.314  32.455  31.537  1.00  0.00     0.029 A 
ATOM     17  N   UNL A   1      39.173  31.259  31.806  1.00  0.00    -0.354 N 
ATOM     18  C   UNL A   1      40.557  28.595  28.712  1.00  0.00     0.074 A 
ATOM     19  C   UNL A   1      39.589  28.479  27.648  1.00  0.00     0.031 C 
ATOM     20  C   UNL A   1      37.761  32.682  32.786  1.00  0.00     0.029 A 
ATOM     21  C   UNL A   1      38.940  31.859  33.026  1.00  0.00     0.049 A 
ATOM     22  H   UNL A   1      39.987  30.741  31.607  1.00  0.00     0.167 HD
ATOM     23  C   UNL A   1      41.796  28.061  28.659  1.00  0.00     0.037 A 
ATOM     24  C   UNL A   1      39.589  31.740  34.202  1.00  0.00     0.037 A 
ATOM     25  C   UNL A   1      42.751  28.191  29.714  1.00  0.00     0.049 A 
ATOM     26  C   UNL A   1      40.883  30.971  34.230  1.00  0.00     0.074 A 
ATOM     27  C   UNL A   1      44.056  27.746  29.755  1.00  0.00     0.029 A 
ATOM     28  N   UNL A   1      42.486  28.804  30.930  1.00  0.00    -0.354 N 
ATOM     29  N   UNL A   1      41.446  30.285  33.264  1.00  0.00    -0.248 NA
ATOM     30  C   UNL A   1      41.671  31.013  35.471  1.00  0.00     0.031 C 
ATOM     31  C   UNL A   1      44.567  28.043  31.022  1.00  0.00     0.029 A 
ATOM     32  C   UNL A   1      43.596  28.723  31.747  1.00  0.00     0.049 A 
ATOM     33  H   UNL A   1      41.634  29.233  31.174  1.00  0.00     0.167 HD
ATOM     34  C   UNL A   1      42.689  29.896  33.744  1.00  0.00     0.074 A 
ATOM     35  C   UNL A   1      42.777  30.373  35.109  1.00  0.00     0.031 C 
ATOM     36  C   UNL A   1      43.679  29.242  33.090  1.00  0.00     0.037 A 
BRANCH  23  37
ATOM     37  C   UNL A   1      42.149  27.350  27.392  1.00  0.00     0.057 A 
ATOM     38  C   UNL A   1      42.622  28.051  26.280  1.00  0.00     0.134 A 
ATOM     39  C   UNL A   1      42.108  25.948  27.311  1.00  0.00     0.134 A 
ATOM     40  F   UNL A   1      42.691  29.391  26.296  1.00  0.00    -0.206 F 
ATOM     41  C   UNL A   1      43.071  27.381  25.141  1.00  0.00     0.040 A 
ATOM     42  C   UNL A   1      42.585  25.268  26.192  1.00  0.00     0.040 A 
ATOM     43  F   UNL A   1      41.691  25.218  28.357  1.00  0.00    -0.206 F 
ATOM     44  C   UNL A   1      43.069  25.987  25.102  1.00  0.00     0.006 A 
ENDBRANCH  23  37
BRANCH  24  45
ATOM     45  C   UNL A   1      39.067  32.402  35.428  1.00  0.00     0.057 A 
ATOM     46  C   UNL A   1      38.290  31.704  36.363  1.00  0.00     0.134 A 
ATOM     47  C   UNL A   1      39.335  33.748  35.699  1.00  0.00     0.134 A 
ATOM     48  F   UNL A   1      37.988  30.413  36.161  1.00  0.00    -0.206 F 
ATOM     49  C   UNL A   1      37.805  32.317  37.523  1.00  0.00     0.040 A 
ATOM     50  C   UNL A   1      38.861  34.374  36.856  1.00  0.00     0.040 A 
ATOM     51  F   UNL A   1      40.086  34.468  34.853  1.00  0.00    -0.206 F 
ATOM     52  C   UNL A   1      38.093  33.658  37.773  1.00  0.00     0.006 A 
ENDBRANCH  24  45
BRANCH  36  53
ATOM     53  C   UNL A   1      44.996  29.062  33.781  1.00  0.00     0.057 A 
ATOM     54  C   UNL A   1      46.016  30.003  33.581  1.00  0.00     0.134 A 
ATOM     55  C   UNL A   1      45.315  27.888  34.467  1.00  0.00     0.134 A 
ATOM     56  F   UNL A   1      45.770  31.144  32.918  1.00  0.00    -0.206 F 
ATOM     57  C   UNL A   1      47.325  29.754  33.991  1.00  0.00     0.040 A 
ATOM     58  C   UNL A   1      46.615  27.641  34.906  1.00  0.00     0.040 A 
ATOM     59  F   UNL A   1      44.376  26.959  34.699  1.00  0.00    -0.206 F 
ATOM     60  C   UNL A   1      47.628  28.566  34.648  1.00  0.00     0.006 A 
ENDBRANCH  36  53
ENDBRANCH  10  11
ENDBRANCH   3   5
ENDBRANCH   2   3
ENDBRANCH   1   2
BRANCH   1  61
ATOM     61  C   UNL A   1      32.689  29.006  23.986  1.00  0.00     0.274 C 
BRANCH  61  62
ATOM     62  O   UNL A   1      32.175  27.981  23.119  1.00  0.00    -0.462 OA
BRANCH  62  63
ATOM     63  C   UNL A   1      33.034  27.005  22.699  1.00  0.00     0.310 C 
ATOM     64  O   UNL A   1      33.810  27.132  21.754  1.00  0.00    -0.252 OA
BRANCH  63  65
ATOM     65  C   UNL A   1      32.935  25.728  23.534  1.00  0.00     0.118 C 
ATOM     66  C   UNL A   1      31.515  25.494  24.029  1.00  0.00     0.019 C 
ATOM     67  C   UNL A   1      33.428  24.535  22.723  1.00  0.00     0.133 C 
ATOM     68  C   UNL A   1      31.314  24.158  24.713  1.00  0.00     0.022 C 
ATOM     69  N   UNL A   1      32.992  23.248  23.267  1.00  0.00    -0.356 N 
ATOM     70  C   UNL A   1      31.614  23.080  23.700  1.00  0.00     0.118 C 
BRANCH  69  71
ATOM     71  C   UNL A   1      33.868  22.417  23.942  1.00  0.00     0.133 A 
ATOM     72  C   UNL A   1      33.436  21.132  24.155  1.00  0.00     0.077 A 
ATOM     73  N   UNL A   1      35.041  22.854  24.406  1.00  0.00    -0.211 NA
ATOM     74  C   UNL A   1      34.274  20.258  24.803  1.00  0.00     0.095 A 
ATOM     75  C   UNL A   1      35.777  21.956  25.096  1.00  0.00     0.165 A 
ATOM     76  N   UNL A   1      35.454  20.662  25.311  1.00  0.00    -0.226 NA
BRANCH  74  77
ATOM     77  C   UNL A   1      33.884  18.841  24.834  1.00  0.00     0.089 A 
ATOM     78  C   UNL A   1      34.725  17.883  24.247  1.00  0.00     0.030 A 
ATOM     79  N   UNL A   1      32.645  18.524  25.280  1.00  0.00    -0.255 NA
ATOM     80  C   UNL A   1      34.280  16.578  24.088  1.00  0.00     0.004 A 
ATOM     81  C   UNL A   1      32.248  17.239  25.137  1.00  0.00     0.112 A 
ATOM     82  C   UNL A   1      33.014  16.246  24.541  1.00  0.00     0.020 A 
ENDBRANCH  74  77
BRANCH  75  83
ATOM     83  C   UNL A   1      37.041  22.438  25.635  1.00  0.00     0.055 A 
ATOM     84  C   UNL A   1      37.191  23.750  26.122  1.00  0.00     0.015 A 
ATOM     85  C   UNL A   1      38.162  21.603  25.647  1.00  0.00     0.134 A 
ATOM     86  C   UNL A   1      38.426  24.197  26.608  1.00  0.00     0.001 A 
ATOM     87  C   UNL A   1      39.395  22.043  26.124  1.00  0.00     0.040 A 
ATOM     88  F   UNL A   1      38.076  20.352  25.167  1.00  0.00    -0.206 F 
ATOM     89  C   UNL A   1      39.528  23.343  26.608  1.00  0.00     0.003 A 
ENDBRANCH  75  83
ENDBRANCH  69  71
ENDBRANCH  63  65
ENDBRANCH  62  63
ENDBRANCH  61  62
ENDBRANCH   1  61
TORSDOF 14
ENDMDL
MODEL 2
REMARK VINA RESULT:     -13.4      3.881      9.187
REMARK SMILES O=C(OCCOC(=O)[C@H]1CCCN(c2cc(-c3ccccn3)nc(-c3ccccc3F)n2)C1)c1ccc(-c2c3nc(c(-c4c(F)cccc4F)c4ccc([nH]4)c(-c4c(F)cccc4F)c4nc(c(-c5c(F)cccc5F)c5ccc2[nH]5)C=C4)C=C3)cc1
REMARK SMILES IDX 4 1 3 2 2 3 1 4 34 5 35 6 87 7 36 8 86 9 37 10 38 11 39 12
REMARK SMILES IDX 80 13 40 14 85 15 79 16 81 17 41 18 84 19 78 20 77 21 42 23
REMARK SMILES IDX 68 24 51 25 67 26 52 27 55 28 66 29 82 30 53 31 54 32 65 34
REMARK SMILES IDX 83 35 56 36 43 37 44 38 49 39 45 40 46 41 48 42 50 43 47 44
REMARK SMILES IDX 69 45 70 46 75 47 71 48 72 49 74 50 76 51 73 52 57 53 58 54
REMARK SMILES IDX 63 55 59 56 60 57 62 58 64 59 61 60 5 61 6 62 7 63 8 64 9 65
REMARK SMILES IDX 10 66 33 67 11 68 13 69 12 70 14 71 15 72 32 73 16 74 24 75
REMARK SMILES IDX 23 76 17 77 18 78 22 79 19 80 21 81 20 82 25 83 26 84 30 85
REMARK SMILES IDX 27 86 29 87 31 88 28 89
REMARK H PARENT 81 22 55 33
REMARK Flexibility Score: inf
ROOT
ATOM      1  C   UNL A   1      35.348  21.052  25.383  1.00  0.00     0.275 C 
ENDROOT
BRANCH   1   2
ATOM      2  O   UNL A   1      36.524  21.862  25.229  1.00  0.00    -0.458 OA
BRANCH   2   3
ATOM      3  C   UNL A   1      37.818  21.590  25.513  1.00  0.00     0.338 C 
ATOM      4  O   UNL A   1      38.247  20.477  25.204  1.00  0.00    -0.246 OA
BRANCH   3   5
ATOM      5  C   UNL A   1      38.744  22.493  26.285  1.00  0.00     0.060 A 
ATOM      6  C   UNL A   1      39.875  22.128  27.030  1.00  0.00     0.016 A 
ATOM      7  C   UNL A   1      38.494  23.870  26.131  1.00  0.00     0.016 A 
ATOM      8  C   UNL A   1      40.801  23.084  27.493  1.00  0.00     0.010 A 
ATOM      9  C   UNL A   1      39.427  24.819  26.555  1.00  0.00     0.010 A 
ATOM     10  C   UNL A   1      40.608  24.434  27.222  1.00  0.00    -0.014 A 
BRANCH  10  11
ATOM     11  C   UNL A   1      41.489  25.510  27.745  1.00  0.00     0.031 A 
ATOM     12  C   UNL A   1      40.799  26.614  28.483  1.00  0.00     0.074 A 
ATOM     13  C   UNL A   1      42.809  25.603  27.479  1.00  0.00     0.049 A 
ATOM     14  N   UNL A   1      41.240  27.791  28.824  1.00  0.00    -0.248 NA
ATOM     15  C   UNL A   1      39.396  26.353  28.859  1.00  0.00     0.031 C 
ATOM     16  C   UNL A   1      43.639  24.583  26.847  1.00  0.00     0.029 A 
ATOM     17  N   UNL A   1      43.673  26.666  27.636  1.00  0.00    -0.354 N 
ATOM     18  C   UNL A   1      40.179  28.389  29.481  1.00  0.00     0.074 A 
ATOM     19  C   UNL A   1      39.030  27.527  29.337  1.00  0.00     0.031 C 
ATOM     20  C   UNL A   1      44.839  25.110  26.540  1.00  0.00     0.029 A 
ATOM     21  C   UNL A   1      44.874  26.499  26.978  1.00  0.00     0.049 A 
ATOM     22  H   UNL A   1      43.455  27.467  28.166  1.00  0.00     0.167 HD
ATOM     23  C   UNL A   1      40.185  29.509  30.234  1.00  0.00     0.037 A 
ATOM     24  C   UNL A   1      45.873  27.374  26.740  1.00  0.00     0.037 A 
ATOM     25  C   UNL A   1      41.331  30.350  30.380  1.00  0.00     0.049 A 
ATOM     26  C   UNL A   1      45.816  28.725  27.404  1.00  0.00     0.074 A 
ATOM     27  C   UNL A   1      41.480  31.478  31.160  1.00  0.00     0.029 A 
ATOM     28  N   UNL A   1      42.528  30.155  29.706  1.00  0.00    -0.354 N 
ATOM     29  N   UNL A   1      44.850  29.237  28.128  1.00  0.00    -0.248 NA
ATOM     30  C   UNL A   1      47.000  29.588  27.287  1.00  0.00     0.031 C 
ATOM     31  C   UNL A   1      42.755  31.999  30.916  1.00  0.00     0.029 A 
ATOM     32  C   UNL A   1      43.416  31.162  30.027  1.00  0.00     0.049 A 
ATOM     33  H   UNL A   1      42.716  29.409  29.090  1.00  0.00     0.167 HD
ATOM     34  C   UNL A   1      45.342  30.434  28.630  1.00  0.00     0.074 A 
ATOM     35  C   UNL A   1      46.673  30.601  28.083  1.00  0.00     0.031 C 
ATOM     36  C   UNL A   1      44.754  31.288  29.503  1.00  0.00     0.037 A 
BRANCH  23  37
ATOM     37  C   UNL A   1      38.917  29.812  30.968  1.00  0.00     0.057 A 
ATOM     38  C   UNL A   1      38.655  29.243  32.217  1.00  0.00     0.134 A 
ATOM     39  C   UNL A   1      37.998  30.750  30.471  1.00  0.00     0.134 A 
ATOM     40  F   UNL A   1      39.497  28.345  32.749  1.00  0.00    -0.206 F 
ATOM     41  C   UNL A   1      37.535  29.619  32.960  1.00  0.00     0.040 A 
ATOM     42  C   UNL A   1      36.895  31.157  31.220  1.00  0.00     0.040 A 
ATOM     43  F   UNL A   1      38.210  31.352  29.290  1.00  0.00    -0.206 F 
ATOM     44  C   UNL A   1      36.662  30.590  32.470  1.00  0.00     0.006 A 
ENDBRANCH  23  37
BRANCH  24  45
ATOM     45  C   UNL A   1      47.031  26.990  25.888  1.00  0.00     0.057 A 
ATOM     46  C   UNL A   1      47.064  27.290  24.519  1.00  0.00     0.134 A 
ATOM     47  C   UNL A   1      48.137  26.318  26.421  1.00  0.00     0.134 A 
ATOM     48  F   UNL A   1      46.033  27.925  23.941  1.00  0.00    -0.206 F 
ATOM     49  C   UNL A   1      48.154  26.942  23.713  1.00  0.00     0.040 A 
ATOM     50  C   UNL A   1      49.235  25.967  25.630  1.00  0.00     0.040 A 
ATOM     51  F   UNL A   1      48.174  26.017  27.726  1.00  0.00    -0.206 F 
ATOM     52  C   UNL A   1      49.246  26.279  24.271  1.00  0.00     0.006 A 
ENDBRANCH  24  45
BRANCH  36  53
ATOM     53  C   UNL A   1      45.550  32.450  30.013  1.00  0.00     0.057 A 
ATOM     54  C   UNL A   1      45.569  33.647  29.284  1.00  0.00     0.134 A 
ATOM     55  C   UNL A   1      46.432  32.325  31.088  1.00  0.00     0.134 A 
ATOM     56  F   UNL A   1      44.752  33.818  28.233  1.00  0.00    -0.206 F 
ATOM     57  C   UNL A   1      46.482  34.660  29.574  1.00  0.00     0.040 A 
ATOM     58  C   UNL A   1      47.330  33.343  31.406  1.00  0.00     0.040 A 
ATOM     59  F   UNL A   1      46.448  31.206  31.829  1.00  0.00    -0.206 F 
ATOM     60  C   UNL A   1      47.372  34.505  30.634  1.00  0.00     0.006 A 
ENDBRANCH  36  53
ENDBRANCH  10  11
ENDBRANCH   3   5
ENDBRANCH   2   3
ENDBRANCH   1   2
BRANCH   1  61
ATOM     61  C   UNL A   1      34.424  21.511  26.516  1.00  0.00     0.274 C 
BRANCH  61  62
ATOM     62  O   UNL A   1      33.077  21.731  26.063  1.00  0.00    -0.462 OA
BRANCH  62  63
ATOM     63  C   UNL A   1      32.387  22.785  26.590  1.00  0.00     0.310 C 
ATOM     64  O   UNL A   1      31.940  22.810  27.735  1.00  0.00    -0.252 OA
BRANCH  63  65
ATOM     65  C   UNL A   1      32.228  23.942  25.604  1.00  0.00     0.118 C 
ATOM     66  C   UNL A   1      31.975  23.441  24.190  1.00  0.00     0.019 C 
ATOM     67  C   UNL A   1      31.103  24.865  26.059  1.00  0.00     0.133 C 
ATOM     68  C   UNL A   1      31.636  24.536  23.199  1.00  0.00     0.022 C 
ATOM     69  N   UNL A   1      30.608  25.740  24.996  1.00  0.00    -0.356 N 
ATOM     70  C   UNL A   1      30.362  25.195  23.671  1.00  0.00     0.118 C 
BRANCH  69  71
ATOM     71  C   UNL A   1      30.923  27.088  24.968  1.00  0.00     0.133 A 
ATOM     72  C   UNL A   1      30.234  27.847  24.055  1.00  0.00     0.077 A 
ATOM     73  N   UNL A   1      31.874  27.608  25.744  1.00  0.00    -0.211 NA
ATOM     74  C   UNL A   1      30.492  29.195  23.997  1.00  0.00     0.095 A 
ATOM     75  C   UNL A   1      32.121  28.925  25.578  1.00  0.00     0.165 A 
ATOM     76  N   UNL A   1      31.462  29.757  24.742  1.00  0.00    -0.226 NA
BRANCH  74  77
ATOM     77  C   UNL A   1      29.602  30.021  23.167  1.00  0.00     0.089 A 
ATOM     78  C   UNL A   1      29.009  31.165  23.723  1.00  0.00     0.030 A 
ATOM     79  N   UNL A   1      29.250  29.558  21.944  1.00  0.00    -0.255 NA
ATOM     80  C   UNL A   1      28.016  31.837  23.025  1.00  0.00     0.004 A 
ATOM     81  C   UNL A   1      28.299  30.248  21.275  1.00  0.00     0.112 A 
ATOM     82  C   UNL A   1      27.650  31.369  21.773  1.00  0.00     0.020 A 
ENDBRANCH  74  77
BRANCH  75  83
ATOM     83  C   UNL A   1      33.184  29.490  26.398  1.00  0.00     0.055 A 
ATOM     84  C   UNL A   1      34.399  28.813  26.611  1.00  0.00     0.015 A 
ATOM     85  C   UNL A   1      33.001  30.723  27.031  1.00  0.00     0.134 A 
ATOM     86  C   UNL A   1      35.394  29.366  27.427  1.00  0.00     0.001 A 
ATOM     87  C   UNL A   1      33.985  31.275  27.850  1.00  0.00     0.040 A 
ATOM     88  F   UNL A   1      31.848  31.394  26.882  1.00  0.00    -0.206 F 
ATOM     89  C   UNL A   1      35.186  30.597  28.047  1.00  0.00     0.003 A 
ENDBRANCH  75  83
ENDBRANCH  69  71
ENDBRANCH  63  65
ENDBRANCH  62  63
ENDBRANCH  61  62
ENDBRANCH   1  61
TORSDOF 14
ENDMDL
MODEL 3
REMARK VINA RESULT:     -13.3      3.154      7.499
REMARK SMILES O=C(OCCOC(=O)[C@H]1CCCN(c2cc(-c3ccccn3)nc(-c3ccccc3F)n2)C1)c1ccc(-c2c3nc(c(-c4c(F)cccc4F)c4ccc([nH]4)c(-c4c(F)cccc4F)c4nc(c(-c5c(F)cccc5F)c5ccc2[nH]5)C=C4)C=C3)cc1
REMARK SMILES IDX 4 1 3 2 2 3 1 4 34 5 35 6 87 7 36 8 86 9 37 10 38 11 39 12
REMARK SMILES IDX 80 13 40 14 85 15 79 16 81 17 41 18 84 19 78 20 77 21 42 23
REMARK SMILES IDX 68 24 51 25 67 26 52 27 55 28 66 29 82 30 53 31 54 32 65 34
REMARK SMILES IDX 83 35 56 36 43 37 44 38 49 39 45 40 46 41 48 42 50 43 47 44
REMARK SMILES IDX 69 45 70 46 75 47 71 48 72 49 74 50 76 51 73 52 57 53 58 54
REMARK SMILES IDX 63 55 59 56 60 57 62 58 64 59 61 60 5 61 6 62 7 63 8 64 9 65
REMARK SMILES IDX 10 66 33 67 11 68 13 69 12 70 14 71 15 72 32 73 16 74 24 75
REMARK SMILES IDX 23 76 17 77 18 78 22 79 19 80 21 81 20 82 25 83 26 84 30 85
REMARK SMILES IDX 27 86 29 87 31 88 28 89
REMARK H PARENT 81 22 55 33
REMARK Flexibility Score: inf
ROOT
ATOM      1  C   UNL A   1      43.396  21.381  25.388  1.00  0.00     0.275 C 
ENDROOT
BRANCH   1   2
ATOM      2  O   UNL A   1      42.995  22.664  24.885  1.00  0.00    -0.458 OA
BRANCH   2   3
ATOM      3  C   UNL A   1      43.439  23.904  25.193  1.00  0.00     0.338 C 
ATOM      4  O   UNL A   1      44.532  24.246  24.737  1.00  0.00    -0.246 OA
BRANCH   3   5
ATOM      5  C   UNL A   1      42.764  24.854  26.146  1.00  0.00     0.060 A 
ATOM      6  C   UNL A   1      41.731  24.571  27.053  1.00  0.00     0.016 A 
ATOM      7  C   UNL A   1      43.330  26.142  26.200  1.00  0.00     0.016 A 
ATOM      8  C   UNL A   1      41.361  25.478  28.066  1.00  0.00     0.010 A 
ATOM      9  C   UNL A   1      42.993  27.030  27.225  1.00  0.00     0.010 A 
ATOM     10  C   UNL A   1      42.018  26.698  28.188  1.00  0.00    -0.014 A 
BRANCH  10  11
ATOM     11  C   UNL A   1      41.633  27.743  29.172  1.00  0.00     0.031 A 
ATOM     12  C   UNL A   1      42.264  27.626  30.524  1.00  0.00     0.074 A 
ATOM     13  C   UNL A   1      40.679  28.672  28.954  1.00  0.00     0.049 A 
ATOM     14  N   UNL A   1      41.945  28.208  31.644  1.00  0.00    -0.248 NA
ATOM     15  C   UNL A   1      43.399  26.688  30.622  1.00  0.00     0.031 C 
ATOM     16  C   UNL A   1      40.031  28.966  27.680  1.00  0.00     0.029 A 
ATOM     17  N   UNL A   1      40.020  29.492  29.844  1.00  0.00    -0.354 N 
ATOM     18  C   UNL A   1      42.862  27.730  32.564  1.00  0.00     0.074 A 
ATOM     19  C   UNL A   1      43.628  26.689  31.921  1.00  0.00     0.031 C 
ATOM     20  C   UNL A   1      38.982  29.783  27.890  1.00  0.00     0.029 A 
ATOM     21  C   UNL A   1      38.898  30.094  29.311  1.00  0.00     0.049 A 
ATOM     22  H   UNL A   1      40.319  29.635  30.771  1.00  0.00     0.167 HD
ATOM     23  C   UNL A   1      43.121  28.192  33.805  1.00  0.00     0.037 A 
ATOM     24  C   UNL A   1      37.910  30.793  29.906  1.00  0.00     0.037 A 
ATOM     25  C   UNL A   1      42.364  29.232  34.429  1.00  0.00     0.049 A 
ATOM     26  C   UNL A   1      38.065  31.156  31.359  1.00  0.00     0.074 A 
ATOM     27  C   UNL A   1      42.564  29.826  35.658  1.00  0.00     0.029 A 
ATOM     28  N   UNL A   1      41.241  29.820  33.865  1.00  0.00    -0.354 N 
ATOM     29  N   UNL A   1      39.009  30.793  32.195  1.00  0.00    -0.248 NA
ATOM     30  C   UNL A   1      37.075  32.077  31.937  1.00  0.00     0.031 C 
ATOM     31  C   UNL A   1      41.526  30.740  35.862  1.00  0.00     0.029 A 
ATOM     32  C   UNL A   1      40.715  30.753  34.735  1.00  0.00     0.049 A 
ATOM     33  H   UNL A   1      40.875  29.604  32.977  1.00  0.00     0.167 HD
ATOM     34  C   UNL A   1      38.784  31.510  33.361  1.00  0.00     0.074 A 
ATOM     35  C   UNL A   1      37.580  32.288  33.148  1.00  0.00     0.031 C 
ATOM     36  C   UNL A   1      39.538  31.549  34.487  1.00  0.00     0.037 A 
BRANCH  23  37
ATOM     37  C   UNL A   1      44.298  27.583  34.499  1.00  0.00     0.057 A 
ATOM     38  C   UNL A   1      45.570  28.151  34.393  1.00  0.00     0.134 A 
ATOM     39  C   UNL A   1      44.145  26.480  35.354  1.00  0.00     0.134 A 
ATOM     40  F   UNL A   1      45.781  29.211  33.598  1.00  0.00    -0.206 F 
ATOM     41  C   UNL A   1      46.644  27.661  35.137  1.00  0.00     0.040 A 
ATOM     42  C   UNL A   1      45.202  26.004  36.127  1.00  0.00     0.040 A 
ATOM     43  F   UNL A   1      42.941  25.908  35.519  1.00  0.00    -0.206 F 
ATOM     44  C   UNL A   1      46.458  26.597  36.019  1.00  0.00     0.006 A 
ENDBRANCH  23  37
BRANCH  24  45
ATOM     45  C   UNL A   1      36.724  31.243  29.128  1.00  0.00     0.057 A 
ATOM     46  C   UNL A   1      36.587  32.572  28.706  1.00  0.00     0.134 A 
ATOM     47  C   UNL A   1      35.700  30.354  28.782  1.00  0.00     0.134 A 
ATOM     48  F   UNL A   1      37.526  33.479  29.012  1.00  0.00    -0.206 F 
ATOM     49  C   UNL A   1      35.479  33.000  27.965  1.00  0.00     0.040 A 
ATOM     50  C   UNL A   1      34.590  30.765  28.037  1.00  0.00     0.040 A 
ATOM     51  F   UNL A   1      35.779  29.065  29.141  1.00  0.00    -0.206 F 
ATOM     52  C   UNL A   1      34.477  32.092  27.627  1.00  0.00     0.006 A 
ENDBRANCH  24  45
BRANCH  36  53
ATOM     53  C   UNL A   1      39.163  32.518  35.565  1.00  0.00     0.057 A 
ATOM     54  C   UNL A   1      39.762  33.786  35.593  1.00  0.00     0.134 A 
ATOM     55  C   UNL A   1      38.384  32.139  36.660  1.00  0.00     0.134 A 
ATOM     56  F   UNL A   1      40.531  34.199  34.573  1.00  0.00    -0.206 F 
ATOM     57  C   UNL A   1      39.642  34.622  36.702  1.00  0.00     0.040 A 
ATOM     58  C   UNL A   1      38.235  32.979  37.764  1.00  0.00     0.040 A 
ATOM     59  F   UNL A   1      37.777  30.943  36.682  1.00  0.00    -0.206 F 
ATOM     60  C   UNL A   1      38.884  34.214  37.796  1.00  0.00     0.006 A 
ENDBRANCH  36  53
ENDBRANCH  10  11
ENDBRANCH   3   5
ENDBRANCH   2   3
ENDBRANCH   1   2
BRANCH   1  61
ATOM     61  C   UNL A   1      42.345  20.706  26.275  1.00  0.00     0.274 C 
BRANCH  61  62
ATOM     62  O   UNL A   1      41.048  21.308  26.135  1.00  0.00    -0.462 OA
BRANCH  62  63
ATOM     63  C   UNL A   1      39.974  20.485  25.942  1.00  0.00     0.310 C 
ATOM     64  O   UNL A   1      40.064  19.274  25.750  1.00  0.00    -0.252 OA
BRANCH  63  65
ATOM     65  C   UNL A   1      38.640  21.229  25.993  1.00  0.00     0.118 C 
ATOM     66  C   UNL A   1      38.839  22.717  26.236  1.00  0.00     0.019 C 
ATOM     67  C   UNL A   1      37.861  20.991  24.704  1.00  0.00     0.133 C 
ATOM     68  C   UNL A   1      37.569  23.535  26.123  1.00  0.00     0.022 C 
ATOM     69  N   UNL A   1      36.793  21.969  24.486  1.00  0.00    -0.356 N 
ATOM     70  C   UNL A   1      37.054  23.381  24.712  1.00  0.00     0.118 C 
BRANCH  69  71
ATOM     71  C   UNL A   1      35.463  21.635  24.672  1.00  0.00     0.133 A 
ATOM     72  C   UNL A   1      35.169  20.295  24.636  1.00  0.00     0.077 A 
ATOM     73  N   UNL A   1      34.516  22.563  24.824  1.00  0.00    -0.211 NA
ATOM     74  C   UNL A   1      33.867  19.905  24.834  1.00  0.00     0.095 A 
ATOM     75  C   UNL A   1      33.251  22.105  24.940  1.00  0.00     0.165 A 
ATOM     76  N   UNL A   1      32.875  20.807  24.965  1.00  0.00    -0.226 NA
BRANCH  74  77
ATOM     77  C   UNL A   1      33.607  18.468  25.002  1.00  0.00     0.089 A 
ATOM     78  C   UNL A   1      34.363  17.542  24.267  1.00  0.00     0.030 A 
ATOM     79  N   UNL A   1      32.532  18.090  25.734  1.00  0.00    -0.255 NA
ATOM     80  C   UNL A   1      33.998  16.203  24.258  1.00  0.00     0.004 A 
ATOM     81  C   UNL A   1      32.214  16.775  25.728  1.00  0.00     0.112 A 
ATOM     82  C   UNL A   1      32.899  15.809  25.004  1.00  0.00     0.020 A 
ENDBRANCH  74  77
BRANCH  75  83
ATOM     83  C   UNL A   1      32.210  23.115  25.070  1.00  0.00     0.055 A 
ATOM     84  C   UNL A   1      31.688  23.793  23.953  1.00  0.00     0.015 A 
ATOM     85  C   UNL A   1      31.724  23.463  26.333  1.00  0.00     0.134 A 
ATOM     86  C   UNL A   1      30.707  24.781  24.108  1.00  0.00     0.001 A 
ATOM     87  C   UNL A   1      30.753  24.449  26.496  1.00  0.00     0.040 A 
ATOM     88  F   UNL A   1      32.212  22.865  27.432  1.00  0.00    -0.206 F 
ATOM     89  C   UNL A   1      30.240  25.109  25.381  1.00  0.00     0.003 A 
ENDBRANCH  75  83
ENDBRANCH  69  71
ENDBRANCH  63  65
ENDBRANCH  62  63
ENDBRANCH  61  62
ENDBRANCH   1  61
TORSDOF 14
ENDMDL
