MODEL 1
REMARK VINA RESULT:     -10.6      0.000      0.000
REMARK SMILES C[C@@H]1c2ccccc2-c2ccc(C(=O)OCCOC(=O)c3ccc(-c4c5nc(c(-c6c(F)cccc6F)c6ccc([nH]6)c(-c6c(F)cccc6F)c6nc(c(-c7c(F)cccc7F)c7ccc4[nH]7)C=C6)C=C5)cc3)cc21
REMARK SMILES IDX 17 1 16 2 15 3 13 4 14 5 12 6 1 7 2 8 3 9 76 10 4 11 8 12
REMARK SMILES IDX 9 13 75 14 5 15 7 16 10 17 6 18 11 19 18 20 19 21 20 22
REMARK SMILES IDX 21 23 22 24 74 25 23 26 73 27 24 28 25 29 26 30 67 31 27 32
REMARK SMILES IDX 72 33 66 34 68 35 28 36 71 37 65 38 64 39 29 41 55 42 38 43
REMARK SMILES IDX 54 44 39 45 42 46 53 47 69 48 40 49 41 50 52 52 70 53 43 54
REMARK SMILES IDX 30 55 31 56 36 57 32 58 33 59 35 60 37 61 34 62 56 63 57 64
REMARK SMILES IDX 62 65 58 66 59 67 61 68 63 69 60 70 44 71 45 72 50 73 46 74
REMARK SMILES IDX 47 75 49 76 51 77 48 78
REMARK H PARENT 68 40 42 51
REMARK Flexibility Score: inf
ROOT
ATOM      1  C   UNL A   1      33.463  35.796  30.292  1.00  0.00     0.275 C 
ENDROOT
BRANCH   1   2
ATOM      2  C   UNL A   1      33.578  35.619  31.806  1.00  0.00     0.275 C 
BRANCH   2   3
ATOM      3  O   UNL A   1      34.652  34.712  32.130  1.00  0.00    -0.458 OA
BRANCH   3   4
ATOM      4  C   UNL A   1      34.319  33.694  32.962  1.00  0.00     0.338 C 
ATOM      5  O   UNL A   1      33.193  33.290  33.205  1.00  0.00    -0.246 OA
BRANCH   4   6
ATOM      6  C   UNL A   1      35.533  33.029  33.493  1.00  0.00     0.060 A 
ATOM      7  C   UNL A   1      37.424  28.924  32.801  1.00  0.00     0.018 C 
ATOM      8  C   UNL A   1      38.143  30.264  32.867  1.00  0.00     0.047 C 
ATOM      9  C   UNL A   1      39.301  30.265  33.858  1.00  0.00    -0.033 A 
ATOM     10  C   UNL A   1      37.266  31.387  33.408  1.00  0.00    -0.032 A 
ATOM     11  C   UNL A   1      40.444  29.483  33.856  1.00  0.00     0.005 A 
ATOM     12  C   UNL A   1      39.099  31.256  34.842  1.00  0.00    -0.014 A 
ATOM     13  C   UNL A   1      37.871  31.960  34.552  1.00  0.00    -0.014 A 
ATOM     14  C   UNL A   1      36.085  31.897  32.881  1.00  0.00     0.020 A 
ATOM     15  C   UNL A   1      41.384  29.686  34.870  1.00  0.00     0.000 A 
ATOM     16  C   UNL A   1      40.022  31.447  35.857  1.00  0.00     0.009 A 
ATOM     17  C   UNL A   1      37.317  33.065  35.169  1.00  0.00     0.010 A 
ATOM     18  C   UNL A   1      41.171  30.653  35.867  1.00  0.00     0.001 A 
ATOM     19  C   UNL A   1      36.162  33.615  34.614  1.00  0.00     0.016 A 
ENDBRANCH   4   6
ENDBRANCH   3   4
ENDBRANCH   2   3
ENDBRANCH   1   2
BRANCH   1  20
ATOM     20  O   UNL A   1      32.548  34.819  29.766  1.00  0.00    -0.458 OA
BRANCH  20  21
ATOM     21  C   UNL A   1      32.938  34.195  28.631  1.00  0.00     0.338 C 
ATOM     22  O   UNL A   1      32.312  34.099  27.589  1.00  0.00    -0.246 OA
BRANCH  21  23
ATOM     23  C   UNL A   1      34.278  33.602  28.824  1.00  0.00     0.060 A 
ATOM     24  C   UNL A   1      34.433  32.414  29.538  1.00  0.00     0.016 A 
ATOM     25  C   UNL A   1      35.403  34.287  28.370  1.00  0.00     0.016 A 
ATOM     26  C   UNL A   1      35.707  31.951  29.873  1.00  0.00     0.010 A 
ATOM     27  C   UNL A   1      36.679  33.774  28.629  1.00  0.00     0.010 A 
ATOM     28  C   UNL A   1      36.850  32.621  29.417  1.00  0.00    -0.014 A 
BRANCH  28  29
ATOM     29  C   UNL A   1      38.219  32.173  29.807  1.00  0.00     0.031 A 
ATOM     30  C   UNL A   1      38.765  30.876  29.266  1.00  0.00     0.074 A 
ATOM     31  C   UNL A   1      38.989  32.904  30.638  1.00  0.00     0.049 A 
ATOM     32  N   UNL A   1      39.812  30.187  29.652  1.00  0.00    -0.248 NA
ATOM     33  C   UNL A   1      38.023  30.261  28.153  1.00  0.00     0.031 C 
ATOM     34  C   UNL A   1      38.634  34.205  31.207  1.00  0.00     0.029 A 
ATOM     35  N   UNL A   1      40.241  32.653  31.148  1.00  0.00    -0.354 N 
ATOM     36  C   UNL A   1      39.806  29.028  28.886  1.00  0.00     0.074 A 
ATOM     37  C   UNL A   1      38.663  29.110  28.004  1.00  0.00     0.031 C 
ATOM     38  C   UNL A   1      39.655  34.653  31.953  1.00  0.00     0.029 A 
ATOM     39  C   UNL A   1      40.701  33.637  31.989  1.00  0.00     0.049 A 
ATOM     40  H   UNL A   1      40.758  31.843  30.930  1.00  0.00     0.167 HD
ATOM     41  C   UNL A   1      40.672  27.987  28.920  1.00  0.00     0.037 A 
ATOM     42  C   UNL A   1      41.818  33.699  32.740  1.00  0.00     0.037 A 
ATOM     43  C   UNL A   1      41.856  27.936  29.737  1.00  0.00     0.049 A 
ATOM     44  C   UNL A   1      42.768  32.537  32.761  1.00  0.00     0.074 A 
ATOM     45  C   UNL A   1      42.802  26.929  29.827  1.00  0.00     0.029 A 
ATOM     46  N   UNL A   1      42.272  28.951  30.584  1.00  0.00    -0.354 N 
ATOM     47  N   UNL A   1      42.704  31.406  32.103  1.00  0.00    -0.248 NA
ATOM     48  C   UNL A   1      43.931  32.647  33.654  1.00  0.00     0.031 C 
ATOM     49  C   UNL A   1      43.783  27.327  30.742  1.00  0.00     0.029 A 
ATOM     50  C   UNL A   1      43.461  28.593  31.200  1.00  0.00     0.049 A 
ATOM     51  H   UNL A   1      41.794  29.799  30.727  1.00  0.00     0.167 HD
ATOM     52  C   UNL A   1      43.811  30.671  32.502  1.00  0.00     0.074 A 
ATOM     53  C   UNL A   1      44.547  31.493  33.441  1.00  0.00     0.031 C 
ATOM     54  C   UNL A   1      44.180  29.421  32.131  1.00  0.00     0.037 A 
BRANCH  41  55
ATOM     55  C   UNL A   1      40.352  26.795  28.070  1.00  0.00     0.057 A 
ATOM     56  C   UNL A   1      40.917  26.608  26.803  1.00  0.00     0.134 A 
ATOM     57  C   UNL A   1      39.486  25.801  28.545  1.00  0.00     0.134 A 
ATOM     58  F   UNL A   1      41.741  27.530  26.283  1.00  0.00    -0.206 F 
ATOM     59  C   UNL A   1      40.616  25.484  26.031  1.00  0.00     0.040 A 
ATOM     60  C   UNL A   1      39.195  24.663  27.793  1.00  0.00     0.040 A 
ATOM     61  F   UNL A   1      38.916  25.918  29.755  1.00  0.00    -0.206 F 
ATOM     62  C   UNL A   1      39.757  24.505  26.529  1.00  0.00     0.006 A 
ENDBRANCH  41  55
BRANCH  42  63
ATOM     63  C   UNL A   1      42.076  34.898  33.577  1.00  0.00     0.057 A 
ATOM     64  C   UNL A   1      41.441  35.064  34.812  1.00  0.00     0.134 A 
ATOM     65  C   UNL A   1      42.965  35.898  33.166  1.00  0.00     0.134 A 
ATOM     66  F   UNL A   1      40.558  34.153  35.246  1.00  0.00    -0.206 F 
ATOM     67  C   UNL A   1      41.681  36.185  35.610  1.00  0.00     0.040 A 
ATOM     68  C   UNL A   1      43.231  37.011  33.963  1.00  0.00     0.040 A 
ATOM     69  F   UNL A   1      43.601  35.795  31.989  1.00  0.00    -0.206 F 
ATOM     70  C   UNL A   1      42.585  37.157  35.189  1.00  0.00     0.006 A 
ENDBRANCH  42  63
BRANCH  54  71
ATOM     71  C   UNL A   1      45.439  28.876  32.732  1.00  0.00     0.057 A 
ATOM     72  C   UNL A   1      46.684  29.070  32.122  1.00  0.00     0.134 A 
ATOM     73  C   UNL A   1      45.410  28.176  33.945  1.00  0.00     0.134 A 
ATOM     74  F   UNL A   1      46.774  29.721  30.952  1.00  0.00    -0.206 F 
ATOM     75  C   UNL A   1      47.857  28.571  32.690  1.00  0.00     0.040 A 
ATOM     76  C   UNL A   1      46.579  27.687  34.531  1.00  0.00     0.040 A 
ATOM     77  F   UNL A   1      44.248  27.963  34.580  1.00  0.00    -0.206 F 
ATOM     78  C   UNL A   1      47.806  27.881  33.900  1.00  0.00     0.006 A 
ENDBRANCH  54  71
ENDBRANCH  28  29
ENDBRANCH  21  23
ENDBRANCH  20  21
ENDBRANCH   1  20
TORSDOF 11
ENDMDL
MODEL 2
REMARK VINA RESULT:     -10.0      5.390     10.697
REMARK SMILES C[C@@H]1c2ccccc2-c2ccc(C(=O)OCCOC(=O)c3ccc(-c4c5nc(c(-c6c(F)cccc6F)c6ccc([nH]6)c(-c6c(F)cccc6F)c6nc(c(-c7c(F)cccc7F)c7ccc4[nH]7)C=C6)C=C5)cc3)cc21
REMARK SMILES IDX 17 1 16 2 15 3 13 4 14 5 12 6 1 7 2 8 3 9 76 10 4 11 8 12
REMARK SMILES IDX 9 13 75 14 5 15 7 16 10 17 6 18 11 19 18 20 19 21 20 22
REMARK SMILES IDX 21 23 22 24 74 25 23 26 73 27 24 28 25 29 26 30 67 31 27 32
REMARK SMILES IDX 72 33 66 34 68 35 28 36 71 37 65 38 64 39 29 41 55 42 38 43
REMARK SMILES IDX 54 44 39 45 42 46 53 47 69 48 40 49 41 50 52 52 70 53 43 54
REMARK SMILES IDX 30 55 31 56 36 57 32 58 33 59 35 60 37 61 34 62 56 63 57 64
REMARK SMILES IDX 62 65 58 66 59 67 61 68 63 69 60 70 44 71 45 72 50 73 46 74
REMARK SMILES IDX 47 75 49 76 51 77 48 78
REMARK H PARENT 68 40 42 51
REMARK Flexibility Score: inf
ROOT
ATOM      1  C   UNL A   1      43.239  19.527  24.766  1.00  0.00     0.275 C 
ENDROOT
BRANCH   1   2
ATOM      2  C   UNL A   1      44.548  20.039  25.366  1.00  0.00     0.275 C 
BRANCH   2   3
ATOM      3  O   UNL A   1      44.504  21.470  25.535  1.00  0.00    -0.458 OA
BRANCH   3   4
ATOM      4  C   UNL A   1      44.721  22.194  24.408  1.00  0.00     0.338 C 
ATOM      5  O   UNL A   1      44.621  21.799  23.258  1.00  0.00    -0.246 OA
BRANCH   4   6
ATOM      6  C   UNL A   1      45.011  23.610  24.740  1.00  0.00     0.060 A 
ATOM      7  C   UNL A   1      42.447  27.393  24.869  1.00  0.00     0.018 C 
ATOM      8  C   UNL A   1      43.484  26.954  25.894  1.00  0.00     0.047 C 
ATOM      9  C   UNL A   1      44.513  28.036  26.196  1.00  0.00    -0.033 A 
ATOM     10  C   UNL A   1      44.365  25.812  25.401  1.00  0.00    -0.032 A 
ATOM     11  C   UNL A   1      44.311  29.303  26.722  1.00  0.00     0.005 A 
ATOM     12  C   UNL A   1      45.811  27.570  25.900  1.00  0.00    -0.014 A 
ATOM     13  C   UNL A   1      45.724  26.203  25.441  1.00  0.00    -0.014 A 
ATOM     14  C   UNL A   1      43.992  24.526  25.030  1.00  0.00     0.020 A 
ATOM     15  C   UNL A   1      45.428  30.115  26.932  1.00  0.00     0.000 A 
ATOM     16  C   UNL A   1      46.918  28.382  26.093  1.00  0.00     0.009 A 
ATOM     17  C   UNL A   1      46.730  25.306  25.136  1.00  0.00     0.010 A 
ATOM     18  C   UNL A   1      46.718  29.663  26.612  1.00  0.00     0.001 A 
ATOM     19  C   UNL A   1      46.367  23.999  24.816  1.00  0.00     0.016 A 
ENDBRANCH   4   6
ENDBRANCH   3   4
ENDBRANCH   2   3
ENDBRANCH   1   2
BRANCH   1  20
ATOM     20  O   UNL A   1      42.414  18.985  25.811  1.00  0.00    -0.458 OA
BRANCH  20  21
ATOM     21  C   UNL A   1      41.219  19.590  25.995  1.00  0.00     0.338 C 
ATOM     22  O   UNL A   1      40.121  19.170  25.667  1.00  0.00    -0.246 OA
BRANCH  21  23
ATOM     23  C   UNL A   1      41.417  20.894  26.662  1.00  0.00     0.060 A 
ATOM     24  C   UNL A   1      41.174  22.085  25.980  1.00  0.00     0.016 A 
ATOM     25  C   UNL A   1      41.942  20.931  27.952  1.00  0.00     0.016 A 
ATOM     26  C   UNL A   1      41.531  23.310  26.546  1.00  0.00     0.010 A 
ATOM     27  C   UNL A   1      42.215  22.164  28.555  1.00  0.00     0.010 A 
ATOM     28  C   UNL A   1      42.051  23.369  27.846  1.00  0.00    -0.014 A 
BRANCH  28  29
ATOM     29  C   UNL A   1      42.487  24.662  28.450  1.00  0.00     0.031 A 
ATOM     30  C   UNL A   1      41.473  25.748  28.707  1.00  0.00     0.074 A 
ATOM     31  C   UNL A   1      43.776  24.887  28.776  1.00  0.00     0.049 A 
ATOM     32  N   UNL A   1      41.663  27.013  28.994  1.00  0.00    -0.248 NA
ATOM     33  C   UNL A   1      40.056  25.364  28.609  1.00  0.00     0.031 C 
ATOM     34  C   UNL A   1      44.870  23.926  28.642  1.00  0.00     0.029 A 
ATOM     35  N   UNL A   1      44.382  26.007  29.293  1.00  0.00    -0.354 N 
ATOM     36  C   UNL A   1      40.398  27.587  29.032  1.00  0.00     0.074 A 
ATOM     37  C   UNL A   1      39.447  26.533  28.753  1.00  0.00     0.031 C 
ATOM     38  C   UNL A   1      46.003  24.480  29.100  1.00  0.00     0.029 A 
ATOM     39  C   UNL A   1      45.736  25.864  29.478  1.00  0.00     0.049 A 
ATOM     40  H   UNL A   1      43.893  26.834  29.510  1.00  0.00     0.167 HD
ATOM     41  C   UNL A   1      40.059  28.877  29.272  1.00  0.00     0.037 A 
ATOM     42  C   UNL A   1      46.669  26.755  29.866  1.00  0.00     0.037 A 
ATOM     43  C   UNL A   1      40.994  29.912  29.629  1.00  0.00     0.049 A 
ATOM     44  C   UNL A   1      46.275  28.179  30.132  1.00  0.00     0.074 A 
ATOM     45  C   UNL A   1      40.741  31.245  29.906  1.00  0.00     0.029 A 
ATOM     46  N   UNL A   1      42.357  29.722  29.790  1.00  0.00    -0.354 N 
ATOM     47  N   UNL A   1      45.088  28.732  30.074  1.00  0.00    -0.248 NA
ATOM     48  C   UNL A   1      47.355  29.112  30.486  1.00  0.00     0.031 C 
ATOM     49  C   UNL A   1      41.956  31.867  30.217  1.00  0.00     0.029 A 
ATOM     50  C   UNL A   1      42.958  30.913  30.161  1.00  0.00     0.049 A 
ATOM     51  H   UNL A   1      42.827  28.867  29.659  1.00  0.00     0.167 HD
ATOM     52  C   UNL A   1      45.278  30.072  30.381  1.00  0.00     0.074 A 
ATOM     53  C   UNL A   1      46.690  30.247  30.650  1.00  0.00     0.031 C 
ATOM     54  C   UNL A   1      44.364  31.072  30.425  1.00  0.00     0.037 A 
BRANCH  41  55
ATOM     55  C   UNL A   1      38.616  29.252  29.120  1.00  0.00     0.057 A 
ATOM     56  C   UNL A   1      37.733  29.276  30.206  1.00  0.00     0.134 A 
ATOM     57  C   UNL A   1      38.113  29.626  27.867  1.00  0.00     0.134 A 
ATOM     58  F   UNL A   1      38.149  28.912  31.429  1.00  0.00    -0.206 F 
ATOM     59  C   UNL A   1      36.395  29.640  30.047  1.00  0.00     0.040 A 
ATOM     60  C   UNL A   1      36.783  30.013  27.700  1.00  0.00     0.040 A 
ATOM     61  F   UNL A   1      38.910  29.629  26.787  1.00  0.00    -0.206 F 
ATOM     62  C   UNL A   1      35.918  30.017  28.791  1.00  0.00     0.006 A 
ENDBRANCH  41  55
BRANCH  42  63
ATOM     63  C   UNL A   1      48.088  26.333  29.982  1.00  0.00     0.057 A 
ATOM     64  C   UNL A   1      48.622  25.938  31.213  1.00  0.00     0.134 A 
ATOM     65  C   UNL A   1      48.936  26.310  28.869  1.00  0.00     0.134 A 
ATOM     66  F   UNL A   1      47.865  25.966  32.319  1.00  0.00    -0.206 F 
ATOM     67  C   UNL A   1      49.953  25.534  31.333  1.00  0.00     0.040 A 
ATOM     68  C   UNL A   1      50.262  25.886  28.971  1.00  0.00     0.040 A 
ATOM     69  F   UNL A   1      48.481  26.681  27.663  1.00  0.00    -0.206 F 
ATOM     70  C   UNL A   1      50.774  25.499  30.207  1.00  0.00     0.006 A 
ENDBRANCH  42  63
BRANCH  54  71
ATOM     71  C   UNL A   1      44.863  32.436  30.790  1.00  0.00     0.057 A 
ATOM     72  C   UNL A   1      44.956  32.847  32.125  1.00  0.00     0.134 A 
ATOM     73  C   UNL A   1      45.281  33.334  29.801  1.00  0.00     0.134 A 
ATOM     74  F   UNL A   1      44.558  32.035  33.116  1.00  0.00    -0.206 F 
ATOM     75  C   UNL A   1      45.432  34.115  32.463  1.00  0.00     0.040 A 
ATOM     76  C   UNL A   1      45.775  34.598  30.128  1.00  0.00     0.040 A 
ATOM     77  F   UNL A   1      45.221  32.996  28.505  1.00  0.00    -0.206 F 
ATOM     78  C   UNL A   1      45.848  34.992  31.463  1.00  0.00     0.006 A 
ENDBRANCH  54  71
ENDBRANCH  28  29
ENDBRANCH  21  23
ENDBRANCH  20  21
ENDBRANCH   1  20
TORSDOF 11
ENDMDL
MODEL 3
REMARK VINA RESULT:      -9.6      5.345     10.687
REMARK SMILES C[C@@H]1c2ccccc2-c2ccc(C(=O)OCCOC(=O)c3ccc(-c4c5nc(c(-c6c(F)cccc6F)c6ccc([nH]6)c(-c6c(F)cccc6F)c6nc(c(-c7c(F)cccc7F)c7ccc4[nH]7)C=C6)C=C5)cc3)cc21
REMARK SMILES IDX 17 1 16 2 15 3 13 4 14 5 12 6 1 7 2 8 3 9 76 10 4 11 8 12
REMARK SMILES IDX 9 13 75 14 5 15 7 16 10 17 6 18 11 19 18 20 19 21 20 22
REMARK SMILES IDX 21 23 22 24 74 25 23 26 73 27 24 28 25 29 26 30 67 31 27 32
REMARK SMILES IDX 72 33 66 34 68 35 28 36 71 37 65 38 64 39 29 41 55 42 38 43
REMARK SMILES IDX 54 44 39 45 42 46 53 47 69 48 40 49 41 50 52 52 70 53 43 54
REMARK SMILES IDX 30 55 31 56 36 57 32 58 33 59 35 60 37 61 34 62 56 63 57 64
REMARK SMILES IDX 62 65 58 66 59 67 61 68 63 69 60 70 44 71 45 72 50 73 46 74
REMARK SMILES IDX 47 75 49 76 51 77 48 78
REMARK H PARENT 68 40 42 51
REMARK Flexibility Score: inf
ROOT
ATOM      1  C   UNL A   1      43.882  19.210  24.662  1.00  0.00     0.275 C 
ENDROOT
BRANCH   1   2
ATOM      2  C   UNL A   1      45.145  20.054  24.829  1.00  0.00     0.275 C 
BRANCH   2   3
ATOM      3  O   UNL A   1      44.805  21.416  25.160  1.00  0.00    -0.458 OA
BRANCH   3   4
ATOM      4  C   UNL A   1      44.761  22.274  24.110  1.00  0.00     0.338 C 
ATOM      5  O   UNL A   1      44.423  22.010  22.968  1.00  0.00    -0.246 OA
BRANCH   4   6
ATOM      6  C   UNL A   1      45.090  23.653  24.544  1.00  0.00     0.060 A 
ATOM      7  C   UNL A   1      42.637  27.491  24.935  1.00  0.00     0.018 C 
ATOM      8  C   UNL A   1      43.654  26.949  25.929  1.00  0.00     0.047 C 
ATOM      9  C   UNL A   1      44.712  27.977  26.312  1.00  0.00    -0.033 A 
ATOM     10  C   UNL A   1      44.505  25.820  25.359  1.00  0.00    -0.032 A 
ATOM     11  C   UNL A   1      44.544  29.208  26.927  1.00  0.00     0.005 A 
ATOM     12  C   UNL A   1      45.999  27.495  25.988  1.00  0.00    -0.014 A 
ATOM     13  C   UNL A   1      45.875  26.168  25.432  1.00  0.00    -0.014 A 
ATOM     14  C   UNL A   1      44.097  24.575  24.896  1.00  0.00     0.020 A 
ATOM     15  C   UNL A   1      45.683  29.970  27.199  1.00  0.00     0.000 A 
ATOM     16  C   UNL A   1      47.127  28.258  26.243  1.00  0.00     0.009 A 
ATOM     17  C   UNL A   1      46.856  25.266  25.068  1.00  0.00     0.010 A 
ATOM     18  C   UNL A   1      46.962  29.504  26.853  1.00  0.00     0.001 A 
ATOM     19  C   UNL A   1      46.456  23.996  24.653  1.00  0.00     0.016 A 
ENDBRANCH   4   6
ENDBRANCH   3   4
ENDBRANCH   2   3
ENDBRANCH   1   2
BRANCH   1  20
ATOM     20  O   UNL A   1      43.268  19.008  25.947  1.00  0.00    -0.458 OA
BRANCH  20  21
ATOM     21  C   UNL A   1      41.999  19.457  26.072  1.00  0.00     0.338 C 
ATOM     22  O   UNL A   1      40.977  18.884  25.733  1.00  0.00    -0.246 OA
BRANCH  21  23
ATOM     23  C   UNL A   1      42.003  20.800  26.688  1.00  0.00     0.060 A 
ATOM     24  C   UNL A   1      41.575  21.914  25.967  1.00  0.00     0.016 A 
ATOM     25  C   UNL A   1      42.531  20.967  27.968  1.00  0.00     0.016 A 
ATOM     26  C   UNL A   1      41.747  23.200  26.482  1.00  0.00     0.010 A 
ATOM     27  C   UNL A   1      42.619  22.249  28.520  1.00  0.00     0.010 A 
ATOM     28  C   UNL A   1      42.266  23.387  27.771  1.00  0.00    -0.014 A 
BRANCH  28  29
ATOM     29  C   UNL A   1      42.507  24.753  28.320  1.00  0.00     0.031 A 
ATOM     30  C   UNL A   1      43.886  25.138  28.793  1.00  0.00     0.074 A 
ATOM     31  C   UNL A   1      41.515  25.662  28.406  1.00  0.00     0.049 A 
ATOM     32  N   UNL A   1      44.263  26.166  29.513  1.00  0.00    -0.248 NA
ATOM     33  C   UNL A   1      44.987  24.234  28.421  1.00  0.00     0.031 C 
ATOM     34  C   UNL A   1      40.140  25.470  27.945  1.00  0.00     0.029 A 
ATOM     35  N   UNL A   1      41.517  26.940  28.913  1.00  0.00    -0.354 N 
ATOM     36  C   UNL A   1      45.622  25.990  29.744  1.00  0.00     0.074 A 
ATOM     37  C   UNL A   1      46.009  24.766  29.077  1.00  0.00     0.031 C 
ATOM     38  C   UNL A   1      39.443  26.597  28.155  1.00  0.00     0.029 A 
ATOM     39  C   UNL A   1      40.294  27.562  28.843  1.00  0.00     0.049 A 
ATOM     40  H   UNL A   1      42.320  27.369  29.290  1.00  0.00     0.167 HD
ATOM     41  C   UNL A   1      46.469  26.774  30.453  1.00  0.00     0.037 A 
ATOM     42  C   UNL A   1      39.887  28.757  29.316  1.00  0.00     0.037 A 
ATOM     43  C   UNL A   1      46.109  28.034  31.050  1.00  0.00     0.049 A 
ATOM     44  C   UNL A   1      40.843  29.614  30.095  1.00  0.00     0.074 A 
ATOM     45  C   UNL A   1      46.905  28.906  31.774  1.00  0.00     0.029 A 
ATOM     46  N   UNL A   1      44.854  28.615  30.964  1.00  0.00    -0.354 N 
ATOM     47  N   UNL A   1      42.100  29.393  30.387  1.00  0.00    -0.248 NA
ATOM     48  C   UNL A   1      40.312  30.873  30.638  1.00  0.00     0.031 C 
ATOM     49  C   UNL A   1      46.126  30.009  32.142  1.00  0.00     0.029 A 
ATOM     50  C   UNL A   1      44.854  29.834  31.622  1.00  0.00     0.049 A 
ATOM     51  H   UNL A   1      44.079  28.220  30.504  1.00  0.00     0.167 HD
ATOM     52  C   UNL A   1      42.510  30.480  31.147  1.00  0.00     0.074 A 
ATOM     53  C   UNL A   1      41.375  31.374  31.251  1.00  0.00     0.031 C 
ATOM     54  C   UNL A   1      43.717  30.711  31.718  1.00  0.00     0.037 A 
BRANCH  41  55
ATOM     55  C   UNL A   1      47.868  26.274  30.654  1.00  0.00     0.057 A 
ATOM     56  C   UNL A   1      48.268  25.626  31.827  1.00  0.00     0.134 A 
ATOM     57  C   UNL A   1      48.821  26.420  29.637  1.00  0.00     0.134 A 
ATOM     58  F   UNL A   1      47.407  25.470  32.845  1.00  0.00    -0.206 F 
ATOM     59  C   UNL A   1      49.572  25.156  31.991  1.00  0.00     0.040 A 
ATOM     60  C   UNL A   1      50.122  25.935  29.780  1.00  0.00     0.040 A 
ATOM     61  F   UNL A   1      48.499  27.028  28.484  1.00  0.00    -0.206 F 
ATOM     62  C   UNL A   1      50.502  25.304  30.962  1.00  0.00     0.006 A 
ENDBRANCH  41  55
BRANCH  42  63
ATOM     63  C   UNL A   1      38.485  29.194  29.103  1.00  0.00     0.057 A 
ATOM     64  C   UNL A   1      37.547  29.136  30.139  1.00  0.00     0.134 A 
ATOM     65  C   UNL A   1      38.054  29.685  27.865  1.00  0.00     0.134 A 
ATOM     66  F   UNL A   1      37.896  28.649  31.339  1.00  0.00    -0.206 F 
ATOM     67  C   UNL A   1      36.227  29.550  29.951  1.00  0.00     0.040 A 
ATOM     68  C   UNL A   1      36.744  30.124  27.670  1.00  0.00     0.040 A 
ATOM     69  F   UNL A   1      38.907  29.762  26.833  1.00  0.00    -0.206 F 
ATOM     70  C   UNL A   1      35.826  30.054  28.715  1.00  0.00     0.006 A 
ENDBRANCH  42  63
BRANCH  54  71
ATOM     71  C   UNL A   1      43.873  31.985  32.490  1.00  0.00     0.057 A 
ATOM     72  C   UNL A   1      44.265  33.175  31.868  1.00  0.00     0.134 A 
ATOM     73  C   UNL A   1      43.600  32.028  33.863  1.00  0.00     0.134 A 
ATOM     74  F   UNL A   1      44.553  33.194  30.557  1.00  0.00    -0.206 F 
ATOM     75  C   UNL A   1      44.398  34.363  32.588  1.00  0.00     0.040 A 
ATOM     76  C   UNL A   1      43.713  33.213  34.591  1.00  0.00     0.040 A 
ATOM     77  F   UNL A   1      43.215  30.921  34.515  1.00  0.00    -0.206 F 
ATOM     78  C   UNL A   1      44.117  34.384  33.954  1.00  0.00     0.006 A 
ENDBRANCH  54  71
ENDBRANCH  28  29
ENDBRANCH  21  23
ENDBRANCH  20  21
ENDBRANCH   1  20
TORSDOF 11
ENDMDL
