MODEL 1
REMARK VINA RESULT:     -11.7      0.000      0.000
REMARK SMILES O=C(CCn1c(N2CC[NH2+]CC2)nc2ccccc2c1=O)OCCOC(=O)c1ccc(-c2c3nc(c(-c4c(F)cccc4F)c4ccc([nH]4)c(-c4c(F)cccc4F)c4nc(c(-c5c(F)cccc5F)c5ccc2[nH]5)C=C4)C=C3)cc1
REMARK SMILES IDX 23 1 22 2 2 3 1 4 3 5 4 6 5 7 6 8 20 9 13 10 19 11 21 12
REMARK SMILES IDX 14 13 18 14 15 15 17 16 16 17 7 18 8 19 12 20 9 21 11 22
REMARK SMILES IDX 10 23 24 26 25 27 26 28 27 29 28 30 29 31 81 32 30 33 80 34
REMARK SMILES IDX 31 35 32 36 33 37 74 38 34 39 79 40 73 41 75 42 35 43 78 44
REMARK SMILES IDX 72 45 71 46 36 48 62 49 45 50 61 51 46 52 49 53 60 54 76 55
REMARK SMILES IDX 47 56 48 57 59 59 77 60 50 61 37 62 38 63 43 64 39 65 40 66
REMARK SMILES IDX 42 67 44 68 41 69 63 70 64 71 69 72 65 73 66 74 68 75 70 76
REMARK SMILES IDX 67 77 51 78 52 79 57 80 53 81 54 82 56 83 58 84 55 85
REMARK H PARENT 10 24 10 25 75 47 49 58
REMARK Flexibility Score: inf
ROOT
ATOM      1  C   UNL A   1      31.689  31.094  26.241  1.00  0.00     0.274 C 
ENDROOT
BRANCH   1   2
ATOM      2  O   UNL A   1      31.693  30.009  27.188  1.00  0.00    -0.462 OA
BRANCH   2   3
ATOM      3  C   UNL A   1      32.446  28.898  26.957  1.00  0.00     0.307 C 
ATOM      4  O   UNL A   1      33.534  28.977  26.395  1.00  0.00    -0.252 OA
BRANCH   3   5
ATOM      5  C   UNL A   1      31.793  27.563  27.225  1.00  0.00     0.145 C 
BRANCH   5   6
ATOM      6  C   UNL A   1      31.301  26.814  25.996  1.00  0.00     0.141 C 
BRANCH   6   7
ATOM      7  N   UNL A   1      32.110  25.649  25.660  1.00  0.00    -0.278 N 
ATOM      8  C   UNL A   1      32.893  25.589  24.513  1.00  0.00     0.209 A 
ATOM      9  C   UNL A   1      31.938  24.522  26.457  1.00  0.00     0.262 A 
ATOM     10  N   UNL A   1      33.727  24.610  24.306  1.00  0.00    -0.214 NA
ATOM     11  C   UNL A   1      32.982  23.502  26.350  1.00  0.00     0.066 A 
ATOM     12  O   UNL A   1      31.033  24.381  27.276  1.00  0.00    -0.269 OA
ATOM     13  C   UNL A   1      33.877  23.627  25.296  1.00  0.00     0.080 A 
ATOM     14  C   UNL A   1      33.140  22.536  27.352  1.00  0.00     0.016 A 
ATOM     15  C   UNL A   1      34.956  22.744  25.245  1.00  0.00     0.029 A 
ATOM     16  C   UNL A   1      34.232  21.677  27.301  1.00  0.00     0.001 A 
ATOM     17  C   UNL A   1      35.139  21.781  26.246  1.00  0.00     0.002 A 
BRANCH   8  18
ATOM     18  N   UNL A   1      32.687  26.527  23.531  1.00  0.00    -0.331 N 
ATOM     19  C   UNL A   1      31.659  26.303  22.517  1.00  0.00     0.181 C 
ATOM     20  C   UNL A   1      33.576  27.655  23.246  1.00  0.00     0.181 C 
ATOM     21  C   UNL A   1      30.815  27.586  22.391  1.00  0.00     0.282 C 
ATOM     22  C   UNL A   1      32.742  28.941  22.970  1.00  0.00     0.282 C 
ATOM     23  N   UNL A   1      31.619  28.771  22.017  1.00  0.00    -0.343 N 
ATOM     24  H   UNL A   1      31.028  29.602  22.039  1.00  0.00     0.346 HD
ATOM     25  H   UNL A   1      31.995  28.639  21.078  1.00  0.00     0.346 HD
ENDBRANCH   8  18
ENDBRANCH   6   7
ENDBRANCH   5   6
ENDBRANCH   3   5
ENDBRANCH   2   3
ENDBRANCH   1   2
BRANCH   1  26
ATOM     26  C   UNL A   1      31.571  32.486  26.873  1.00  0.00     0.275 C 
BRANCH  26  27
ATOM     27  O   UNL A   1      32.803  33.216  26.782  1.00  0.00    -0.458 OA
BRANCH  27  28
ATOM     28  C   UNL A   1      33.183  33.837  27.926  1.00  0.00     0.338 C 
ATOM     29  O   UNL A   1      32.543  34.674  28.543  1.00  0.00    -0.246 OA
BRANCH  28  30
ATOM     30  C   UNL A   1      34.413  33.195  28.454  1.00  0.00     0.060 A 
ATOM     31  C   UNL A   1      35.633  33.873  28.554  1.00  0.00     0.016 A 
ATOM     32  C   UNL A   1      34.343  31.835  28.788  1.00  0.00     0.016 A 
ATOM     33  C   UNL A   1      36.768  33.198  29.018  1.00  0.00     0.010 A 
ATOM     34  C   UNL A   1      35.475  31.165  29.259  1.00  0.00     0.010 A 
ATOM     35  C   UNL A   1      36.691  31.847  29.401  1.00  0.00    -0.014 A 
BRANCH  35  36
ATOM     36  C   UNL A   1      37.822  31.206  30.119  1.00  0.00     0.031 A 
ATOM     37  C   UNL A   1      38.162  31.527  31.544  1.00  0.00     0.074 A 
ATOM     38  C   UNL A   1      38.588  30.338  29.430  1.00  0.00     0.049 A 
ATOM     39  N   UNL A   1      39.101  31.013  32.300  1.00  0.00    -0.248 NA
ATOM     40  C   UNL A   1      37.352  32.557  32.206  1.00  0.00     0.031 C 
ATOM     41  C   UNL A   1      38.391  29.979  28.024  1.00  0.00     0.029 A 
ATOM     42  N   UNL A   1      39.683  29.608  29.812  1.00  0.00    -0.354 N 
ATOM     43  C   UNL A   1      38.984  31.636  33.536  1.00  0.00     0.074 A 
ATOM     44  C   UNL A   1      37.910  32.603  33.410  1.00  0.00     0.031 C 
ATOM     45  C   UNL A   1      39.325  29.085  27.666  1.00  0.00     0.029 A 
ATOM     46  C   UNL A   1      40.199  28.830  28.804  1.00  0.00     0.049 A 
ATOM     47  H   UNL A   1      40.063  29.638  30.719  1.00  0.00     0.167 HD
ATOM     48  C   UNL A   1      39.693  31.410  34.671  1.00  0.00     0.037 A 
ATOM     49  C   UNL A   1      41.262  28.006  28.795  1.00  0.00     0.037 A 
ATOM     50  C   UNL A   1      40.790  30.476  34.783  1.00  0.00     0.049 A 
ATOM     51  C   UNL A   1      42.063  27.819  30.051  1.00  0.00     0.074 A 
ATOM     52  C   UNL A   1      41.547  30.161  35.901  1.00  0.00     0.029 A 
ATOM     53  N   UNL A   1      41.301  29.721  33.737  1.00  0.00    -0.354 N 
ATOM     54  N   UNL A   1      41.886  28.349  31.235  1.00  0.00    -0.248 NA
ATOM     55  C   UNL A   1      43.211  26.905  29.965  1.00  0.00     0.031 C 
ATOM     56  C   UNL A   1      42.544  29.255  35.520  1.00  0.00     0.029 A 
ATOM     57  C   UNL A   1      42.379  28.964  34.177  1.00  0.00     0.049 A 
ATOM     58  H   UNL A   1      40.951  29.722  32.818  1.00  0.00     0.167 HD
ATOM     59  C   UNL A   1      42.881  27.816  32.042  1.00  0.00     0.074 A 
ATOM     60  C   UNL A   1      43.643  26.900  31.217  1.00  0.00     0.031 C 
ATOM     61  C   UNL A   1      43.142  28.063  33.349  1.00  0.00     0.037 A 
BRANCH  48  62
ATOM     62  C   UNL A   1      39.303  32.190  35.894  1.00  0.00     0.057 A 
ATOM     63  C   UNL A   1      38.354  31.695  36.798  1.00  0.00     0.134 A 
ATOM     64  C   UNL A   1      39.833  33.462  36.151  1.00  0.00     0.134 A 
ATOM     65  F   UNL A   1      37.795  30.491  36.607  1.00  0.00    -0.206 F 
ATOM     66  C   UNL A   1      37.948  32.435  37.911  1.00  0.00     0.040 A 
ATOM     67  C   UNL A   1      39.454  34.200  37.274  1.00  0.00     0.040 A 
ATOM     68  F   UNL A   1      40.747  33.996  35.327  1.00  0.00    -0.206 F 
ATOM     69  C   UNL A   1      38.504  33.689  38.155  1.00  0.00     0.006 A 
ENDBRANCH  48  62
BRANCH  49  70
ATOM     70  C   UNL A   1      41.624  27.277  27.556  1.00  0.00     0.057 A 
ATOM     71  C   UNL A   1      42.427  27.866  26.573  1.00  0.00     0.134 A 
ATOM     72  C   UNL A   1      41.197  25.962  27.342  1.00  0.00     0.134 A 
ATOM     73  F   UNL A   1      42.861  29.127  26.717  1.00  0.00    -0.206 F 
ATOM     74  C   UNL A   1      42.794  27.172  25.420  1.00  0.00     0.040 A 
ATOM     75  C   UNL A   1      41.579  25.247  26.207  1.00  0.00     0.040 A 
ATOM     76  F   UNL A   1      40.439  25.341  28.259  1.00  0.00    -0.206 F 
ATOM     77  C   UNL A   1      42.379  25.854  25.241  1.00  0.00     0.006 A 
ENDBRANCH  49  70
BRANCH  61  78
ATOM     78  C   UNL A   1      44.288  27.308  33.963  1.00  0.00     0.057 A 
ATOM     79  C   UNL A   1      45.572  27.865  34.004  1.00  0.00     0.134 A 
ATOM     80  C   UNL A   1      44.116  26.042  34.539  1.00  0.00     0.134 A 
ATOM     81  F   UNL A   1      45.810  29.071  33.465  1.00  0.00    -0.206 F 
ATOM     82  C   UNL A   1      46.640  27.198  34.606  1.00  0.00     0.040 A 
ATOM     83  C   UNL A   1      45.170  25.378  35.172  1.00  0.00     0.040 A 
ATOM     84  F   UNL A   1      42.908  25.458  34.552  1.00  0.00    -0.206 F 
ATOM     85  C   UNL A   1      46.438  25.955  35.205  1.00  0.00     0.006 A 
ENDBRANCH  61  78
ENDBRANCH  35  36
ENDBRANCH  28  30
ENDBRANCH  27  28
ENDBRANCH  26  27
ENDBRANCH   1  26
TORSDOF 14
ENDMDL
MODEL 2
REMARK VINA RESULT:     -11.6      1.231      3.294
REMARK SMILES O=C(CCn1c(N2CC[NH2+]CC2)nc2ccccc2c1=O)OCCOC(=O)c1ccc(-c2c3nc(c(-c4c(F)cccc4F)c4ccc([nH]4)c(-c4c(F)cccc4F)c4nc(c(-c5c(F)cccc5F)c5ccc2[nH]5)C=C4)C=C3)cc1
REMARK SMILES IDX 23 1 22 2 2 3 1 4 3 5 4 6 5 7 6 8 20 9 13 10 19 11 21 12
REMARK SMILES IDX 14 13 18 14 15 15 17 16 16 17 7 18 8 19 12 20 9 21 11 22
REMARK SMILES IDX 10 23 24 26 25 27 26 28 27 29 28 30 29 31 81 32 30 33 80 34
REMARK SMILES IDX 31 35 32 36 33 37 74 38 34 39 79 40 73 41 75 42 35 43 78 44
REMARK SMILES IDX 72 45 71 46 36 48 62 49 45 50 61 51 46 52 49 53 60 54 76 55
REMARK SMILES IDX 47 56 48 57 59 59 77 60 50 61 37 62 38 63 43 64 39 65 40 66
REMARK SMILES IDX 42 67 44 68 41 69 63 70 64 71 69 72 65 73 66 74 68 75 70 76
REMARK SMILES IDX 67 77 51 78 52 79 57 80 53 81 54 82 56 83 58 84 55 85
REMARK H PARENT 10 24 10 25 75 47 49 58
REMARK Flexibility Score: inf
ROOT
ATOM      1  C   UNL A   1      31.737  30.865  26.137  1.00  0.00     0.274 C 
ENDROOT
BRANCH   1   2
ATOM      2  O   UNL A   1      32.047  29.739  26.979  1.00  0.00    -0.462 OA
BRANCH   2   3
ATOM      3  C   UNL A   1      33.047  28.879  26.637  1.00  0.00     0.307 C 
ATOM      4  O   UNL A   1      34.157  29.295  26.318  1.00  0.00    -0.252 OA
BRANCH   3   5
ATOM      5  C   UNL A   1      32.669  27.428  26.462  1.00  0.00     0.145 C 
BRANCH   5   6
ATOM      6  C   UNL A   1      32.630  26.929  25.025  1.00  0.00     0.141 C 
BRANCH   6   7
ATOM      7  N   UNL A   1      31.353  27.160  24.362  1.00  0.00    -0.278 N 
ATOM      8  C   UNL A   1      30.307  26.246  24.416  1.00  0.00     0.209 A 
ATOM      9  C   UNL A   1      31.278  28.270  23.526  1.00  0.00     0.262 A 
ATOM     10  N   UNL A   1      29.124  26.534  23.952  1.00  0.00    -0.214 NA
ATOM     11  C   UNL A   1      29.929  28.697  23.155  1.00  0.00     0.066 A 
ATOM     12  O   UNL A   1      32.247  28.934  23.165  1.00  0.00    -0.269 OA
ATOM     13  C   UNL A   1      28.891  27.820  23.441  1.00  0.00     0.080 A 
ATOM     14  C   UNL A   1      29.699  29.989  22.665  1.00  0.00     0.016 A 
ATOM     15  C   UNL A   1      27.585  28.255  23.215  1.00  0.00     0.029 A 
ATOM     16  C   UNL A   1      28.391  30.418  22.465  1.00  0.00     0.001 A 
ATOM     17  C   UNL A   1      27.335  29.549  22.740  1.00  0.00     0.002 A 
BRANCH   8  18
ATOM     18  N   UNL A   1      30.572  24.975  24.864  1.00  0.00    -0.331 N 
ATOM     19  C   UNL A   1      30.883  23.918  23.905  1.00  0.00     0.181 C 
ATOM     20  C   UNL A   1      30.339  24.499  26.229  1.00  0.00     0.181 C 
ATOM     21  C   UNL A   1      32.139  23.171  24.396  1.00  0.00     0.282 C 
ATOM     22  C   UNL A   1      31.532  23.617  26.702  1.00  0.00     0.282 C 
ATOM     23  N   UNL A   1      31.967  22.576  25.741  1.00  0.00    -0.343 N 
ATOM     24  H   UNL A   1      32.853  22.179  26.051  1.00  0.00     0.346 HD
ATOM     25  H   UNL A   1      31.257  21.845  25.696  1.00  0.00     0.346 HD
ENDBRANCH   8  18
ENDBRANCH   6   7
ENDBRANCH   5   6
ENDBRANCH   3   5
ENDBRANCH   2   3
ENDBRANCH   1   2
BRANCH   1  26
ATOM     26  C   UNL A   1      31.598  32.196  26.884  1.00  0.00     0.275 C 
BRANCH  26  27
ATOM     27  O   UNL A   1      32.751  33.031  26.701  1.00  0.00    -0.458 OA
BRANCH  27  28
ATOM     28  C   UNL A   1      33.154  33.698  27.810  1.00  0.00     0.338 C 
ATOM     29  O   UNL A   1      32.530  34.565  28.400  1.00  0.00    -0.246 OA
BRANCH  28  30
ATOM     30  C   UNL A   1      34.388  33.070  28.346  1.00  0.00     0.060 A 
ATOM     31  C   UNL A   1      35.621  33.733  28.369  1.00  0.00     0.016 A 
ATOM     32  C   UNL A   1      34.307  31.736  28.768  1.00  0.00     0.016 A 
ATOM     33  C   UNL A   1      36.758  33.069  28.846  1.00  0.00     0.010 A 
ATOM     34  C   UNL A   1      35.441  31.078  29.252  1.00  0.00     0.010 A 
ATOM     35  C   UNL A   1      36.670  31.746  29.317  1.00  0.00    -0.014 A 
BRANCH  35  36
ATOM     36  C   UNL A   1      37.811  31.134  30.044  1.00  0.00     0.031 A 
ATOM     37  C   UNL A   1      38.135  31.468  31.470  1.00  0.00     0.074 A 
ATOM     38  C   UNL A   1      38.601  30.280  29.364  1.00  0.00     0.049 A 
ATOM     39  N   UNL A   1      39.081  30.979  32.234  1.00  0.00    -0.248 NA
ATOM     40  C   UNL A   1      37.298  32.483  32.123  1.00  0.00     0.031 C 
ATOM     41  C   UNL A   1      38.420  29.911  27.958  1.00  0.00     0.029 A 
ATOM     42  N   UNL A   1      39.709  29.576  29.755  1.00  0.00    -0.354 N 
ATOM     43  C   UNL A   1      38.942  31.603  33.466  1.00  0.00     0.074 A 
ATOM     44  C   UNL A   1      37.848  32.546  33.330  1.00  0.00     0.031 C 
ATOM     45  C   UNL A   1      39.375  29.037  27.609  1.00  0.00     0.029 A 
ATOM     46  C   UNL A   1      40.249  28.806  28.754  1.00  0.00     0.049 A 
ATOM     47  H   UNL A   1      40.082  29.619  30.665  1.00  0.00     0.167 HD
ATOM     48  C   UNL A   1      39.649  31.397  34.606  1.00  0.00     0.037 A 
ATOM     49  C   UNL A   1      41.329  28.006  28.754  1.00  0.00     0.037 A 
ATOM     50  C   UNL A   1      40.766  30.489  34.729  1.00  0.00     0.049 A 
ATOM     51  C   UNL A   1      42.127  27.841  30.016  1.00  0.00     0.074 A 
ATOM     52  C   UNL A   1      41.523  30.195  35.853  1.00  0.00     0.029 A 
ATOM     53  N   UNL A   1      41.300  29.741  33.689  1.00  0.00    -0.354 N 
ATOM     54  N   UNL A   1      41.930  28.373  31.196  1.00  0.00    -0.248 NA
ATOM     55  C   UNL A   1      43.295  26.953  29.941  1.00  0.00     0.031 C 
ATOM     56  C   UNL A   1      42.542  29.310  35.482  1.00  0.00     0.029 A 
ATOM     57  C   UNL A   1      42.392  29.010  34.139  1.00  0.00     0.049 A 
ATOM     58  H   UNL A   1      40.955  29.731  32.768  1.00  0.00     0.167 HD
ATOM     59  C   UNL A   1      42.932  27.864  32.012  1.00  0.00     0.074 A 
ATOM     60  C   UNL A   1      43.719  26.963  31.196  1.00  0.00     0.031 C 
ATOM     61  C   UNL A   1      43.180  28.123  33.319  1.00  0.00     0.037 A 
BRANCH  48  62
ATOM     62  C   UNL A   1      39.235  32.173  35.824  1.00  0.00     0.057 A 
ATOM     63  C   UNL A   1      38.321  31.645  36.745  1.00  0.00     0.134 A 
ATOM     64  C   UNL A   1      39.705  33.474  36.059  1.00  0.00     0.134 A 
ATOM     65  F   UNL A   1      37.819  30.413  36.575  1.00  0.00    -0.206 F 
ATOM     66  C   UNL A   1      37.890  32.379  37.853  1.00  0.00     0.040 A 
ATOM     67  C   UNL A   1      39.302  34.207  37.177  1.00  0.00     0.040 A 
ATOM     68  F   UNL A   1      40.583  34.041  35.218  1.00  0.00    -0.206 F 
ATOM     69  C   UNL A   1      38.387  33.662  38.075  1.00  0.00     0.006 A 
ENDBRANCH  48  62
BRANCH  49  70
ATOM     70  C   UNL A   1      41.715  27.280  27.520  1.00  0.00     0.057 A 
ATOM     71  C   UNL A   1      42.507  27.884  26.539  1.00  0.00     0.134 A 
ATOM     72  C   UNL A   1      41.321  25.954  27.311  1.00  0.00     0.134 A 
ATOM     73  F   UNL A   1      42.909  29.156  26.678  1.00  0.00    -0.206 F 
ATOM     74  C   UNL A   1      42.897  27.193  25.391  1.00  0.00     0.040 A 
ATOM     75  C   UNL A   1      41.726  25.243  26.182  1.00  0.00     0.040 A 
ATOM     76  F   UNL A   1      40.575  25.318  28.228  1.00  0.00    -0.206 F 
ATOM     77  C   UNL A   1      42.516  25.865  25.216  1.00  0.00     0.006 A 
ENDBRANCH  49  70
BRANCH  61  78
ATOM     78  C   UNL A   1      44.338  27.395  33.943  1.00  0.00     0.057 A 
ATOM     79  C   UNL A   1      44.169  26.117  34.490  1.00  0.00     0.134 A 
ATOM     80  C   UNL A   1      45.627  27.944  33.977  1.00  0.00     0.134 A 
ATOM     81  F   UNL A   1      42.961  25.533  34.497  1.00  0.00    -0.206 F 
ATOM     82  C   UNL A   1      45.239  25.407  35.036  1.00  0.00     0.040 A 
ATOM     83  C   UNL A   1      46.712  27.231  34.492  1.00  0.00     0.040 A 
ATOM     84  F   UNL A   1      45.864  29.157  33.453  1.00  0.00    -0.206 F 
ATOM     85  C   UNL A   1      46.519  25.959  35.026  1.00  0.00     0.006 A 
ENDBRANCH  61  78
ENDBRANCH  35  36
ENDBRANCH  28  30
ENDBRANCH  27  28
ENDBRANCH  26  27
ENDBRANCH   1  26
TORSDOF 14
ENDMDL
MODEL 3
REMARK VINA RESULT:     -11.6      1.228      3.292
REMARK SMILES O=C(CCn1c(N2CC[NH2+]CC2)nc2ccccc2c1=O)OCCOC(=O)c1ccc(-c2c3nc(c(-c4c(F)cccc4F)c4ccc([nH]4)c(-c4c(F)cccc4F)c4nc(c(-c5c(F)cccc5F)c5ccc2[nH]5)C=C4)C=C3)cc1
REMARK SMILES IDX 23 1 22 2 2 3 1 4 3 5 4 6 5 7 6 8 20 9 13 10 19 11 21 12
REMARK SMILES IDX 14 13 18 14 15 15 17 16 16 17 7 18 8 19 12 20 9 21 11 22
REMARK SMILES IDX 10 23 24 26 25 27 26 28 27 29 28 30 29 31 81 32 30 33 80 34
REMARK SMILES IDX 31 35 32 36 33 37 74 38 34 39 79 40 73 41 75 42 35 43 78 44
REMARK SMILES IDX 72 45 71 46 36 48 62 49 45 50 61 51 46 52 49 53 60 54 76 55
REMARK SMILES IDX 47 56 48 57 59 59 77 60 50 61 37 62 38 63 43 64 39 65 40 66
REMARK SMILES IDX 42 67 44 68 41 69 63 70 64 71 69 72 65 73 66 74 68 75 70 76
REMARK SMILES IDX 67 77 51 78 52 79 57 80 53 81 54 82 56 83 58 84 55 85
REMARK H PARENT 10 24 10 25 75 47 49 58
REMARK Flexibility Score: inf
ROOT
ATOM      1  C   UNL A   1      31.747  30.880  26.150  1.00  0.00     0.274 C 
ENDROOT
BRANCH   1   2
ATOM      2  O   UNL A   1      32.023  29.741  26.988  1.00  0.00    -0.462 OA
BRANCH   2   3
ATOM      3  C   UNL A   1      33.032  28.884  26.671  1.00  0.00     0.307 C 
ATOM      4  O   UNL A   1      34.150  29.301  26.383  1.00  0.00    -0.252 OA
BRANCH   3   5
ATOM      5  C   UNL A   1      32.660  27.432  26.482  1.00  0.00     0.145 C 
BRANCH   5   6
ATOM      6  C   UNL A   1      32.633  26.944  25.041  1.00  0.00     0.141 C 
BRANCH   6   7
ATOM      7  N   UNL A   1      31.355  27.166  24.375  1.00  0.00    -0.278 N 
ATOM      8  C   UNL A   1      30.318  26.243  24.424  1.00  0.00     0.209 A 
ATOM      9  C   UNL A   1      31.274  28.277  23.541  1.00  0.00     0.262 A 
ATOM     10  N   UNL A   1      29.133  26.522  23.957  1.00  0.00    -0.214 NA
ATOM     11  C   UNL A   1      29.922  28.693  23.167  1.00  0.00     0.066 A 
ATOM     12  O   UNL A   1      32.238  28.951  23.185  1.00  0.00    -0.269 OA
ATOM     13  C   UNL A   1      28.890  27.807  23.449  1.00  0.00     0.080 A 
ATOM     14  C   UNL A   1      29.682  29.985  22.680  1.00  0.00     0.016 A 
ATOM     15  C   UNL A   1      27.582  28.231  23.219  1.00  0.00     0.029 A 
ATOM     16  C   UNL A   1      28.372  30.403  22.477  1.00  0.00     0.001 A 
ATOM     17  C   UNL A   1      27.322  29.525  22.747  1.00  0.00     0.002 A 
BRANCH   8  18
ATOM     18  N   UNL A   1      30.592  24.973  24.869  1.00  0.00    -0.331 N 
ATOM     19  C   UNL A   1      30.935  23.926  23.910  1.00  0.00     0.181 C 
ATOM     20  C   UNL A   1      30.341  24.486  26.227  1.00  0.00     0.181 C 
ATOM     21  C   UNL A   1      32.192  23.194  24.421  1.00  0.00     0.282 C 
ATOM     22  C   UNL A   1      31.537  23.618  26.718  1.00  0.00     0.282 C 
ATOM     23  N   UNL A   1      32.004  22.589  25.759  1.00  0.00    -0.343 N 
ATOM     24  H   UNL A   1      32.890  22.202  26.082  1.00  0.00     0.346 HD
ATOM     25  H   UNL A   1      31.305  21.848  25.697  1.00  0.00     0.346 HD
ENDBRANCH   8  18
ENDBRANCH   6   7
ENDBRANCH   5   6
ENDBRANCH   3   5
ENDBRANCH   2   3
ENDBRANCH   1   2
BRANCH   1  26
ATOM     26  C   UNL A   1      31.587  32.202  26.909  1.00  0.00     0.275 C 
BRANCH  26  27
ATOM     27  O   UNL A   1      32.715  33.067  26.712  1.00  0.00    -0.458 OA
BRANCH  27  28
ATOM     28  C   UNL A   1      33.119  33.739  27.819  1.00  0.00     0.338 C 
ATOM     29  O   UNL A   1      32.496  34.610  28.404  1.00  0.00    -0.246 OA
BRANCH  28  30
ATOM     30  C   UNL A   1      34.352  33.112  28.358  1.00  0.00     0.060 A 
ATOM     31  C   UNL A   1      35.586  33.771  28.375  1.00  0.00     0.016 A 
ATOM     32  C   UNL A   1      34.267  31.781  28.791  1.00  0.00     0.016 A 
ATOM     33  C   UNL A   1      36.722  33.109  28.855  1.00  0.00     0.010 A 
ATOM     34  C   UNL A   1      35.400  31.124  29.278  1.00  0.00     0.010 A 
ATOM     35  C   UNL A   1      36.631  31.790  29.337  1.00  0.00    -0.014 A 
BRANCH  35  36
ATOM     36  C   UNL A   1      37.772  31.181  30.068  1.00  0.00     0.031 A 
ATOM     37  C   UNL A   1      38.093  31.519  31.494  1.00  0.00     0.074 A 
ATOM     38  C   UNL A   1      38.562  30.325  29.391  1.00  0.00     0.049 A 
ATOM     39  N   UNL A   1      39.038  31.032  32.261  1.00  0.00    -0.248 NA
ATOM     40  C   UNL A   1      37.254  32.535  32.142  1.00  0.00     0.031 C 
ATOM     41  C   UNL A   1      38.384  29.952  27.986  1.00  0.00     0.029 A 
ATOM     42  N   UNL A   1      39.671  29.623  29.787  1.00  0.00    -0.354 N 
ATOM     43  C   UNL A   1      38.896  31.660  33.491  1.00  0.00     0.074 A 
ATOM     44  C   UNL A   1      37.802  32.602  33.350  1.00  0.00     0.031 C 
ATOM     45  C   UNL A   1      39.341  29.077  27.642  1.00  0.00     0.029 A 
ATOM     46  C   UNL A   1      40.212  28.850  28.789  1.00  0.00     0.049 A 
ATOM     47  H   UNL A   1      40.042  29.668  30.697  1.00  0.00     0.167 HD
ATOM     48  C   UNL A   1      39.602  31.458  34.633  1.00  0.00     0.037 A 
ATOM     49  C   UNL A   1      41.293  28.050  28.793  1.00  0.00     0.037 A 
ATOM     50  C   UNL A   1      40.718  30.550  34.760  1.00  0.00     0.049 A 
ATOM     51  C   UNL A   1      42.089  27.890  30.056  1.00  0.00     0.074 A 
ATOM     52  C   UNL A   1      41.474  30.260  35.886  1.00  0.00     0.029 A 
ATOM     53  N   UNL A   1      41.255  29.800  33.723  1.00  0.00    -0.354 N 
ATOM     54  N   UNL A   1      41.890  28.424  31.235  1.00  0.00    -0.248 NA
ATOM     55  C   UNL A   1      43.257  27.002  29.986  1.00  0.00     0.031 C 
ATOM     56  C   UNL A   1      42.494  29.375  35.519  1.00  0.00     0.029 A 
ATOM     57  C   UNL A   1      42.346  29.070  34.176  1.00  0.00     0.049 A 
ATOM     58  H   UNL A   1      40.912  29.787  32.801  1.00  0.00     0.167 HD
ATOM     59  C   UNL A   1      42.891  27.919  32.054  1.00  0.00     0.074 A 
ATOM     60  C   UNL A   1      43.680  27.016  31.242  1.00  0.00     0.031 C 
ATOM     61  C   UNL A   1      43.136  28.182  33.361  1.00  0.00     0.037 A 
BRANCH  48  62
ATOM     62  C   UNL A   1      39.185  32.237  35.848  1.00  0.00     0.057 A 
ATOM     63  C   UNL A   1      38.285  31.702  36.779  1.00  0.00     0.134 A 
ATOM     64  C   UNL A   1      39.637  33.546  36.069  1.00  0.00     0.134 A 
ATOM     65  F   UNL A   1      37.801  30.462  36.622  1.00  0.00    -0.206 F 
ATOM     66  C   UNL A   1      37.853  32.438  37.884  1.00  0.00     0.040 A 
ATOM     67  C   UNL A   1      39.232  34.282  37.184  1.00  0.00     0.040 A 
ATOM     68  F   UNL A   1      40.500  34.120  35.217  1.00  0.00    -0.206 F 
ATOM     69  C   UNL A   1      38.332  33.730  38.093  1.00  0.00     0.006 A 
ENDBRANCH  48  62
BRANCH  49  70
ATOM     70  C   UNL A   1      41.681  27.321  27.562  1.00  0.00     0.057 A 
ATOM     71  C   UNL A   1      41.272  26.003  27.337  1.00  0.00     0.134 A 
ATOM     72  C   UNL A   1      42.447  27.941  26.568  1.00  0.00     0.134 A 
ATOM     73  F   UNL A   1      40.543  25.353  28.256  1.00  0.00    -0.206 F 
ATOM     74  C   UNL A   1      41.610  25.325  26.165  1.00  0.00     0.040 A 
ATOM     75  C   UNL A   1      42.769  27.285  25.381  1.00  0.00     0.040 A 
ATOM     76  F   UNL A   1      42.853  29.211  26.722  1.00  0.00    -0.206 F 
ATOM     77  C   UNL A   1      42.350  25.971  25.178  1.00  0.00     0.006 A 
ENDBRANCH  49  70
BRANCH  61  78
ATOM     78  C   UNL A   1      44.294  27.456  33.989  1.00  0.00     0.057 A 
ATOM     79  C   UNL A   1      45.570  28.033  34.015  1.00  0.00     0.134 A 
ATOM     80  C   UNL A   1      44.142  26.201  34.593  1.00  0.00     0.134 A 
ATOM     81  F   UNL A   1      45.789  29.230  33.450  1.00  0.00    -0.206 F 
ATOM     82  C   UNL A   1      46.649  27.395  34.629  1.00  0.00     0.040 A 
ATOM     83  C   UNL A   1      45.206  25.568  35.239  1.00  0.00     0.040 A 
ATOM     84  F   UNL A   1      42.943  25.600  34.622  1.00  0.00    -0.206 F 
ATOM     85  C   UNL A   1      46.466  26.164  35.256  1.00  0.00     0.006 A 
ENDBRANCH  61  78
ENDBRANCH  35  36
ENDBRANCH  28  30
ENDBRANCH  27  28
ENDBRANCH  26  27
ENDBRANCH   1  26
TORSDOF 14
ENDMDL
