MODEL 1
REMARK VINA RESULT:     -11.0      0.000      0.000
REMARK SMILES C[C@@H]1CCN(c2cncc(C(=O)OCCOC(=O)c3ccc(-c4c5nc(c(-c6c(F)cccc6F)c6ccc([nH]6)c(-c6c(F)cccc6F)c6nc(c(-c7c(F)cccc7F)c7ccc4[nH]7)C=C6)C=C5)cc3)n2)[C@H](C)C1
REMARK SMILES IDX 15 1 14 2 13 3 11 4 12 5 10 6 6 7 7 8 73 9 8 10 9 11 5 12
REMARK SMILES IDX 1 13 2 14 3 15 76 16 4 17 74 18 75 19 16 20 17 21 18 22
REMARK SMILES IDX 19 23 20 24 72 25 21 26 71 27 22 28 23 29 24 30 65 31 25 32
REMARK SMILES IDX 70 33 64 34 66 35 26 36 69 37 63 38 62 39 27 41 53 42 36 43
REMARK SMILES IDX 52 44 37 45 40 46 51 47 67 48 38 49 39 50 50 52 68 53 41 54
REMARK SMILES IDX 28 55 29 56 34 57 30 58 31 59 33 60 35 61 32 62 54 63 55 64
REMARK SMILES IDX 60 65 56 66 57 67 59 68 61 69 58 70 42 71 43 72 48 73 44 74
REMARK SMILES IDX 45 75 47 76 49 77 46 78
REMARK H PARENT 66 40 40 51
REMARK Flexibility Score: inf
ROOT
ATOM      1  C   UNL A   1      34.779  33.173  28.204  1.00  0.00     0.275 C 
ENDROOT
BRANCH   1   2
ATOM      2  C   UNL A   1      33.400  33.797  27.996  1.00  0.00     0.275 C 
BRANCH   2   3
ATOM      3  O   UNL A   1      32.831  34.224  29.249  1.00  0.00    -0.457 OA
BRANCH   3   4
ATOM      4  C   UNL A   1      32.902  35.552  29.526  1.00  0.00     0.358 C 
ATOM      5  O   UNL A   1      32.472  36.460  28.836  1.00  0.00    -0.244 OA
BRANCH   4   6
ATOM      6  C   UNL A   1      33.481  35.768  30.872  1.00  0.00     0.169 A 
ATOM      7  C   UNL A   1      34.972  35.181  32.527  1.00  0.00     0.148 A 
ATOM      8  C   UNL A   1      34.401  36.178  33.330  1.00  0.00     0.157 A 
ATOM      9  N   UNL A   1      34.486  34.960  31.285  1.00  0.00    -0.221 NA
ATOM     10  N   UNL A   1      33.417  37.016  32.921  1.00  0.00    -0.258 NA
ATOM     11  C   UNL A   1      32.991  36.799  31.659  1.00  0.00     0.147 A 
BRANCH   7  12
ATOM     12  N   UNL A   1      36.083  34.464  32.916  1.00  0.00    -0.353 N 
ATOM     13  C   UNL A   1      38.824  31.926  33.311  1.00  0.00     0.008 C 
ATOM     14  C   UNL A   1      37.591  32.048  32.418  1.00  0.00    -0.011 C 
ATOM     15  C   UNL A   1      37.661  33.273  31.495  1.00  0.00     0.025 C 
ATOM     16  C   UNL A   1      36.278  32.036  33.219  1.00  0.00     0.028 C 
ATOM     17  C   UNL A   1      37.363  34.571  32.235  1.00  0.00     0.118 C 
ATOM     18  C   UNL A   1      35.861  33.373  33.866  1.00  0.00     0.081 C 
ATOM     19  C   UNL A   1      36.523  33.673  35.205  1.00  0.00     0.031 C 
ENDBRANCH   7  12
ENDBRANCH   4   6
ENDBRANCH   3   4
ENDBRANCH   2   3
ENDBRANCH   1   2
BRANCH   1  20
ATOM     20  O   UNL A   1      34.666  31.973  28.992  1.00  0.00    -0.458 OA
BRANCH  20  21
ATOM     21  C   UNL A   1      34.676  30.814  28.300  1.00  0.00     0.338 C 
ATOM     22  O   UNL A   1      33.776  30.329  27.631  1.00  0.00    -0.246 OA
BRANCH  21  23
ATOM     23  C   UNL A   1      35.998  30.186  28.419  1.00  0.00     0.060 A 
ATOM     24  C   UNL A   1      36.405  29.708  29.661  1.00  0.00     0.016 A 
ATOM     25  C   UNL A   1      36.885  30.193  27.346  1.00  0.00     0.016 A 
ATOM     26  C   UNL A   1      37.724  29.325  29.871  1.00  0.00     0.010 A 
ATOM     27  C   UNL A   1      38.182  29.703  27.529  1.00  0.00     0.010 A 
ATOM     28  C   UNL A   1      38.626  29.292  28.801  1.00  0.00    -0.014 A 
BRANCH  28  29
ATOM     29  C   UNL A   1      40.032  28.850  29.004  1.00  0.00     0.031 A 
ATOM     30  C   UNL A   1      41.061  29.832  29.493  1.00  0.00     0.074 A 
ATOM     31  C   UNL A   1      40.399  27.581  28.738  1.00  0.00     0.049 A 
ATOM     32  N   UNL A   1      42.366  29.743  29.473  1.00  0.00    -0.248 NA
ATOM     33  C   UNL A   1      40.551  31.087  30.068  1.00  0.00     0.031 C 
ATOM     34  C   UNL A   1      39.500  26.504  28.321  1.00  0.00     0.029 A 
ATOM     35  N   UNL A   1      41.637  26.987  28.768  1.00  0.00    -0.354 N 
ATOM     36  C   UNL A   1      42.834  30.953  29.970  1.00  0.00     0.074 A 
ATOM     37  C   UNL A   1      41.673  31.757  30.290  1.00  0.00     0.031 C 
ATOM     38  C   UNL A   1      40.209  25.380  28.150  1.00  0.00     0.029 A 
ATOM     39  C   UNL A   1      41.622  25.679  28.346  1.00  0.00     0.049 A 
ATOM     40  H   UNL A   1      42.453  27.451  29.063  1.00  0.00     0.167 HD
ATOM     41  C   UNL A   1      44.117  31.357  30.131  1.00  0.00     0.037 A 
ATOM     42  C   UNL A   1      42.633  24.829  28.082  1.00  0.00     0.037 A 
ATOM     43  C   UNL A   1      45.264  30.531  29.856  1.00  0.00     0.049 A 
ATOM     44  C   UNL A   1      44.047  25.305  28.234  1.00  0.00     0.074 A 
ATOM     45  C   UNL A   1      46.607  30.846  29.978  1.00  0.00     0.029 A 
ATOM     46  N   UNL A   1      45.201  29.215  29.426  1.00  0.00    -0.354 N 
ATOM     47  N   UNL A   1      44.486  26.480  28.614  1.00  0.00    -0.248 NA
ATOM     48  C   UNL A   1      45.109  24.346  27.900  1.00  0.00     0.031 C 
ATOM     49  C   UNL A   1      47.356  29.727  29.598  1.00  0.00     0.029 A 
ATOM     50  C   UNL A   1      46.479  28.704  29.274  1.00  0.00     0.049 A 
ATOM     51  H   UNL A   1      44.370  28.716  29.254  1.00  0.00     0.167 HD
ATOM     52  C   UNL A   1      45.870  26.403  28.571  1.00  0.00     0.074 A 
ATOM     53  C   UNL A   1      46.201  25.059  28.144  1.00  0.00     0.031 C 
ATOM     54  C   UNL A   1      46.785  27.361  28.856  1.00  0.00     0.037 A 
BRANCH  41  55
ATOM     55  C   UNL A   1      44.346  32.767  30.587  1.00  0.00     0.057 A 
ATOM     56  C   UNL A   1      44.345  33.850  29.699  1.00  0.00     0.134 A 
ATOM     57  C   UNL A   1      44.551  33.046  31.946  1.00  0.00     0.134 A 
ATOM     58  F   UNL A   1      44.171  33.649  28.385  1.00  0.00    -0.206 F 
ATOM     59  C   UNL A   1      44.564  35.156  30.142  1.00  0.00     0.040 A 
ATOM     60  C   UNL A   1      44.747  34.350  32.403  1.00  0.00     0.040 A 
ATOM     61  F   UNL A   1      44.559  32.056  32.850  1.00  0.00    -0.206 F 
ATOM     62  C   UNL A   1      44.760  35.410  31.499  1.00  0.00     0.006 A 
ENDBRANCH  41  55
BRANCH  42  63
ATOM     63  C   UNL A   1      42.331  23.466  27.582  1.00  0.00     0.057 A 
ATOM     64  C   UNL A   1      42.138  22.398  28.464  1.00  0.00     0.134 A 
ATOM     65  C   UNL A   1      42.193  23.207  26.212  1.00  0.00     0.134 A 
ATOM     66  F   UNL A   1      42.280  22.578  29.785  1.00  0.00    -0.206 F 
ATOM     67  C   UNL A   1      41.818  21.120  28.001  1.00  0.00     0.040 A 
ATOM     68  C   UNL A   1      41.849  21.941  25.737  1.00  0.00     0.040 A 
ATOM     69  F   UNL A   1      42.362  24.192  25.317  1.00  0.00    -0.206 F 
ATOM     70  C   UNL A   1      41.663  20.892  26.635  1.00  0.00     0.006 A 
ENDBRANCH  42  63
BRANCH  54  71
ATOM     71  C   UNL A   1      48.229  26.976  28.747  1.00  0.00     0.057 A 
ATOM     72  C   UNL A   1      48.906  26.358  29.804  1.00  0.00     0.134 A 
ATOM     73  C   UNL A   1      48.933  27.190  27.557  1.00  0.00     0.134 A 
ATOM     74  F   UNL A   1      48.288  26.140  30.974  1.00  0.00    -0.206 F 
ATOM     75  C   UNL A   1      50.243  25.977  29.685  1.00  0.00     0.040 A 
ATOM     76  C   UNL A   1      50.265  26.797  27.419  1.00  0.00     0.040 A 
ATOM     77  F   UNL A   1      48.336  27.775  26.507  1.00  0.00    -0.206 F 
ATOM     78  C   UNL A   1      50.924  26.191  28.486  1.00  0.00     0.006 A 
ENDBRANCH  54  71
ENDBRANCH  28  29
ENDBRANCH  21  23
ENDBRANCH  20  21
ENDBRANCH   1  20
TORSDOF 12
ENDMDL
MODEL 2
REMARK VINA RESULT:     -10.8      4.715      7.956
REMARK SMILES C[C@@H]1CCN(c2cncc(C(=O)OCCOC(=O)c3ccc(-c4c5nc(c(-c6c(F)cccc6F)c6ccc([nH]6)c(-c6c(F)cccc6F)c6nc(c(-c7c(F)cccc7F)c7ccc4[nH]7)C=C6)C=C5)cc3)n2)[C@H](C)C1
REMARK SMILES IDX 15 1 14 2 13 3 11 4 12 5 10 6 6 7 7 8 73 9 8 10 9 11 5 12
REMARK SMILES IDX 1 13 2 14 3 15 76 16 4 17 74 18 75 19 16 20 17 21 18 22
REMARK SMILES IDX 19 23 20 24 72 25 21 26 71 27 22 28 23 29 24 30 65 31 25 32
REMARK SMILES IDX 70 33 64 34 66 35 26 36 69 37 63 38 62 39 27 41 53 42 36 43
REMARK SMILES IDX 52 44 37 45 40 46 51 47 67 48 38 49 39 50 50 52 68 53 41 54
REMARK SMILES IDX 28 55 29 56 34 57 30 58 31 59 33 60 35 61 32 62 54 63 55 64
REMARK SMILES IDX 60 65 56 66 57 67 59 68 61 69 58 70 42 71 43 72 48 73 44 74
REMARK SMILES IDX 45 75 47 76 49 77 46 78
REMARK H PARENT 66 40 40 51
REMARK Flexibility Score: inf
ROOT
ATOM      1  C   UNL A   1      32.939  35.935  29.696  1.00  0.00     0.275 C 
ENDROOT
BRANCH   1   2
ATOM      2  C   UNL A   1      32.987  34.879  28.592  1.00  0.00     0.275 C 
BRANCH   2   3
ATOM      3  O   UNL A   1      33.660  33.688  29.044  1.00  0.00    -0.457 OA
BRANCH   3   4
ATOM      4  C   UNL A   1      34.950  33.533  28.648  1.00  0.00     0.358 C 
ATOM      5  O   UNL A   1      35.846  34.353  28.760  1.00  0.00    -0.244 OA
BRANCH   4   6
ATOM      6  C   UNL A   1      35.178  32.156  28.153  1.00  0.00     0.169 A 
ATOM      7  C   UNL A   1      34.374  30.203  27.233  1.00  0.00     0.148 A 
ATOM      8  C   UNL A   1      35.663  29.667  27.364  1.00  0.00     0.157 A 
ATOM      9  N   UNL A   1      34.125  31.463  27.657  1.00  0.00    -0.221 NA
ATOM     10  N   UNL A   1      36.732  30.357  27.828  1.00  0.00    -0.258 NA
ATOM     11  C   UNL A   1      36.458  31.627  28.194  1.00  0.00     0.147 A 
BRANCH   7  12
ATOM     12  N   UNL A   1      33.352  29.528  26.600  1.00  0.00    -0.353 N 
ATOM     13  C   UNL A   1      30.752  27.045  25.515  1.00  0.00     0.008 C 
ATOM     14  C   UNL A   1      31.822  27.076  26.605  1.00  0.00    -0.011 C 
ATOM     15  C   UNL A   1      31.583  28.203  27.620  1.00  0.00     0.025 C 
ATOM     16  C   UNL A   1      33.247  27.143  26.032  1.00  0.00     0.028 C 
ATOM     17  C   UNL A   1      31.978  29.568  27.070  1.00  0.00     0.118 C 
ATOM     18  C   UNL A   1      33.743  28.537  25.596  1.00  0.00     0.081 C 
ATOM     19  C   UNL A   1      33.303  28.969  24.203  1.00  0.00     0.031 C 
ENDBRANCH   7  12
ENDBRANCH   4   6
ENDBRANCH   3   4
ENDBRANCH   2   3
ENDBRANCH   1   2
BRANCH   1  20
ATOM     20  O   UNL A   1      32.266  35.408  30.855  1.00  0.00    -0.458 OA
BRANCH  20  21
ATOM     21  C   UNL A   1      32.612  35.962  32.037  1.00  0.00     0.338 C 
ATOM     22  O   UNL A   1      32.123  36.940  32.581  1.00  0.00    -0.246 OA
BRANCH  21  23
ATOM     23  C   UNL A   1      33.683  35.168  32.652  1.00  0.00     0.060 A 
ATOM     24  C   UNL A   1      34.974  35.691  32.679  1.00  0.00     0.016 A 
ATOM     25  C   UNL A   1      33.447  33.863  33.074  1.00  0.00     0.016 A 
ATOM     26  C   UNL A   1      36.051  34.888  33.034  1.00  0.00     0.010 A 
ATOM     27  C   UNL A   1      34.517  33.091  33.537  1.00  0.00     0.010 A 
ATOM     28  C   UNL A   1      35.836  33.583  33.493  1.00  0.00    -0.014 A 
BRANCH  28  29
ATOM     29  C   UNL A   1      36.977  32.724  33.909  1.00  0.00     0.031 A 
ATOM     30  C   UNL A   1      37.668  32.983  35.220  1.00  0.00     0.074 A 
ATOM     31  C   UNL A   1      37.412  31.726  33.116  1.00  0.00     0.049 A 
ATOM     32  N   UNL A   1      38.829  32.554  35.643  1.00  0.00    -0.248 NA
ATOM     33  C   UNL A   1      36.963  33.853  36.174  1.00  0.00     0.031 C 
ATOM     34  C   UNL A   1      36.801  31.316  31.850  1.00  0.00     0.029 A 
ATOM     35  N   UNL A   1      38.484  30.879  33.255  1.00  0.00    -0.354 N 
ATOM     36  C   UNL A   1      39.024  33.152  36.882  1.00  0.00     0.074 A 
ATOM     37  C   UNL A   1      37.857  33.969  37.145  1.00  0.00     0.031 C 
ATOM     38  C   UNL A   1      37.494  30.290  31.338  1.00  0.00     0.029 A 
ATOM     39  C   UNL A   1      38.654  30.035  32.184  1.00  0.00     0.049 A 
ATOM     40  H   UNL A   1      39.072  30.876  34.044  1.00  0.00     0.167 HD
ATOM     41  C   UNL A   1      40.086  33.037  37.714  1.00  0.00     0.037 A 
ATOM     42  C   UNL A   1      39.661  29.195  31.878  1.00  0.00     0.037 A 
ATOM     43  C   UNL A   1      41.218  32.184  37.466  1.00  0.00     0.049 A 
ATOM     44  C   UNL A   1      40.844  29.106  32.795  1.00  0.00     0.074 A 
ATOM     45  C   UNL A   1      42.351  32.000  38.241  1.00  0.00     0.029 A 
ATOM     46  N   UNL A   1      41.349  31.351  36.365  1.00  0.00    -0.354 N 
ATOM     47  N   UNL A   1      41.067  29.744  33.918  1.00  0.00    -0.248 NA
ATOM     48  C   UNL A   1      41.927  28.198  32.394  1.00  0.00     0.031 C 
ATOM     49  C   UNL A   1      43.177  31.073  37.596  1.00  0.00     0.029 A 
ATOM     50  C   UNL A   1      42.543  30.653  36.437  1.00  0.00     0.049 A 
ATOM     51  H   UNL A   1      40.690  31.268  35.638  1.00  0.00     0.167 HD
ATOM     52  C   UNL A   1      42.308  29.313  34.362  1.00  0.00     0.074 A 
ATOM     53  C   UNL A   1      42.785  28.346  33.395  1.00  0.00     0.031 C 
ATOM     54  C   UNL A   1      42.994  29.690  35.468  1.00  0.00     0.037 A 
BRANCH  41  55
ATOM     55  C   UNL A   1      40.090  33.886  38.951  1.00  0.00     0.057 A 
ATOM     56  C   UNL A   1      39.494  33.469  40.147  1.00  0.00     0.134 A 
ATOM     57  C   UNL A   1      40.722  35.138  38.946  1.00  0.00     0.134 A 
ATOM     58  F   UNL A   1      38.860  32.289  40.213  1.00  0.00    -0.206 F 
ATOM     59  C   UNL A   1      39.505  34.274  41.287  1.00  0.00     0.040 A 
ATOM     60  C   UNL A   1      40.761  35.942  40.086  1.00  0.00     0.040 A 
ATOM     61  F   UNL A   1      41.317  35.597  37.835  1.00  0.00    -0.206 F 
ATOM     62  C   UNL A   1      40.145  35.514  41.261  1.00  0.00     0.006 A 
ENDBRANCH  41  55
BRANCH  42  63
ATOM     63  C   UNL A   1      39.613  28.427  30.610  1.00  0.00     0.057 A 
ATOM     64  C   UNL A   1      40.264  28.884  29.461  1.00  0.00     0.134 A 
ATOM     65  C   UNL A   1      38.942  27.199  30.528  1.00  0.00     0.134 A 
ATOM     66  F   UNL A   1      40.903  30.064  29.471  1.00  0.00    -0.206 F 
ATOM     67  C   UNL A   1      40.252  28.149  28.274  1.00  0.00     0.040 A 
ATOM     68  C   UNL A   1      38.943  26.442  29.357  1.00  0.00     0.040 A 
ATOM     69  F   UNL A   1      38.301  26.705  31.598  1.00  0.00    -0.206 F 
ATOM     70  C   UNL A   1      39.599  26.919  28.223  1.00  0.00     0.006 A 
ENDBRANCH  42  63
BRANCH  54  71
ATOM     71  C   UNL A   1      44.316  29.026  35.707  1.00  0.00     0.057 A 
ATOM     72  C   UNL A   1      44.418  27.830  36.426  1.00  0.00     0.134 A 
ATOM     73  C   UNL A   1      45.490  29.571  35.176  1.00  0.00     0.134 A 
ATOM     74  F   UNL A   1      43.329  27.268  36.972  1.00  0.00    -0.206 F 
ATOM     75  C   UNL A   1      45.650  27.203  36.620  1.00  0.00     0.040 A 
ATOM     76  C   UNL A   1      46.725  28.944  35.348  1.00  0.00     0.040 A 
ATOM     77  F   UNL A   1      45.455  30.714  34.475  1.00  0.00    -0.206 F 
ATOM     78  C   UNL A   1      46.807  27.758  36.074  1.00  0.00     0.006 A 
ENDBRANCH  54  71
ENDBRANCH  28  29
ENDBRANCH  21  23
ENDBRANCH  20  21
ENDBRANCH   1  20
TORSDOF 12
ENDMDL
MODEL 3
REMARK VINA RESULT:     -10.8      5.296     11.293
REMARK SMILES C[C@@H]1CCN(c2cncc(C(=O)OCCOC(=O)c3ccc(-c4c5nc(c(-c6c(F)cccc6F)c6ccc([nH]6)c(-c6c(F)cccc6F)c6nc(c(-c7c(F)cccc7F)c7ccc4[nH]7)C=C6)C=C5)cc3)n2)[C@H](C)C1
REMARK SMILES IDX 15 1 14 2 13 3 11 4 12 5 10 6 6 7 7 8 73 9 8 10 9 11 5 12
REMARK SMILES IDX 1 13 2 14 3 15 76 16 4 17 74 18 75 19 16 20 17 21 18 22
REMARK SMILES IDX 19 23 20 24 72 25 21 26 71 27 22 28 23 29 24 30 65 31 25 32
REMARK SMILES IDX 70 33 64 34 66 35 26 36 69 37 63 38 62 39 27 41 53 42 36 43
REMARK SMILES IDX 52 44 37 45 40 46 51 47 67 48 38 49 39 50 50 52 68 53 41 54
REMARK SMILES IDX 28 55 29 56 34 57 30 58 31 59 33 60 35 61 32 62 54 63 55 64
REMARK SMILES IDX 60 65 56 66 57 67 59 68 61 69 58 70 42 71 43 72 48 73 44 74
REMARK SMILES IDX 45 75 47 76 49 77 46 78
REMARK H PARENT 66 40 40 51
REMARK Flexibility Score: inf
ROOT
ATOM      1  C   UNL A   1      42.933  21.116  25.766  1.00  0.00     0.275 C 
ENDROOT
BRANCH   1   2
ATOM      2  C   UNL A   1      41.903  20.042  26.112  1.00  0.00     0.275 C 
BRANCH   2   3
ATOM      3  O   UNL A   1      40.660  20.635  26.536  1.00  0.00    -0.457 OA
BRANCH   3   4
ATOM      4  C   UNL A   1      39.555  20.306  25.818  1.00  0.00     0.358 C 
ATOM      5  O   UNL A   1      39.279  19.203  25.376  1.00  0.00    -0.244 OA
BRANCH   4   6
ATOM      6  C   UNL A   1      38.631  21.461  25.733  1.00  0.00     0.169 A 
ATOM      7  C   UNL A   1      36.670  22.402  24.976  1.00  0.00     0.148 A 
ATOM      8  C   UNL A   1      37.076  23.607  25.566  1.00  0.00     0.157 A 
ATOM      9  N   UNL A   1      37.475  21.317  25.043  1.00  0.00    -0.221 NA
ATOM     10  N   UNL A   1      38.214  23.758  26.286  1.00  0.00    -0.258 NA
ATOM     11  C   UNL A   1      38.967  22.642  26.375  1.00  0.00     0.147 A 
BRANCH   7  12
ATOM     12  N   UNL A   1      35.429  22.242  24.398  1.00  0.00    -0.353 N 
ATOM     13  C   UNL A   1      31.856  22.582  23.292  1.00  0.00     0.008 C 
ATOM     14  C   UNL A   1      32.776  23.377  24.216  1.00  0.00    -0.011 C 
ATOM     15  C   UNL A   1      33.982  23.965  23.468  1.00  0.00     0.025 C 
ATOM     16  C   UNL A   1      33.230  22.563  25.440  1.00  0.00     0.028 C 
ATOM     17  C   UNL A   1      35.044  22.913  23.168  1.00  0.00     0.118 C 
ATOM     18  C   UNL A   1      34.404  21.589  25.216  1.00  0.00     0.081 C 
ATOM     19  C   UNL A   1      34.015  20.239  24.626  1.00  0.00     0.031 C 
ENDBRANCH   7  12
ENDBRANCH   4   6
ENDBRANCH   3   4
ENDBRANCH   2   3
ENDBRANCH   1   2
BRANCH   1  20
ATOM     20  O   UNL A   1      42.268  22.341  25.404  1.00  0.00    -0.458 OA
BRANCH  20  21
ATOM     21  C   UNL A   1      43.056  23.433  25.312  1.00  0.00     0.338 C 
ATOM     22  O   UNL A   1      44.008  23.614  24.569  1.00  0.00    -0.246 OA
BRANCH  21  23
ATOM     23  C   UNL A   1      42.573  24.463  26.241  1.00  0.00     0.060 A 
ATOM     24  C   UNL A   1      43.000  25.777  26.066  1.00  0.00     0.016 A 
ATOM     25  C   UNL A   1      41.817  24.114  27.356  1.00  0.00     0.016 A 
ATOM     26  C   UNL A   1      42.760  26.731  27.048  1.00  0.00     0.010 A 
ATOM     27  C   UNL A   1      41.482  25.100  28.289  1.00  0.00     0.010 A 
ATOM     28  C   UNL A   1      41.976  26.413  28.162  1.00  0.00    -0.014 A 
BRANCH  28  29
ATOM     29  C   UNL A   1      41.682  27.435  29.203  1.00  0.00     0.031 A 
ATOM     30  C   UNL A   1      42.493  27.467  30.469  1.00  0.00     0.074 A 
ATOM     31  C   UNL A   1      40.685  28.325  29.031  1.00  0.00     0.049 A 
ATOM     32  N   UNL A   1      42.238  28.070  31.601  1.00  0.00    -0.248 NA
ATOM     33  C   UNL A   1      43.751  26.705  30.463  1.00  0.00     0.031 C 
ATOM     34  C   UNL A   1      39.858  28.457  27.830  1.00  0.00     0.029 A 
ATOM     35  N   UNL A   1      40.188  29.282  29.881  1.00  0.00    -0.354 N 
ATOM     36  C   UNL A   1      43.267  27.709  32.462  1.00  0.00     0.074 A 
ATOM     37  C   UNL A   1      44.155  26.840  31.718  1.00  0.00     0.031 C 
ATOM     38  C   UNL A   1      38.971  29.444  28.012  1.00  0.00     0.029 A 
ATOM     39  C   UNL A   1      39.098  29.947  29.374  1.00  0.00     0.049 A 
ATOM     40  H   UNL A   1      40.575  29.473  30.766  1.00  0.00     0.167 HD
ATOM     41  C   UNL A   1      43.445  28.064  33.757  1.00  0.00     0.037 A 
ATOM     42  C   UNL A   1      38.250  30.817  29.956  1.00  0.00     0.037 A 
ATOM     43  C   UNL A   1      42.583  28.969  34.472  1.00  0.00     0.049 A 
ATOM     44  C   UNL A   1      38.443  31.172  31.401  1.00  0.00     0.074 A 
ATOM     45  C   UNL A   1      42.669  29.388  35.789  1.00  0.00     0.029 A 
ATOM     46  N   UNL A   1      41.488  29.615  33.919  1.00  0.00    -0.354 N 
ATOM     47  N   UNL A   1      39.362  30.755  32.237  1.00  0.00    -0.248 NA
ATOM     48  C   UNL A   1      37.469  32.100  31.991  1.00  0.00     0.031 C 
ATOM     49  C   UNL A   1      41.611  30.269  36.038  1.00  0.00     0.029 A 
ATOM     50  C   UNL A   1      40.887  30.426  34.867  1.00  0.00     0.049 A 
ATOM     51  H   UNL A   1      41.182  29.511  32.989  1.00  0.00     0.167 HD
ATOM     52  C   UNL A   1      39.084  31.372  33.448  1.00  0.00     0.074 A 
ATOM     53  C   UNL A   1      37.919  32.205  33.235  1.00  0.00     0.031 C 
ATOM     54  C   UNL A   1      39.733  31.253  34.631  1.00  0.00     0.037 A 
BRANCH  41  55
ATOM     55  C   UNL A   1      44.591  27.438  34.494  1.00  0.00     0.057 A 
ATOM     56  C   UNL A   1      45.848  28.047  34.577  1.00  0.00     0.134 A 
ATOM     57  C   UNL A   1      44.423  26.210  35.150  1.00  0.00     0.134 A 
ATOM     58  F   UNL A   1      46.079  29.215  33.959  1.00  0.00    -0.206 F 
ATOM     59  C   UNL A   1      46.905  27.448  35.266  1.00  0.00     0.040 A 
ATOM     60  C   UNL A   1      45.465  25.612  35.861  1.00  0.00     0.040 A 
ATOM     61  F   UNL A   1      43.243  25.574  35.114  1.00  0.00    -0.206 F 
ATOM     62  C   UNL A   1      46.714  26.228  35.915  1.00  0.00     0.006 A 
ENDBRANCH  41  55
BRANCH  42  63
ATOM     63  C   UNL A   1      37.107  31.354  29.180  1.00  0.00     0.057 A 
ATOM     64  C   UNL A   1      35.963  30.585  28.948  1.00  0.00     0.134 A 
ATOM     65  C   UNL A   1      37.117  32.664  28.680  1.00  0.00     0.134 A 
ATOM     66  F   UNL A   1      35.903  29.317  29.382  1.00  0.00    -0.206 F 
ATOM     67  C   UNL A   1      34.868  31.097  28.248  1.00  0.00     0.040 A 
ATOM     68  C   UNL A   1      36.021  33.197  28.001  1.00  0.00     0.040 A 
ATOM     69  F   UNL A   1      38.184  33.453  28.872  1.00  0.00    -0.206 F 
ATOM     70  C   UNL A   1      34.892  32.409  27.782  1.00  0.00     0.006 A 
ENDBRANCH  42  63
BRANCH  54  71
ATOM     71  C   UNL A   1      39.216  32.071  35.775  1.00  0.00     0.057 A 
ATOM     72  C   UNL A   1      39.655  33.382  35.998  1.00  0.00     0.134 A 
ATOM     73  C   UNL A   1      38.240  31.554  36.634  1.00  0.00     0.134 A 
ATOM     74  F   UNL A   1      40.599  33.926  35.216  1.00  0.00    -0.206 F 
ATOM     75  C   UNL A   1      39.147  34.148  37.048  1.00  0.00     0.040 A 
ATOM     76  C   UNL A   1      37.713  32.317  37.677  1.00  0.00     0.040 A 
ATOM     77  F   UNL A   1      37.779  30.306  36.468  1.00  0.00    -0.206 F 
ATOM     78  C   UNL A   1      38.168  33.616  37.887  1.00  0.00     0.006 A 
ENDBRANCH  54  71
ENDBRANCH  28  29
ENDBRANCH  21  23
ENDBRANCH  20  21
ENDBRANCH   1  20
TORSDOF 12
ENDMDL
