MODEL 1
REMARK VINA RESULT:     -11.4      0.000      0.000
REMARK SMILES O=C(Cc1ccc(NC(=O)C2CCCC2)cc1)OCCOC(=O)c1ccc(-c2c3nc(c(-c4c(F)cccc4F)c4ccc([nH]4)c(-c4c(F)cccc4F)c4nc(c(-c5c(F)cccc5F)c5ccc2[nH]5)C=C4)C=C3)cc1
REMARK SMILES IDX 19 1 18 2 2 3 1 4 3 5 4 6 5 7 17 8 6 9 16 10 7 11 8 12 9 13
REMARK SMILES IDX 10 15 11 16 12 17 15 18 13 19 14 20 20 21 21 22 22 23 23 24
REMARK SMILES IDX 24 25 25 26 77 27 26 28 76 29 27 30 28 31 29 32 70 33 30 34
REMARK SMILES IDX 75 35 69 36 71 37 31 38 74 39 68 40 67 41 32 43 58 44 41 45
REMARK SMILES IDX 57 46 42 47 45 48 56 49 72 50 43 51 44 52 55 54 73 55 46 56
REMARK SMILES IDX 33 57 34 58 39 59 35 60 36 61 38 62 40 63 37 64 59 65 60 66
REMARK SMILES IDX 65 67 61 68 62 69 64 70 66 71 63 72 47 73 48 74 53 75 49 76
REMARK SMILES IDX 50 77 52 78 54 79 51 80
REMARK H PARENT 8 14 71 42 45 53
REMARK Flexibility Score: inf
ROOT
ATOM      1  C   UNL A   1      43.159  20.615  25.891  1.00  0.00     0.274 C 
ENDROOT
BRANCH   1   2
ATOM      2  O   UNL A   1      41.736  20.843  25.821  1.00  0.00    -0.462 OA
BRANCH   2   3
ATOM      3  C   UNL A   1      40.900  20.966  26.877  1.00  0.00     0.310 C 
ATOM      4  O   UNL A   1      40.734  20.020  27.646  1.00  0.00    -0.252 OA
BRANCH   3   5
ATOM      5  C   UNL A   1      40.108  22.232  27.051  1.00  0.00     0.158 C 
BRANCH   5   6
ATOM      6  C   UNL A   1      38.847  22.383  26.250  1.00  0.00    -0.037 A 
ATOM      7  C   UNL A   1      38.178  23.614  26.240  1.00  0.00     0.006 A 
ATOM      8  C   UNL A   1      38.380  21.355  25.432  1.00  0.00     0.006 A 
ATOM      9  C   UNL A   1      37.110  23.838  25.377  1.00  0.00     0.026 A 
ATOM     10  C   UNL A   1      37.341  21.604  24.532  1.00  0.00     0.026 A 
ATOM     11  C   UNL A   1      36.766  22.878  24.436  1.00  0.00     0.041 A 
BRANCH  11  12
ATOM     12  N   UNL A   1      35.917  23.109  23.347  1.00  0.00    -0.326 N 
ATOM     13  C   UNL A   1      34.563  23.072  23.187  1.00  0.00     0.227 C 
ATOM     14  H   UNL A   1      36.400  23.349  22.522  1.00  0.00     0.169 HD
ATOM     15  O   UNL A   1      34.148  23.334  22.051  1.00  0.00    -0.274 OA
BRANCH  13  16
ATOM     16  C   UNL A   1      33.588  22.724  24.310  1.00  0.00     0.079 C 
ATOM     17  C   UNL A   1      32.205  23.379  24.266  1.00  0.00     0.013 C 
ATOM     18  C   UNL A   1      33.186  21.239  24.264  1.00  0.00     0.013 C 
ATOM     19  C   UNL A   1      31.405  22.557  25.267  1.00  0.00     0.001 C 
ATOM     20  C   UNL A   1      31.910  21.130  25.098  1.00  0.00     0.001 C 
ENDBRANCH  13  16
ENDBRANCH  11  12
ENDBRANCH   5   6
ENDBRANCH   3   5
ENDBRANCH   2   3
ENDBRANCH   1   2
BRANCH   1  21
ATOM     21  C   UNL A   1      43.966  21.739  25.242  1.00  0.00     0.275 C 
BRANCH  21  22
ATOM     22  O   UNL A   1      43.234  22.978  25.245  1.00  0.00    -0.458 OA
BRANCH  22  23
ATOM     23  C   UNL A   1      43.985  24.108  25.268  1.00  0.00     0.338 C 
ATOM     24  O   UNL A   1      44.903  24.395  24.522  1.00  0.00    -0.246 OA
BRANCH  23  25
ATOM     25  C   UNL A   1      43.389  25.054  26.236  1.00  0.00     0.060 A 
ATOM     26  C   UNL A   1      43.748  26.407  26.147  1.00  0.00     0.016 A 
ATOM     27  C   UNL A   1      42.466  24.630  27.195  1.00  0.00     0.016 A 
ATOM     28  C   UNL A   1      43.193  27.338  27.027  1.00  0.00     0.010 A 
ATOM     29  C   UNL A   1      41.926  25.558  28.086  1.00  0.00     0.010 A 
ATOM     30  C   UNL A   1      42.300  26.911  28.019  1.00  0.00    -0.014 A 
BRANCH  30  31
ATOM     31  C   UNL A   1      41.871  27.828  29.099  1.00  0.00     0.031 A 
ATOM     32  C   UNL A   1      42.584  27.761  30.418  1.00  0.00     0.074 A 
ATOM     33  C   UNL A   1      40.824  28.655  28.936  1.00  0.00     0.049 A 
ATOM     34  N   UNL A   1      42.303  28.360  31.546  1.00  0.00    -0.248 NA
ATOM     35  C   UNL A   1      43.764  26.885  30.472  1.00  0.00     0.031 C 
ATOM     36  C   UNL A   1      40.062  28.823  27.701  1.00  0.00     0.029 A 
ATOM     37  N   UNL A   1      40.202  29.484  29.836  1.00  0.00    -0.354 N 
ATOM     38  C   UNL A   1      43.263  27.924  32.448  1.00  0.00     0.074 A 
ATOM     39  C   UNL A   1      44.121  26.996  31.741  1.00  0.00     0.031 C 
ATOM     40  C   UNL A   1      39.049  29.677  27.931  1.00  0.00     0.029 A 
ATOM     41  C   UNL A   1      39.077  30.089  29.334  1.00  0.00     0.049 A 
ATOM     42  H   UNL A   1      40.531  29.631  30.751  1.00  0.00     0.167 HD
ATOM     43  C   UNL A   1      43.418  28.265  33.748  1.00  0.00     0.037 A 
ATOM     44  C   UNL A   1      38.158  30.858  29.948  1.00  0.00     0.037 A 
ATOM     45  C   UNL A   1      42.558  29.174  34.455  1.00  0.00     0.049 A 
ATOM     46  C   UNL A   1      38.314  31.186  31.411  1.00  0.00     0.074 A 
ATOM     47  C   UNL A   1      42.649  29.607  35.765  1.00  0.00     0.029 A 
ATOM     48  N   UNL A   1      41.435  29.779  33.909  1.00  0.00    -0.354 N 
ATOM     49  N   UNL A   1      39.252  30.807  32.246  1.00  0.00    -0.248 NA
ATOM     50  C   UNL A   1      37.285  32.044  32.016  1.00  0.00     0.031 C 
ATOM     51  C   UNL A   1      41.554  30.438  36.026  1.00  0.00     0.029 A 
ATOM     52  C   UNL A   1      40.807  30.558  34.864  1.00  0.00     0.049 A 
ATOM     53  H   UNL A   1      41.130  29.668  32.979  1.00  0.00     0.167 HD
ATOM     54  C   UNL A   1      38.942  31.400  33.464  1.00  0.00     0.074 A 
ATOM     55  C   UNL A   1      37.730  32.167  33.259  1.00  0.00     0.031 C 
ATOM     56  C   UNL A   1      39.606  31.322  34.644  1.00  0.00     0.037 A 
BRANCH  43  57
ATOM     57  C   UNL A   1      44.540  27.608  34.492  1.00  0.00     0.057 A 
ATOM     58  C   UNL A   1      44.367  26.395  35.172  1.00  0.00     0.134 A 
ATOM     59  C   UNL A   1      45.806  28.204  34.542  1.00  0.00     0.134 A 
ATOM     60  F   UNL A   1      43.172  25.784  35.179  1.00  0.00    -0.206 F 
ATOM     61  C   UNL A   1      45.404  25.816  35.905  1.00  0.00     0.040 A 
ATOM     62  C   UNL A   1      46.857  27.623  35.251  1.00  0.00     0.040 A 
ATOM     63  F   UNL A   1      46.037  29.366  33.912  1.00  0.00    -0.206 F 
ATOM     64  C   UNL A   1      46.655  26.430  35.943  1.00  0.00     0.006 A 
ENDBRANCH  43  57
BRANCH  44  65
ATOM     65  C   UNL A   1      36.990  31.358  29.181  1.00  0.00     0.057 A 
ATOM     66  C   UNL A   1      36.950  32.668  28.694  1.00  0.00     0.134 A 
ATOM     67  C   UNL A   1      35.890  30.535  28.913  1.00  0.00     0.134 A 
ATOM     68  F   UNL A   1      37.966  33.510  28.940  1.00  0.00    -0.206 F 
ATOM     69  C   UNL A   1      35.855  33.146  27.972  1.00  0.00     0.040 A 
ATOM     70  C   UNL A   1      34.797  30.992  28.177  1.00  0.00     0.040 A 
ATOM     71  F   UNL A   1      35.869  29.268  29.354  1.00  0.00    -0.206 F 
ATOM     72  C   UNL A   1      34.777  32.304  27.707  1.00  0.00     0.006 A 
ENDBRANCH  44  65
BRANCH  56  73
ATOM     73  C   UNL A   1      39.064  32.108  35.801  1.00  0.00     0.057 A 
ATOM     74  C   UNL A   1      38.217  31.531  36.754  1.00  0.00     0.134 A 
ATOM     75  C   UNL A   1      39.460  33.436  36.005  1.00  0.00     0.134 A 
ATOM     76  F   UNL A   1      37.794  30.267  36.611  1.00  0.00    -0.206 F 
ATOM     77  C   UNL A   1      37.776  32.250  37.866  1.00  0.00     0.040 A 
ATOM     78  C   UNL A   1      39.044  34.159  37.124  1.00  0.00     0.040 A 
ATOM     79  F   UNL A   1      40.279  34.044  35.132  1.00  0.00    -0.206 F 
ATOM     80  C   UNL A   1      38.198  33.566  38.058  1.00  0.00     0.006 A 
ENDBRANCH  56  73
ENDBRANCH  30  31
ENDBRANCH  23  25
ENDBRANCH  22  23
ENDBRANCH  21  22
ENDBRANCH   1  21
TORSDOF 14
ENDMDL
MODEL 2
REMARK VINA RESULT:     -11.3      1.479      2.681
REMARK SMILES O=C(Cc1ccc(NC(=O)C2CCCC2)cc1)OCCOC(=O)c1ccc(-c2c3nc(c(-c4c(F)cccc4F)c4ccc([nH]4)c(-c4c(F)cccc4F)c4nc(c(-c5c(F)cccc5F)c5ccc2[nH]5)C=C4)C=C3)cc1
REMARK SMILES IDX 19 1 18 2 2 3 1 4 3 5 4 6 5 7 17 8 6 9 16 10 7 11 8 12 9 13
REMARK SMILES IDX 10 15 11 16 12 17 15 18 13 19 14 20 20 21 21 22 22 23 23 24
REMARK SMILES IDX 24 25 25 26 77 27 26 28 76 29 27 30 28 31 29 32 70 33 30 34
REMARK SMILES IDX 75 35 69 36 71 37 31 38 74 39 68 40 67 41 32 43 58 44 41 45
REMARK SMILES IDX 57 46 42 47 45 48 56 49 72 50 43 51 44 52 55 54 73 55 46 56
REMARK SMILES IDX 33 57 34 58 39 59 35 60 36 61 38 62 40 63 37 64 59 65 60 66
REMARK SMILES IDX 65 67 61 68 62 69 64 70 66 71 63 72 47 73 48 74 53 75 49 76
REMARK SMILES IDX 50 77 52 78 54 79 51 80
REMARK H PARENT 8 14 71 42 45 53
REMARK Flexibility Score: inf
ROOT
ATOM      1  C   UNL A   1      40.853  20.661  26.187  1.00  0.00     0.274 C 
ENDROOT
BRANCH   1   2
ATOM      2  O   UNL A   1      39.829  21.620  26.521  1.00  0.00    -0.462 OA
BRANCH   2   3
ATOM      3  C   UNL A   1      38.662  21.795  25.860  1.00  0.00     0.310 C 
ATOM      4  O   UNL A   1      38.199  20.886  25.173  1.00  0.00    -0.252 OA
BRANCH   3   5
ATOM      5  C   UNL A   1      37.984  23.138  25.899  1.00  0.00     0.158 C 
BRANCH   5   6
ATOM      6  C   UNL A   1      36.540  23.204  25.492  1.00  0.00    -0.037 A 
ATOM      7  C   UNL A   1      35.548  22.837  26.410  1.00  0.00     0.006 A 
ATOM      8  C   UNL A   1      36.158  23.721  24.255  1.00  0.00     0.006 A 
ATOM      9  C   UNL A   1      34.202  23.050  26.127  1.00  0.00     0.026 A 
ATOM     10  C   UNL A   1      34.809  23.979  23.999  1.00  0.00     0.026 A 
ATOM     11  C   UNL A   1      33.835  23.732  24.976  1.00  0.00     0.041 A 
BRANCH  11  12
ATOM     12  N   UNL A   1      32.556  24.249  24.739  1.00  0.00    -0.326 N 
ATOM     13  C   UNL A   1      31.874  25.326  25.222  1.00  0.00     0.227 C 
ATOM     14  H   UNL A   1      32.039  23.723  24.085  1.00  0.00     0.169 HD
ATOM     15  O   UNL A   1      30.727  25.480  24.783  1.00  0.00    -0.274 OA
BRANCH  13  16
ATOM     16  C   UNL A   1      32.449  26.301  26.248  1.00  0.00     0.079 C 
ATOM     17  C   UNL A   1      33.593  27.209  25.790  1.00  0.00     0.013 C 
ATOM     18  C   UNL A   1      31.411  27.360  26.660  1.00  0.00     0.013 C 
ATOM     19  C   UNL A   1      33.659  28.259  26.891  1.00  0.00     0.001 C 
ATOM     20  C   UNL A   1      32.209  28.498  27.294  1.00  0.00     0.001 C 
ENDBRANCH  13  16
ENDBRANCH  11  12
ENDBRANCH   5   6
ENDBRANCH   3   5
ENDBRANCH   2   3
ENDBRANCH   1   2
BRANCH   1  21
ATOM     21  C   UNL A   1      42.223  21.309  25.990  1.00  0.00     0.275 C 
BRANCH  21  22
ATOM     22  O   UNL A   1      42.118  22.538  25.248  1.00  0.00    -0.458 OA
BRANCH  22  23
ATOM     23  C   UNL A   1      43.135  23.420  25.417  1.00  0.00     0.338 C 
ATOM     24  O   UNL A   1      44.188  23.452  24.806  1.00  0.00    -0.246 OA
BRANCH  23  25
ATOM     25  C   UNL A   1      42.692  24.483  26.344  1.00  0.00     0.060 A 
ATOM     26  C   UNL A   1      43.371  25.711  26.318  1.00  0.00     0.016 A 
ATOM     27  C   UNL A   1      41.607  24.294  27.203  1.00  0.00     0.016 A 
ATOM     28  C   UNL A   1      42.972  26.749  27.161  1.00  0.00     0.010 A 
ATOM     29  C   UNL A   1      41.222  25.328  28.059  1.00  0.00     0.010 A 
ATOM     30  C   UNL A   1      41.913  26.551  28.055  1.00  0.00    -0.014 A 
BRANCH  30  31
ATOM     31  C   UNL A   1      41.613  27.547  29.109  1.00  0.00     0.031 A 
ATOM     32  C   UNL A   1      42.377  27.472  30.399  1.00  0.00     0.074 A 
ATOM     33  C   UNL A   1      40.635  28.454  28.953  1.00  0.00     0.049 A 
ATOM     34  N   UNL A   1      42.200  28.141  31.509  1.00  0.00    -0.248 NA
ATOM     35  C   UNL A   1      43.479  26.500  30.444  1.00  0.00     0.031 C 
ATOM     36  C   UNL A   1      39.834  28.637  27.745  1.00  0.00     0.029 A 
ATOM     37  N   UNL A   1      40.128  29.372  29.839  1.00  0.00    -0.354 N 
ATOM     38  C   UNL A   1      43.160  27.661  32.390  1.00  0.00     0.074 A 
ATOM     39  C   UNL A   1      43.902  26.632  31.691  1.00  0.00     0.031 C 
ATOM     40  C   UNL A   1      38.910  29.584  27.977  1.00  0.00     0.029 A 
ATOM     41  C   UNL A   1      39.037  30.051  29.357  1.00  0.00     0.049 A 
ATOM     42  H   UNL A   1      40.509  29.527  30.732  1.00  0.00     0.167 HD
ATOM     43  C   UNL A   1      43.402  28.041  33.665  1.00  0.00     0.037 A 
ATOM     44  C   UNL A   1      38.216  30.924  29.973  1.00  0.00     0.037 A 
ATOM     45  C   UNL A   1      42.656  29.051  34.365  1.00  0.00     0.049 A 
ATOM     46  C   UNL A   1      38.466  31.297  31.411  1.00  0.00     0.074 A 
ATOM     47  C   UNL A   1      42.843  29.529  35.649  1.00  0.00     0.029 A 
ATOM     48  N   UNL A   1      41.565  29.728  33.839  1.00  0.00    -0.354 N 
ATOM     49  N   UNL A   1      39.405  30.873  32.223  1.00  0.00    -0.248 NA
ATOM     50  C   UNL A   1      37.543  32.267  32.019  1.00  0.00     0.031 C 
ATOM     51  C   UNL A   1      41.837  30.463  35.917  1.00  0.00     0.029 A 
ATOM     52  C   UNL A   1      41.051  30.599  34.783  1.00  0.00     0.049 A 
ATOM     53  H   UNL A   1      41.210  29.606  32.929  1.00  0.00     0.167 HD
ATOM     54  C   UNL A   1      39.203  31.542  33.424  1.00  0.00     0.074 A 
ATOM     55  C   UNL A   1      38.053  32.402  33.236  1.00  0.00     0.031 C 
ATOM     56  C   UNL A   1      39.910  31.456  34.578  1.00  0.00     0.037 A 
BRANCH  43  57
ATOM     57  C   UNL A   1      44.497  27.320  34.391  1.00  0.00     0.057 A 
ATOM     58  C   UNL A   1      45.820  27.781  34.380  1.00  0.00     0.134 A 
ATOM     59  C   UNL A   1      44.227  26.140  35.095  1.00  0.00     0.134 A 
ATOM     60  F   UNL A   1      46.145  28.895  33.705  1.00  0.00    -0.206 F 
ATOM     61  C   UNL A   1      46.842  27.076  35.015  1.00  0.00     0.040 A 
ATOM     62  C   UNL A   1      45.237  25.439  35.754  1.00  0.00     0.040 A 
ATOM     63  F   UNL A   1      42.981  25.646  35.144  1.00  0.00    -0.206 F 
ATOM     64  C   UNL A   1      46.551  25.902  35.707  1.00  0.00     0.006 A 
ENDBRANCH  43  57
BRANCH  44  65
ATOM     65  C   UNL A   1      37.061  31.491  29.234  1.00  0.00     0.057 A 
ATOM     66  C   UNL A   1      35.882  30.760  29.060  1.00  0.00     0.134 A 
ATOM     67  C   UNL A   1      37.110  32.779  28.688  1.00  0.00     0.134 A 
ATOM     68  F   UNL A   1      35.786  29.511  29.541  1.00  0.00    -0.206 F 
ATOM     69  C   UNL A   1      34.792  31.286  28.365  1.00  0.00     0.040 A 
ATOM     70  C   UNL A   1      36.021  33.326  28.008  1.00  0.00     0.040 A 
ATOM     71  F   UNL A   1      38.213  33.530  28.822  1.00  0.00    -0.206 F 
ATOM     72  C   UNL A   1      34.859  32.576  27.842  1.00  0.00     0.006 A 
ENDBRANCH  44  65
BRANCH  56  73
ATOM     73  C   UNL A   1      39.492  32.333  35.720  1.00  0.00     0.057 A 
ATOM     74  C   UNL A   1      39.988  33.633  35.874  1.00  0.00     0.134 A 
ATOM     75  C   UNL A   1      38.521  31.897  36.631  1.00  0.00     0.134 A 
ATOM     76  F   UNL A   1      40.926  34.105  35.041  1.00  0.00    -0.206 F 
ATOM     77  C   UNL A   1      39.538  34.467  36.900  1.00  0.00     0.040 A 
ATOM     78  C   UNL A   1      38.047  32.729  37.647  1.00  0.00     0.040 A 
ATOM     79  F   UNL A   1      37.998  30.665  36.532  1.00  0.00    -0.206 F 
ATOM     80  C   UNL A   1      38.558  34.018  37.784  1.00  0.00     0.006 A 
ENDBRANCH  56  73
ENDBRANCH  30  31
ENDBRANCH  23  25
ENDBRANCH  22  23
ENDBRANCH  21  22
ENDBRANCH   1  21
TORSDOF 14
ENDMDL
MODEL 3
REMARK VINA RESULT:     -11.3      1.325      2.297
REMARK SMILES O=C(Cc1ccc(NC(=O)C2CCCC2)cc1)OCCOC(=O)c1ccc(-c2c3nc(c(-c4c(F)cccc4F)c4ccc([nH]4)c(-c4c(F)cccc4F)c4nc(c(-c5c(F)cccc5F)c5ccc2[nH]5)C=C4)C=C3)cc1
REMARK SMILES IDX 19 1 18 2 2 3 1 4 3 5 4 6 5 7 17 8 6 9 16 10 7 11 8 12 9 13
REMARK SMILES IDX 10 15 11 16 12 17 15 18 13 19 14 20 20 21 21 22 22 23 23 24
REMARK SMILES IDX 24 25 25 26 77 27 26 28 76 29 27 30 28 31 29 32 70 33 30 34
REMARK SMILES IDX 75 35 69 36 71 37 31 38 74 39 68 40 67 41 32 43 58 44 41 45
REMARK SMILES IDX 57 46 42 47 45 48 56 49 72 50 43 51 44 52 55 54 73 55 46 56
REMARK SMILES IDX 33 57 34 58 39 59 35 60 36 61 38 62 40 63 37 64 59 65 60 66
REMARK SMILES IDX 65 67 61 68 62 69 64 70 66 71 63 72 47 73 48 74 53 75 49 76
REMARK SMILES IDX 50 77 52 78 54 79 51 80
REMARK H PARENT 8 14 71 42 45 53
REMARK Flexibility Score: inf
ROOT
ATOM      1  C   UNL A   1      42.711  20.502  26.089  1.00  0.00     0.274 C 
ENDROOT
BRANCH   1   2
ATOM      2  O   UNL A   1      41.321  20.739  25.785  1.00  0.00    -0.462 OA
BRANCH   2   3
ATOM      3  C   UNL A   1      40.434  21.376  26.583  1.00  0.00     0.310 C 
ATOM      4  O   UNL A   1      40.382  21.112  27.783  1.00  0.00    -0.252 OA
BRANCH   3   5
ATOM      5  C   UNL A   1      39.451  22.340  25.975  1.00  0.00     0.158 C 
BRANCH   5   6
ATOM      6  C   UNL A   1      38.044  21.862  25.764  1.00  0.00    -0.037 A 
ATOM      7  C   UNL A   1      36.973  22.678  26.150  1.00  0.00     0.006 A 
ATOM      8  C   UNL A   1      37.776  20.667  25.097  1.00  0.00     0.006 A 
ATOM      9  C   UNL A   1      35.665  22.345  25.812  1.00  0.00     0.026 A 
ATOM     10  C   UNL A   1      36.465  20.365  24.717  1.00  0.00     0.026 A 
ATOM     11  C   UNL A   1      35.417  21.253  24.992  1.00  0.00     0.041 A 
BRANCH  11  12
ATOM     12  N   UNL A   1      34.193  21.001  24.362  1.00  0.00    -0.326 N 
ATOM     13  C   UNL A   1      33.386  19.904  24.282  1.00  0.00     0.227 C 
ATOM     14  H   UNL A   1      33.839  21.780  23.874  1.00  0.00     0.169 HD
ATOM     15  O   UNL A   1      32.352  20.043  23.616  1.00  0.00    -0.274 OA
BRANCH  13  16
ATOM     16  C   UNL A   1      33.707  18.567  24.947  1.00  0.00     0.079 C 
ATOM     17  C   UNL A   1      32.525  17.718  25.420  1.00  0.00     0.013 C 
ATOM     18  C   UNL A   1      34.364  17.590  23.956  1.00  0.00     0.013 C 
ATOM     19  C   UNL A   1      33.160  16.357  25.673  1.00  0.00     0.001 C 
ATOM     20  C   UNL A   1      34.209  16.203  24.578  1.00  0.00     0.001 C 
ENDBRANCH  13  16
ENDBRANCH  11  12
ENDBRANCH   5   6
ENDBRANCH   3   5
ENDBRANCH   2   3
ENDBRANCH   1   2
BRANCH   1  21
ATOM     21  C   UNL A   1      43.643  21.491  25.390  1.00  0.00     0.275 C 
BRANCH  21  22
ATOM     22  O   UNL A   1      42.955  22.711  25.057  1.00  0.00    -0.458 OA
BRANCH  22  23
ATOM     23  C   UNL A   1      43.719  23.832  25.031  1.00  0.00     0.338 C 
ATOM     24  O   UNL A   1      44.605  24.098  24.241  1.00  0.00    -0.246 OA
BRANCH  23  25
ATOM     25  C   UNL A   1      43.178  24.798  26.012  1.00  0.00     0.060 A 
ATOM     26  C   UNL A   1      43.639  26.121  25.964  1.00  0.00     0.016 A 
ATOM     27  C   UNL A   1      42.208  24.421  26.945  1.00  0.00     0.016 A 
ATOM     28  C   UNL A   1      43.139  27.070  26.858  1.00  0.00     0.010 A 
ATOM     29  C   UNL A   1      41.723  25.367  27.850  1.00  0.00     0.010 A 
ATOM     30  C   UNL A   1      42.199  26.689  27.823  1.00  0.00    -0.014 A 
BRANCH  30  31
ATOM     31  C   UNL A   1      41.819  27.610  28.918  1.00  0.00     0.031 A 
ATOM     32  C   UNL A   1      42.552  27.505  30.224  1.00  0.00     0.074 A 
ATOM     33  C   UNL A   1      40.799  28.473  28.780  1.00  0.00     0.049 A 
ATOM     34  N   UNL A   1      42.311  28.103  31.362  1.00  0.00    -0.248 NA
ATOM     35  C   UNL A   1      43.702  26.589  30.250  1.00  0.00     0.031 C 
ATOM     36  C   UNL A   1      40.022  28.679  27.561  1.00  0.00     0.029 A 
ATOM     37  N   UNL A   1      40.221  29.314  29.698  1.00  0.00    -0.354 N 
ATOM     38  C   UNL A   1      43.271  27.626  32.243  1.00  0.00     0.074 A 
ATOM     39  C   UNL A   1      44.085  26.676  31.514  1.00  0.00     0.031 C 
ATOM     40  C   UNL A   1      39.044  29.564  27.815  1.00  0.00     0.029 A 
ATOM     41  C   UNL A   1      39.109  29.962  29.221  1.00  0.00     0.049 A 
ATOM     42  H   UNL A   1      40.571  29.441  30.609  1.00  0.00     0.167 HD
ATOM     43  C   UNL A   1      43.459  27.950  33.544  1.00  0.00     0.037 A 
ATOM     44  C   UNL A   1      38.227  30.757  29.858  1.00  0.00     0.037 A 
ATOM     45  C   UNL A   1      42.643  28.881  34.273  1.00  0.00     0.049 A 
ATOM     46  C   UNL A   1      38.420  31.065  31.320  1.00  0.00     0.074 A 
ATOM     47  C   UNL A   1      42.771  29.298  35.585  1.00  0.00     0.029 A 
ATOM     48  N   UNL A   1      41.532  29.529  33.752  1.00  0.00    -0.354 N 
ATOM     49  N   UNL A   1      39.358  30.646  32.136  1.00  0.00    -0.248 NA
ATOM     50  C   UNL A   1      37.431  31.953  31.951  1.00  0.00     0.031 C 
ATOM     51  C   UNL A   1      41.710  30.164  35.872  1.00  0.00     0.029 A 
ATOM     52  C   UNL A   1      40.948  30.321  34.725  1.00  0.00     0.049 A 
ATOM     53  H   UNL A   1      41.208  29.437  32.827  1.00  0.00     0.167 HD
ATOM     54  C   UNL A   1      39.089  31.239  33.364  1.00  0.00     0.074 A 
ATOM     55  C   UNL A   1      37.901  32.048  33.187  1.00  0.00     0.031 C 
ATOM     56  C   UNL A   1      39.770  31.127  34.532  1.00  0.00     0.037 A 
BRANCH  43  57
ATOM     57  C   UNL A   1      44.571  27.248  34.262  1.00  0.00     0.057 A 
ATOM     58  C   UNL A   1      45.867  27.778  34.316  1.00  0.00     0.134 A 
ATOM     59  C   UNL A   1      44.347  26.017  34.892  1.00  0.00     0.134 A 
ATOM     60  F   UNL A   1      46.150  28.943  33.714  1.00  0.00    -0.206 F 
ATOM     61  C   UNL A   1      46.908  27.092  34.943  1.00  0.00     0.040 A 
ATOM     62  C   UNL A   1      45.375  25.335  35.543  1.00  0.00     0.040 A 
ATOM     63  F   UNL A   1      43.128  25.456  34.876  1.00  0.00    -0.206 F 
ATOM     64  C   UNL A   1      46.662  25.868  35.561  1.00  0.00     0.006 A 
ENDBRANCH  43  57
BRANCH  44  65
ATOM     65  C   UNL A   1      37.065  31.303  29.116  1.00  0.00     0.057 A 
ATOM     66  C   UNL A   1      35.934  30.520  28.863  1.00  0.00     0.134 A 
ATOM     67  C   UNL A   1      37.056  32.623  28.648  1.00  0.00     0.134 A 
ATOM     68  F   UNL A   1      35.895  29.242  29.267  1.00  0.00    -0.206 F 
ATOM     69  C   UNL A   1      34.836  31.027  28.165  1.00  0.00     0.040 A 
ATOM     70  C   UNL A   1      35.958  33.148  27.966  1.00  0.00     0.040 A 
ATOM     71  F   UNL A   1      38.111  33.423  28.860  1.00  0.00    -0.206 F 
ATOM     72  C   UNL A   1      34.845  32.347  27.719  1.00  0.00     0.006 A 
ENDBRANCH  44  65
BRANCH  56  73
ATOM     73  C   UNL A   1      39.276  31.919  35.705  1.00  0.00     0.057 A 
ATOM     74  C   UNL A   1      39.691  33.236  35.936  1.00  0.00     0.134 A 
ATOM     75  C   UNL A   1      38.313  31.382  36.570  1.00  0.00     0.134 A 
ATOM     76  F   UNL A   1      40.617  33.804  35.151  1.00  0.00    -0.206 F 
ATOM     77  C   UNL A   1      39.170  33.989  36.990  1.00  0.00     0.040 A 
ATOM     78  C   UNL A   1      37.769  32.131  37.614  1.00  0.00     0.040 A 
ATOM     79  F   UNL A   1      37.867  30.128  36.397  1.00  0.00    -0.206 F 
ATOM     80  C   UNL A   1      38.200  33.440  37.827  1.00  0.00     0.006 A 
ENDBRANCH  56  73
ENDBRANCH  30  31
ENDBRANCH  23  25
ENDBRANCH  22  23
ENDBRANCH  21  22
ENDBRANCH   1  21
TORSDOF 14
ENDMDL
