MODEL 1
REMARK VINA RESULT:      -9.3      0.000      0.000
REMARK SMILES O=C(Cc1sc(N2N=C(c3cccs3)C[C@@H]2c2ccco2)nc1-c1ccccc1)OCCOC(=O)c1ccc(-c2c3nc(c(-c4c(F)cccc4F)c4ccc([nH]4)c(-c4c(F)cccc4F)c4nc(c(-c5c(F)cccc5F)c5ccc2[nH]5)C=C4)C=C3)cc1
REMARK SMILES IDX 31 1 30 2 2 3 1 4 3 5 4 6 5 7 23 8 6 9 22 10 24 11 25 12
REMARK SMILES IDX 29 13 26 14 28 15 27 16 7 17 8 18 16 19 9 20 15 21 17 22
REMARK SMILES IDX 18 23 21 24 19 25 20 26 10 27 11 28 14 29 12 30 13 31 32 32
REMARK SMILES IDX 33 33 34 34 35 35 36 36 37 37 89 38 38 39 88 40 39 41 40 42
REMARK SMILES IDX 41 43 82 44 42 45 87 46 81 47 83 48 43 49 86 50 80 51 79 52
REMARK SMILES IDX 44 54 70 55 53 56 69 57 54 58 57 59 68 60 84 61 55 62 56 63
REMARK SMILES IDX 67 65 85 66 58 67 45 68 46 69 51 70 47 71 48 72 50 73 52 74
REMARK SMILES IDX 49 75 71 76 72 77 77 78 73 79 74 80 76 81 78 82 75 83 59 84
REMARK SMILES IDX 60 85 65 86 61 87 62 88 64 89 66 90 63 91
REMARK H PARENT 83 53 57 64
REMARK Flexibility Score: inf
ROOT
ATOM      1  C   UNL A   1      35.262  33.733  30.437  1.00  0.00     0.274 C 
ENDROOT
BRANCH   1   2
ATOM      2  O   UNL A   1      36.512  33.251  30.978  1.00  0.00    -0.462 OA
BRANCH   2   3
ATOM      3  C   UNL A   1      36.668  32.654  32.183  1.00  0.00     0.311 C 
ATOM      4  O   UNL A   1      35.732  32.035  32.690  1.00  0.00    -0.252 OA
BRANCH   3   5
ATOM      5  C   UNL A   1      37.980  32.794  32.915  1.00  0.00     0.171 C 
BRANCH   5   6
ATOM      6  C   UNL A   1      37.988  32.278  34.311  1.00  0.00     0.046 A 
ATOM      7  S   UNL A   1      37.381  33.204  35.611  1.00  0.00    -0.099 S 
ATOM      8  C   UNL A   1      38.418  31.052  34.792  1.00  0.00     0.087 A 
ATOM      9  C   UNL A   1      37.933  32.006  36.724  1.00  0.00     0.207 A 
ATOM     10  N   UNL A   1      38.440  30.927  36.168  1.00  0.00    -0.218 NA
BRANCH   8  11
ATOM     11  C   UNL A   1      38.766  29.925  33.942  1.00  0.00     0.001 A 
ATOM     12  C   UNL A   1      37.791  29.182  33.269  1.00  0.00     0.010 A 
ATOM     13  C   UNL A   1      40.114  29.562  33.819  1.00  0.00     0.010 A 
ATOM     14  C   UNL A   1      38.164  28.084  32.490  1.00  0.00     0.001 A 
ATOM     15  C   UNL A   1      40.482  28.454  33.055  1.00  0.00     0.001 A 
ATOM     16  C   UNL A   1      39.506  27.712  32.393  1.00  0.00     0.000 A 
ENDBRANCH   8  11
BRANCH   9  17
ATOM     17  N   UNL A   1      37.843  32.243  38.054  1.00  0.00    -0.228 N 
ATOM     18  N   UNL A   1      36.691  32.100  38.770  1.00  0.00    -0.173 NA
ATOM     19  C   UNL A   1      38.915  32.921  38.784  1.00  0.00     0.183 C 
ATOM     20  C   UNL A   1      36.873  32.702  39.900  1.00  0.00     0.081 C 
ATOM     21  C   UNL A   1      38.203  33.365  40.071  1.00  0.00     0.095 C 
BRANCH  19  22
ATOM     22  C   UNL A   1      39.615  34.110  38.170  1.00  0.00     0.128 A 
ATOM     23  C   UNL A   1      40.791  34.241  37.456  1.00  0.00     0.048 A 
ATOM     24  O   UNL A   1      39.053  35.344  38.333  1.00  0.00    -0.467 OA
ATOM     25  C   UNL A   1      40.935  35.619  37.156  1.00  0.00     0.042 A 
ATOM     26  C   UNL A   1      39.841  36.245  37.699  1.00  0.00     0.195 A 
ENDBRANCH  19  22
BRANCH  20  27
ATOM     27  C   UNL A   1      35.847  32.777  40.901  1.00  0.00     0.050 A 
ATOM     28  C   UNL A   1      34.723  33.576  40.920  1.00  0.00     0.022 A 
ATOM     29  S   UNL A   1      35.929  31.758  42.272  1.00  0.00    -0.142 S 
ATOM     30  C   UNL A   1      33.912  33.332  42.067  1.00  0.00     0.012 A 
ATOM     31  C   UNL A   1      34.463  32.379  42.895  1.00  0.00     0.065 A 
ENDBRANCH  20  27
ENDBRANCH   9  17
ENDBRANCH   5   6
ENDBRANCH   3   5
ENDBRANCH   2   3
ENDBRANCH   1   2
BRANCH   1  32
ATOM     32  C   UNL A   1      35.010  33.164  29.040  1.00  0.00     0.275 C 
BRANCH  32  33
ATOM     33  O   UNL A   1      34.243  31.949  29.135  1.00  0.00    -0.458 OA
BRANCH  33  34
ATOM     34  C   UNL A   1      34.467  31.026  28.167  1.00  0.00     0.338 C 
ATOM     35  O   UNL A   1      33.753  30.778  27.211  1.00  0.00    -0.246 OA
BRANCH  34  36
ATOM     36  C   UNL A   1      35.841  30.494  28.325  1.00  0.00     0.060 A 
ATOM     37  C   UNL A   1      36.177  29.886  29.542  1.00  0.00     0.016 A 
ATOM     38  C   UNL A   1      36.771  30.525  27.281  1.00  0.00     0.016 A 
ATOM     39  C   UNL A   1      37.449  29.337  29.726  1.00  0.00     0.010 A 
ATOM     40  C   UNL A   1      38.044  29.976  27.468  1.00  0.00     0.010 A 
ATOM     41  C   UNL A   1      38.400  29.398  28.697  1.00  0.00    -0.014 A 
BRANCH  41  42
ATOM     42  C   UNL A   1      39.803  28.987  28.962  1.00  0.00     0.031 A 
ATOM     43  C   UNL A   1      40.690  29.904  29.762  1.00  0.00     0.074 A 
ATOM     44  C   UNL A   1      40.285  27.807  28.529  1.00  0.00     0.049 A 
ATOM     45  N   UNL A   1      41.915  29.714  30.182  1.00  0.00    -0.248 NA
ATOM     46  C   UNL A   1      40.122  31.211  30.127  1.00  0.00     0.031 C 
ATOM     47  C   UNL A   1      39.551  26.834  27.721  1.00  0.00     0.029 A 
ATOM     48  N   UNL A   1      41.517  27.230  28.713  1.00  0.00    -0.354 N 
ATOM     49  C   UNL A   1      42.252  30.866  30.881  1.00  0.00     0.074 A 
ATOM     50  C   UNL A   1      41.133  31.775  30.768  1.00  0.00     0.031 C 
ATOM     51  C   UNL A   1      40.349  25.777  27.480  1.00  0.00     0.029 A 
ATOM     52  C   UNL A   1      41.645  25.998  28.119  1.00  0.00     0.049 A 
ATOM     53  H   UNL A   1      42.240  27.659  29.223  1.00  0.00     0.167 HD
ATOM     54  C   UNL A   1      43.377  31.135  31.586  1.00  0.00     0.037 A 
ATOM     55  C   UNL A   1      42.687  25.142  28.105  1.00  0.00     0.037 A 
ATOM     56  C   UNL A   1      44.501  30.247  31.701  1.00  0.00     0.049 A 
ATOM     57  C   UNL A   1      43.940  25.474  28.873  1.00  0.00     0.074 A 
ATOM     58  C   UNL A   1      45.679  30.430  32.403  1.00  0.00     0.029 A 
ATOM     59  N   UNL A   1      44.589  29.007  31.089  1.00  0.00    -0.354 N 
ATOM     60  N   UNL A   1      44.216  26.533  29.594  1.00  0.00    -0.248 NA
ATOM     61  C   UNL A   1      45.022  24.476  28.841  1.00  0.00     0.031 C 
ATOM     62  C   UNL A   1      46.494  29.312  32.193  1.00  0.00     0.029 A 
ATOM     63  C   UNL A   1      45.806  28.418  31.389  1.00  0.00     0.049 A 
ATOM     64  H   UNL A   1      43.890  28.603  30.525  1.00  0.00     0.167 HD
ATOM     65  C   UNL A   1      45.485  26.317  30.122  1.00  0.00     0.074 A 
ATOM     66  C   UNL A   1      45.918  25.017  29.654  1.00  0.00     0.031 C 
ATOM     67  C   UNL A   1      46.224  27.122  30.925  1.00  0.00     0.037 A 
BRANCH  54  68
ATOM     68  C   UNL A   1      43.429  32.450  32.303  1.00  0.00     0.057 A 
ATOM     69  C   UNL A   1      43.851  33.618  31.652  1.00  0.00     0.134 A 
ATOM     70  C   UNL A   1      43.048  32.557  33.644  1.00  0.00     0.134 A 
ATOM     71  F   UNL A   1      44.247  33.576  30.370  1.00  0.00    -0.206 F 
ATOM     72  C   UNL A   1      43.915  34.842  32.318  1.00  0.00     0.040 A 
ATOM     73  C   UNL A   1      43.085  33.780  34.315  1.00  0.00     0.040 A 
ATOM     74  F   UNL A   1      42.633  31.477  34.324  1.00  0.00    -0.206 F 
ATOM     75  C   UNL A   1      43.526  34.925  33.654  1.00  0.00     0.006 A 
ENDBRANCH  54  68
BRANCH  55  76
ATOM     76  C   UNL A   1      42.594  23.861  27.359  1.00  0.00     0.057 A 
ATOM     77  C   UNL A   1      42.259  22.666  28.005  1.00  0.00     0.134 A 
ATOM     78  C   UNL A   1      42.895  23.796  25.993  1.00  0.00     0.134 A 
ATOM     79  F   UNL A   1      41.988  22.663  29.319  1.00  0.00    -0.206 F 
ATOM     80  C   UNL A   1      42.253  21.446  27.328  1.00  0.00     0.040 A 
ATOM     81  C   UNL A   1      42.872  22.585  25.299  1.00  0.00     0.040 A 
ATOM     82  F   UNL A   1      43.225  24.906  25.319  1.00  0.00    -0.206 F 
ATOM     83  C   UNL A   1      42.560  21.403  25.969  1.00  0.00     0.006 A 
ENDBRANCH  55  76
BRANCH  67  84
ATOM     84  C   UNL A   1      47.562  26.609  31.372  1.00  0.00     0.057 A 
ATOM     85  C   UNL A   1      47.710  25.844  32.535  1.00  0.00     0.134 A 
ATOM     86  C   UNL A   1      48.711  26.855  30.609  1.00  0.00     0.134 A 
ATOM     87  F   UNL A   1      46.651  25.583  33.316  1.00  0.00    -0.206 F 
ATOM     88  C   UNL A   1      48.958  25.365  32.939  1.00  0.00     0.040 A 
ATOM     89  C   UNL A   1      49.960  26.360  30.990  1.00  0.00     0.040 A 
ATOM     90  F   UNL A   1      48.638  27.572  29.477  1.00  0.00    -0.206 F 
ATOM     91  C   UNL A   1      50.086  25.618  32.162  1.00  0.00     0.006 A 
ENDBRANCH  67  84
ENDBRANCH  41  42
ENDBRANCH  34  36
ENDBRANCH  33  34
ENDBRANCH  32  33
ENDBRANCH   1  32
TORSDOF 16
ENDMDL
MODEL 2
REMARK VINA RESULT:      -9.0      4.737     11.683
REMARK SMILES O=C(Cc1sc(N2N=C(c3cccs3)C[C@@H]2c2ccco2)nc1-c1ccccc1)OCCOC(=O)c1ccc(-c2c3nc(c(-c4c(F)cccc4F)c4ccc([nH]4)c(-c4c(F)cccc4F)c4nc(c(-c5c(F)cccc5F)c5ccc2[nH]5)C=C4)C=C3)cc1
REMARK SMILES IDX 31 1 30 2 2 3 1 4 3 5 4 6 5 7 23 8 6 9 22 10 24 11 25 12
REMARK SMILES IDX 29 13 26 14 28 15 27 16 7 17 8 18 16 19 9 20 15 21 17 22
REMARK SMILES IDX 18 23 21 24 19 25 20 26 10 27 11 28 14 29 12 30 13 31 32 32
REMARK SMILES IDX 33 33 34 34 35 35 36 36 37 37 89 38 38 39 88 40 39 41 40 42
REMARK SMILES IDX 41 43 82 44 42 45 87 46 81 47 83 48 43 49 86 50 80 51 79 52
REMARK SMILES IDX 44 54 70 55 53 56 69 57 54 58 57 59 68 60 84 61 55 62 56 63
REMARK SMILES IDX 67 65 85 66 58 67 45 68 46 69 51 70 47 71 48 72 50 73 52 74
REMARK SMILES IDX 49 75 71 76 72 77 77 78 73 79 74 80 76 81 78 82 75 83 59 84
REMARK SMILES IDX 60 85 65 86 61 87 62 88 64 89 66 90 63 91
REMARK H PARENT 83 53 57 64
REMARK Flexibility Score: inf
ROOT
ATOM      1  C   UNL A   1      49.268  26.592  33.071  1.00  0.00     0.274 C 
ENDROOT
BRANCH   1   2
ATOM      2  O   UNL A   1      48.583  27.614  32.315  1.00  0.00    -0.462 OA
BRANCH   2   3
ATOM      3  C   UNL A   1      47.461  27.428  31.580  1.00  0.00     0.311 C 
ATOM      4  O   UNL A   1      46.562  26.701  32.002  1.00  0.00    -0.252 OA
BRANCH   3   5
ATOM      5  C   UNL A   1      47.346  28.083  30.225  1.00  0.00     0.171 C 
BRANCH   5   6
ATOM      6  C   UNL A   1      46.197  27.629  29.395  1.00  0.00     0.046 A 
ATOM      7  S   UNL A   1      46.085  26.026  28.819  1.00  0.00    -0.099 S 
ATOM      8  C   UNL A   1      45.077  28.335  28.985  1.00  0.00     0.087 A 
ATOM      9  C   UNL A   1      44.688  26.451  27.899  1.00  0.00     0.207 A 
ATOM     10  N   UNL A   1      44.256  27.679  28.088  1.00  0.00    -0.218 NA
BRANCH   8  11
ATOM     11  C   UNL A   1      44.717  29.649  29.492  1.00  0.00     0.001 A 
ATOM     12  C   UNL A   1      43.717  30.421  28.893  1.00  0.00     0.010 A 
ATOM     13  C   UNL A   1      45.412  30.160  30.597  1.00  0.00     0.010 A 
ATOM     14  C   UNL A   1      43.426  31.694  29.390  1.00  0.00     0.001 A 
ATOM     15  C   UNL A   1      45.131  31.440  31.080  1.00  0.00     0.001 A 
ATOM     16  C   UNL A   1      44.140  32.208  30.473  1.00  0.00     0.000 A 
ENDBRANCH   8  11
BRANCH   9  17
ATOM     17  N   UNL A   1      44.151  25.545  27.048  1.00  0.00    -0.228 N 
ATOM     18  N   UNL A   1      43.530  24.401  27.457  1.00  0.00    -0.173 NA
ATOM     19  C   UNL A   1      44.421  25.592  25.611  1.00  0.00     0.183 C 
ATOM     20  C   UNL A   1      43.433  23.635  26.420  1.00  0.00     0.081 C 
ATOM     21  C   UNL A   1      44.020  24.180  25.158  1.00  0.00     0.095 C 
BRANCH  19  22
ATOM     22  C   UNL A   1      45.814  25.895  25.112  1.00  0.00     0.128 A 
ATOM     23  C   UNL A   1      46.980  25.153  25.078  1.00  0.00     0.048 A 
ATOM     24  O   UNL A   1      46.062  27.137  24.602  1.00  0.00    -0.467 OA
ATOM     25  C   UNL A   1      47.975  25.983  24.503  1.00  0.00     0.042 A 
ATOM     26  C   UNL A   1      47.359  27.176  24.216  1.00  0.00     0.195 A 
ENDBRANCH  19  22
BRANCH  20  27
ATOM     27  C   UNL A   1      42.849  22.325  26.490  1.00  0.00     0.050 A 
ATOM     28  C   UNL A   1      43.267  21.166  25.871  1.00  0.00     0.022 A 
ATOM     29  S   UNL A   1      41.470  22.065  27.467  1.00  0.00    -0.142 S 
ATOM     30  C   UNL A   1      42.453  20.049  26.221  1.00  0.00     0.012 A 
ATOM     31  C   UNL A   1      41.427  20.404  27.069  1.00  0.00     0.065 A 
ENDBRANCH  20  27
ENDBRANCH   9  17
ENDBRANCH   5   6
ENDBRANCH   3   5
ENDBRANCH   2   3
ENDBRANCH   1   2
BRANCH   1  32
ATOM     32  C   UNL A   1      49.233  26.898  34.569  1.00  0.00     0.275 C 
BRANCH  32  33
ATOM     33  O   UNL A   1      47.978  26.469  35.129  1.00  0.00    -0.458 OA
BRANCH  33  34
ATOM     34  C   UNL A   1      47.433  27.285  36.066  1.00  0.00     0.338 C 
ATOM     35  O   UNL A   1      47.927  27.608  37.132  1.00  0.00    -0.246 OA
BRANCH  34  36
ATOM     36  C   UNL A   1      46.214  27.912  35.502  1.00  0.00     0.060 A 
ATOM     37  C   UNL A   1      44.978  27.311  35.774  1.00  0.00     0.016 A 
ATOM     38  C   UNL A   1      46.266  29.104  34.773  1.00  0.00     0.016 A 
ATOM     39  C   UNL A   1      43.798  27.886  35.294  1.00  0.00     0.010 A 
ATOM     40  C   UNL A   1      45.083  29.676  34.293  1.00  0.00     0.010 A 
ATOM     41  C   UNL A   1      43.842  29.061  34.531  1.00  0.00    -0.014 A 
BRANCH  41  42
ATOM     42  C   UNL A   1      42.611  29.559  33.866  1.00  0.00     0.031 A 
ATOM     43  C   UNL A   1      41.859  30.702  34.494  1.00  0.00     0.074 A 
ATOM     44  C   UNL A   1      42.174  29.032  32.708  1.00  0.00     0.049 A 
ATOM     45  N   UNL A   1      40.812  31.350  34.049  1.00  0.00    -0.248 NA
ATOM     46  C   UNL A   1      42.346  31.170  35.801  1.00  0.00     0.031 C 
ATOM     47  C   UNL A   1      42.784  27.906  32.002  1.00  0.00     0.029 A 
ATOM     48  N   UNL A   1      41.106  29.383  31.920  1.00  0.00    -0.354 N 
ATOM     49  C   UNL A   1      40.535  32.316  35.008  1.00  0.00     0.074 A 
ATOM     50  C   UNL A   1      41.475  32.122  36.090  1.00  0.00     0.031 C 
ATOM     51  C   UNL A   1      42.078  27.659  30.883  1.00  0.00     0.029 A 
ATOM     52  C   UNL A   1      40.972  28.610  30.792  1.00  0.00     0.049 A 
ATOM     53  H   UNL A   1      40.492  30.119  32.144  1.00  0.00     0.167 HD
ATOM     54  C   UNL A   1      39.605  33.299  34.981  1.00  0.00     0.037 A 
ATOM     55  C   UNL A   1      40.068  28.674  29.794  1.00  0.00     0.037 A 
ATOM     56  C   UNL A   1      38.657  33.499  33.919  1.00  0.00     0.049 A 
ATOM     57  C   UNL A   1      39.023  29.760  29.798  1.00  0.00     0.074 A 
ATOM     58  C   UNL A   1      37.685  34.477  33.800  1.00  0.00     0.029 A 
ATOM     59  N   UNL A   1      38.560  32.699  32.792  1.00  0.00    -0.354 N 
ATOM     60  N   UNL A   1      38.820  30.714  30.674  1.00  0.00    -0.248 NA
ATOM     61  C   UNL A   1      38.092  29.789  28.659  1.00  0.00     0.031 C 
ATOM     62  C   UNL A   1      36.978  34.251  32.614  1.00  0.00     0.029 A 
ATOM     63  C   UNL A   1      37.536  33.154  31.978  1.00  0.00     0.049 A 
ATOM     64  H   UNL A   1      39.133  31.922  32.598  1.00  0.00     0.167 HD
ATOM     65  C   UNL A   1      37.763  31.470  30.178  1.00  0.00     0.074 A 
ATOM     66  C   UNL A   1      37.377  30.875  28.916  1.00  0.00     0.031 C 
ATOM     67  C   UNL A   1      37.166  32.560  30.720  1.00  0.00     0.037 A 
BRANCH  54  68
ATOM     68  C   UNL A   1      39.586  34.246  36.142  1.00  0.00     0.057 A 
ATOM     69  C   UNL A   1      38.905  33.933  37.327  1.00  0.00     0.134 A 
ATOM     70  C   UNL A   1      40.258  35.472  36.086  1.00  0.00     0.134 A 
ATOM     71  F   UNL A   1      38.227  32.779  37.435  1.00  0.00    -0.206 F 
ATOM     72  C   UNL A   1      38.872  34.816  38.405  1.00  0.00     0.040 A 
ATOM     73  C   UNL A   1      40.252  36.354  37.167  1.00  0.00     0.040 A 
ATOM     74  F   UNL A   1      40.930  35.831  34.981  1.00  0.00    -0.206 F 
ATOM     75  C   UNL A   1      39.553  36.030  38.328  1.00  0.00     0.006 A 
ENDBRANCH  54  68
BRANCH  55  76
ATOM     76  C   UNL A   1      40.114  27.696  28.678  1.00  0.00     0.057 A 
ATOM     77  C   UNL A   1      39.524  26.432  28.794  1.00  0.00     0.134 A 
ATOM     78  C   UNL A   1      40.801  27.983  27.492  1.00  0.00     0.134 A 
ATOM     79  F   UNL A   1      38.877  26.091  29.918  1.00  0.00    -0.206 F 
ATOM     80  C   UNL A   1      39.637  25.477  27.782  1.00  0.00     0.040 A 
ATOM     81  C   UNL A   1      40.903  27.044  26.464  1.00  0.00     0.040 A 
ATOM     82  F   UNL A   1      41.389  29.175  27.321  1.00  0.00    -0.206 F 
ATOM     83  C   UNL A   1      40.328  25.783  26.611  1.00  0.00     0.006 A 
ENDBRANCH  55  76
BRANCH  67  84
ATOM     84  C   UNL A   1      36.055  33.198  29.937  1.00  0.00     0.057 A 
ATOM     85  C   UNL A   1      36.304  33.977  28.801  1.00  0.00     0.134 A 
ATOM     86  C   UNL A   1      34.718  33.001  30.307  1.00  0.00     0.134 A 
ATOM     87  F   UNL A   1      37.563  34.213  28.401  1.00  0.00    -0.206 F 
ATOM     88  C   UNL A   1      35.264  34.561  28.075  1.00  0.00     0.040 A 
ATOM     89  C   UNL A   1      33.669  33.559  29.574  1.00  0.00     0.040 A 
ATOM     90  F   UNL A   1      34.409  32.256  31.379  1.00  0.00    -0.206 F 
ATOM     91  C   UNL A   1      33.941  34.346  28.458  1.00  0.00     0.006 A 
ENDBRANCH  67  84
ENDBRANCH  41  42
ENDBRANCH  34  36
ENDBRANCH  33  34
ENDBRANCH  32  33
ENDBRANCH   1  32
TORSDOF 16
ENDMDL
MODEL 3
REMARK VINA RESULT:      -8.9      3.524      8.407
REMARK SMILES O=C(Cc1sc(N2N=C(c3cccs3)C[C@@H]2c2ccco2)nc1-c1ccccc1)OCCOC(=O)c1ccc(-c2c3nc(c(-c4c(F)cccc4F)c4ccc([nH]4)c(-c4c(F)cccc4F)c4nc(c(-c5c(F)cccc5F)c5ccc2[nH]5)C=C4)C=C3)cc1
REMARK SMILES IDX 31 1 30 2 2 3 1 4 3 5 4 6 5 7 23 8 6 9 22 10 24 11 25 12
REMARK SMILES IDX 29 13 26 14 28 15 27 16 7 17 8 18 16 19 9 20 15 21 17 22
REMARK SMILES IDX 18 23 21 24 19 25 20 26 10 27 11 28 14 29 12 30 13 31 32 32
REMARK SMILES IDX 33 33 34 34 35 35 36 36 37 37 89 38 38 39 88 40 39 41 40 42
REMARK SMILES IDX 41 43 82 44 42 45 87 46 81 47 83 48 43 49 86 50 80 51 79 52
REMARK SMILES IDX 44 54 70 55 53 56 69 57 54 58 57 59 68 60 84 61 55 62 56 63
REMARK SMILES IDX 67 65 85 66 58 67 45 68 46 69 51 70 47 71 48 72 50 73 52 74
REMARK SMILES IDX 49 75 71 76 72 77 77 78 73 79 74 80 76 81 78 82 75 83 59 84
REMARK SMILES IDX 60 85 65 86 61 87 62 88 64 89 66 90 63 91
REMARK H PARENT 83 53 57 64
REMARK Flexibility Score: inf
ROOT
ATOM      1  C   UNL A   1      44.871  36.839  31.901  1.00  0.00     0.274 C 
ENDROOT
BRANCH   1   2
ATOM      2  O   UNL A   1      43.520  36.390  31.658  1.00  0.00    -0.462 OA
BRANCH   2   3
ATOM      3  C   UNL A   1      43.141  35.102  31.479  1.00  0.00     0.311 C 
ATOM      4  O   UNL A   1      43.129  34.615  30.348  1.00  0.00    -0.252 OA
BRANCH   3   5
ATOM      5  C   UNL A   1      42.697  34.289  32.669  1.00  0.00     0.171 C 
BRANCH   5   6
ATOM      6  C   UNL A   1      41.505  33.427  32.441  1.00  0.00     0.046 A 
ATOM      7  S   UNL A   1      40.054  34.056  31.797  1.00  0.00    -0.099 S 
ATOM      8  C   UNL A   1      41.352  32.066  32.654  1.00  0.00     0.087 A 
ATOM      9  C   UNL A   1      39.278  32.536  32.056  1.00  0.00     0.207 A 
ATOM     10  N   UNL A   1      40.069  31.579  32.490  1.00  0.00    -0.218 NA
BRANCH   8  11
ATOM     11  C   UNL A   1      42.450  31.165  32.962  1.00  0.00     0.001 A 
ATOM     12  C   UNL A   1      42.276  30.042  33.775  1.00  0.00     0.010 A 
ATOM     13  C   UNL A   1      43.722  31.450  32.446  1.00  0.00     0.010 A 
ATOM     14  C   UNL A   1      43.366  29.220  34.075  1.00  0.00     0.001 A 
ATOM     15  C   UNL A   1      44.813  30.638  32.762  1.00  0.00     0.001 A 
ATOM     16  C   UNL A   1      44.635  29.525  33.581  1.00  0.00     0.000 A 
ENDBRANCH   8  11
BRANCH   9  17
ATOM     17  N   UNL A   1      37.948  32.423  31.833  1.00  0.00    -0.228 N 
ATOM     18  N   UNL A   1      37.319  32.942  30.738  1.00  0.00    -0.173 NA
ATOM     19  C   UNL A   1      37.034  31.958  32.877  1.00  0.00     0.183 C 
ATOM     20  C   UNL A   1      36.052  32.938  30.996  1.00  0.00     0.081 C 
ATOM     21  C   UNL A   1      35.670  32.426  32.348  1.00  0.00     0.095 C 
BRANCH  19  22
ATOM     22  C   UNL A   1      37.204  32.435  34.299  1.00  0.00     0.128 A 
ATOM     23  C   UNL A   1      37.027  33.667  34.903  1.00  0.00     0.048 A 
ATOM     24  O   UNL A   1      37.644  31.541  35.232  1.00  0.00    -0.467 OA
ATOM     25  C   UNL A   1      37.359  33.501  36.271  1.00  0.00     0.042 A 
ATOM     26  C   UNL A   1      37.713  32.184  36.423  1.00  0.00     0.195 A 
ENDBRANCH  19  22
BRANCH  20  27
ATOM     27  C   UNL A   1      35.081  33.445  30.068  1.00  0.00     0.050 A 
ATOM     28  C   UNL A   1      34.833  33.034  28.776  1.00  0.00     0.022 A 
ATOM     29  S   UNL A   1      34.031  34.706  30.550  1.00  0.00    -0.142 S 
ATOM     30  C   UNL A   1      33.752  33.752  28.184  1.00  0.00     0.012 A 
ATOM     31  C   UNL A   1      33.238  34.706  29.035  1.00  0.00     0.065 A 
ENDBRANCH  20  27
ENDBRANCH   9  17
ENDBRANCH   5   6
ENDBRANCH   3   5
ENDBRANCH   2   3
ENDBRANCH   1   2
BRANCH   1  32
ATOM     32  C   UNL A   1      45.362  37.744  30.770  1.00  0.00     0.275 C 
BRANCH  32  33
ATOM     33  O   UNL A   1      45.793  36.944  29.653  1.00  0.00    -0.458 OA
BRANCH  33  34
ATOM     34  C   UNL A   1      46.851  36.127  29.878  1.00  0.00     0.338 C 
ATOM     35  O   UNL A   1      47.897  36.419  30.431  1.00  0.00    -0.246 OA
BRANCH  34  36
ATOM     36  C   UNL A   1      46.463  34.738  29.536  1.00  0.00     0.060 A 
ATOM     37  C   UNL A   1      45.992  34.485  28.241  1.00  0.00     0.016 A 
ATOM     38  C   UNL A   1      46.617  33.683  30.441  1.00  0.00     0.016 A 
ATOM     39  C   UNL A   1      45.648  33.185  27.860  1.00  0.00     0.010 A 
ATOM     40  C   UNL A   1      46.271  32.383  30.057  1.00  0.00     0.010 A 
ATOM     41  C   UNL A   1      45.763  32.127  28.772  1.00  0.00    -0.014 A 
BRANCH  41  42
ATOM     42  C   UNL A   1      45.219  30.789  28.427  1.00  0.00     0.031 A 
ATOM     43  C   UNL A   1      46.154  29.743  27.880  1.00  0.00     0.074 A 
ATOM     44  C   UNL A   1      43.922  30.486  28.619  1.00  0.00     0.049 A 
ATOM     45  N   UNL A   1      45.918  28.490  27.589  1.00  0.00    -0.248 NA
ATOM     46  C   UNL A   1      47.537  30.173  27.617  1.00  0.00     0.031 C 
ATOM     47  C   UNL A   1      42.898  31.404  29.113  1.00  0.00     0.029 A 
ATOM     48  N   UNL A   1      43.247  29.307  28.417  1.00  0.00    -0.354 N 
ATOM     49  C   UNL A   1      47.127  27.977  27.136  1.00  0.00     0.074 A 
ATOM     50  C   UNL A   1      48.073  29.070  27.121  1.00  0.00     0.031 C 
ATOM     51  C   UNL A   1      41.722  30.752  29.177  1.00  0.00     0.029 A 
ATOM     52  C   UNL A   1      41.911  29.373  28.732  1.00  0.00     0.049 A 
ATOM     53  H   UNL A   1      43.680  28.491  28.077  1.00  0.00     0.167 HD
ATOM     54  C   UNL A   1      47.436  26.704  26.793  1.00  0.00     0.037 A 
ATOM     55  C   UNL A   1      40.956  28.423  28.681  1.00  0.00     0.037 A 
ATOM     56  C   UNL A   1      46.506  25.609  26.793  1.00  0.00     0.049 A 
ATOM     57  C   UNL A   1      41.317  27.019  28.270  1.00  0.00     0.074 A 
ATOM     58  C   UNL A   1      46.733  24.282  26.473  1.00  0.00     0.029 A 
ATOM     59  N   UNL A   1      45.166  25.716  27.126  1.00  0.00    -0.354 N 
ATOM     60  N   UNL A   1      42.481  26.530  27.916  1.00  0.00    -0.248 NA
ATOM     61  C   UNL A   1      40.230  26.027  28.271  1.00  0.00     0.031 C 
ATOM     62  C   UNL A   1      45.521  23.590  26.582  1.00  0.00     0.029 A 
ATOM     63  C   UNL A   1      44.549  24.481  27.006  1.00  0.00     0.049 A 
ATOM     64  H   UNL A   1      44.716  26.547  27.405  1.00  0.00     0.167 HD
ATOM     65  C   UNL A   1      42.272  25.175  27.684  1.00  0.00     0.074 A 
ATOM     66  C   UNL A   1      40.874  24.914  27.952  1.00  0.00     0.031 C 
ATOM     67  C   UNL A   1      43.160  24.231  27.284  1.00  0.00     0.037 A 
BRANCH  54  68
ATOM     68  C   UNL A   1      48.858  26.434  26.404  1.00  0.00     0.057 A 
ATOM     69  C   UNL A   1      49.777  25.905  27.321  1.00  0.00     0.134 A 
ATOM     70  C   UNL A   1      49.314  26.693  25.107  1.00  0.00     0.134 A 
ATOM     71  F   UNL A   1      49.405  25.653  28.586  1.00  0.00    -0.206 F 
ATOM     72  C   UNL A   1      51.105  25.666  26.969  1.00  0.00     0.040 A 
ATOM     73  C   UNL A   1      50.634  26.436  24.735  1.00  0.00     0.040 A 
ATOM     74  F   UNL A   1      48.484  27.199  24.181  1.00  0.00    -0.206 F 
ATOM     75  C   UNL A   1      51.535  25.927  25.669  1.00  0.00     0.006 A 
ENDBRANCH  54  68
BRANCH  55  76
ATOM     76  C   UNL A   1      39.556  28.748  29.054  1.00  0.00     0.057 A 
ATOM     77  C   UNL A   1      38.661  29.284  28.121  1.00  0.00     0.134 A 
ATOM     78  C   UNL A   1      39.100  28.584  30.367  1.00  0.00     0.134 A 
ATOM     79  F   UNL A   1      39.051  29.490  26.853  1.00  0.00    -0.206 F 
ATOM     80  C   UNL A   1      37.371  29.672  28.484  1.00  0.00     0.040 A 
ATOM     81  C   UNL A   1      37.805  28.948  30.739  1.00  0.00     0.040 A 
ATOM     82  F   UNL A   1      39.910  28.078  31.307  1.00  0.00    -0.206 F 
ATOM     83  C   UNL A   1      36.939  29.503  29.798  1.00  0.00     0.006 A 
ENDBRANCH  55  76
BRANCH  67  84
ATOM     84  C   UNL A   1      42.654  22.824  27.143  1.00  0.00     0.057 A 
ATOM     85  C   UNL A   1      42.359  22.029  28.257  1.00  0.00     0.134 A 
ATOM     86  C   UNL A   1      42.427  22.272  25.876  1.00  0.00     0.134 A 
ATOM     87  F   UNL A   1      42.565  22.495  29.498  1.00  0.00    -0.206 F 
ATOM     88  C   UNL A   1      41.882  20.724  28.116  1.00  0.00     0.040 A 
ATOM     89  C   UNL A   1      41.926  20.978  25.723  1.00  0.00     0.040 A 
ATOM     90  F   UNL A   1      42.677  22.984  24.766  1.00  0.00    -0.206 F 
ATOM     91  C   UNL A   1      41.658  20.198  26.845  1.00  0.00     0.006 A 
ENDBRANCH  67  84
ENDBRANCH  41  42
ENDBRANCH  34  36
ENDBRANCH  33  34
ENDBRANCH  32  33
ENDBRANCH   1  32
TORSDOF 16
ENDMDL
