MODEL 1
REMARK VINA RESULT:     -10.6      0.000      0.000
REMARK SMILES CCS(=O)(=O)N[C@H]1C=C[C@@H](C(=O)OCCOC(=O)c2ccc(-c3c4nc(c(-c5c(F)cccc5F)c5ccc([nH]5)c(-c5c(F)cccc5F)c5nc(c(-c6c(F)cccc6F)c6ccc3[nH]6)C=C5)C=C4)cc2)C1
REMARK SMILES IDX 14 1 13 2 11 3 12 4 10 5 7 6 8 7 73 8 9 9 6 10 3 12 4 13
REMARK SMILES IDX 5 14 2 15 1 16 15 17 16 18 17 19 18 20 19 21 20 22 72 23
REMARK SMILES IDX 21 24 71 25 22 26 23 27 24 28 65 29 25 30 70 31 64 32 66 33
REMARK SMILES IDX 26 34 69 35 63 36 62 37 27 39 53 40 36 41 52 42 37 43 40 44
REMARK SMILES IDX 51 45 67 46 38 47 39 48 50 50 68 51 41 52 28 53 29 54 34 55
REMARK SMILES IDX 30 56 31 57 33 58 35 59 32 60 54 61 55 62 60 63 56 64 57 65
REMARK SMILES IDX 59 66 61 67 58 68 42 69 43 70 48 71 44 72 45 73 47 74 49 75
REMARK SMILES IDX 46 76
REMARK H PARENT 6 11 66 38 40 49
REMARK Flexibility Score: inf
ROOT
ATOM      1  C   UNL A   1      31.364  31.458  26.101  1.00  0.00     0.274 C 
ENDROOT
BRANCH   1   2
ATOM      2  O   UNL A   1      32.401  30.464  26.203  1.00  0.00    -0.462 OA
BRANCH   2   3
ATOM      3  C   UNL A   1      32.045  29.170  26.392  1.00  0.00     0.312 C 
ATOM      4  O   UNL A   1      31.644  28.708  27.455  1.00  0.00    -0.252 OA
BRANCH   3   5
ATOM      5  C   UNL A   1      32.150  28.334  25.113  1.00  0.00     0.123 C 
ATOM      6  C   UNL A   1      31.133  28.096  22.898  1.00  0.00     0.093 C 
ATOM      7  C   UNL A   1      32.411  28.871  22.846  1.00  0.00    -0.011 C 
ATOM      8  C   UNL A   1      30.833  28.000  24.390  1.00  0.00     0.043 C 
ATOM      9  C   UNL A   1      32.962  29.018  24.056  1.00  0.00    -0.015 C 
BRANCH   6  10
ATOM     10  N   UNL A   1      30.192  28.763  22.016  1.00  0.00    -0.208 NA
ATOM     11  H   UNL A   1      30.715  29.556  21.647  1.00  0.00     0.141 HD
BRANCH  10  12
ATOM     12  S   UNL A   1      28.693  29.382  22.335  1.00  0.00     0.211 S 
ATOM     13  O   UNL A   1      27.868  28.400  22.994  1.00  0.00    -0.212 OA
ATOM     14  O   UNL A   1      28.277  29.943  21.064  1.00  0.00    -0.212 OA
BRANCH  12  15
ATOM     15  C   UNL A   1      29.006  30.778  23.415  1.00  0.00     0.150 C 
ATOM     16  C   UNL A   1      27.837  31.710  23.623  1.00  0.00     0.022 C 
ENDBRANCH  12  15
ENDBRANCH  10  12
ENDBRANCH   6  10
ENDBRANCH   3   5
ENDBRANCH   2   3
ENDBRANCH   1   2
BRANCH   1  17
ATOM     17  C   UNL A   1      31.554  32.510  27.197  1.00  0.00     0.275 C 
BRANCH  17  18
ATOM     18  O   UNL A   1      32.725  33.307  26.931  1.00  0.00    -0.458 OA
BRANCH  18  19
ATOM     19  C   UNL A   1      33.236  33.933  28.015  1.00  0.00     0.338 C 
ATOM     20  O   UNL A   1      32.729  34.820  28.679  1.00  0.00    -0.246 OA
BRANCH  19  21
ATOM     21  C   UNL A   1      34.463  33.249  28.438  1.00  0.00     0.060 A 
ATOM     22  C   UNL A   1      34.341  31.916  28.831  1.00  0.00     0.016 A 
ATOM     23  C   UNL A   1      35.683  33.913  28.542  1.00  0.00     0.016 A 
ATOM     24  C   UNL A   1      35.426  31.237  29.363  1.00  0.00     0.010 A 
ATOM     25  C   UNL A   1      36.783  33.227  29.066  1.00  0.00     0.010 A 
ATOM     26  C   UNL A   1      36.653  31.894  29.498  1.00  0.00    -0.014 A 
BRANCH  26  27
ATOM     27  C   UNL A   1      37.769  31.194  30.172  1.00  0.00     0.031 A 
ATOM     28  C   UNL A   1      38.025  31.444  31.627  1.00  0.00     0.074 A 
ATOM     29  C   UNL A   1      38.510  30.303  29.490  1.00  0.00     0.049 A 
ATOM     30  N   UNL A   1      38.998  31.005  32.384  1.00  0.00    -0.248 NA
ATOM     31  C   UNL A   1      37.058  32.307  32.325  1.00  0.00     0.031 C 
ATOM     32  C   UNL A   1      38.309  29.937  28.087  1.00  0.00     0.029 A 
ATOM     33  N   UNL A   1      39.579  29.544  29.887  1.00  0.00    -0.354 N 
ATOM     34  C   UNL A   1      38.778  31.561  33.637  1.00  0.00     0.074 A 
ATOM     35  C   UNL A   1      37.590  32.382  33.535  1.00  0.00     0.031 C 
ATOM     36  C   UNL A   1      39.229  29.024  27.740  1.00  0.00     0.029 A 
ATOM     37  C   UNL A   1      40.111  28.782  28.877  1.00  0.00     0.049 A 
ATOM     38  H   UNL A   1      39.931  29.546  30.807  1.00  0.00     0.167 HD
ATOM     39  C   UNL A   1      39.504  31.400  34.769  1.00  0.00     0.037 A 
ATOM     40  C   UNL A   1      41.209  28.004  28.864  1.00  0.00     0.037 A 
ATOM     41  C   UNL A   1      40.676  30.568  34.861  1.00  0.00     0.049 A 
ATOM     42  C   UNL A   1      42.026  27.873  30.117  1.00  0.00     0.074 A 
ATOM     43  C   UNL A   1      41.488  30.336  35.956  1.00  0.00     0.029 A 
ATOM     44  N   UNL A   1      41.198  29.827  33.811  1.00  0.00    -0.354 N 
ATOM     45  N   UNL A   1      41.831  28.428  31.290  1.00  0.00    -0.248 NA
ATOM     46  C   UNL A   1      43.215  27.014  30.045  1.00  0.00     0.031 C 
ATOM     47  C   UNL A   1      42.524  29.483  35.558  1.00  0.00     0.029 A 
ATOM     48  C   UNL A   1      42.332  29.148  34.226  1.00  0.00     0.049 A 
ATOM     49  H   UNL A   1      40.819  29.788  32.902  1.00  0.00     0.167 HD
ATOM     50  C   UNL A   1      42.865  27.977  32.100  1.00  0.00     0.074 A 
ATOM     51  C   UNL A   1      43.673  27.089  31.288  1.00  0.00     0.031 C 
ATOM     52  C   UNL A   1      43.122  28.272  33.398  1.00  0.00     0.037 A 
BRANCH  39  53
ATOM     53  C   UNL A   1      39.066  32.174  35.977  1.00  0.00     0.057 A 
ATOM     54  C   UNL A   1      38.201  31.633  36.936  1.00  0.00     0.134 A 
ATOM     55  C   UNL A   1      39.505  33.491  36.174  1.00  0.00     0.134 A 
ATOM     56  F   UNL A   1      37.728  30.384  36.798  1.00  0.00    -0.206 F 
ATOM     57  C   UNL A   1      37.763  32.382  38.031  1.00  0.00     0.040 A 
ATOM     58  C   UNL A   1      39.095  34.241  37.277  1.00  0.00     0.040 A 
ATOM     59  F   UNL A   1      40.336  34.069  35.294  1.00  0.00    -0.206 F 
ATOM     60  C   UNL A   1      38.212  33.689  38.204  1.00  0.00     0.006 A 
ENDBRANCH  39  53
BRANCH  40  61
ATOM     61  C   UNL A   1      41.604  27.320  27.608  1.00  0.00     0.057 A 
ATOM     62  C   UNL A   1      41.214  26.004  27.343  1.00  0.00     0.134 A 
ATOM     63  C   UNL A   1      42.352  27.984  26.627  1.00  0.00     0.134 A 
ATOM     64  F   UNL A   1      40.512  25.312  28.252  1.00  0.00    -0.206 F 
ATOM     65  C   UNL A   1      41.557  25.369  26.148  1.00  0.00     0.040 A 
ATOM     66  C   UNL A   1      42.681  27.370  25.418  1.00  0.00     0.040 A 
ATOM     67  F   UNL A   1      42.750  29.250  26.820  1.00  0.00    -0.206 F 
ATOM     68  C   UNL A   1      42.285  26.056  25.177  1.00  0.00     0.006 A 
ENDBRANCH  40  61
BRANCH  52  69
ATOM     69  C   UNL A   1      44.315  27.609  34.020  1.00  0.00     0.057 A 
ATOM     70  C   UNL A   1      44.229  26.344  34.614  1.00  0.00     0.134 A 
ATOM     71  C   UNL A   1      45.569  28.231  33.995  1.00  0.00     0.134 A 
ATOM     72  F   UNL A   1      43.052  25.703  34.682  1.00  0.00    -0.206 F 
ATOM     73  C   UNL A   1      45.346  25.730  35.181  1.00  0.00     0.040 A 
ATOM     74  C   UNL A   1      46.697  27.617  34.537  1.00  0.00     0.040 A 
ATOM     75  F   UNL A   1      45.719  29.441  33.434  1.00  0.00    -0.206 F 
ATOM     76  C   UNL A   1      46.587  26.364  35.138  1.00  0.00     0.006 A 
ENDBRANCH  52  69
ENDBRANCH  26  27
ENDBRANCH  19  21
ENDBRANCH  18  19
ENDBRANCH  17  18
ENDBRANCH   1  17
TORSDOF 14
ENDMDL
MODEL 2
REMARK VINA RESULT:     -10.5      6.442     11.412
REMARK SMILES CCS(=O)(=O)N[C@H]1C=C[C@@H](C(=O)OCCOC(=O)c2ccc(-c3c4nc(c(-c5c(F)cccc5F)c5ccc([nH]5)c(-c5c(F)cccc5F)c5nc(c(-c6c(F)cccc6F)c6ccc3[nH]6)C=C5)C=C4)cc2)C1
REMARK SMILES IDX 14 1 13 2 11 3 12 4 10 5 7 6 8 7 73 8 9 9 6 10 3 12 4 13
REMARK SMILES IDX 5 14 2 15 1 16 15 17 16 18 17 19 18 20 19 21 20 22 72 23
REMARK SMILES IDX 21 24 71 25 22 26 23 27 24 28 65 29 25 30 70 31 64 32 66 33
REMARK SMILES IDX 26 34 69 35 63 36 62 37 27 39 53 40 36 41 52 42 37 43 40 44
REMARK SMILES IDX 51 45 67 46 38 47 39 48 50 50 68 51 41 52 28 53 29 54 34 55
REMARK SMILES IDX 30 56 31 57 33 58 35 59 32 60 54 61 55 62 60 63 56 64 57 65
REMARK SMILES IDX 59 66 61 67 58 68 42 69 43 70 48 71 44 72 45 73 47 74 49 75
REMARK SMILES IDX 46 76
REMARK H PARENT 6 11 66 38 40 49
REMARK Flexibility Score: inf
ROOT
ATOM      1  C   UNL A   1      40.963  19.352  26.447  1.00  0.00     0.274 C 
ENDROOT
BRANCH   1   2
ATOM      2  O   UNL A   1      41.877  18.956  25.407  1.00  0.00    -0.462 OA
BRANCH   2   3
ATOM      3  C   UNL A   1      43.086  18.453  25.760  1.00  0.00     0.312 C 
ATOM      4  O   UNL A   1      43.264  17.647  26.669  1.00  0.00    -0.252 OA
BRANCH   3   5
ATOM      5  C   UNL A   1      44.223  18.961  24.869  1.00  0.00     0.123 C 
ATOM      6  C   UNL A   1      45.879  20.759  24.726  1.00  0.00     0.093 C 
ATOM      7  C   UNL A   1      46.471  19.495  25.262  1.00  0.00    -0.011 C 
ATOM      8  C   UNL A   1      44.378  20.486  24.743  1.00  0.00     0.043 C 
ATOM      9  C   UNL A   1      45.567  18.515  25.358  1.00  0.00    -0.015 C 
BRANCH   6  10
ATOM     10  N   UNL A   1      46.421  21.852  25.512  1.00  0.00    -0.208 NA
ATOM     11  H   UNL A   1      46.210  21.596  26.476  1.00  0.00     0.141 HD
BRANCH  10  12
ATOM     12  S   UNL A   1      46.096  23.472  25.445  1.00  0.00     0.211 S 
ATOM     13  O   UNL A   1      46.197  23.955  24.090  1.00  0.00    -0.212 OA
ATOM     14  O   UNL A   1      46.943  24.034  26.479  1.00  0.00    -0.212 OA
BRANCH  12  15
ATOM     15  C   UNL A   1      44.414  23.615  26.047  1.00  0.00     0.150 C 
ATOM     16  C   UNL A   1      43.474  24.397  25.163  1.00  0.00     0.022 C 
ENDBRANCH  12  15
ENDBRANCH  10  12
ENDBRANCH   6  10
ENDBRANCH   3   5
ENDBRANCH   2   3
ENDBRANCH   1   2
BRANCH   1  17
ATOM     17  C   UNL A   1      41.480  20.624  27.125  1.00  0.00     0.275 C 
BRANCH  17  18
ATOM     18  O   UNL A   1      41.299  21.763  26.260  1.00  0.00    -0.458 OA
BRANCH  18  19
ATOM     19  C   UNL A   1      40.103  22.380  26.387  1.00  0.00     0.338 C 
ATOM     20  O   UNL A   1      38.994  21.913  26.193  1.00  0.00    -0.246 OA
BRANCH  19  21
ATOM     21  C   UNL A   1      40.297  23.697  27.002  1.00  0.00     0.060 A 
ATOM     22  C   UNL A   1      39.829  24.802  26.291  1.00  0.00     0.016 A 
ATOM     23  C   UNL A   1      41.003  23.861  28.191  1.00  0.00     0.016 A 
ATOM     24  C   UNL A   1      40.086  26.088  26.741  1.00  0.00     0.010 A 
ATOM     25  C   UNL A   1      41.253  25.157  28.655  1.00  0.00     0.010 A 
ATOM     26  C   UNL A   1      40.813  26.275  27.921  1.00  0.00    -0.014 A 
BRANCH  26  27
ATOM     27  C   UNL A   1      41.177  27.650  28.326  1.00  0.00     0.031 A 
ATOM     28  C   UNL A   1      42.612  28.080  28.274  1.00  0.00     0.074 A 
ATOM     29  C   UNL A   1      40.216  28.518  28.687  1.00  0.00     0.049 A 
ATOM     30  N   UNL A   1      43.155  29.203  28.667  1.00  0.00    -0.248 NA
ATOM     31  C   UNL A   1      43.566  27.112  27.708  1.00  0.00     0.031 C 
ATOM     32  C   UNL A   1      38.782  28.226  28.714  1.00  0.00     0.029 A 
ATOM     33  N   UNL A   1      40.302  29.822  29.099  1.00  0.00    -0.354 N 
ATOM     34  C   UNL A   1      44.515  29.068  28.424  1.00  0.00     0.074 A 
ATOM     35  C   UNL A   1      44.717  27.748  27.865  1.00  0.00     0.031 C 
ATOM     36  C   UNL A   1      38.122  29.320  29.125  1.00  0.00     0.029 A 
ATOM     37  C   UNL A   1      39.089  30.368  29.437  1.00  0.00     0.049 A 
ATOM     38  H   UNL A   1      41.152  30.318  29.148  1.00  0.00     0.167 HD
ATOM     39  C   UNL A   1      45.504  29.966  28.647  1.00  0.00     0.037 A 
ATOM     40  C   UNL A   1      38.797  31.567  29.972  1.00  0.00     0.037 A 
ATOM     41  C   UNL A   1      45.287  31.282  29.189  1.00  0.00     0.049 A 
ATOM     42  C   UNL A   1      39.912  32.532  30.254  1.00  0.00     0.074 A 
ATOM     43  C   UNL A   1      46.217  32.270  29.460  1.00  0.00     0.029 A 
ATOM     44  N   UNL A   1      44.046  31.793  29.540  1.00  0.00    -0.354 N 
ATOM     45  N   UNL A   1      41.200  32.386  30.052  1.00  0.00    -0.248 NA
ATOM     46  C   UNL A   1      39.537  33.825  30.841  1.00  0.00     0.031 C 
ATOM     47  C   UNL A   1      45.542  33.366  30.010  1.00  0.00     0.029 A 
ATOM     48  C   UNL A   1      44.186  33.077  30.040  1.00  0.00     0.049 A 
ATOM     49  H   UNL A   1      43.191  31.314  29.448  1.00  0.00     0.167 HD
ATOM     50  C   UNL A   1      41.789  33.570  30.475  1.00  0.00     0.074 A 
ATOM     51  C   UNL A   1      40.714  34.430  30.928  1.00  0.00     0.031 C 
ATOM     52  C   UNL A   1      43.100  33.914  30.488  1.00  0.00     0.037 A 
BRANCH  39  53
ATOM     53  C   UNL A   1      46.906  29.527  28.341  1.00  0.00     0.057 A 
ATOM     54  C   UNL A   1      47.699  28.857  29.280  1.00  0.00     0.134 A 
ATOM     55  C   UNL A   1      47.476  29.795  27.089  1.00  0.00     0.134 A 
ATOM     56  F   UNL A   1      47.220  28.586  30.505  1.00  0.00    -0.206 F 
ATOM     57  C   UNL A   1      49.019  28.498  28.998  1.00  0.00     0.040 A 
ATOM     58  C   UNL A   1      48.785  29.419  26.786  1.00  0.00     0.040 A 
ATOM     59  F   UNL A   1      46.770  30.433  26.142  1.00  0.00    -0.206 F 
ATOM     60  C   UNL A   1      49.564  28.777  27.747  1.00  0.00     0.006 A 
ENDBRANCH  39  53
BRANCH  40  61
ATOM     61  C   UNL A   1      37.388  31.897  30.300  1.00  0.00     0.057 A 
ATOM     62  C   UNL A   1      36.830  31.559  31.536  1.00  0.00     0.134 A 
ATOM     63  C   UNL A   1      36.578  32.591  29.392  1.00  0.00     0.134 A 
ATOM     64  F   UNL A   1      37.552  30.878  32.439  1.00  0.00    -0.206 F 
ATOM     65  C   UNL A   1      35.514  31.896  31.860  1.00  0.00     0.040 A 
ATOM     66  C   UNL A   1      35.269  32.956  29.711  1.00  0.00     0.040 A 
ATOM     67  F   UNL A   1      37.057  32.948  28.192  1.00  0.00    -0.206 F 
ATOM     68  C   UNL A   1      34.733  32.606  30.948  1.00  0.00     0.006 A 
ENDBRANCH  40  61
BRANCH  52  69
ATOM     69  C   UNL A   1      43.436  35.286  30.990  1.00  0.00     0.057 A 
ATOM     70  C   UNL A   1      43.655  35.542  32.349  1.00  0.00     0.134 A 
ATOM     71  C   UNL A   1      43.574  36.357  30.097  1.00  0.00     0.134 A 
ATOM     72  F   UNL A   1      43.524  34.561  33.255  1.00  0.00    -0.206 F 
ATOM     73  C   UNL A   1      43.978  36.820  32.806  1.00  0.00     0.040 A 
ATOM     74  C   UNL A   1      43.919  37.633  30.539  1.00  0.00     0.040 A 
ATOM     75  F   UNL A   1      43.384  36.175  28.781  1.00  0.00    -0.206 F 
ATOM     76  C   UNL A   1      44.117  37.870  31.899  1.00  0.00     0.006 A 
ENDBRANCH  52  69
ENDBRANCH  26  27
ENDBRANCH  19  21
ENDBRANCH  18  19
ENDBRANCH  17  18
ENDBRANCH   1  17
TORSDOF 14
ENDMDL
MODEL 3
REMARK VINA RESULT:     -10.4      2.469      4.184
REMARK SMILES CCS(=O)(=O)N[C@H]1C=C[C@@H](C(=O)OCCOC(=O)c2ccc(-c3c4nc(c(-c5c(F)cccc5F)c5ccc([nH]5)c(-c5c(F)cccc5F)c5nc(c(-c6c(F)cccc6F)c6ccc3[nH]6)C=C5)C=C4)cc2)C1
REMARK SMILES IDX 14 1 13 2 11 3 12 4 10 5 7 6 8 7 73 8 9 9 6 10 3 12 4 13
REMARK SMILES IDX 5 14 2 15 1 16 15 17 16 18 17 19 18 20 19 21 20 22 72 23
REMARK SMILES IDX 21 24 71 25 22 26 23 27 24 28 65 29 25 30 70 31 64 32 66 33
REMARK SMILES IDX 26 34 69 35 63 36 62 37 27 39 53 40 36 41 52 42 37 43 40 44
REMARK SMILES IDX 51 45 67 46 38 47 39 48 50 50 68 51 41 52 28 53 29 54 34 55
REMARK SMILES IDX 30 56 31 57 33 58 35 59 32 60 54 61 55 62 60 63 56 64 57 65
REMARK SMILES IDX 59 66 61 67 58 68 42 69 43 70 48 71 44 72 45 73 47 74 49 75
REMARK SMILES IDX 46 76
REMARK H PARENT 6 11 66 38 40 49
REMARK Flexibility Score: inf
ROOT
ATOM      1  C   UNL A   1      33.351  34.896  28.575  1.00  0.00     0.274 C 
ENDROOT
BRANCH   1   2
ATOM      2  O   UNL A   1      34.191  33.889  29.171  1.00  0.00    -0.462 OA
BRANCH   2   3
ATOM      3  C   UNL A   1      34.917  33.084  28.358  1.00  0.00     0.312 C 
ATOM      4  O   UNL A   1      35.895  33.449  27.712  1.00  0.00    -0.252 OA
BRANCH   3   5
ATOM      5  C   UNL A   1      34.418  31.636  28.358  1.00  0.00     0.123 C 
ATOM      6  C   UNL A   1      33.667  29.874  26.832  1.00  0.00     0.093 C 
ATOM      7  C   UNL A   1      35.095  29.691  27.238  1.00  0.00    -0.011 C 
ATOM      8  C   UNL A   1      33.330  31.275  27.333  1.00  0.00     0.043 C 
ATOM      9  C   UNL A   1      35.515  30.660  28.058  1.00  0.00    -0.015 C 
BRANCH   6  10
ATOM     10  N   UNL A   1      33.584  29.577  25.414  1.00  0.00    -0.208 NA
ATOM     11  H   UNL A   1      33.458  30.488  24.975  1.00  0.00     0.141 HD
BRANCH  10  12
ATOM     12  S   UNL A   1      32.543  28.587  24.595  1.00  0.00     0.211 S 
ATOM     13  O   UNL A   1      33.072  28.258  23.295  1.00  0.00    -0.212 OA
ATOM     14  O   UNL A   1      31.266  29.267  24.707  1.00  0.00    -0.212 OA
BRANCH  12  15
ATOM     15  C   UNL A   1      32.418  27.123  25.621  1.00  0.00     0.150 C 
ATOM     16  C   UNL A   1      33.679  26.302  25.732  1.00  0.00     0.022 C 
ENDBRANCH  12  15
ENDBRANCH  10  12
ENDBRANCH   6  10
ENDBRANCH   3   5
ENDBRANCH   2   3
ENDBRANCH   1   2
BRANCH   1  17
ATOM     17  C   UNL A   1      32.970  35.935  29.633  1.00  0.00     0.275 C 
BRANCH  17  18
ATOM     18  O   UNL A   1      32.371  35.293  30.776  1.00  0.00    -0.458 OA
BRANCH  18  19
ATOM     19  C   UNL A   1      32.712  35.834  31.967  1.00  0.00     0.338 C 
ATOM     20  O   UNL A   1      32.127  36.701  32.593  1.00  0.00    -0.246 OA
BRANCH  19  21
ATOM     21  C   UNL A   1      33.831  35.078  32.542  1.00  0.00     0.060 A 
ATOM     22  C   UNL A   1      35.090  35.676  32.491  1.00  0.00     0.016 A 
ATOM     23  C   UNL A   1      33.677  33.782  33.028  1.00  0.00     0.016 A 
ATOM     24  C   UNL A   1      36.217  34.978  32.895  1.00  0.00     0.010 A 
ATOM     25  C   UNL A   1      34.810  33.080  33.449  1.00  0.00     0.010 A 
ATOM     26  C   UNL A   1      36.087  33.668  33.365  1.00  0.00    -0.014 A 
BRANCH  26  27
ATOM     27  C   UNL A   1      37.308  32.897  33.684  1.00  0.00     0.031 A 
ATOM     28  C   UNL A   1      38.018  33.142  34.981  1.00  0.00     0.074 A 
ATOM     29  C   UNL A   1      37.743  31.949  32.835  1.00  0.00     0.049 A 
ATOM     30  N   UNL A   1      39.147  32.642  35.414  1.00  0.00    -0.248 NA
ATOM     31  C   UNL A   1      37.373  34.078  35.915  1.00  0.00     0.031 C 
ATOM     32  C   UNL A   1      37.094  31.585  31.574  1.00  0.00     0.029 A 
ATOM     33  N   UNL A   1      38.831  31.120  32.906  1.00  0.00    -0.354 N 
ATOM     34  C   UNL A   1      39.363  33.225  36.656  1.00  0.00     0.074 A 
ATOM     35  C   UNL A   1      38.257  34.127  36.900  1.00  0.00     0.031 C 
ATOM     36  C   UNL A   1      37.800  30.605  30.988  1.00  0.00     0.029 A 
ATOM     37  C   UNL A   1      38.974  30.312  31.806  1.00  0.00     0.049 A 
ATOM     38  H   UNL A   1      39.450  31.106  33.672  1.00  0.00     0.167 HD
ATOM     39  C   UNL A   1      40.391  33.023  37.513  1.00  0.00     0.037 A 
ATOM     40  C   UNL A   1      39.961  29.459  31.479  1.00  0.00     0.037 A 
ATOM     41  C   UNL A   1      41.478  32.111  37.266  1.00  0.00     0.049 A 
ATOM     42  C   UNL A   1      41.115  29.282  32.422  1.00  0.00     0.074 A 
ATOM     43  C   UNL A   1      42.573  31.832  38.064  1.00  0.00     0.029 A 
ATOM     44  N   UNL A   1      41.600  31.324  36.129  1.00  0.00    -0.354 N 
ATOM     45  N   UNL A   1      41.329  29.860  33.580  1.00  0.00    -0.248 NA
ATOM     46  C   UNL A   1      42.165  28.340  32.015  1.00  0.00     0.031 C 
ATOM     47  C   UNL A   1      43.377  30.904  37.392  1.00  0.00     0.029 A 
ATOM     48  C   UNL A   1      42.760  30.571  36.196  1.00  0.00     0.049 A 
ATOM     49  H   UNL A   1      40.957  31.304  35.383  1.00  0.00     0.167 HD
ATOM     50  C   UNL A   1      42.532  29.345  34.046  1.00  0.00     0.074 A 
ATOM     51  C   UNL A   1      42.990  28.394  33.053  1.00  0.00     0.031 C 
ATOM     52  C   UNL A   1      43.197  29.633  35.192  1.00  0.00     0.037 A 
BRANCH  39  53
ATOM     53  C   UNL A   1      40.399  33.838  38.773  1.00  0.00     0.057 A 
ATOM     54  C   UNL A   1      41.120  35.034  38.882  1.00  0.00     0.134 A 
ATOM     55  C   UNL A   1      39.686  33.410  39.901  1.00  0.00     0.134 A 
ATOM     56  F   UNL A   1      41.841  35.490  37.845  1.00  0.00    -0.206 F 
ATOM     57  C   UNL A   1      41.158  35.758  40.076  1.00  0.00     0.040 A 
ATOM     58  C   UNL A   1      39.696  34.137  41.091  1.00  0.00     0.040 A 
ATOM     59  F   UNL A   1      38.973  32.274  39.864  1.00  0.00    -0.206 F 
ATOM     60  C   UNL A   1      40.443  35.311  41.184  1.00  0.00     0.006 A 
ENDBRANCH  39  53
BRANCH  40  61
ATOM     61  C   UNL A   1      39.902  28.736  30.184  1.00  0.00     0.057 A 
ATOM     62  C   UNL A   1      39.215  27.526  30.057  1.00  0.00     0.134 A 
ATOM     63  C   UNL A   1      40.505  29.263  29.034  1.00  0.00     0.134 A 
ATOM     64  F   UNL A   1      38.633  26.964  31.127  1.00  0.00    -0.206 F 
ATOM     65  C   UNL A   1      39.131  26.860  28.833  1.00  0.00     0.040 A 
ATOM     66  C   UNL A   1      40.409  28.620  27.799  1.00  0.00     0.040 A 
ATOM     67  F   UNL A   1      41.174  30.424  29.091  1.00  0.00    -0.206 F 
ATOM     68  C   UNL A   1      39.721  27.413  27.697  1.00  0.00     0.006 A 
ENDBRANCH  40  61
BRANCH  52  69
ATOM     69  C   UNL A   1      44.478  28.893  35.436  1.00  0.00     0.057 A 
ATOM     70  C   UNL A   1      45.713  29.395  35.008  1.00  0.00     0.134 A 
ATOM     71  C   UNL A   1      44.478  27.681  36.138  1.00  0.00     0.134 A 
ATOM     72  F   UNL A   1      45.778  30.545  34.319  1.00  0.00    -0.206 F 
ATOM     73  C   UNL A   1      46.902  28.705  35.249  1.00  0.00     0.040 A 
ATOM     74  C   UNL A   1      45.661  26.994  36.405  1.00  0.00     0.040 A 
ATOM     75  F   UNL A   1      43.328  27.150  36.581  1.00  0.00    -0.206 F 
ATOM     76  C   UNL A   1      46.879  27.503  35.955  1.00  0.00     0.006 A 
ENDBRANCH  52  69
ENDBRANCH  26  27
ENDBRANCH  19  21
ENDBRANCH  18  19
ENDBRANCH  17  18
ENDBRANCH   1  17
TORSDOF 14
ENDMDL
