MODEL 1
REMARK VINA RESULT:     -10.9      0.000      0.000
REMARK SMILES CCCCCCNC(=O)Oc1cccc(-c2ccc([C@@H](C)C(=O)OCCOC(=O)c3ccc(-c4c5nc(c(-c6c(F)cccc6F)c6ccc([nH]6)c(-c6c(F)cccc6F)c6nc(c(-c7c(F)cccc7F)c7ccc4[nH]7)C=C6)C=C5)cc3)cc2F)c1
REMARK SMILES IDX 20 1 21 2 19 3 16 4 17 5 85 6 18 7 84 8 86 9 15 10 11 11
REMARK SMILES IDX 12 12 87 13 13 14 14 15 10 16 8 17 7 18 9 20 6 21 5 22 4 23
REMARK SMILES IDX 3 24 2 25 1 26 22 27 23 28 24 29 25 30 26 31 27 32 28 33
REMARK SMILES IDX 29 34 30 35 31 36 83 37 32 38 82 39 33 40 34 41 35 42 76 43
REMARK SMILES IDX 36 44 81 45 75 46 77 47 37 48 80 49 74 50 73 51 38 53 64 54
REMARK SMILES IDX 47 55 63 56 48 57 51 58 62 59 78 60 49 61 50 62 61 64 79 65
REMARK SMILES IDX 52 66 39 67 40 68 45 69 41 70 42 71 44 72 46 73 43 74 65 75
REMARK SMILES IDX 66 76 71 77 67 78 68 79 70 80 72 81 69 82 53 83 54 84 59 85
REMARK SMILES IDX 55 86 56 87 58 88 60 89 57 90
REMARK H PARENT 7 19 77 52 51 63
REMARK Flexibility Score: inf
ROOT
ATOM      1  C   UNL A   1      35.287  33.006  29.558  1.00  0.00     0.126 C 
ATOM      2  C   UNL A   1      35.869  34.171  28.760  1.00  0.00     0.025 C 
ENDROOT
BRANCH   1   3
ATOM      3  C   UNL A   1      34.863  31.842  28.676  1.00  0.00    -0.031 A 
ATOM      4  C   UNL A   1      34.116  29.638  27.030  1.00  0.00     0.018 A 
ATOM      5  C   UNL A   1      33.291  30.767  27.155  1.00  0.00     0.012 A 
ATOM      6  C   UNL A   1      35.314  29.635  27.755  1.00  0.00     0.131 A 
ATOM      7  C   UNL A   1      33.658  31.853  27.960  1.00  0.00     0.005 A 
ATOM      8  C   UNL A   1      35.687  30.713  28.560  1.00  0.00     0.044 A 
ATOM      9  F   UNL A   1      36.157  28.593  27.669  1.00  0.00    -0.206 F 
BRANCH   4  10
ATOM     10  C   UNL A   1      33.735  28.523  26.148  1.00  0.00    -0.012 A 
ATOM     11  C   UNL A   1      32.753  26.333  25.783  1.00  0.00     0.133 A 
ATOM     12  C   UNL A   1      33.029  26.404  24.421  1.00  0.00     0.047 A 
ATOM     13  C   UNL A   1      33.112  27.368  26.650  1.00  0.00     0.056 A 
ATOM     14  C   UNL A   1      33.648  27.539  23.908  1.00  0.00     0.004 A 
ATOM     15  C   UNL A   1      33.995  28.587  24.765  1.00  0.00     0.009 A 
BRANCH  11  16
ATOM     16  O   UNL A   1      32.202  25.132  26.257  1.00  0.00    -0.410 OA
BRANCH  16  17
ATOM     17  C   UNL A   1      30.856  24.906  26.013  1.00  0.00     0.412 C 
ATOM     18  N   UNL A   1      30.632  23.834  25.190  1.00  0.00    -0.321 N 
ATOM     19  H   UNL A   1      29.691  23.607  25.013  1.00  0.00     0.167 HD
ATOM     20  O   UNL A   1      29.919  25.570  26.443  1.00  0.00    -0.224 OA
BRANCH  18  21
ATOM     21  C   UNL A   1      31.632  23.000  24.555  1.00  0.00     0.119 C 
BRANCH  21  22
ATOM     22  C   UNL A   1      31.887  21.710  25.333  1.00  0.00     0.021 C 
BRANCH  22  23
ATOM     23  C   UNL A   1      32.617  20.613  24.547  1.00  0.00     0.002 C 
BRANCH  23  24
ATOM     24  C   UNL A   1      32.474  19.191  25.100  1.00  0.00    -0.000 C 
BRANCH  24  25
ATOM     25  C   UNL A   1      32.656  18.064  24.081  1.00  0.00    -0.003 C 
ATOM     26  C   UNL A   1      32.297  18.470  22.660  1.00  0.00     0.004 C 
ENDBRANCH  24  25
ENDBRANCH  23  24
ENDBRANCH  22  23
ENDBRANCH  21  22
ENDBRANCH  18  21
ENDBRANCH  16  17
ENDBRANCH  11  16
ENDBRANCH   4  10
ENDBRANCH   1   3
BRANCH   1  27
ATOM     27  C   UNL A   1      34.232  33.518  30.532  1.00  0.00     0.313 C 
ATOM     28  O   UNL A   1      33.564  34.522  30.300  1.00  0.00    -0.252 OA
BRANCH  27  29
ATOM     29  O   UNL A   1      34.089  32.743  31.638  1.00  0.00    -0.462 OA
BRANCH  29  30
ATOM     30  C   UNL A   1      34.084  33.414  32.913  1.00  0.00     0.274 C 
BRANCH  30  31
ATOM     31  C   UNL A   1      35.391  33.174  33.668  1.00  0.00     0.275 C 
BRANCH  31  32
ATOM     32  O   UNL A   1      36.055  31.989  33.190  1.00  0.00    -0.458 OA
BRANCH  32  33
ATOM     33  C   UNL A   1      37.216  31.689  33.813  1.00  0.00     0.338 C 
ATOM     34  O   UNL A   1      37.447  31.694  35.009  1.00  0.00    -0.246 OA
BRANCH  33  35
ATOM     35  C   UNL A   1      38.188  31.218  32.818  1.00  0.00     0.060 A 
ATOM     36  C   UNL A   1      39.350  30.593  33.274  1.00  0.00     0.016 A 
ATOM     37  C   UNL A   1      37.993  31.456  31.458  1.00  0.00     0.016 A 
ATOM     38  C   UNL A   1      40.335  30.208  32.372  1.00  0.00     0.010 A 
ATOM     39  C   UNL A   1      38.977  31.056  30.550  1.00  0.00     0.010 A 
ATOM     40  C   UNL A   1      40.157  30.438  31.002  1.00  0.00    -0.014 A 
BRANCH  40  41
ATOM     41  C   UNL A   1      41.220  30.054  30.048  1.00  0.00     0.031 A 
ATOM     42  C   UNL A   1      41.206  28.691  29.419  1.00  0.00     0.074 A 
ATOM     43  C   UNL A   1      42.191  30.934  29.740  1.00  0.00     0.049 A 
ATOM     44  N   UNL A   1      42.093  28.133  28.637  1.00  0.00    -0.248 NA
ATOM     45  C   UNL A   1      40.039  27.846  29.712  1.00  0.00     0.031 C 
ATOM     46  C   UNL A   1      42.279  32.303  30.247  1.00  0.00     0.029 A 
ATOM     47  N   UNL A   1      43.287  30.803  28.927  1.00  0.00    -0.354 N 
ATOM     48  C   UNL A   1      41.609  26.862  28.365  1.00  0.00     0.074 A 
ATOM     49  C   UNL A   1      40.352  26.728  29.071  1.00  0.00     0.031 C 
ATOM     50  C   UNL A   1      43.367  32.891  29.725  1.00  0.00     0.029 A 
ATOM     51  C   UNL A   1      44.079  31.924  28.893  1.00  0.00     0.049 A 
ATOM     52  H   UNL A   1      43.487  29.986  28.417  1.00  0.00     0.167 HD
ATOM     53  C   UNL A   1      42.164  25.895  27.595  1.00  0.00     0.037 A 
ATOM     54  C   UNL A   1      45.260  32.136  28.285  1.00  0.00     0.037 A 
ATOM     55  C   UNL A   1      43.401  26.044  26.874  1.00  0.00     0.049 A 
ATOM     56  C   UNL A   1      45.892  31.022  27.502  1.00  0.00     0.074 A 
ATOM     57  C   UNL A   1      44.022  25.141  26.030  1.00  0.00     0.029 A 
ATOM     58  N   UNL A   1      44.209  27.171  26.919  1.00  0.00    -0.354 N 
ATOM     59  N   UNL A   1      45.428  29.822  27.249  1.00  0.00    -0.248 NA
ATOM     60  C   UNL A   1      47.224  31.284  26.936  1.00  0.00     0.031 C 
ATOM     61  C   UNL A   1      45.229  25.706  25.598  1.00  0.00     0.029 A 
ATOM     62  C   UNL A   1      45.340  26.974  26.145  1.00  0.00     0.049 A 
ATOM     63  H   UNL A   1      44.007  27.991  27.426  1.00  0.00     0.167 HD
ATOM     64  C   UNL A   1      46.402  29.190  26.489  1.00  0.00     0.074 A 
ATOM     65  C   UNL A   1      47.477  30.144  26.308  1.00  0.00     0.031 C 
ATOM     66  C   UNL A   1      46.405  27.930  25.987  1.00  0.00     0.037 A 
BRANCH  53  67
ATOM     67  C   UNL A   1      41.452  24.577  27.527  1.00  0.00     0.057 A 
ATOM     68  C   UNL A   1      40.360  24.365  26.678  1.00  0.00     0.134 A 
ATOM     69  C   UNL A   1      41.882  23.501  28.313  1.00  0.00     0.134 A 
ATOM     70  F   UNL A   1      39.891  25.360  25.910  1.00  0.00    -0.206 F 
ATOM     71  C   UNL A   1      39.704  23.133  26.631  1.00  0.00     0.040 A 
ATOM     72  C   UNL A   1      41.248  22.260  28.258  1.00  0.00     0.040 A 
ATOM     73  F   UNL A   1      42.925  23.638  29.145  1.00  0.00    -0.206 F 
ATOM     74  C   UNL A   1      40.151  22.074  27.420  1.00  0.00     0.006 A 
ENDBRANCH  53  67
BRANCH  54  75
ATOM     75  C   UNL A   1      45.932  33.451  28.416  1.00  0.00     0.057 A 
ATOM     76  C   UNL A   1      45.667  34.488  27.515  1.00  0.00     0.134 A 
ATOM     77  C   UNL A   1      46.848  33.704  29.444  1.00  0.00     0.134 A 
ATOM     78  F   UNL A   1      44.817  34.295  26.495  1.00  0.00    -0.206 F 
ATOM     79  C   UNL A   1      46.291  35.731  27.631  1.00  0.00     0.040 A 
ATOM     80  C   UNL A   1      47.462  34.949  29.584  1.00  0.00     0.040 A 
ATOM     81  F   UNL A   1      47.145  32.748  30.337  1.00  0.00    -0.206 F 
ATOM     82  C   UNL A   1      47.186  35.966  28.673  1.00  0.00     0.006 A 
ENDBRANCH  54  75
BRANCH  66  83
ATOM     83  C   UNL A   1      47.605  27.520  25.189  1.00  0.00     0.057 A 
ATOM     84  C   UNL A   1      47.660  27.704  23.801  1.00  0.00     0.134 A 
ATOM     85  C   UNL A   1      48.729  26.968  25.815  1.00  0.00     0.134 A 
ATOM     86  F   UNL A   1      46.609  28.213  23.141  1.00  0.00    -0.206 F 
ATOM     87  C   UNL A   1      48.786  27.338  23.063  1.00  0.00     0.040 A 
ATOM     88  C   UNL A   1      49.869  26.617  25.091  1.00  0.00     0.040 A 
ATOM     89  F   UNL A   1      48.741  26.772  27.143  1.00  0.00    -0.206 F 
ATOM     90  C   UNL A   1      49.897  26.799  23.710  1.00  0.00     0.006 A 
ENDBRANCH  66  83
ENDBRANCH  40  41
ENDBRANCH  33  35
ENDBRANCH  32  33
ENDBRANCH  31  32
ENDBRANCH  30  31
ENDBRANCH  29  30
ENDBRANCH  27  29
ENDBRANCH   1  27
TORSDOF 20
ENDMDL
MODEL 2
REMARK VINA RESULT:     -10.8      1.203      1.906
REMARK SMILES CCCCCCNC(=O)Oc1cccc(-c2ccc([C@@H](C)C(=O)OCCOC(=O)c3ccc(-c4c5nc(c(-c6c(F)cccc6F)c6ccc([nH]6)c(-c6c(F)cccc6F)c6nc(c(-c7c(F)cccc7F)c7ccc4[nH]7)C=C6)C=C5)cc3)cc2F)c1
REMARK SMILES IDX 20 1 21 2 19 3 16 4 17 5 85 6 18 7 84 8 86 9 15 10 11 11
REMARK SMILES IDX 12 12 87 13 13 14 14 15 10 16 8 17 7 18 9 20 6 21 5 22 4 23
REMARK SMILES IDX 3 24 2 25 1 26 22 27 23 28 24 29 25 30 26 31 27 32 28 33
REMARK SMILES IDX 29 34 30 35 31 36 83 37 32 38 82 39 33 40 34 41 35 42 76 43
REMARK SMILES IDX 36 44 81 45 75 46 77 47 37 48 80 49 74 50 73 51 38 53 64 54
REMARK SMILES IDX 47 55 63 56 48 57 51 58 62 59 78 60 49 61 50 62 61 64 79 65
REMARK SMILES IDX 52 66 39 67 40 68 45 69 41 70 42 71 44 72 46 73 43 74 65 75
REMARK SMILES IDX 66 76 71 77 67 78 68 79 70 80 72 81 69 82 53 83 54 84 59 85
REMARK SMILES IDX 55 86 56 87 58 88 60 89 57 90
REMARK H PARENT 7 19 77 52 51 63
REMARK Flexibility Score: inf
ROOT
ATOM      1  C   UNL A   1      34.993  33.059  28.730  1.00  0.00     0.126 C 
ATOM      2  C   UNL A   1      36.180  33.523  27.890  1.00  0.00     0.025 C 
ENDROOT
BRANCH   1   3
ATOM      3  C   UNL A   1      34.223  31.917  28.084  1.00  0.00    -0.031 A 
ATOM      4  C   UNL A   1      32.826  29.750  26.871  1.00  0.00     0.018 A 
ATOM      5  C   UNL A   1      32.202  30.989  27.089  1.00  0.00     0.012 A 
ATOM      6  C   UNL A   1      34.157  29.620  27.284  1.00  0.00     0.131 A 
ATOM      7  C   UNL A   1      32.888  32.056  27.681  1.00  0.00     0.005 A 
ATOM      8  C   UNL A   1      34.849  30.679  27.876  1.00  0.00     0.044 A 
ATOM      9  F   UNL A   1      34.819  28.468  27.092  1.00  0.00    -0.206 F 
BRANCH   4  10
ATOM     10  C   UNL A   1      32.103  28.651  26.210  1.00  0.00    -0.012 A 
ATOM     11  C   UNL A   1      31.376  26.338  26.104  1.00  0.00     0.133 A 
ATOM     12  C   UNL A   1      30.713  26.571  24.902  1.00  0.00     0.047 A 
ATOM     13  C   UNL A   1      32.081  27.355  26.751  1.00  0.00     0.056 A 
ATOM     14  C   UNL A   1      30.728  27.848  24.351  1.00  0.00     0.004 A 
ATOM     15  C   UNL A   1      31.416  28.876  25.001  1.00  0.00     0.009 A 
BRANCH  11  16
ATOM     16  O   UNL A   1      31.395  25.014  26.571  1.00  0.00    -0.410 OA
BRANCH  16  17
ATOM     17  C   UNL A   1      30.216  24.289  26.486  1.00  0.00     0.412 C 
ATOM     18  N   UNL A   1      30.313  23.204  25.656  1.00  0.00    -0.321 N 
ATOM     19  H   UNL A   1      29.515  22.633  25.587  1.00  0.00     0.167 HD
ATOM     20  O   UNL A   1      29.162  24.549  27.054  1.00  0.00    -0.224 OA
BRANCH  18  21
ATOM     21  C   UNL A   1      31.464  22.807  24.870  1.00  0.00     0.119 C 
BRANCH  21  22
ATOM     22  C   UNL A   1      31.303  23.156  23.392  1.00  0.00     0.021 C 
BRANCH  22  23
ATOM     23  C   UNL A   1      32.563  23.716  22.718  1.00  0.00     0.002 C 
BRANCH  23  24
ATOM     24  C   UNL A   1      33.746  23.997  23.651  1.00  0.00    -0.000 C 
BRANCH  24  25
ATOM     25  C   UNL A   1      34.051  25.475  23.907  1.00  0.00    -0.003 C 
ATOM     26  C   UNL A   1      33.705  26.375  22.731  1.00  0.00     0.004 C 
ENDBRANCH  24  25
ENDBRANCH  23  24
ENDBRANCH  22  23
ENDBRANCH  21  22
ENDBRANCH  18  21
ENDBRANCH  16  17
ENDBRANCH  11  16
ENDBRANCH   4  10
ENDBRANCH   1   3
BRANCH   1  27
ATOM     27  C   UNL A   1      34.159  34.261  29.161  1.00  0.00     0.313 C 
ATOM     28  O   UNL A   1      33.914  35.190  28.397  1.00  0.00    -0.252 OA
BRANCH  27  29
ATOM     29  O   UNL A   1      33.699  34.177  30.436  1.00  0.00    -0.462 OA
BRANCH  29  30
ATOM     30  C   UNL A   1      34.675  34.253  31.492  1.00  0.00     0.274 C 
BRANCH  30  31
ATOM     31  C   UNL A   1      34.511  33.098  32.480  1.00  0.00     0.275 C 
BRANCH  31  32
ATOM     32  O   UNL A   1      35.376  31.998  32.138  1.00  0.00    -0.458 OA
BRANCH  32  33
ATOM     33  C   UNL A   1      36.483  31.877  32.905  1.00  0.00     0.338 C 
ATOM     34  O   UNL A   1      36.585  32.058  34.105  1.00  0.00    -0.246 OA
BRANCH  33  35
ATOM     35  C   UNL A   1      37.583  31.360  32.082  1.00  0.00     0.060 A 
ATOM     36  C   UNL A   1      38.712  30.855  32.731  1.00  0.00     0.016 A 
ATOM     37  C   UNL A   1      37.537  31.441  30.691  1.00  0.00     0.016 A 
ATOM     38  C   UNL A   1      39.811  30.433  31.992  1.00  0.00     0.010 A 
ATOM     39  C   UNL A   1      38.637  31.004  29.947  1.00  0.00     0.010 A 
ATOM     40  C   UNL A   1      39.783  30.506  30.594  1.00  0.00    -0.014 A 
BRANCH  40  41
ATOM     41  C   UNL A   1      40.966  30.084  29.812  1.00  0.00     0.031 A 
ATOM     42  C   UNL A   1      41.036  28.696  29.248  1.00  0.00     0.074 A 
ATOM     43  C   UNL A   1      41.971  30.953  29.602  1.00  0.00     0.049 A 
ATOM     44  N   UNL A   1      42.020  28.107  28.620  1.00  0.00    -0.248 NA
ATOM     45  C   UNL A   1      39.837  27.859  29.415  1.00  0.00     0.031 C 
ATOM     46  C   UNL A   1      41.992  32.344  30.055  1.00  0.00     0.029 A 
ATOM     47  N   UNL A   1      43.169  30.792  28.953  1.00  0.00    -0.354 N 
ATOM     48  C   UNL A   1      41.575  26.823  28.341  1.00  0.00     0.074 A 
ATOM     49  C   UNL A   1      40.233  26.715  28.873  1.00  0.00     0.031 C 
ATOM     50  C   UNL A   1      43.144  32.913  29.661  1.00  0.00     0.029 A 
ATOM     51  C   UNL A   1      43.960  31.913  28.978  1.00  0.00     0.049 A 
ATOM     52  H   UNL A   1      43.435  29.953  28.511  1.00  0.00     0.167 HD
ATOM     53  C   UNL A   1      42.228  25.826  27.697  1.00  0.00     0.037 A 
ATOM     54  C   UNL A   1      45.214  32.102  28.528  1.00  0.00     0.037 A 
ATOM     55  C   UNL A   1      43.552  25.948  27.147  1.00  0.00     0.049 A 
ATOM     56  C   UNL A   1      45.945  30.957  27.889  1.00  0.00     0.074 A 
ATOM     57  C   UNL A   1      44.281  25.010  26.435  1.00  0.00     0.029 A 
ATOM     58  N   UNL A   1      44.349  27.078  27.252  1.00  0.00    -0.354 N 
ATOM     59  N   UNL A   1      45.517  29.746  27.629  1.00  0.00    -0.248 NA
ATOM     60  C   UNL A   1      47.342  31.199  27.500  1.00  0.00     0.031 C 
ATOM     61  C   UNL A   1      45.537  25.560  26.149  1.00  0.00     0.029 A 
ATOM     62  C   UNL A   1      45.575  26.851  26.649  1.00  0.00     0.049 A 
ATOM     63  H   UNL A   1      44.081  27.919  27.690  1.00  0.00     0.167 HD
ATOM     64  C   UNL A   1      46.584  29.085  27.037  1.00  0.00     0.074 A 
ATOM     65  C   UNL A   1      47.676  30.034  26.963  1.00  0.00     0.031 C 
ATOM     66  C   UNL A   1      46.653  27.804  26.597  1.00  0.00     0.037 A 
BRANCH  53  67
ATOM     67  C   UNL A   1      41.529  24.503  27.590  1.00  0.00     0.057 A 
ATOM     68  C   UNL A   1      40.508  24.274  26.661  1.00  0.00     0.134 A 
ATOM     69  C   UNL A   1      41.900  23.439  28.421  1.00  0.00     0.134 A 
ATOM     70  F   UNL A   1      40.097  25.258  25.846  1.00  0.00    -0.206 F 
ATOM     71  C   UNL A   1      39.862  23.039  26.578  1.00  0.00     0.040 A 
ATOM     72  C   UNL A   1      41.278  22.194  28.333  1.00  0.00     0.040 A 
ATOM     73  F   UNL A   1      42.875  23.592  29.330  1.00  0.00    -0.206 F 
ATOM     74  C   UNL A   1      40.251  21.992  27.413  1.00  0.00     0.006 A 
ENDBRANCH  53  67
BRANCH  54  75
ATOM     75  C   UNL A   1      45.865  33.424  28.692  1.00  0.00     0.057 A 
ATOM     76  C   UNL A   1      45.730  34.419  27.718  1.00  0.00     0.134 A 
ATOM     77  C   UNL A   1      46.630  33.727  29.825  1.00  0.00     0.134 A 
ATOM     78  F   UNL A   1      45.028  34.178  26.600  1.00  0.00    -0.206 F 
ATOM     79  C   UNL A   1      46.334  35.669  27.863  1.00  0.00     0.040 A 
ATOM     80  C   UNL A   1      47.223  34.979  29.992  1.00  0.00     0.040 A 
ATOM     81  F   UNL A   1      46.799  32.813  30.792  1.00  0.00    -0.206 F 
ATOM     82  C   UNL A   1      47.078  35.954  29.008  1.00  0.00     0.006 A 
ENDBRANCH  54  75
BRANCH  66  83
ATOM     83  C   UNL A   1      47.951  27.364  25.989  1.00  0.00     0.057 A 
ATOM     84  C   UNL A   1      48.979  26.820  26.771  1.00  0.00     0.134 A 
ATOM     85  C   UNL A   1      48.164  27.453  24.608  1.00  0.00     0.134 A 
ATOM     86  F   UNL A   1      48.841  26.724  28.102  1.00  0.00    -0.206 F 
ATOM     87  C   UNL A   1      50.178  26.394  26.201  1.00  0.00     0.040 A 
ATOM     88  C   UNL A   1      49.351  27.011  24.024  1.00  0.00     0.040 A 
ATOM     89  F   UNL A   1      47.216  27.959  23.804  1.00  0.00    -0.206 F 
ATOM     90  C   UNL A   1      50.364  26.483  24.822  1.00  0.00     0.006 A 
ENDBRANCH  66  83
ENDBRANCH  40  41
ENDBRANCH  33  35
ENDBRANCH  32  33
ENDBRANCH  31  32
ENDBRANCH  30  31
ENDBRANCH  29  30
ENDBRANCH  27  29
ENDBRANCH   1  27
TORSDOF 20
ENDMDL
MODEL 3
REMARK VINA RESULT:     -10.7      4.414      9.431
REMARK SMILES CCCCCCNC(=O)Oc1cccc(-c2ccc([C@@H](C)C(=O)OCCOC(=O)c3ccc(-c4c5nc(c(-c6c(F)cccc6F)c6ccc([nH]6)c(-c6c(F)cccc6F)c6nc(c(-c7c(F)cccc7F)c7ccc4[nH]7)C=C6)C=C5)cc3)cc2F)c1
REMARK SMILES IDX 20 1 21 2 19 3 16 4 17 5 85 6 18 7 84 8 86 9 15 10 11 11
REMARK SMILES IDX 12 12 87 13 13 14 14 15 10 16 8 17 7 18 9 20 6 21 5 22 4 23
REMARK SMILES IDX 3 24 2 25 1 26 22 27 23 28 24 29 25 30 26 31 27 32 28 33
REMARK SMILES IDX 29 34 30 35 31 36 83 37 32 38 82 39 33 40 34 41 35 42 76 43
REMARK SMILES IDX 36 44 81 45 75 46 77 47 37 48 80 49 74 50 73 51 38 53 64 54
REMARK SMILES IDX 47 55 63 56 48 57 51 58 62 59 78 60 49 61 50 62 61 64 79 65
REMARK SMILES IDX 52 66 39 67 40 68 45 69 41 70 42 71 44 72 46 73 43 74 65 75
REMARK SMILES IDX 66 76 71 77 67 78 68 79 70 80 72 81 69 82 53 83 54 84 59 85
REMARK SMILES IDX 55 86 56 87 58 88 60 89 57 90
REMARK H PARENT 7 19 77 52 51 63
REMARK Flexibility Score: inf
ROOT
ATOM      1  C   UNL A   1      43.058  36.035  27.807  1.00  0.00     0.126 C 
ATOM      2  C   UNL A   1      42.652  35.678  26.380  1.00  0.00     0.025 C 
ENDROOT
BRANCH   1   3
ATOM      3  C   UNL A   1      42.144  35.415  28.853  1.00  0.00    -0.031 A 
ATOM      4  C   UNL A   1      40.390  34.262  30.781  1.00  0.00     0.018 A 
ATOM      5  C   UNL A   1      41.755  34.449  31.056  1.00  0.00     0.012 A 
ATOM      6  C   UNL A   1      39.931  34.654  29.518  1.00  0.00     0.131 A 
ATOM      7  C   UNL A   1      42.617  35.019  30.111  1.00  0.00     0.005 A 
ATOM      8  C   UNL A   1      40.784  35.223  28.570  1.00  0.00     0.044 A 
ATOM      9  F   UNL A   1      38.634  34.518  29.195  1.00  0.00    -0.206 F 
BRANCH   4  10
ATOM     10  C   UNL A   1      39.489  33.700  31.800  1.00  0.00    -0.012 A 
ATOM     11  C   UNL A   1      37.655  33.916  33.375  1.00  0.00     0.133 A 
ATOM     12  C   UNL A   1      37.789  32.584  33.759  1.00  0.00     0.047 A 
ATOM     13  C   UNL A   1      38.501  34.483  32.419  1.00  0.00     0.056 A 
ATOM     14  C   UNL A   1      38.765  31.797  33.158  1.00  0.00     0.004 A 
ATOM     15  C   UNL A   1      39.604  32.351  32.188  1.00  0.00     0.009 A 
BRANCH  11  16
ATOM     16  O   UNL A   1      36.708  34.684  34.072  1.00  0.00    -0.410 OA
BRANCH  16  17
ATOM     17  C   UNL A   1      35.810  34.009  34.884  1.00  0.00     0.412 C 
ATOM     18  N   UNL A   1      34.655  33.661  34.234  1.00  0.00    -0.321 N 
ATOM     19  H   UNL A   1      33.996  33.149  34.754  1.00  0.00     0.167 HD
ATOM     20  O   UNL A   1      35.964  33.740  36.069  1.00  0.00    -0.224 OA
BRANCH  18  21
ATOM     21  C   UNL A   1      34.302  33.966  32.862  1.00  0.00     0.119 C 
BRANCH  21  22
ATOM     22  C   UNL A   1      34.511  32.773  31.932  1.00  0.00     0.021 C 
BRANCH  22  23
ATOM     23  C   UNL A   1      35.515  33.005  30.796  1.00  0.00     0.002 C 
BRANCH  23  24
ATOM     24  C   UNL A   1      34.949  32.895  29.376  1.00  0.00    -0.000 C 
BRANCH  24  25
ATOM     25  C   UNL A   1      35.380  33.997  28.405  1.00  0.00    -0.003 C 
ATOM     26  C   UNL A   1      34.416  35.172  28.359  1.00  0.00     0.004 C 
ENDBRANCH  24  25
ENDBRANCH  23  24
ENDBRANCH  22  23
ENDBRANCH  21  22
ENDBRANCH  18  21
ENDBRANCH  16  17
ENDBRANCH  11  16
ENDBRANCH   4  10
ENDBRANCH   1   3
BRANCH   1  27
ATOM     27  C   UNL A   1      43.276  37.540  27.926  1.00  0.00     0.313 C 
ATOM     28  O   UNL A   1      42.362  38.308  28.214  1.00  0.00    -0.252 OA
BRANCH  27  29
ATOM     29  O   UNL A   1      44.561  37.923  27.720  1.00  0.00    -0.462 OA
BRANCH  29  30
ATOM     30  C   UNL A   1      45.295  38.402  28.864  1.00  0.00     0.274 C 
BRANCH  30  31
ATOM     31  C   UNL A   1      45.252  37.389  30.009  1.00  0.00     0.275 C 
BRANCH  31  32
ATOM     32  O   UNL A   1      46.551  36.812  30.237  1.00  0.00    -0.458 OA
BRANCH  32  33
ATOM     33  C   UNL A   1      47.107  36.203  29.166  1.00  0.00     0.338 C 
ATOM     34  O   UNL A   1      48.012  36.611  28.459  1.00  0.00    -0.246 OA
BRANCH  33  35
ATOM     35  C   UNL A   1      46.529  34.861  29.022  1.00  0.00     0.060 A 
ATOM     36  C   UNL A   1      46.459  34.048  30.154  1.00  0.00     0.016 A 
ATOM     37  C   UNL A   1      46.131  34.383  27.775  1.00  0.00     0.016 A 
ATOM     38  C   UNL A   1      45.998  32.741  30.047  1.00  0.00     0.010 A 
ATOM     39  C   UNL A   1      45.653  33.073  27.669  1.00  0.00     0.010 A 
ATOM     40  C   UNL A   1      45.593  32.243  28.803  1.00  0.00    -0.014 A 
BRANCH  40  41
ATOM     41  C   UNL A   1      45.129  30.842  28.688  1.00  0.00     0.031 A 
ATOM     42  C   UNL A   1      46.105  29.756  28.342  1.00  0.00     0.074 A 
ATOM     43  C   UNL A   1      43.835  30.548  28.906  1.00  0.00     0.049 A 
ATOM     44  N   UNL A   1      45.881  28.490  28.103  1.00  0.00    -0.248 NA
ATOM     45  C   UNL A   1      47.520  30.149  28.251  1.00  0.00     0.031 C 
ATOM     46  C   UNL A   1      42.806  31.510  29.300  1.00  0.00     0.029 A 
ATOM     47  N   UNL A   1      43.166  29.353  28.825  1.00  0.00    -0.354 N 
ATOM     48  C   UNL A   1      47.119  27.938  27.806  1.00  0.00     0.074 A 
ATOM     49  C   UNL A   1      48.091  29.009  27.888  1.00  0.00     0.031 C 
ATOM     50  C   UNL A   1      41.635  30.865  29.436  1.00  0.00     0.029 A 
ATOM     51  C   UNL A   1      41.823  29.460  29.087  1.00  0.00     0.049 A 
ATOM     52  H   UNL A   1      43.607  28.502  28.601  1.00  0.00     0.167 HD
ATOM     53  C   UNL A   1      47.417  26.654  27.495  1.00  0.00     0.037 A 
ATOM     54  C   UNL A   1      40.849  28.534  29.021  1.00  0.00     0.037 A 
ATOM     55  C   UNL A   1      46.450  25.589  27.440  1.00  0.00     0.049 A 
ATOM     56  C   UNL A   1      41.192  27.135  28.596  1.00  0.00     0.074 A 
ATOM     57  C   UNL A   1      46.659  24.245  27.180  1.00  0.00     0.029 A 
ATOM     58  N   UNL A   1      45.088  25.749  27.645  1.00  0.00    -0.354 N 
ATOM     59  N   UNL A   1      42.365  26.621  28.317  1.00  0.00    -0.248 NA
ATOM     60  C   UNL A   1      40.073  26.193  28.457  1.00  0.00     0.031 C 
ATOM     61  C   UNL A   1      45.416  23.601  27.185  1.00  0.00     0.029 A 
ATOM     62  C   UNL A   1      44.438  24.536  27.483  1.00  0.00     0.049 A 
ATOM     63  H   UNL A   1      44.647  26.600  27.873  1.00  0.00     0.167 HD
ATOM     64  C   UNL A   1      42.129  25.296  27.979  1.00  0.00     0.074 A 
ATOM     65  C   UNL A   1      40.702  25.081  28.103  1.00  0.00     0.031 C 
ATOM     66  C   UNL A   1      43.016  24.344  27.599  1.00  0.00     0.037 A 
BRANCH  53  67
ATOM     67  C   UNL A   1      48.842  26.342  27.150  1.00  0.00     0.057 A 
ATOM     68  C   UNL A   1      49.319  26.404  25.835  1.00  0.00     0.134 A 
ATOM     69  C   UNL A   1      49.753  25.993  28.154  1.00  0.00     0.134 A 
ATOM     70  F   UNL A   1      48.494  26.718  24.826  1.00  0.00    -0.206 F 
ATOM     71  C   UNL A   1      50.649  26.104  25.529  1.00  0.00     0.040 A 
ATOM     72  C   UNL A   1      51.088  25.713  27.864  1.00  0.00     0.040 A 
ATOM     73  F   UNL A   1      49.360  25.920  29.435  1.00  0.00    -0.206 F 
ATOM     74  C   UNL A   1      51.538  25.762  26.546  1.00  0.00     0.006 A 
ENDBRANCH  53  67
BRANCH  54  75
ATOM     75  C   UNL A   1      39.451  28.910  29.342  1.00  0.00     0.057 A 
ATOM     76  C   UNL A   1      38.589  29.391  28.350  1.00  0.00     0.134 A 
ATOM     77  C   UNL A   1      38.942  28.792  30.640  1.00  0.00     0.134 A 
ATOM     78  F   UNL A   1      39.028  29.548  27.092  1.00  0.00    -0.206 F 
ATOM     79  C   UNL A   1      37.270  29.745  28.639  1.00  0.00     0.040 A 
ATOM     80  C   UNL A   1      37.620  29.123  30.939  1.00  0.00     0.040 A 
ATOM     81  F   UNL A   1      39.720  28.340  31.635  1.00  0.00    -0.206 F 
ATOM     82  C   UNL A   1      36.780  29.603  29.936  1.00  0.00     0.006 A 
ENDBRANCH  54  75
BRANCH  66  83
ATOM     83  C   UNL A   1      42.464  22.983  27.298  1.00  0.00     0.057 A 
ATOM     84  C   UNL A   1      42.096  22.100  28.322  1.00  0.00     0.134 A 
ATOM     85  C   UNL A   1      42.268  22.564  25.977  1.00  0.00     0.134 A 
ATOM     86  F   UNL A   1      42.275  22.437  29.608  1.00  0.00    -0.206 F 
ATOM     87  C   UNL A   1      41.566  20.841  28.040  1.00  0.00     0.040 A 
ATOM     88  C   UNL A   1      41.719  21.315  25.683  1.00  0.00     0.040 A 
ATOM     89  F   UNL A   1      42.595  23.366  24.952  1.00  0.00    -0.206 F 
ATOM     90  C   UNL A   1      41.370  20.449  26.716  1.00  0.00     0.006 A 
ENDBRANCH  66  83
ENDBRANCH  40  41
ENDBRANCH  33  35
ENDBRANCH  32  33
ENDBRANCH  31  32
ENDBRANCH  30  31
ENDBRANCH  29  30
ENDBRANCH  27  29
ENDBRANCH   1  27
TORSDOF 20
ENDMDL
