MODEL 1
REMARK VINA RESULT:     -11.7      0.000      0.000
REMARK SMILES COc1ccc(OC)c(N2C(=O)c3ccc(C(=O)OCCOC(=O)c4ccc(-c5c6nc(c(-c7c(F)cccc7F)c7ccc([nH]7)c(-c7c(F)cccc7F)c7nc(c(-c8c(F)cccc8F)c8ccc5[nH]8)C=C7)C=C6)cc4)cc3C2=O)c1
REMARK SMILES IDX 20 1 19 2 17 3 18 4 16 5 10 6 11 7 81 8 12 9 13 10 80 11
REMARK SMILES IDX 82 12 14 13 79 14 15 15 9 16 3 17 4 18 83 19 5 20 6 21 2 22
REMARK SMILES IDX 1 23 7 24 8 25 21 26 22 27 23 28 24 29 25 30 26 31 78 32
REMARK SMILES IDX 27 33 77 34 28 35 29 36 30 37 71 38 31 39 76 40 70 41 72 42
REMARK SMILES IDX 32 43 75 44 69 45 68 46 33 48 59 49 42 50 58 51 43 52 46 53
REMARK SMILES IDX 57 54 73 55 44 56 45 57 56 59 74 60 47 61 34 62 35 63 40 64
REMARK SMILES IDX 36 65 37 66 39 67 41 68 38 69 60 70 61 71 66 72 62 73 63 74
REMARK SMILES IDX 65 75 67 76 64 77 48 78 49 79 54 80 50 81 51 82 53 83 55 84
REMARK SMILES IDX 52 85
REMARK H PARENT 72 47 46 58
REMARK Flexibility Score: inf
ROOT
ATOM      1  C   UNL A   1      34.241  35.299  28.787  1.00  0.00     0.275 C 
ENDROOT
BRANCH   1   2
ATOM      2  O   UNL A   1      34.440  34.025  29.432  1.00  0.00    -0.458 OA
BRANCH   2   3
ATOM      3  C   UNL A   1      35.409  33.265  28.886  1.00  0.00     0.338 C 
ATOM      4  O   UNL A   1      36.606  33.494  28.828  1.00  0.00    -0.246 OA
BRANCH   3   5
ATOM      5  C   UNL A   1      34.858  31.999  28.393  1.00  0.00     0.060 A 
ATOM      6  N   UNL A   1      32.283  29.247  25.781  1.00  0.00    -0.238 N 
ATOM      7  C   UNL A   1      33.584  28.850  26.015  1.00  0.00     0.266 C 
ATOM      8  C   UNL A   1      32.036  30.447  26.418  1.00  0.00     0.266 C 
ATOM      9  O   UNL A   1      34.255  27.928  25.580  1.00  0.00    -0.268 OA
ATOM     10  C   UNL A   1      34.175  29.817  26.912  1.00  0.00     0.053 A 
ATOM     11  C   UNL A   1      33.278  30.847  27.075  1.00  0.00     0.054 A 
ATOM     12  O   UNL A   1      31.026  31.088  26.639  1.00  0.00    -0.268 OA
ATOM     13  C   UNL A   1      35.398  29.782  27.540  1.00  0.00     0.015 A 
ATOM     14  C   UNL A   1      33.598  31.983  27.788  1.00  0.00     0.030 A 
ATOM     15  C   UNL A   1      35.717  30.879  28.330  1.00  0.00     0.016 A 
BRANCH   6  16
ATOM     16  C   UNL A   1      31.364  28.452  25.034  1.00  0.00     0.098 A 
ATOM     17  C   UNL A   1      29.843  28.356  23.097  1.00  0.00     0.121 A 
ATOM     18  C   UNL A   1      29.435  27.086  23.482  1.00  0.00     0.050 A 
ATOM     19  C   UNL A   1      30.828  28.996  23.847  1.00  0.00     0.077 A 
ATOM     20  C   UNL A   1      29.977  26.489  24.625  1.00  0.00     0.052 A 
ATOM     21  C   UNL A   1      30.930  27.169  25.403  1.00  0.00     0.143 A 
BRANCH  17  22
ATOM     22  O   UNL A   1      29.224  28.893  22.001  1.00  0.00    -0.497 OA
ATOM     23  C   UNL A   1      29.358  30.305  21.823  1.00  0.00     0.278 C 
ENDBRANCH  17  22
BRANCH  21  24
ATOM     24  O   UNL A   1      31.254  26.637  26.624  1.00  0.00    -0.495 OA
ATOM     25  C   UNL A   1      31.849  25.342  26.502  1.00  0.00     0.278 C 
ENDBRANCH  21  24
ENDBRANCH   6  16
ENDBRANCH   3   5
ENDBRANCH   2   3
ENDBRANCH   1   2
BRANCH   1  26
ATOM     26  C   UNL A   1      33.146  36.088  29.498  1.00  0.00     0.275 C 
BRANCH  26  27
ATOM     27  O   UNL A   1      32.569  35.298  30.557  1.00  0.00    -0.458 OA
BRANCH  27  28
ATOM     28  C   UNL A   1      32.727  35.801  31.800  1.00  0.00     0.338 C 
ATOM     29  O   UNL A   1      32.063  36.668  32.343  1.00  0.00    -0.246 OA
BRANCH  28  30
ATOM     30  C   UNL A   1      33.829  35.123  32.504  1.00  0.00     0.060 A 
ATOM     31  C   UNL A   1      35.092  35.711  32.546  1.00  0.00     0.016 A 
ATOM     32  C   UNL A   1      33.654  33.807  32.932  1.00  0.00     0.016 A 
ATOM     33  C   UNL A   1      36.202  34.934  32.873  1.00  0.00     0.010 A 
ATOM     34  C   UNL A   1      34.752  33.078  33.400  1.00  0.00     0.010 A 
ATOM     35  C   UNL A   1      36.048  33.615  33.336  1.00  0.00    -0.014 A 
BRANCH  35  36
ATOM     36  C   UNL A   1      37.232  32.810  33.762  1.00  0.00     0.031 A 
ATOM     37  C   UNL A   1      37.905  33.060  35.091  1.00  0.00     0.074 A 
ATOM     38  C   UNL A   1      37.726  31.855  32.946  1.00  0.00     0.049 A 
ATOM     39  N   UNL A   1      39.056  32.614  35.532  1.00  0.00    -0.248 NA
ATOM     40  C   UNL A   1      37.204  33.939  36.041  1.00  0.00     0.031 C 
ATOM     41  C   UNL A   1      37.172  31.481  31.644  1.00  0.00     0.029 A 
ATOM     42  N   UNL A   1      38.810  31.023  33.091  1.00  0.00    -0.354 N 
ATOM     43  C   UNL A   1      39.243  33.202  36.779  1.00  0.00     0.074 A 
ATOM     44  C   UNL A   1      38.086  34.035  37.028  1.00  0.00     0.031 C 
ATOM     45  C   UNL A   1      37.886  30.469  31.132  1.00  0.00     0.029 A 
ATOM     46  C   UNL A   1      39.012  30.194  32.014  1.00  0.00     0.049 A 
ATOM     47  H   UNL A   1      39.386  31.021  33.890  1.00  0.00     0.167 HD
ATOM     48  C   UNL A   1      40.288  33.063  37.632  1.00  0.00     0.037 A 
ATOM     49  C   UNL A   1      40.015  29.343  31.730  1.00  0.00     0.037 A 
ATOM     50  C   UNL A   1      41.408  32.184  37.412  1.00  0.00     0.049 A 
ATOM     51  C   UNL A   1      41.165  29.220  32.683  1.00  0.00     0.074 A 
ATOM     52  C   UNL A   1      42.498  31.954  38.237  1.00  0.00     0.029 A 
ATOM     53  N   UNL A   1      41.575  31.378  36.298  1.00  0.00    -0.354 N 
ATOM     54  N   UNL A   1      41.355  29.826  33.830  1.00  0.00    -0.248 NA
ATOM     55  C   UNL A   1      42.255  28.318  32.289  1.00  0.00     0.031 C 
ATOM     56  C   UNL A   1      43.340  31.032  37.605  1.00  0.00     0.029 A 
ATOM     57  C   UNL A   1      42.755  30.659  36.407  1.00  0.00     0.049 A 
ATOM     58  H   UNL A   1      40.948  31.322  35.542  1.00  0.00     0.167 HD
ATOM     59  C   UNL A   1      42.580  29.373  34.298  1.00  0.00     0.074 A 
ATOM     60  C   UNL A   1      43.078  28.425  33.322  1.00  0.00     0.031 C 
ATOM     61  C   UNL A   1      43.238  29.721  35.429  1.00  0.00     0.037 A 
BRANCH  48  62
ATOM     62  C   UNL A   1      40.292  33.896  38.881  1.00  0.00     0.057 A 
ATOM     63  C   UNL A   1      39.692  33.464  40.069  1.00  0.00     0.134 A 
ATOM     64  C   UNL A   1      40.978  35.119  38.912  1.00  0.00     0.134 A 
ATOM     65  F   UNL A   1      39.012  32.308  40.106  1.00  0.00    -0.206 F 
ATOM     66  C   UNL A   1      39.764  34.222  41.241  1.00  0.00     0.040 A 
ATOM     67  C   UNL A   1      41.075  35.874  40.081  1.00  0.00     0.040 A 
ATOM     68  F   UNL A   1      41.584  35.586  37.810  1.00  0.00    -0.206 F 
ATOM     69  C   UNL A   1      40.465  35.427  41.250  1.00  0.00     0.006 A 
ENDBRANCH  48  62
BRANCH  49  70
ATOM     70  C   UNL A   1      40.000  28.587  30.454  1.00  0.00     0.057 A 
ATOM     71  C   UNL A   1      40.725  29.027  29.342  1.00  0.00     0.134 A 
ATOM     72  C   UNL A   1      39.265  27.400  30.318  1.00  0.00     0.134 A 
ATOM     73  F   UNL A   1      41.428  30.167  29.403  1.00  0.00    -0.206 F 
ATOM     74  C   UNL A   1      40.716  28.320  28.138  1.00  0.00     0.040 A 
ATOM     75  C   UNL A   1      39.271  26.669  29.131  1.00  0.00     0.040 A 
ATOM     76  F   UNL A   1      38.553  26.925  31.350  1.00  0.00    -0.206 F 
ATOM     77  C   UNL A   1      39.994  27.133  28.034  1.00  0.00     0.006 A 
ENDBRANCH  49  70
BRANCH  61  78
ATOM     78  C   UNL A   1      44.555  29.051  35.678  1.00  0.00     0.057 A 
ATOM     79  C   UNL A   1      44.639  27.815  36.330  1.00  0.00     0.134 A 
ATOM     80  C   UNL A   1      45.749  29.643  35.248  1.00  0.00     0.134 A 
ATOM     81  F   UNL A   1      43.532  27.207  36.780  1.00  0.00    -0.206 F 
ATOM     82  C   UNL A   1      45.870  27.202  36.568  1.00  0.00     0.040 A 
ATOM     83  C   UNL A   1      46.983  29.028  35.460  1.00  0.00     0.040 A 
ATOM     84  F   UNL A   1      45.734  30.825  34.612  1.00  0.00    -0.206 F 
ATOM     85  C   UNL A   1      47.046  27.807  36.128  1.00  0.00     0.006 A 
ENDBRANCH  61  78
ENDBRANCH  35  36
ENDBRANCH  28  30
ENDBRANCH  27  28
ENDBRANCH  26  27
ENDBRANCH   1  26
TORSDOF 14
ENDMDL
MODEL 2
REMARK VINA RESULT:     -11.6      4.933      9.660
REMARK SMILES COc1ccc(OC)c(N2C(=O)c3ccc(C(=O)OCCOC(=O)c4ccc(-c5c6nc(c(-c7c(F)cccc7F)c7ccc([nH]7)c(-c7c(F)cccc7F)c7nc(c(-c8c(F)cccc8F)c8ccc5[nH]8)C=C7)C=C6)cc4)cc3C2=O)c1
REMARK SMILES IDX 20 1 19 2 17 3 18 4 16 5 10 6 11 7 81 8 12 9 13 10 80 11
REMARK SMILES IDX 82 12 14 13 79 14 15 15 9 16 3 17 4 18 83 19 5 20 6 21 2 22
REMARK SMILES IDX 1 23 7 24 8 25 21 26 22 27 23 28 24 29 25 30 26 31 78 32
REMARK SMILES IDX 27 33 77 34 28 35 29 36 30 37 71 38 31 39 76 40 70 41 72 42
REMARK SMILES IDX 32 43 75 44 69 45 68 46 33 48 59 49 42 50 58 51 43 52 46 53
REMARK SMILES IDX 57 54 73 55 44 56 45 57 56 59 74 60 47 61 34 62 35 63 40 64
REMARK SMILES IDX 36 65 37 66 39 67 41 68 38 69 60 70 61 71 66 72 62 73 63 74
REMARK SMILES IDX 65 75 67 76 64 77 48 78 49 79 54 80 50 81 51 82 53 83 55 84
REMARK SMILES IDX 52 85
REMARK H PARENT 72 47 46 58
REMARK Flexibility Score: inf
ROOT
ATOM      1  C   UNL A   1      35.167  20.676  25.369  1.00  0.00     0.275 C 
ENDROOT
BRANCH   1   2
ATOM      2  O   UNL A   1      34.225  20.104  24.439  1.00  0.00    -0.458 OA
BRANCH   2   3
ATOM      3  C   UNL A   1      32.939  20.438  24.666  1.00  0.00     0.338 C 
ATOM      4  O   UNL A   1      32.056  19.752  25.153  1.00  0.00    -0.246 OA
BRANCH   3   5
ATOM      5  C   UNL A   1      32.699  21.840  24.313  1.00  0.00     0.060 A 
ATOM      6  N   UNL A   1      32.512  26.379  24.937  1.00  0.00    -0.238 N 
ATOM      7  C   UNL A   1      33.038  25.934  23.741  1.00  0.00     0.266 C 
ATOM      8  C   UNL A   1      32.142  25.303  25.718  1.00  0.00     0.266 C 
ATOM      9  O   UNL A   1      33.573  26.512  22.810  1.00  0.00    -0.268 OA
ATOM     10  C   UNL A   1      32.928  24.492  23.733  1.00  0.00     0.053 A 
ATOM     11  C   UNL A   1      32.486  24.094  24.974  1.00  0.00     0.054 A 
ATOM     12  O   UNL A   1      31.502  25.193  26.746  1.00  0.00    -0.268 OA
ATOM     13  C   UNL A   1      33.186  23.610  22.711  1.00  0.00     0.015 A 
ATOM     14  C   UNL A   1      32.389  22.762  25.317  1.00  0.00     0.030 A 
ATOM     15  C   UNL A   1      33.021  22.261  23.004  1.00  0.00     0.016 A 
BRANCH   6  16
ATOM     16  C   UNL A   1      32.346  27.766  25.229  1.00  0.00     0.098 A 
ATOM     17  C   UNL A   1      33.133  29.687  26.557  1.00  0.00     0.121 A 
ATOM     18  C   UNL A   1      32.112  30.467  26.030  1.00  0.00     0.050 A 
ATOM     19  C   UNL A   1      33.262  28.372  26.116  1.00  0.00     0.077 A 
ATOM     20  C   UNL A   1      31.211  29.920  25.110  1.00  0.00     0.052 A 
ATOM     21  C   UNL A   1      31.320  28.576  24.716  1.00  0.00     0.143 A 
BRANCH  17  22
ATOM     22  O   UNL A   1      33.936  30.279  27.493  1.00  0.00    -0.497 OA
ATOM     23  C   UNL A   1      35.207  29.665  27.720  1.00  0.00     0.278 C 
ENDBRANCH  17  22
BRANCH  21  24
ATOM     24  O   UNL A   1      30.287  28.035  23.997  1.00  0.00    -0.495 OA
ATOM     25  C   UNL A   1      30.369  28.372  22.609  1.00  0.00     0.278 C 
ENDBRANCH  21  24
ENDBRANCH   6  16
ENDBRANCH   3   5
ENDBRANCH   2   3
ENDBRANCH   1   2
BRANCH   1  26
ATOM     26  C   UNL A   1      36.593  20.316  24.968  1.00  0.00     0.275 C 
BRANCH  26  27
ATOM     27  O   UNL A   1      37.470  21.443  25.171  1.00  0.00    -0.458 OA
BRANCH  27  28
ATOM     28  C   UNL A   1      38.646  21.156  25.768  1.00  0.00     0.338 C 
ATOM     29  O   UNL A   1      39.244  20.093  25.761  1.00  0.00    -0.246 OA
BRANCH  28  30
ATOM     30  C   UNL A   1      39.198  22.345  26.439  1.00  0.00     0.060 A 
ATOM     31  C   UNL A   1      38.717  23.612  26.113  1.00  0.00     0.016 A 
ATOM     32  C   UNL A   1      40.340  22.211  27.228  1.00  0.00     0.016 A 
ATOM     33  C   UNL A   1      39.463  24.739  26.451  1.00  0.00     0.010 A 
ATOM     34  C   UNL A   1      41.002  23.353  27.689  1.00  0.00     0.010 A 
ATOM     35  C   UNL A   1      40.600  24.633  27.271  1.00  0.00    -0.014 A 
BRANCH  35  36
ATOM     36  C   UNL A   1      41.353  25.849  27.699  1.00  0.00     0.031 A 
ATOM     37  C   UNL A   1      40.700  26.907  28.556  1.00  0.00     0.074 A 
ATOM     38  C   UNL A   1      42.631  26.024  27.302  1.00  0.00     0.049 A 
ATOM     39  N   UNL A   1      41.121  28.114  28.845  1.00  0.00    -0.248 NA
ATOM     40  C   UNL A   1      39.398  26.572  29.155  1.00  0.00     0.031 C 
ATOM     41  C   UNL A   1      43.406  25.082  26.492  1.00  0.00     0.029 A 
ATOM     42  N   UNL A   1      43.507  27.059  27.526  1.00  0.00    -0.354 N 
ATOM     43  C   UNL A   1      40.113  28.701  29.603  1.00  0.00     0.074 A 
ATOM     44  C   UNL A   1      39.061  27.717  29.735  1.00  0.00     0.031 C 
ATOM     45  C   UNL A   1      44.648  25.556  26.326  1.00  0.00     0.029 A 
ATOM     46  C   UNL A   1      44.729  26.882  26.923  1.00  0.00     0.049 A 
ATOM     47  H   UNL A   1      43.281  27.850  28.066  1.00  0.00     0.167 HD
ATOM     48  C   UNL A   1      40.071  29.948  30.134  1.00  0.00     0.037 A 
ATOM     49  C   UNL A   1      45.785  27.709  26.807  1.00  0.00     0.037 A 
ATOM     50  C   UNL A   1      41.146  30.904  30.056  1.00  0.00     0.049 A 
ATOM     51  C   UNL A   1      45.706  29.087  27.389  1.00  0.00     0.074 A 
ATOM     52  C   UNL A   1      41.204  32.181  30.592  1.00  0.00     0.029 A 
ATOM     53  N   UNL A   1      42.357  30.684  29.420  1.00  0.00    -0.354 N 
ATOM     54  N   UNL A   1      44.724  29.646  28.054  1.00  0.00    -0.248 NA
ATOM     55  C   UNL A   1      46.869  29.960  27.181  1.00  0.00     0.031 C 
ATOM     56  C   UNL A   1      42.439  32.745  30.251  1.00  0.00     0.029 A 
ATOM     57  C   UNL A   1      43.163  31.805  29.538  1.00  0.00     0.049 A 
ATOM     58  H   UNL A   1      42.608  29.855  28.954  1.00  0.00     0.167 HD
ATOM     59  C   UNL A   1      45.153  30.932  28.349  1.00  0.00     0.074 A 
ATOM     60  C   UNL A   1      46.492  31.063  27.811  1.00  0.00     0.031 C 
ATOM     61  C   UNL A   1      44.492  31.921  28.998  1.00  0.00     0.037 A 
BRANCH  48  62
ATOM     62  C   UNL A   1      38.811  30.374  30.831  1.00  0.00     0.057 A 
ATOM     63  C   UNL A   1      37.770  31.026  30.159  1.00  0.00     0.134 A 
ATOM     64  C   UNL A   1      38.608  30.056  32.181  1.00  0.00     0.134 A 
ATOM     65  F   UNL A   1      37.903  31.367  28.868  1.00  0.00    -0.206 F 
ATOM     66  C   UNL A   1      36.577  31.355  30.807  1.00  0.00     0.040 A 
ATOM     67  C   UNL A   1      37.412  30.360  32.833  1.00  0.00     0.040 A 
ATOM     68  F   UNL A   1      39.562  29.423  32.881  1.00  0.00    -0.206 F 
ATOM     69  C   UNL A   1      36.393  31.014  32.147  1.00  0.00     0.006 A 
ENDBRANCH  48  62
BRANCH  49  70
ATOM     70  C   UNL A   1      46.986  27.269  26.055  1.00  0.00     0.057 A 
ATOM     71  C   UNL A   1      48.058  26.645  26.701  1.00  0.00     0.134 A 
ATOM     72  C   UNL A   1      47.088  27.456  24.669  1.00  0.00     0.134 A 
ATOM     73  F   UNL A   1      48.029  26.460  28.029  1.00  0.00    -0.206 F 
ATOM     74  C   UNL A   1      49.191  26.228  26.001  1.00  0.00     0.040 A 
ATOM     75  C   UNL A   1      48.201  27.018  23.953  1.00  0.00     0.040 A 
ATOM     76  F   UNL A   1      46.092  28.045  23.991  1.00  0.00    -0.206 F 
ATOM     77  C   UNL A   1      49.260  26.407  24.620  1.00  0.00     0.006 A 
ENDBRANCH  49  70
BRANCH  61  78
ATOM     78  C   UNL A   1      45.221  33.217  29.178  1.00  0.00     0.057 A 
ATOM     79  C   UNL A   1      45.108  34.259  28.250  1.00  0.00     0.134 A 
ATOM     80  C   UNL A   1      46.034  33.428  30.298  1.00  0.00     0.134 A 
ATOM     81  F   UNL A   1      44.357  34.110  27.149  1.00  0.00    -0.206 F 
ATOM     82  C   UNL A   1      45.798  35.460  28.418  1.00  0.00     0.040 A 
ATOM     83  C   UNL A   1      46.712  34.633  30.488  1.00  0.00     0.040 A 
ATOM     84  F   UNL A   1      46.180  32.470  31.226  1.00  0.00    -0.206 F 
ATOM     85  C   UNL A   1      46.599  35.650  29.542  1.00  0.00     0.006 A 
ENDBRANCH  61  78
ENDBRANCH  35  36
ENDBRANCH  28  30
ENDBRANCH  27  28
ENDBRANCH  26  27
ENDBRANCH   1  26
TORSDOF 14
ENDMDL
MODEL 3
REMARK VINA RESULT:     -11.5      5.202      9.560
REMARK SMILES COc1ccc(OC)c(N2C(=O)c3ccc(C(=O)OCCOC(=O)c4ccc(-c5c6nc(c(-c7c(F)cccc7F)c7ccc([nH]7)c(-c7c(F)cccc7F)c7nc(c(-c8c(F)cccc8F)c8ccc5[nH]8)C=C7)C=C6)cc4)cc3C2=O)c1
REMARK SMILES IDX 20 1 19 2 17 3 18 4 16 5 10 6 11 7 81 8 12 9 13 10 80 11
REMARK SMILES IDX 82 12 14 13 79 14 15 15 9 16 3 17 4 18 83 19 5 20 6 21 2 22
REMARK SMILES IDX 1 23 7 24 8 25 21 26 22 27 23 28 24 29 25 30 26 31 78 32
REMARK SMILES IDX 27 33 77 34 28 35 29 36 30 37 71 38 31 39 76 40 70 41 72 42
REMARK SMILES IDX 32 43 75 44 69 45 68 46 33 48 59 49 42 50 58 51 43 52 46 53
REMARK SMILES IDX 57 54 73 55 44 56 45 57 56 59 74 60 47 61 34 62 35 63 40 64
REMARK SMILES IDX 36 65 37 66 39 67 41 68 38 69 60 70 61 71 66 72 62 73 63 74
REMARK SMILES IDX 65 75 67 76 64 77 48 78 49 79 54 80 50 81 51 82 53 83 55 84
REMARK SMILES IDX 52 85
REMARK H PARENT 72 47 46 58
REMARK Flexibility Score: inf
ROOT
ATOM      1  C   UNL A   1      35.061  20.455  25.054  1.00  0.00     0.275 C 
ENDROOT
BRANCH   1   2
ATOM      2  O   UNL A   1      33.825  20.326  25.784  1.00  0.00    -0.458 OA
BRANCH   2   3
ATOM      3  C   UNL A   1      32.746  20.065  25.020  1.00  0.00     0.338 C 
ATOM      4  O   UNL A   1      32.153  19.007  24.887  1.00  0.00    -0.246 OA
BRANCH   3   5
ATOM      5  C   UNL A   1      32.266  21.288  24.368  1.00  0.00     0.060 A 
ATOM      6  N   UNL A   1      31.270  25.745  23.964  1.00  0.00    -0.238 N 
ATOM      7  C   UNL A   1      31.885  25.142  22.886  1.00  0.00     0.266 C 
ATOM      8  C   UNL A   1      31.085  24.824  24.976  1.00  0.00     0.266 C 
ATOM      9  O   UNL A   1      32.324  25.581  21.836  1.00  0.00    -0.268 OA
ATOM     10  C   UNL A   1      32.032  23.739  23.204  1.00  0.00     0.053 A 
ATOM     11  C   UNL A   1      31.648  23.559  24.513  1.00  0.00     0.054 A 
ATOM     12  O   UNL A   1      30.459  24.837  26.018  1.00  0.00    -0.268 OA
ATOM     13  C   UNL A   1      32.457  22.709  22.399  1.00  0.00     0.015 A 
ATOM     14  C   UNL A   1      31.784  22.342  25.148  1.00  0.00     0.030 A 
ATOM     15  C   UNL A   1      32.529  21.453  22.990  1.00  0.00     0.016 A 
BRANCH   6  16
ATOM     16  C   UNL A   1      30.858  27.111  23.942  1.00  0.00     0.098 A 
ATOM     17  C   UNL A   1      29.343  28.776  22.941  1.00  0.00     0.121 A 
ATOM     18  C   UNL A   1      29.970  29.781  23.666  1.00  0.00     0.050 A 
ATOM     19  C   UNL A   1      29.762  27.460  23.124  1.00  0.00     0.077 A 
ATOM     20  C   UNL A   1      31.028  29.471  24.527  1.00  0.00     0.052 A 
ATOM     21  C   UNL A   1      31.477  28.147  24.660  1.00  0.00     0.143 A 
BRANCH  17  22
ATOM     22  O   UNL A   1      28.355  29.168  22.079  1.00  0.00    -0.497 OA
ATOM     23  C   UNL A   1      27.960  30.540  22.146  1.00  0.00     0.278 C 
ENDBRANCH  17  22
BRANCH  21  24
ATOM     24  O   UNL A   1      32.652  27.935  25.334  1.00  0.00    -0.495 OA
ATOM     25  C   UNL A   1      33.794  28.206  24.516  1.00  0.00     0.278 C 
ENDBRANCH  21  24
ENDBRANCH   6  16
ENDBRANCH   3   5
ENDBRANCH   2   3
ENDBRANCH   1   2
BRANCH   1  26
ATOM     26  C   UNL A   1      35.987  21.447  25.751  1.00  0.00     0.275 C 
BRANCH  26  27
ATOM     27  O   UNL A   1      37.201  21.615  24.991  1.00  0.00    -0.458 OA
BRANCH  27  28
ATOM     28  C   UNL A   1      38.336  21.271  25.637  1.00  0.00     0.338 C 
ATOM     29  O   UNL A   1      38.877  20.178  25.660  1.00  0.00    -0.246 OA
BRANCH  28  30
ATOM     30  C   UNL A   1      38.923  22.435  26.322  1.00  0.00     0.060 A 
ATOM     31  C   UNL A   1      38.449  23.715  26.046  1.00  0.00     0.016 A 
ATOM     32  C   UNL A   1      40.086  22.265  27.073  1.00  0.00     0.016 A 
ATOM     33  C   UNL A   1      39.220  24.824  26.391  1.00  0.00     0.010 A 
ATOM     34  C   UNL A   1      40.777  23.385  27.545  1.00  0.00     0.010 A 
ATOM     35  C   UNL A   1      40.380  24.681  27.174  1.00  0.00    -0.014 A 
BRANCH  35  36
ATOM     36  C   UNL A   1      41.161  25.876  27.612  1.00  0.00     0.031 A 
ATOM     37  C   UNL A   1      40.531  26.945  28.474  1.00  0.00     0.074 A 
ATOM     38  C   UNL A   1      42.444  26.021  27.221  1.00  0.00     0.049 A 
ATOM     39  N   UNL A   1      40.981  28.139  28.771  1.00  0.00    -0.248 NA
ATOM     40  C   UNL A   1      39.219  26.638  29.065  1.00  0.00     0.031 C 
ATOM     41  C   UNL A   1      43.198  25.065  26.408  1.00  0.00     0.029 A 
ATOM     42  N   UNL A   1      43.345  27.032  27.454  1.00  0.00    -0.354 N 
ATOM     43  C   UNL A   1      39.985  28.746  29.529  1.00  0.00     0.074 A 
ATOM     44  C   UNL A   1      38.908  27.788  29.652  1.00  0.00     0.031 C 
ATOM     45  C   UNL A   1      44.453  25.509  26.249  1.00  0.00     0.029 A 
ATOM     46  C   UNL A   1      44.564  26.829  26.854  1.00  0.00     0.049 A 
ATOM     47  H   UNL A   1      43.136  27.826  27.998  1.00  0.00     0.167 HD
ATOM     48  C   UNL A   1      39.972  29.990  30.067  1.00  0.00     0.037 A 
ATOM     49  C   UNL A   1      45.641  27.630  26.747  1.00  0.00     0.037 A 
ATOM     50  C   UNL A   1      41.070  30.920  29.999  1.00  0.00     0.049 A 
ATOM     51  C   UNL A   1      45.593  29.007  27.337  1.00  0.00     0.074 A 
ATOM     52  C   UNL A   1      41.158  32.192  30.543  1.00  0.00     0.029 A 
ATOM     53  N   UNL A   1      42.277  30.674  29.366  1.00  0.00    -0.354 N 
ATOM     54  N   UNL A   1      44.624  29.586  28.002  1.00  0.00    -0.248 NA
ATOM     55  C   UNL A   1      46.778  29.852  27.138  1.00  0.00     0.031 C 
ATOM     56  C   UNL A   1      42.408  32.727  30.210  1.00  0.00     0.029 A 
ATOM     57  C   UNL A   1      43.111  31.774  29.494  1.00  0.00     0.049 A 
ATOM     58  H   UNL A   1      42.509  29.841  28.896  1.00  0.00     0.167 HD
ATOM     59  C   UNL A   1      45.083  30.859  28.306  1.00  0.00     0.074 A 
ATOM     60  C   UNL A   1      46.427  30.960  27.774  1.00  0.00     0.031 C 
ATOM     61  C   UNL A   1      44.444  31.860  28.959  1.00  0.00     0.037 A 
BRANCH  48  62
ATOM     62  C   UNL A   1      38.720  30.443  30.762  1.00  0.00     0.057 A 
ATOM     63  C   UNL A   1      37.661  31.047  30.075  1.00  0.00     0.134 A 
ATOM     64  C   UNL A   1      38.544  30.199  32.132  1.00  0.00     0.134 A 
ATOM     65  F   UNL A   1      37.767  31.317  28.765  1.00  0.00    -0.206 F 
ATOM     66  C   UNL A   1      36.476  31.401  30.725  1.00  0.00     0.040 A 
ATOM     67  C   UNL A   1      37.358  30.529  32.788  1.00  0.00     0.040 A 
ATOM     68  F   UNL A   1      39.517  29.615  32.848  1.00  0.00    -0.206 F 
ATOM     69  C   UNL A   1      36.319  31.134  32.085  1.00  0.00     0.006 A 
ENDBRANCH  48  62
BRANCH  49  70
ATOM     70  C   UNL A   1      46.834  27.165  25.996  1.00  0.00     0.057 A 
ATOM     71  C   UNL A   1      47.856  26.453  26.630  1.00  0.00     0.134 A 
ATOM     72  C   UNL A   1      46.975  27.417  24.624  1.00  0.00     0.134 A 
ATOM     73  F   UNL A   1      47.788  26.202  27.946  1.00  0.00    -0.206 F 
ATOM     74  C   UNL A   1      48.981  26.012  25.931  1.00  0.00     0.040 A 
ATOM     75  C   UNL A   1      48.079  26.956  23.908  1.00  0.00     0.040 A 
ATOM     76  F   UNL A   1      46.027  28.092  23.959  1.00  0.00    -0.206 F 
ATOM     77  C   UNL A   1      49.090  26.256  24.563  1.00  0.00     0.006 A 
ENDBRANCH  49  70
BRANCH  61  78
ATOM     78  C   UNL A   1      45.205  33.136  29.150  1.00  0.00     0.057 A 
ATOM     79  C   UNL A   1      46.031  33.339  30.262  1.00  0.00     0.134 A 
ATOM     80  C   UNL A   1      45.120  34.166  28.206  1.00  0.00     0.134 A 
ATOM     81  F   UNL A   1      46.140  32.396  31.209  1.00  0.00    -0.206 F 
ATOM     82  C   UNL A   1      46.729  34.534  30.440  1.00  0.00     0.040 A 
ATOM     83  C   UNL A   1      45.831  35.357  28.362  1.00  0.00     0.040 A 
ATOM     84  F   UNL A   1      44.349  34.030  27.116  1.00  0.00    -0.206 F 
ATOM     85  C   UNL A   1      46.633  35.545  29.485  1.00  0.00     0.006 A 
ENDBRANCH  61  78
ENDBRANCH  35  36
ENDBRANCH  28  30
ENDBRANCH  27  28
ENDBRANCH  26  27
ENDBRANCH   1  26
TORSDOF 14
ENDMDL
