MODEL 1
REMARK VINA RESULT:     -11.7      0.000      0.000
REMARK SMILES CCc1c(Cl)ccc2c1C=C(C(=O)OCCOC(=O)c1ccc(-c3c4nc(c(-c5c(F)cccc5F)c5ccc([nH]5)c(-c5c(F)cccc5F)c5nc(c(-c6c(F)cccc6F)c6ccc3[nH]6)C=C5)C=C4)cc1)[C@@H](C(F)(F)F)O2
REMARK SMILES IDX 16 1 15 2 14 3 12 4 13 5 11 6 3 7 4 8 9 9 5 10 6 11 8 12
REMARK SMILES IDX 10 13 7 14 79 15 74 16 2 17 1 18 75 19 76 20 77 21 78 22
REMARK SMILES IDX 17 23 18 24 19 25 20 26 21 27 73 28 22 29 72 30 23 31 24 32
REMARK SMILES IDX 25 33 66 34 26 35 71 36 65 37 67 38 27 39 70 40 64 41 63 42
REMARK SMILES IDX 28 44 54 45 37 46 53 47 38 48 41 49 52 50 68 51 39 52 40 53
REMARK SMILES IDX 51 55 69 56 42 57 29 58 30 59 35 60 31 61 32 62 34 63 36 64
REMARK SMILES IDX 33 65 55 66 56 67 61 68 57 69 58 70 60 71 62 72 59 73 43 74
REMARK SMILES IDX 44 75 49 76 45 77 46 78 48 79 50 80 47 81
REMARK H PARENT 67 43 41 54
REMARK Flexibility Score: inf
ROOT
ATOM      1  C   UNL A   1      37.325  20.084  24.986  1.00  0.00     0.275 C 
ENDROOT
BRANCH   1   2
ATOM      2  C   UNL A   1      35.837  20.433  25.062  1.00  0.00     0.275 C 
BRANCH   2   3
ATOM      3  O   UNL A   1      35.595  21.572  25.919  1.00  0.00    -0.459 OA
BRANCH   3   4
ATOM      4  C   UNL A   1      34.341  22.075  25.872  1.00  0.00     0.338 C 
ATOM      5  O   UNL A   1      33.395  21.735  26.566  1.00  0.00    -0.246 OA
BRANCH   4   6
ATOM      6  C   UNL A   1      34.235  23.139  24.856  1.00  0.00     0.087 C 
ATOM      7  C   UNL A   1      33.552  26.796  24.807  1.00  0.00    -0.019 A 
ATOM      8  C   UNL A   1      33.267  27.766  23.824  1.00  0.00     0.045 A 
ATOM      9  C   UNL A   1      33.842  25.476  24.365  1.00  0.00     0.022 A 
ATOM     10  Cl  UNL A   1      32.883  29.408  24.215  1.00  0.00    -0.084 Cl
ATOM     11  C   UNL A   1      33.280  27.438  22.464  1.00  0.00     0.024 A 
ATOM     12  C   UNL A   1      33.824  25.155  23.000  1.00  0.00     0.128 A 
ATOM     13  C   UNL A   1      34.163  24.401  25.293  1.00  0.00     0.027 C 
ATOM     14  C   UNL A   1      33.558  26.137  22.053  1.00  0.00     0.048 A 
ATOM     15  O   UNL A   1      34.087  23.905  22.505  1.00  0.00    -0.475 OA
ATOM     16  C   UNL A   1      34.040  22.774  23.418  1.00  0.00     0.316 C 
BRANCH   7  17
ATOM     17  C   UNL A   1      33.536  27.154  26.286  1.00  0.00     0.034 C 
ATOM     18  C   UNL A   1      32.133  27.205  26.887  1.00  0.00     0.009 C 
ENDBRANCH   7  17
BRANCH  16  19
ATOM     19  C   UNL A   1      32.736  21.987  23.215  1.00  0.00     0.430 C 
ATOM     20  F   UNL A   1      31.723  22.511  23.944  1.00  0.00    -0.167 F 
ATOM     21  F   UNL A   1      32.339  22.021  21.919  1.00  0.00    -0.167 F 
ATOM     22  F   UNL A   1      32.861  20.686  23.564  1.00  0.00    -0.167 F 
ENDBRANCH  16  19
ENDBRANCH   4   6
ENDBRANCH   3   4
ENDBRANCH   2   3
ENDBRANCH   1   2
BRANCH   1  23
ATOM     23  O   UNL A   1      38.130  21.224  25.340  1.00  0.00    -0.458 OA
BRANCH  23  24
ATOM     24  C   UNL A   1      39.266  20.953  26.023  1.00  0.00     0.338 C 
ATOM     25  O   UNL A   1      39.856  19.892  26.097  1.00  0.00    -0.246 OA
BRANCH  24  26
ATOM     26  C   UNL A   1      39.788  22.199  26.606  1.00  0.00     0.060 A 
ATOM     27  C   UNL A   1      40.874  22.214  27.473  1.00  0.00     0.016 A 
ATOM     28  C   UNL A   1      39.253  23.395  26.145  1.00  0.00     0.016 A 
ATOM     29  C   UNL A   1      41.404  23.447  27.883  1.00  0.00     0.010 A 
ATOM     30  C   UNL A   1      39.853  24.609  26.453  1.00  0.00     0.010 A 
ATOM     31  C   UNL A   1      40.919  24.661  27.353  1.00  0.00    -0.014 A 
BRANCH  31  32
ATOM     32  C   UNL A   1      41.517  25.979  27.711  1.00  0.00     0.031 A 
ATOM     33  C   UNL A   1      42.906  26.362  27.249  1.00  0.00     0.074 A 
ATOM     34  C   UNL A   1      40.848  26.809  28.537  1.00  0.00     0.049 A 
ATOM     35  N   UNL A   1      43.571  27.473  27.460  1.00  0.00    -0.248 NA
ATOM     36  C   UNL A   1      43.671  25.351  26.500  1.00  0.00     0.031 C 
ATOM     37  C   UNL A   1      39.566  26.516  29.181  1.00  0.00     0.029 A 
ATOM     38  N   UNL A   1      41.156  28.073  28.976  1.00  0.00    -0.354 N 
ATOM     39  C   UNL A   1      44.828  27.280  26.895  1.00  0.00     0.074 A 
ATOM     40  C   UNL A   1      44.863  25.921  26.405  1.00  0.00     0.031 C 
ATOM     41  C   UNL A   1      39.168  27.591  29.879  1.00  0.00     0.029 A 
ATOM     42  C   UNL A   1      40.172  28.640  29.750  1.00  0.00     0.049 A 
ATOM     43  H   UNL A   1      42.000  28.529  28.757  1.00  0.00     0.167 HD
ATOM     44  C   UNL A   1      45.846  28.163  26.751  1.00  0.00     0.037 A 
ATOM     45  C   UNL A   1      40.076  29.878  30.271  1.00  0.00     0.037 A 
ATOM     46  C   UNL A   1      45.790  29.535  27.179  1.00  0.00     0.049 A 
ATOM     47  C   UNL A   1      41.169  30.875  30.014  1.00  0.00     0.074 A 
ATOM     48  C   UNL A   1      46.716  30.545  26.973  1.00  0.00     0.029 A 
ATOM     49  N   UNL A   1      44.744  30.093  27.896  1.00  0.00    -0.354 N 
ATOM     50  N   UNL A   1      42.294  30.719  29.358  1.00  0.00    -0.248 NA
ATOM     51  C   UNL A   1      40.969  32.229  30.551  1.00  0.00     0.031 C 
ATOM     52  C   UNL A   1      46.240  31.707  27.588  1.00  0.00     0.029 A 
ATOM     53  C   UNL A   1      45.002  31.430  28.147  1.00  0.00     0.049 A 
ATOM     54  H   UNL A   1      43.937  29.610  28.184  1.00  0.00     0.167 HD
ATOM     55  C   UNL A   1      42.921  31.957  29.381  1.00  0.00     0.074 A 
ATOM     56  C   UNL A   1      42.044  32.859  30.099  1.00  0.00     0.031 C 
ATOM     57  C   UNL A   1      44.118  32.316  28.855  1.00  0.00     0.037 A 
BRANCH  44  58
ATOM     58  C   UNL A   1      47.091  27.682  26.058  1.00  0.00     0.057 A 
ATOM     59  C   UNL A   1      47.191  27.692  24.662  1.00  0.00     0.134 A 
ATOM     60  C   UNL A   1      48.183  27.174  26.778  1.00  0.00     0.134 A 
ATOM     61  F   UNL A   1      46.180  28.150  23.908  1.00  0.00    -0.206 F 
ATOM     62  C   UNL A   1      48.334  27.226  24.007  1.00  0.00     0.040 A 
ATOM     63  C   UNL A   1      49.342  26.733  26.136  1.00  0.00     0.040 A 
ATOM     64  F   UNL A   1      48.157  27.139  28.119  1.00  0.00    -0.206 F 
ATOM     65  C   UNL A   1      49.417  26.753  24.746  1.00  0.00     0.006 A 
ENDBRANCH  44  58
BRANCH  45  66
ATOM     66  C   UNL A   1      38.855  30.275  31.014  1.00  0.00     0.057 A 
ATOM     67  C   UNL A   1      38.741  30.098  32.396  1.00  0.00     0.134 A 
ATOM     68  C   UNL A   1      37.769  30.852  30.343  1.00  0.00     0.134 A 
ATOM     69  F   UNL A   1      39.743  29.541  33.093  1.00  0.00    -0.206 F 
ATOM     70  C   UNL A   1      37.590  30.481  33.087  1.00  0.00     0.040 A 
ATOM     71  C   UNL A   1      36.621  31.259  31.023  1.00  0.00     0.040 A 
ATOM     72  F   UNL A   1      37.828  31.060  29.019  1.00  0.00    -0.206 F 
ATOM     73  C   UNL A   1      36.528  31.071  32.401  1.00  0.00     0.006 A 
ENDBRANCH  45  66
BRANCH  57  74
ATOM     74  C   UNL A   1      44.528  33.750  29.011  1.00  0.00     0.057 A 
ATOM     75  C   UNL A   1      45.273  34.160  30.123  1.00  0.00     0.134 A 
ATOM     76  C   UNL A   1      44.174  34.725  28.071  1.00  0.00     0.134 A 
ATOM     77  F   UNL A   1      45.638  33.276  31.065  1.00  0.00    -0.206 F 
ATOM     78  C   UNL A   1      45.654  35.492  30.293  1.00  0.00     0.040 A 
ATOM     79  C   UNL A   1      44.570  36.055  28.217  1.00  0.00     0.040 A 
ATOM     80  F   UNL A   1      43.474  34.391  26.976  1.00  0.00    -0.206 F 
ATOM     81  C   UNL A   1      45.308  36.442  29.335  1.00  0.00     0.006 A 
ENDBRANCH  57  74
ENDBRANCH  31  32
ENDBRANCH  24  26
ENDBRANCH  23  24
ENDBRANCH   1  23
TORSDOF 13
ENDMDL
MODEL 2
REMARK VINA RESULT:     -11.6      4.066      8.801
REMARK SMILES CCc1c(Cl)ccc2c1C=C(C(=O)OCCOC(=O)c1ccc(-c3c4nc(c(-c5c(F)cccc5F)c5ccc([nH]5)c(-c5c(F)cccc5F)c5nc(c(-c6c(F)cccc6F)c6ccc3[nH]6)C=C5)C=C4)cc1)[C@@H](C(F)(F)F)O2
REMARK SMILES IDX 16 1 15 2 14 3 12 4 13 5 11 6 3 7 4 8 9 9 5 10 6 11 8 12
REMARK SMILES IDX 10 13 7 14 79 15 74 16 2 17 1 18 75 19 76 20 77 21 78 22
REMARK SMILES IDX 17 23 18 24 19 25 20 26 21 27 73 28 22 29 72 30 23 31 24 32
REMARK SMILES IDX 25 33 66 34 26 35 71 36 65 37 67 38 27 39 70 40 64 41 63 42
REMARK SMILES IDX 28 44 54 45 37 46 53 47 38 48 41 49 52 50 68 51 39 52 40 53
REMARK SMILES IDX 51 55 69 56 42 57 29 58 30 59 35 60 31 61 32 62 34 63 36 64
REMARK SMILES IDX 33 65 55 66 56 67 61 68 57 69 58 70 60 71 62 72 59 73 43 74
REMARK SMILES IDX 44 75 49 76 45 77 46 78 48 79 50 80 47 81
REMARK H PARENT 67 43 41 54
REMARK Flexibility Score: inf
ROOT
ATOM      1  C   UNL A   1      31.771  30.078  25.379  1.00  0.00     0.275 C 
ENDROOT
BRANCH   1   2
ATOM      2  C   UNL A   1      31.428  28.659  24.921  1.00  0.00     0.275 C 
BRANCH   2   3
ATOM      3  O   UNL A   1      32.352  27.683  25.451  1.00  0.00    -0.459 OA
BRANCH   3   4
ATOM      4  C   UNL A   1      33.069  27.004  24.528  1.00  0.00     0.338 C 
ATOM      5  O   UNL A   1      33.677  27.483  23.583  1.00  0.00    -0.246 OA
BRANCH   4   6
ATOM      6  C   UNL A   1      33.052  25.555  24.806  1.00  0.00     0.087 C 
ATOM      7  C   UNL A   1      35.530  22.783  24.951  1.00  0.00    -0.019 A 
ATOM      8  C   UNL A   1      35.481  21.376  25.031  1.00  0.00     0.045 A 
ATOM      9  C   UNL A   1      34.297  23.490  25.008  1.00  0.00     0.022 A 
ATOM     10  Cl  UNL A   1      36.899  20.386  24.961  1.00  0.00    -0.084 Cl
ATOM     11  C   UNL A   1      34.261  20.705  25.170  1.00  0.00     0.024 A 
ATOM     12  C   UNL A   1      33.079  22.802  25.119  1.00  0.00     0.128 A 
ATOM     13  C   UNL A   1      34.233  24.943  24.948  1.00  0.00     0.027 C 
ATOM     14  C   UNL A   1      33.064  21.416  25.214  1.00  0.00     0.048 A 
ATOM     15  O   UNL A   1      31.856  23.417  25.172  1.00  0.00    -0.475 OA
ATOM     16  C   UNL A   1      31.759  24.805  24.748  1.00  0.00     0.316 C 
BRANCH   7  17
ATOM     17  C   UNL A   1      36.857  23.511  24.798  1.00  0.00     0.034 C 
ATOM     18  C   UNL A   1      37.551  23.801  26.127  1.00  0.00     0.009 C 
ENDBRANCH   7  17
BRANCH  16  19
ATOM     19  C   UNL A   1      31.132  24.884  23.347  1.00  0.00     0.430 C 
ATOM     20  F   UNL A   1      32.075  24.818  22.378  1.00  0.00    -0.167 F 
ATOM     21  F   UNL A   1      30.280  23.851  23.132  1.00  0.00    -0.167 F 
ATOM     22  F   UNL A   1      30.434  26.027  23.160  1.00  0.00    -0.167 F 
ENDBRANCH  16  19
ENDBRANCH   4   6
ENDBRANCH   3   4
ENDBRANCH   2   3
ENDBRANCH   1   2
BRANCH   1  23
ATOM     23  O   UNL A   1      32.416  30.050  26.667  1.00  0.00    -0.458 OA
BRANCH  23  24
ATOM     24  C   UNL A   1      32.963  31.217  27.077  1.00  0.00     0.338 C 
ATOM     25  O   UNL A   1      32.439  32.315  27.108  1.00  0.00    -0.246 OA
BRANCH  24  26
ATOM     26  C   UNL A   1      34.307  30.959  27.616  1.00  0.00     0.060 A 
ATOM     27  C   UNL A   1      35.164  31.985  27.994  1.00  0.00     0.016 A 
ATOM     28  C   UNL A   1      34.648  29.639  27.880  1.00  0.00     0.016 A 
ATOM     29  C   UNL A   1      36.376  31.665  28.626  1.00  0.00     0.010 A 
ATOM     30  C   UNL A   1      35.786  29.330  28.613  1.00  0.00     0.010 A 
ATOM     31  C   UNL A   1      36.688  30.334  28.972  1.00  0.00    -0.014 A 
BRANCH  31  32
ATOM     32  C   UNL A   1      37.931  29.976  29.714  1.00  0.00     0.031 A 
ATOM     33  C   UNL A   1      38.164  30.455  31.130  1.00  0.00     0.074 A 
ATOM     34  C   UNL A   1      38.906  29.290  29.084  1.00  0.00     0.049 A 
ATOM     35  N   UNL A   1      39.183  30.225  31.923  1.00  0.00    -0.248 NA
ATOM     36  C   UNL A   1      37.153  31.351  31.714  1.00  0.00     0.031 C 
ATOM     37  C   UNL A   1      38.888  28.886  27.677  1.00  0.00     0.029 A 
ATOM     38  N   UNL A   1      40.105  28.809  29.550  1.00  0.00    -0.354 N 
ATOM     39  C   UNL A   1      38.943  30.964  33.078  1.00  0.00     0.074 A 
ATOM     40  C   UNL A   1      37.728  31.713  32.851  1.00  0.00     0.031 C 
ATOM     41  C   UNL A   1      39.990  28.167  27.411  1.00  0.00     0.029 A 
ATOM     42  C   UNL A   1      40.800  28.075  28.620  1.00  0.00     0.049 A 
ATOM     43  H   UNL A   1      40.435  28.974  30.462  1.00  0.00     0.167 HD
ATOM     44  C   UNL A   1      39.640  30.986  34.240  1.00  0.00     0.037 A 
ATOM     45  C   UNL A   1      41.947  27.379  28.736  1.00  0.00     0.037 A 
ATOM     46  C   UNL A   1      40.814  30.193  34.492  1.00  0.00     0.049 A 
ATOM     47  C   UNL A   1      42.651  27.332  30.062  1.00  0.00     0.074 A 
ATOM     48  C   UNL A   1      41.524  30.048  35.672  1.00  0.00     0.029 A 
ATOM     49  N   UNL A   1      41.447  29.404  33.545  1.00  0.00    -0.354 N 
ATOM     50  N   UNL A   1      42.337  27.928  31.187  1.00  0.00    -0.248 NA
ATOM     51  C   UNL A   1      43.859  26.497  30.140  1.00  0.00     0.031 C 
ATOM     52  C   UNL A   1      42.601  29.189  35.432  1.00  0.00     0.029 A 
ATOM     53  C   UNL A   1      42.542  28.773  34.112  1.00  0.00     0.049 A 
ATOM     54  H   UNL A   1      41.160  29.305  32.609  1.00  0.00     0.167 HD
ATOM     55  C   UNL A   1      43.290  27.520  32.110  1.00  0.00     0.074 A 
ATOM     56  C   UNL A   1      44.182  26.612  31.420  1.00  0.00     0.031 C 
ATOM     57  C   UNL A   1      43.416  27.867  33.415  1.00  0.00     0.037 A 
BRANCH  44  58
ATOM     58  C   UNL A   1      39.121  31.863  35.346  1.00  0.00     0.057 A 
ATOM     59  C   UNL A   1      39.503  33.206  35.442  1.00  0.00     0.134 A 
ATOM     60  C   UNL A   1      38.264  31.365  36.339  1.00  0.00     0.134 A 
ATOM     61  F   UNL A   1      40.332  33.747  34.536  1.00  0.00    -0.206 F 
ATOM     62  C   UNL A   1      39.046  34.025  36.479  1.00  0.00     0.040 A 
ATOM     63  C   UNL A   1      37.777  32.180  37.362  1.00  0.00     0.040 A 
ATOM     64  F   UNL A   1      37.854  30.088  36.305  1.00  0.00    -0.206 F 
ATOM     65  C   UNL A   1      38.173  33.513  37.438  1.00  0.00     0.006 A 
ENDBRANCH  44  58
BRANCH  45  66
ATOM     66  C   UNL A   1      42.456  26.592  27.587  1.00  0.00     0.057 A 
ATOM     67  C   UNL A   1      42.065  25.267  27.367  1.00  0.00     0.134 A 
ATOM     68  C   UNL A   1      43.350  27.163  26.672  1.00  0.00     0.134 A 
ATOM     69  F   UNL A   1      41.220  24.661  28.214  1.00  0.00    -0.206 F 
ATOM     70  C   UNL A   1      42.545  24.537  26.278  1.00  0.00     0.040 A 
ATOM     71  C   UNL A   1      43.820  26.453  25.568  1.00  0.00     0.040 A 
ATOM     72  F   UNL A   1      43.747  28.435  26.823  1.00  0.00    -0.206 F 
ATOM     73  C   UNL A   1      43.420  25.133  25.370  1.00  0.00     0.006 A 
ENDBRANCH  45  66
BRANCH  57  74
ATOM     74  C   UNL A   1      44.539  27.237  34.183  1.00  0.00     0.057 A 
ATOM     75  C   UNL A   1      44.356  26.011  34.834  1.00  0.00     0.134 A 
ATOM     76  C   UNL A   1      45.793  27.849  34.291  1.00  0.00     0.134 A 
ATOM     77  F   UNL A   1      43.175  25.376  34.776  1.00  0.00    -0.206 F 
ATOM     78  C   UNL A   1      45.384  25.414  35.564  1.00  0.00     0.040 A 
ATOM     79  C   UNL A   1      46.837  27.250  34.998  1.00  0.00     0.040 A 
ATOM     80  F   UNL A   1      46.035  29.017  33.676  1.00  0.00    -0.206 F 
ATOM     81  C   UNL A   1      46.631  26.031  35.642  1.00  0.00     0.006 A 
ENDBRANCH  57  74
ENDBRANCH  31  32
ENDBRANCH  24  26
ENDBRANCH  23  24
ENDBRANCH   1  23
TORSDOF 13
ENDMDL
MODEL 3
REMARK VINA RESULT:     -11.6      4.062      8.825
REMARK SMILES CCc1c(Cl)ccc2c1C=C(C(=O)OCCOC(=O)c1ccc(-c3c4nc(c(-c5c(F)cccc5F)c5ccc([nH]5)c(-c5c(F)cccc5F)c5nc(c(-c6c(F)cccc6F)c6ccc3[nH]6)C=C5)C=C4)cc1)[C@@H](C(F)(F)F)O2
REMARK SMILES IDX 16 1 15 2 14 3 12 4 13 5 11 6 3 7 4 8 9 9 5 10 6 11 8 12
REMARK SMILES IDX 10 13 7 14 79 15 74 16 2 17 1 18 75 19 76 20 77 21 78 22
REMARK SMILES IDX 17 23 18 24 19 25 20 26 21 27 73 28 22 29 72 30 23 31 24 32
REMARK SMILES IDX 25 33 66 34 26 35 71 36 65 37 67 38 27 39 70 40 64 41 63 42
REMARK SMILES IDX 28 44 54 45 37 46 53 47 38 48 41 49 52 50 68 51 39 52 40 53
REMARK SMILES IDX 51 55 69 56 42 57 29 58 30 59 35 60 31 61 32 62 34 63 36 64
REMARK SMILES IDX 33 65 55 66 56 67 61 68 57 69 58 70 60 71 62 72 59 73 43 74
REMARK SMILES IDX 44 75 49 76 45 77 46 78 48 79 50 80 47 81
REMARK H PARENT 67 43 41 54
REMARK Flexibility Score: inf
ROOT
ATOM      1  C   UNL A   1      31.908  30.059  25.335  1.00  0.00     0.275 C 
ENDROOT
BRANCH   1   2
ATOM      2  C   UNL A   1      31.423  28.650  24.988  1.00  0.00     0.275 C 
BRANCH   2   3
ATOM      3  O   UNL A   1      32.309  27.632  25.506  1.00  0.00    -0.459 OA
BRANCH   3   4
ATOM      4  C   UNL A   1      33.051  26.984  24.580  1.00  0.00     0.338 C 
ATOM      5  O   UNL A   1      33.655  27.491  23.647  1.00  0.00    -0.246 OA
BRANCH   4   6
ATOM      6  C   UNL A   1      33.067  25.531  24.838  1.00  0.00     0.087 C 
ATOM      7  C   UNL A   1      35.608  22.816  24.953  1.00  0.00    -0.019 A 
ATOM      8  C   UNL A   1      35.592  21.407  25.013  1.00  0.00     0.045 A 
ATOM      9  C   UNL A   1      34.358  23.493  25.015  1.00  0.00     0.022 A 
ATOM     10  Cl  UNL A   1      37.033  20.452  24.935  1.00  0.00    -0.084 Cl
ATOM     11  C   UNL A   1      34.388  20.706  25.138  1.00  0.00     0.024 A 
ATOM     12  C   UNL A   1      33.157  22.776  25.112  1.00  0.00     0.128 A 
ATOM     13  C   UNL A   1      34.261  24.945  24.975  1.00  0.00     0.027 C 
ATOM     14  C   UNL A   1      33.174  21.388  25.188  1.00  0.00     0.048 A 
ATOM     15  O   UNL A   1      31.920  23.361  25.170  1.00  0.00    -0.475 OA
ATOM     16  C   UNL A   1      31.791  24.752  24.764  1.00  0.00     0.316 C 
BRANCH   7  17
ATOM     17  C   UNL A   1      36.918  23.577  24.815  1.00  0.00     0.034 C 
ATOM     18  C   UNL A   1      37.683  23.720  26.129  1.00  0.00     0.009 C 
ENDBRANCH   7  17
BRANCH  16  19
ATOM     19  C   UNL A   1      31.168  24.836  23.362  1.00  0.00     0.430 C 
ATOM     20  F   UNL A   1      30.332  23.797  23.129  1.00  0.00    -0.167 F 
ATOM     21  F   UNL A   1      30.431  25.966  23.219  1.00  0.00    -0.167 F 
ATOM     22  F   UNL A   1      32.101  24.837  22.384  1.00  0.00    -0.167 F 
ENDBRANCH  16  19
ENDBRANCH   4   6
ENDBRANCH   3   4
ENDBRANCH   2   3
ENDBRANCH   1   2
BRANCH   1  23
ATOM     23  O   UNL A   1      32.335  30.121  26.709  1.00  0.00    -0.458 OA
BRANCH  23  24
ATOM     24  C   UNL A   1      32.898  31.288  27.098  1.00  0.00     0.338 C 
ATOM     25  O   UNL A   1      32.385  32.392  27.121  1.00  0.00    -0.246 OA
BRANCH  24  26
ATOM     26  C   UNL A   1      34.245  31.023  27.627  1.00  0.00     0.060 A 
ATOM     27  C   UNL A   1      35.110  32.045  27.999  1.00  0.00     0.016 A 
ATOM     28  C   UNL A   1      34.581  29.701  27.887  1.00  0.00     0.016 A 
ATOM     29  C   UNL A   1      36.324  31.719  28.622  1.00  0.00     0.010 A 
ATOM     30  C   UNL A   1      35.724  29.387  28.612  1.00  0.00     0.010 A 
ATOM     31  C   UNL A   1      36.633  30.386  28.964  1.00  0.00    -0.014 A 
BRANCH  31  32
ATOM     32  C   UNL A   1      37.880  30.022  29.697  1.00  0.00     0.031 A 
ATOM     33  C   UNL A   1      38.125  30.496  31.112  1.00  0.00     0.074 A 
ATOM     34  C   UNL A   1      38.849  29.336  29.058  1.00  0.00     0.049 A 
ATOM     35  N   UNL A   1      39.148  30.261  31.898  1.00  0.00    -0.248 NA
ATOM     36  C   UNL A   1      37.120  31.394  31.707  1.00  0.00     0.031 C 
ATOM     37  C   UNL A   1      38.820  28.936  27.649  1.00  0.00     0.029 A 
ATOM     38  N   UNL A   1      40.050  28.850  29.514  1.00  0.00    -0.354 N 
ATOM     39  C   UNL A   1      38.919  30.997  33.057  1.00  0.00     0.074 A 
ATOM     40  C   UNL A   1      37.704  31.750  32.841  1.00  0.00     0.031 C 
ATOM     41  C   UNL A   1      39.918  28.215  27.374  1.00  0.00     0.029 A 
ATOM     42  C   UNL A   1      40.736  28.116  28.577  1.00  0.00     0.049 A 
ATOM     43  H   UNL A   1      40.386  29.011  30.424  1.00  0.00     0.167 HD
ATOM     44  C   UNL A   1      39.623  31.013  34.214  1.00  0.00     0.037 A 
ATOM     45  C   UNL A   1      41.882  27.416  28.683  1.00  0.00     0.037 A 
ATOM     46  C   UNL A   1      40.796  30.215  34.455  1.00  0.00     0.049 A 
ATOM     47  C   UNL A   1      42.595  27.363  30.004  1.00  0.00     0.074 A 
ATOM     48  C   UNL A   1      41.514  30.065  35.630  1.00  0.00     0.029 A 
ATOM     49  N   UNL A   1      41.420  29.428  33.502  1.00  0.00    -0.354 N 
ATOM     50  N   UNL A   1      42.290  27.956  31.133  1.00  0.00    -0.248 NA
ATOM     51  C   UNL A   1      43.800  26.524  30.071  1.00  0.00     0.031 C 
ATOM     52  C   UNL A   1      42.587  29.203  35.380  1.00  0.00     0.029 A 
ATOM     53  C   UNL A   1      42.518  28.791  34.059  1.00  0.00     0.049 A 
ATOM     54  H   UNL A   1      41.127  29.333  32.568  1.00  0.00     0.167 HD
ATOM     55  C   UNL A   1      43.248  27.542  32.049  1.00  0.00     0.074 A 
ATOM     56  C   UNL A   1      44.133  26.634  31.349  1.00  0.00     0.031 C 
ATOM     57  C   UNL A   1      43.384  27.885  33.353  1.00  0.00     0.037 A 
BRANCH  44  58
ATOM     58  C   UNL A   1      39.115  31.888  35.326  1.00  0.00     0.057 A 
ATOM     59  C   UNL A   1      38.275  31.376  36.322  1.00  0.00     0.134 A 
ATOM     60  C   UNL A   1      39.432  33.253  35.392  1.00  0.00     0.134 A 
ATOM     61  F   UNL A   1      37.918  30.083  36.316  1.00  0.00    -0.206 F 
ATOM     62  C   UNL A   1      37.778  32.185  37.347  1.00  0.00     0.040 A 
ATOM     63  C   UNL A   1      38.965  34.066  36.427  1.00  0.00     0.040 A 
ATOM     64  F   UNL A   1      40.236  33.810  34.472  1.00  0.00    -0.206 F 
ATOM     65  C   UNL A   1      38.130  33.532  37.406  1.00  0.00     0.006 A 
ENDBRANCH  44  58
BRANCH  45  66
ATOM     66  C   UNL A   1      42.380  26.632  27.528  1.00  0.00     0.057 A 
ATOM     67  C   UNL A   1      43.266  27.175  26.592  1.00  0.00     0.134 A 
ATOM     68  C   UNL A   1      41.974  25.304  27.340  1.00  0.00     0.134 A 
ATOM     69  F   UNL A   1      43.682  28.444  26.711  1.00  0.00    -0.206 F 
ATOM     70  C   UNL A   1      43.734  26.426  25.511  1.00  0.00     0.040 A 
ATOM     71  C   UNL A   1      42.451  24.536  26.277  1.00  0.00     0.040 A 
ATOM     72  F   UNL A   1      41.137  24.725  28.214  1.00  0.00    -0.206 F 
ATOM     73  C   UNL A   1      43.332  25.099  25.356  1.00  0.00     0.006 A 
ENDBRANCH  45  66
BRANCH  57  74
ATOM     74  C   UNL A   1      44.510  27.249  34.111  1.00  0.00     0.057 A 
ATOM     75  C   UNL A   1      44.327  26.023  34.762  1.00  0.00     0.134 A 
ATOM     76  C   UNL A   1      45.768  27.856  34.211  1.00  0.00     0.134 A 
ATOM     77  F   UNL A   1      43.143  25.393  34.711  1.00  0.00    -0.206 F 
ATOM     78  C   UNL A   1      45.359  25.420  35.483  1.00  0.00     0.040 A 
ATOM     79  C   UNL A   1      46.814  27.251  34.909  1.00  0.00     0.040 A 
ATOM     80  F   UNL A   1      46.009  29.024  33.597  1.00  0.00    -0.206 F 
ATOM     81  C   UNL A   1      46.609  26.032  35.552  1.00  0.00     0.006 A 
ENDBRANCH  57  74
ENDBRANCH  31  32
ENDBRANCH  24  26
ENDBRANCH  23  24
ENDBRANCH   1  23
TORSDOF 13
ENDMDL
