MODEL 1
REMARK VINA RESULT:     -13.1      0.000      0.000
REMARK SMILES O=C(OCCOC(=O)c1ccc(-c2c3nc(c(-c4c(F)cccc4F)c4ccc([nH]4)c(-c4c(F)cccc4F)c4nc(c(-c5c(F)cccc5F)c5ccc2[nH]5)C=C4)C=C3)cc1)c1ccc(/C=C/c2ccnc(-c3cccc([N+](=O)[O-])c3)[n+]2[O-])cc1
REMARK SMILES IDX 4 1 3 2 2 3 1 4 63 5 64 6 86 7 65 8 85 9 66 10 67 11 68 12
REMARK SMILES IDX 69 13 70 14 83 15 71 16 73 17 84 18 72 19 74 20 75 21 82 22
REMARK SMILES IDX 76 23 78 24 77 25 79 26 80 27 81 28 5 29 6 30 7 31 8 32 9 33
REMARK SMILES IDX 10 34 62 35 11 36 61 37 12 38 13 39 14 40 55 41 15 42 60 43
REMARK SMILES IDX 54 44 56 45 16 46 59 47 53 48 52 49 17 51 43 52 26 53 42 54
REMARK SMILES IDX 27 55 30 56 41 57 57 58 28 59 29 60 40 62 58 63 31 64 18 65
REMARK SMILES IDX 19 66 24 67 20 68 21 69 23 70 25 71 22 72 44 73 45 74 50 75
REMARK SMILES IDX 46 76 47 77 49 78 51 79 48 80 32 81 33 82 38 83 34 84 35 85
REMARK SMILES IDX 37 86 39 87 36 88
REMARK H PARENT 56 50 30 61
REMARK Flexibility Score: inf
ROOT
ATOM      1  C   UNL A   1      42.653  20.625  26.065  1.00  0.00     0.275 C 
ENDROOT
BRANCH   1   2
ATOM      2  O   UNL A   1      41.331  21.183  26.131  1.00  0.00    -0.458 OA
BRANCH   2   3
ATOM      3  C   UNL A   1      40.131  20.604  25.892  1.00  0.00     0.338 C 
ATOM      4  O   UNL A   1      40.102  19.383  25.739  1.00  0.00    -0.246 OA
BRANCH   3   5
ATOM      5  C   UNL A   1      38.852  21.361  25.662  1.00  0.00     0.060 A 
ATOM      6  C   UNL A   1      37.684  20.878  25.071  1.00  0.00     0.016 A 
ATOM      7  C   UNL A   1      38.819  22.681  26.144  1.00  0.00     0.016 A 
ATOM      8  C   UNL A   1      36.492  21.608  25.107  1.00  0.00     0.009 A 
ATOM      9  C   UNL A   1      37.639  23.431  26.128  1.00  0.00     0.009 A 
ATOM     10  C   UNL A   1      36.441  22.865  25.701  1.00  0.00    -0.025 A 
BRANCH  10  11
ATOM     11  C   UNL A   1      35.191  23.616  25.846  1.00  0.00     0.012 C 
ATOM     12  C   UNL A   1      34.066  23.132  26.402  1.00  0.00     0.053 C 
BRANCH  12  13
ATOM     13  C   UNL A   1      32.779  23.853  26.452  1.00  0.00     0.134 A 
ATOM     14  C   UNL A   1      31.610  23.135  26.723  1.00  0.00     0.100 A 
ATOM     15  N   UNL A   1      32.702  25.219  26.132  1.00  0.00    -0.228 N 
ATOM     16  C   UNL A   1      30.411  23.812  26.698  1.00  0.00     0.259 A 
ATOM     17  C   UNL A   1      31.439  25.818  26.103  1.00  0.00     0.333 A 
ATOM     18  O   UNL A   1      33.750  25.894  25.820  1.00  0.00    -0.710 OA
ATOM     19  N   UNL A   1      30.302  25.119  26.402  1.00  0.00    -0.049 NA
BRANCH  17  20
ATOM     20  C   UNL A   1      31.294  27.202  25.645  1.00  0.00     0.076 A 
ATOM     21  C   UNL A   1      31.808  28.275  26.389  1.00  0.00     0.017 A 
ATOM     22  C   UNL A   1      30.638  27.484  24.431  1.00  0.00     0.102 A 
ATOM     23  C   UNL A   1      31.702  29.589  25.923  1.00  0.00     0.008 A 
ATOM     24  C   UNL A   1      30.533  28.799  23.966  1.00  0.00     0.270 A 
ATOM     25  C   UNL A   1      31.068  29.857  24.708  1.00  0.00     0.085 A 
BRANCH  24  26
ATOM     26  N   UNL A   1      29.859  29.061  22.690  1.00  0.00     0.062 N 
ATOM     27  O   UNL A   1      28.669  28.729  22.590  1.00  0.00    -0.258 OA
ATOM     28  O   UNL A   1      30.519  29.585  21.781  1.00  0.00    -0.258 OA
ENDBRANCH  24  26
ENDBRANCH  17  20
ENDBRANCH  12  13
ENDBRANCH  10  11
ENDBRANCH   3   5
ENDBRANCH   2   3
ENDBRANCH   1   2
BRANCH   1  29
ATOM     29  C   UNL A   1      43.678  21.586  25.445  1.00  0.00     0.275 C 
BRANCH  29  30
ATOM     30  O   UNL A   1      43.071  22.762  24.873  1.00  0.00    -0.458 OA
BRANCH  30  31
ATOM     31  C   UNL A   1      43.806  23.903  24.980  1.00  0.00     0.338 C 
ATOM     32  O   UNL A   1      44.719  24.240  24.252  1.00  0.00    -0.246 OA
BRANCH  31  33
ATOM     33  C   UNL A   1      43.269  24.778  26.057  1.00  0.00     0.060 A 
ATOM     34  C   UNL A   1      43.926  25.991  26.295  1.00  0.00     0.016 A 
ATOM     35  C   UNL A   1      42.162  24.431  26.837  1.00  0.00     0.016 A 
ATOM     36  C   UNL A   1      43.488  26.852  27.310  1.00  0.00     0.010 A 
ATOM     37  C   UNL A   1      41.719  25.300  27.849  1.00  0.00     0.010 A 
ATOM     38  C   UNL A   1      42.382  26.516  28.103  1.00  0.00    -0.014 A 
BRANCH  38  39
ATOM     39  C   UNL A   1      41.934  27.414  29.207  1.00  0.00     0.031 A 
ATOM     40  C   UNL A   1      42.581  27.343  30.561  1.00  0.00     0.074 A 
ATOM     41  C   UNL A   1      40.936  28.301  29.021  1.00  0.00     0.049 A 
ATOM     42  N   UNL A   1      42.303  28.028  31.643  1.00  0.00    -0.248 NA
ATOM     43  C   UNL A   1      43.692  26.393  30.717  1.00  0.00     0.031 C 
ATOM     44  C   UNL A   1      40.254  28.534  27.757  1.00  0.00     0.029 A 
ATOM     45  N   UNL A   1      40.306  29.153  29.897  1.00  0.00    -0.354 N 
ATOM     46  C   UNL A   1      43.223  27.620  32.598  1.00  0.00     0.074 A 
ATOM     47  C   UNL A   1      44.030  26.584  31.985  1.00  0.00     0.031 C 
ATOM     48  C   UNL A   1      39.248  29.404  27.945  1.00  0.00     0.029 A 
ATOM     49  C   UNL A   1      39.231  29.811  29.347  1.00  0.00     0.049 A 
ATOM     50  H   UNL A   1      40.597  29.281  30.828  1.00  0.00     0.167 HD
ATOM     51  C   UNL A   1      43.401  28.088  33.856  1.00  0.00     0.037 A 
ATOM     52  C   UNL A   1      38.328  30.643  29.902  1.00  0.00     0.037 A 
ATOM     53  C   UNL A   1      42.615  29.124  34.475  1.00  0.00     0.049 A 
ATOM     54  C   UNL A   1      38.472  31.052  31.342  1.00  0.00     0.074 A 
ATOM     55  C   UNL A   1      42.783  29.697  35.726  1.00  0.00     0.029 A 
ATOM     56  N   UNL A   1      41.509  29.732  33.907  1.00  0.00    -0.354 N 
ATOM     57  N   UNL A   1      39.397  30.716  32.205  1.00  0.00    -0.248 NA
ATOM     58  C   UNL A   1      37.459  31.976  31.877  1.00  0.00     0.031 C 
ATOM     59  C   UNL A   1      41.743  30.607  35.938  1.00  0.00     0.029 A 
ATOM     60  C   UNL A   1      40.954  30.635  34.802  1.00  0.00     0.049 A 
ATOM     61  H   UNL A   1      41.167  29.552  33.001  1.00  0.00     0.167 HD
ATOM     62  C   UNL A   1      39.104  31.418  33.367  1.00  0.00     0.074 A 
ATOM     63  C   UNL A   1      37.916  32.200  33.101  1.00  0.00     0.031 C 
ATOM     64  C   UNL A   1      39.771  31.416  34.546  1.00  0.00     0.037 A 
BRANCH  51  65
ATOM     65  C   UNL A   1      44.505  27.484  34.667  1.00  0.00     0.057 A 
ATOM     66  C   UNL A   1      45.792  28.037  34.678  1.00  0.00     0.134 A 
ATOM     67  C   UNL A   1      44.257  26.393  35.508  1.00  0.00     0.134 A 
ATOM     68  F   UNL A   1      46.091  29.079  33.888  1.00  0.00    -0.206 F 
ATOM     69  C   UNL A   1      46.798  27.519  35.494  1.00  0.00     0.040 A 
ATOM     70  C   UNL A   1      45.250  25.879  36.343  1.00  0.00     0.040 A 
ATOM     71  F   UNL A   1      43.043  25.825  35.546  1.00  0.00    -0.206 F 
ATOM     72  C   UNL A   1      46.524  26.443  36.337  1.00  0.00     0.006 A 
ENDBRANCH  51  65
BRANCH  52  73
ATOM     73  C   UNL A   1      37.183  31.147  29.104  1.00  0.00     0.057 A 
ATOM     74  C   UNL A   1      37.139  32.467  28.643  1.00  0.00     0.134 A 
ATOM     75  C   UNL A   1      36.075  30.331  28.846  1.00  0.00     0.134 A 
ATOM     76  F   UNL A   1      38.158  33.302  28.887  1.00  0.00    -0.206 F 
ATOM     77  C   UNL A   1      36.019  32.969  27.977  1.00  0.00     0.040 A 
ATOM     78  C   UNL A   1      34.959  30.812  28.161  1.00  0.00     0.040 A 
ATOM     79  F   UNL A   1      36.057  29.061  29.276  1.00  0.00    -0.206 F 
ATOM     80  C   UNL A   1      34.925  32.140  27.734  1.00  0.00     0.006 A 
ENDBRANCH  52  73
BRANCH  64  81
ATOM     81  C   UNL A   1      39.249  32.301  35.640  1.00  0.00     0.057 A 
ATOM     82  C   UNL A   1      38.360  31.824  36.612  1.00  0.00     0.134 A 
ATOM     83  C   UNL A   1      39.666  33.634  35.746  1.00  0.00     0.134 A 
ATOM     84  F   UNL A   1      37.909  30.562  36.560  1.00  0.00    -0.206 F 
ATOM     85  C   UNL A   1      37.890  32.647  37.638  1.00  0.00     0.040 A 
ATOM     86  C   UNL A   1      39.223  34.459  36.781  1.00  0.00     0.040 A 
ATOM     87  F   UNL A   1      40.522  34.153  34.851  1.00  0.00    -0.206 F 
ATOM     88  C   UNL A   1      38.329  33.966  37.729  1.00  0.00     0.006 A 
ENDBRANCH  64  81
ENDBRANCH  38  39
ENDBRANCH  31  33
ENDBRANCH  30  31
ENDBRANCH  29  30
ENDBRANCH   1  29
TORSDOF 15
ENDMDL
MODEL 2
REMARK VINA RESULT:     -13.0      4.571     10.036
REMARK SMILES O=C(OCCOC(=O)c1ccc(-c2c3nc(c(-c4c(F)cccc4F)c4ccc([nH]4)c(-c4c(F)cccc4F)c4nc(c(-c5c(F)cccc5F)c5ccc2[nH]5)C=C4)C=C3)cc1)c1ccc(/C=C/c2ccnc(-c3cccc([N+](=O)[O-])c3)[n+]2[O-])cc1
REMARK SMILES IDX 4 1 3 2 2 3 1 4 63 5 64 6 86 7 65 8 85 9 66 10 67 11 68 12
REMARK SMILES IDX 69 13 70 14 83 15 71 16 73 17 84 18 72 19 74 20 75 21 82 22
REMARK SMILES IDX 76 23 78 24 77 25 79 26 80 27 81 28 5 29 6 30 7 31 8 32 9 33
REMARK SMILES IDX 10 34 62 35 11 36 61 37 12 38 13 39 14 40 55 41 15 42 60 43
REMARK SMILES IDX 54 44 56 45 16 46 59 47 53 48 52 49 17 51 43 52 26 53 42 54
REMARK SMILES IDX 27 55 30 56 41 57 57 58 28 59 29 60 40 62 58 63 31 64 18 65
REMARK SMILES IDX 19 66 24 67 20 68 21 69 23 70 25 71 22 72 44 73 45 74 50 75
REMARK SMILES IDX 46 76 47 77 49 78 51 79 48 80 32 81 33 82 38 83 34 84 35 85
REMARK SMILES IDX 37 86 39 87 36 88
REMARK H PARENT 56 50 30 61
REMARK Flexibility Score: inf
ROOT
ATOM      1  C   UNL A   1      34.405  34.271  30.326  1.00  0.00     0.275 C 
ENDROOT
BRANCH   1   2
ATOM      2  O   UNL A   1      33.918  33.246  29.443  1.00  0.00    -0.458 OA
BRANCH   2   3
ATOM      3  C   UNL A   1      34.502  32.686  28.359  1.00  0.00     0.338 C 
ATOM      4  O   UNL A   1      35.399  33.316  27.798  1.00  0.00    -0.246 OA
BRANCH   3   5
ATOM      5  C   UNL A   1      34.040  31.412  27.707  1.00  0.00     0.060 A 
ATOM      6  C   UNL A   1      32.769  31.140  27.200  1.00  0.00     0.016 A 
ATOM      7  C   UNL A   1      35.013  30.410  27.547  1.00  0.00     0.016 A 
ATOM      8  C   UNL A   1      32.519  30.002  26.426  1.00  0.00     0.009 A 
ATOM      9  C   UNL A   1      34.745  29.246  26.819  1.00  0.00     0.009 A 
ATOM     10  C   UNL A   1      33.526  29.078  26.167  1.00  0.00    -0.025 A 
BRANCH  10  11
ATOM     11  C   UNL A   1      33.330  27.928  25.280  1.00  0.00     0.012 C 
ATOM     12  C   UNL A   1      34.014  26.774  25.360  1.00  0.00     0.053 C 
BRANCH  12  13
ATOM     13  C   UNL A   1      33.888  25.657  24.402  1.00  0.00     0.134 A 
ATOM     14  C   UNL A   1      33.221  25.874  23.192  1.00  0.00     0.100 A 
ATOM     15  N   UNL A   1      34.332  24.366  24.733  1.00  0.00    -0.228 N 
ATOM     16  C   UNL A   1      33.052  24.805  22.342  1.00  0.00     0.259 A 
ATOM     17  C   UNL A   1      34.093  23.334  23.822  1.00  0.00     0.333 A 
ATOM     18  O   UNL A   1      34.895  24.121  25.862  1.00  0.00    -0.710 OA
ATOM     19  N   UNL A   1      33.470  23.559  22.624  1.00  0.00    -0.049 NA
BRANCH  17  20
ATOM     20  C   UNL A   1      34.416  21.950  24.178  1.00  0.00     0.076 A 
ATOM     21  C   UNL A   1      35.722  21.573  24.530  1.00  0.00     0.017 A 
ATOM     22  C   UNL A   1      33.412  20.964  24.185  1.00  0.00     0.102 A 
ATOM     23  C   UNL A   1      36.012  20.259  24.911  1.00  0.00     0.008 A 
ATOM     24  C   UNL A   1      33.703  19.650  24.566  1.00  0.00     0.270 A 
ATOM     25  C   UNL A   1      35.004  19.293  24.934  1.00  0.00     0.085 A 
BRANCH  24  26
ATOM     26  N   UNL A   1      32.632  18.648  24.579  1.00  0.00     0.062 N 
ATOM     27  O   UNL A   1      32.107  18.354  23.496  1.00  0.00    -0.258 OA
ATOM     28  O   UNL A   1      32.304  18.162  25.671  1.00  0.00    -0.258 OA
ENDBRANCH  24  26
ENDBRANCH  17  20
ENDBRANCH  12  13
ENDBRANCH  10  11
ENDBRANCH   3   5
ENDBRANCH   2   3
ENDBRANCH   1   2
BRANCH   1  29
ATOM     29  C   UNL A   1      34.389  33.845  31.801  1.00  0.00     0.275 C 
BRANCH  29  30
ATOM     30  O   UNL A   1      34.767  32.467  31.993  1.00  0.00    -0.458 OA
BRANCH  30  31
ATOM     31  C   UNL A   1      35.835  32.267  32.813  1.00  0.00     0.338 C 
ATOM     32  O   UNL A   1      35.854  32.423  34.018  1.00  0.00    -0.246 OA
BRANCH  31  33
ATOM     33  C   UNL A   1      36.985  31.704  32.054  1.00  0.00     0.060 A 
ATOM     34  C   UNL A   1      38.098  31.275  32.788  1.00  0.00     0.016 A 
ATOM     35  C   UNL A   1      37.000  31.605  30.660  1.00  0.00     0.016 A 
ATOM     36  C   UNL A   1      39.224  30.757  32.135  1.00  0.00     0.010 A 
ATOM     37  C   UNL A   1      38.128  31.078  30.008  1.00  0.00     0.010 A 
ATOM     38  C   UNL A   1      39.256  30.656  30.738  1.00  0.00    -0.014 A 
BRANCH  38  39
ATOM     39  C   UNL A   1      40.468  30.137  30.038  1.00  0.00     0.031 A 
ATOM     40  C   UNL A   1      41.611  31.053  29.706  1.00  0.00     0.074 A 
ATOM     41  C   UNL A   1      40.562  28.841  29.680  1.00  0.00     0.049 A 
ATOM     42  N   UNL A   1      42.729  30.780  29.080  1.00  0.00    -0.248 NA
ATOM     43  C   UNL A   1      41.491  32.450  30.147  1.00  0.00     0.031 C 
ATOM     44  C   UNL A   1      39.573  27.818  29.984  1.00  0.00     0.029 A 
ATOM     45  N   UNL A   1      41.523  28.166  28.964  1.00  0.00    -0.354 N 
ATOM     46  C   UNL A   1      43.462  31.958  29.080  1.00  0.00     0.074 A 
ATOM     47  C   UNL A   1      42.635  32.965  29.717  1.00  0.00     0.031 C 
ATOM     48  C   UNL A   1      39.926  26.664  29.394  1.00  0.00     0.029 A 
ATOM     49  C   UNL A   1      41.189  26.861  28.689  1.00  0.00     0.049 A 
ATOM     50  H   UNL A   1      42.369  28.579  28.676  1.00  0.00     0.167 HD
ATOM     51  C   UNL A   1      44.718  32.174  28.624  1.00  0.00     0.037 A 
ATOM     52  C   UNL A   1      41.819  25.926  27.949  1.00  0.00     0.037 A 
ATOM     53  C   UNL A   1      45.556  31.183  27.999  1.00  0.00     0.049 A 
ATOM     54  C   UNL A   1      43.160  26.230  27.342  1.00  0.00     0.074 A 
ATOM     55  C   UNL A   1      46.867  31.314  27.571  1.00  0.00     0.029 A 
ATOM     56  N   UNL A   1      45.168  29.889  27.696  1.00  0.00    -0.354 N 
ATOM     57  N   UNL A   1      43.872  27.326  27.423  1.00  0.00    -0.248 NA
ATOM     58  C   UNL A   1      43.798  25.157  26.562  1.00  0.00     0.031 C 
ATOM     59  C   UNL A   1      47.253  30.119  26.956  1.00  0.00     0.029 A 
ATOM     60  C   UNL A   1      46.197  29.228  27.040  1.00  0.00     0.049 A 
ATOM     61  H   UNL A   1      44.293  29.495  27.914  1.00  0.00     0.167 HD
ATOM     62  C   UNL A   1      45.054  27.060  26.744  1.00  0.00     0.074 A 
ATOM     63  C   UNL A   1      44.967  25.701  26.257  1.00  0.00     0.031 C 
ATOM     64  C   UNL A   1      46.118  27.877  26.551  1.00  0.00     0.037 A 
BRANCH  51  65
ATOM     65  C   UNL A   1      45.284  33.551  28.785  1.00  0.00     0.057 A 
ATOM     66  C   UNL A   1      45.072  34.547  27.823  1.00  0.00     0.134 A 
ATOM     67  C   UNL A   1      45.971  33.907  29.951  1.00  0.00     0.134 A 
ATOM     68  F   UNL A   1      44.426  34.263  26.682  1.00  0.00    -0.206 F 
ATOM     69  C   UNL A   1      45.534  35.849  28.012  1.00  0.00     0.040 A 
ATOM     70  C   UNL A   1      46.420  35.211  30.160  1.00  0.00     0.040 A 
ATOM     71  F   UNL A   1      46.198  32.999  30.912  1.00  0.00    -0.206 F 
ATOM     72  C   UNL A   1      46.202  36.186  29.188  1.00  0.00     0.006 A 
ENDBRANCH  51  65
BRANCH  52  73
ATOM     73  C   UNL A   1      41.188  24.603  27.719  1.00  0.00     0.057 A 
ATOM     74  C   UNL A   1      41.641  23.453  28.376  1.00  0.00     0.134 A 
ATOM     75  C   UNL A   1      40.160  24.452  26.782  1.00  0.00     0.134 A 
ATOM     76  F   UNL A   1      42.644  23.533  29.262  1.00  0.00    -0.206 F 
ATOM     77  C   UNL A   1      41.115  22.193  28.086  1.00  0.00     0.040 A 
ATOM     78  C   UNL A   1      39.607  23.203  26.500  1.00  0.00     0.040 A 
ATOM     79  F   UNL A   1      39.695  25.518  26.112  1.00  0.00    -0.206 F 
ATOM     80  C   UNL A   1      40.093  22.066  27.146  1.00  0.00     0.006 A 
ENDBRANCH  52  73
BRANCH  64  81
ATOM     81  C   UNL A   1      47.291  27.320  25.798  1.00  0.00     0.057 A 
ATOM     82  C   UNL A   1      47.433  27.503  24.417  1.00  0.00     0.134 A 
ATOM     83  C   UNL A   1      48.308  26.624  26.465  1.00  0.00     0.134 A 
ATOM     84  F   UNL A   1      46.488  28.146  23.715  1.00  0.00    -0.206 F 
ATOM     85  C   UNL A   1      48.535  26.997  23.723  1.00  0.00     0.040 A 
ATOM     86  C   UNL A   1      49.427  26.136  25.786  1.00  0.00     0.040 A 
ATOM     87  F   UNL A   1      48.238  26.418  27.789  1.00  0.00    -0.206 F 
ATOM     88  C   UNL A   1      49.540  26.319  24.410  1.00  0.00     0.006 A 
ENDBRANCH  64  81
ENDBRANCH  38  39
ENDBRANCH  31  33
ENDBRANCH  30  31
ENDBRANCH  29  30
ENDBRANCH   1  29
TORSDOF 15
ENDMDL
MODEL 3
REMARK VINA RESULT:     -12.6      0.871      6.072
REMARK SMILES O=C(OCCOC(=O)c1ccc(-c2c3nc(c(-c4c(F)cccc4F)c4ccc([nH]4)c(-c4c(F)cccc4F)c4nc(c(-c5c(F)cccc5F)c5ccc2[nH]5)C=C4)C=C3)cc1)c1ccc(/C=C/c2ccnc(-c3cccc([N+](=O)[O-])c3)[n+]2[O-])cc1
REMARK SMILES IDX 4 1 3 2 2 3 1 4 63 5 64 6 86 7 65 8 85 9 66 10 67 11 68 12
REMARK SMILES IDX 69 13 70 14 83 15 71 16 73 17 84 18 72 19 74 20 75 21 82 22
REMARK SMILES IDX 76 23 78 24 77 25 79 26 80 27 81 28 5 29 6 30 7 31 8 32 9 33
REMARK SMILES IDX 10 34 62 35 11 36 61 37 12 38 13 39 14 40 55 41 15 42 60 43
REMARK SMILES IDX 54 44 56 45 16 46 59 47 53 48 52 49 17 51 43 52 26 53 42 54
REMARK SMILES IDX 27 55 30 56 41 57 57 58 28 59 29 60 40 62 58 63 31 64 18 65
REMARK SMILES IDX 19 66 24 67 20 68 21 69 23 70 25 71 22 72 44 73 45 74 50 75
REMARK SMILES IDX 46 76 47 77 49 78 51 79 48 80 32 81 33 82 38 83 34 84 35 85
REMARK SMILES IDX 37 86 39 87 36 88
REMARK H PARENT 56 50 30 61
REMARK Flexibility Score: inf
ROOT
ATOM      1  C   UNL A   1      42.718  21.669  25.390  1.00  0.00     0.275 C 
ENDROOT
BRANCH   1   2
ATOM      2  O   UNL A   1      42.168  21.837  26.707  1.00  0.00    -0.458 OA
BRANCH   2   3
ATOM      3  C   UNL A   1      40.916  21.601  27.161  1.00  0.00     0.338 C 
ATOM      4  O   UNL A   1      40.779  20.787  28.075  1.00  0.00    -0.246 OA
BRANCH   3   5
ATOM      5  C   UNL A   1      39.666  22.157  26.537  1.00  0.00     0.060 A 
ATOM      6  C   UNL A   1      38.744  21.470  25.746  1.00  0.00     0.016 A 
ATOM      7  C   UNL A   1      39.372  23.500  26.830  1.00  0.00     0.016 A 
ATOM      8  C   UNL A   1      37.512  22.036  25.401  1.00  0.00     0.009 A 
ATOM      9  C   UNL A   1      38.163  24.082  26.437  1.00  0.00     0.009 A 
ATOM     10  C   UNL A   1      37.179  23.325  25.806  1.00  0.00    -0.025 A 
BRANCH  10  11
ATOM     11  C   UNL A   1      35.862  23.914  25.550  1.00  0.00     0.012 C 
ATOM     12  C   UNL A   1      34.711  23.481  26.094  1.00  0.00     0.053 C 
BRANCH  12  13
ATOM     13  C   UNL A   1      33.374  24.008  25.755  1.00  0.00     0.134 A 
ATOM     14  C   UNL A   1      32.386  23.120  25.316  1.00  0.00     0.100 A 
ATOM     15  N   UNL A   1      33.117  25.389  25.766  1.00  0.00    -0.228 N 
ATOM     16  C   UNL A   1      31.168  23.638  24.939  1.00  0.00     0.259 A 
ATOM     17  C   UNL A   1      31.861  25.828  25.339  1.00  0.00     0.333 A 
ATOM     18  O   UNL A   1      34.021  26.236  26.106  1.00  0.00    -0.710 OA
ATOM     19  N   UNL A   1      30.886  24.952  24.944  1.00  0.00    -0.049 NA
BRANCH  17  20
ATOM     20  C   UNL A   1      31.590  27.262  25.206  1.00  0.00     0.076 A 
ATOM     21  C   UNL A   1      32.029  28.181  26.172  1.00  0.00     0.017 A 
ATOM     22  C   UNL A   1      30.886  27.752  24.089  1.00  0.00     0.102 A 
ATOM     23  C   UNL A   1      31.804  29.552  26.014  1.00  0.00     0.008 A 
ATOM     24  C   UNL A   1      30.662  29.123  23.933  1.00  0.00     0.270 A 
ATOM     25  C   UNL A   1      31.123  30.030  24.894  1.00  0.00     0.085 A 
BRANCH  24  26
ATOM     26  N   UNL A   1      29.940  29.606  22.751  1.00  0.00     0.062 N 
ATOM     27  O   UNL A   1      29.420  30.730  22.814  1.00  0.00    -0.258 OA
ATOM     28  O   UNL A   1      29.879  28.860  21.763  1.00  0.00    -0.258 OA
ENDBRANCH  24  26
ENDBRANCH  17  20
ENDBRANCH  12  13
ENDBRANCH  10  11
ENDBRANCH   3   5
ENDBRANCH   2   3
ENDBRANCH   1   2
BRANCH   1  29
ATOM     29  C   UNL A   1      43.897  22.612  25.109  1.00  0.00     0.275 C 
BRANCH  29  30
ATOM     30  O   UNL A   1      43.478  23.945  24.752  1.00  0.00    -0.458 OA
BRANCH  30  31
ATOM     31  C   UNL A   1      44.284  24.945  25.204  1.00  0.00     0.338 C 
ATOM     32  O   UNL A   1      45.336  25.297  24.710  1.00  0.00    -0.246 OA
BRANCH  31  33
ATOM     33  C   UNL A   1      43.648  25.662  26.343  1.00  0.00     0.060 A 
ATOM     34  C   UNL A   1      44.164  26.916  26.688  1.00  0.00     0.016 A 
ATOM     35  C   UNL A   1      42.585  25.129  27.078  1.00  0.00     0.016 A 
ATOM     36  C   UNL A   1      43.628  27.634  27.766  1.00  0.00     0.010 A 
ATOM     37  C   UNL A   1      42.045  25.854  28.153  1.00  0.00     0.010 A 
ATOM     38  C   UNL A   1      42.566  27.111  28.515  1.00  0.00    -0.014 A 
BRANCH  38  39
ATOM     39  C   UNL A   1      42.016  27.858  29.684  1.00  0.00     0.031 A 
ATOM     40  C   UNL A   1      40.823  28.757  29.525  1.00  0.00     0.074 A 
ATOM     41  C   UNL A   1      42.579  27.754  30.904  1.00  0.00     0.049 A 
ATOM     42  N   UNL A   1      40.227  29.501  30.424  1.00  0.00    -0.248 NA
ATOM     43  C   UNL A   1      40.210  28.816  28.190  1.00  0.00     0.031 C 
ATOM     44  C   UNL A   1      43.696  26.881  31.234  1.00  0.00     0.029 A 
ATOM     45  N   UNL A   1      42.307  28.401  32.086  1.00  0.00    -0.354 N 
ATOM     46  C   UNL A   1      39.151  30.091  29.776  1.00  0.00     0.074 A 
ATOM     47  C   UNL A   1      39.211  29.664  28.392  1.00  0.00     0.031 C 
ATOM     48  C   UNL A   1      44.073  27.098  32.505  1.00  0.00     0.029 A 
ATOM     49  C   UNL A   1      43.202  28.113  33.089  1.00  0.00     0.049 A 
ATOM     50  H   UNL A   1      41.544  29.012  32.203  1.00  0.00     0.167 HD
ATOM     51  C   UNL A   1      38.185  30.885  30.293  1.00  0.00     0.037 A 
ATOM     52  C   UNL A   1      43.319  28.610  34.337  1.00  0.00     0.037 A 
ATOM     53  C   UNL A   1      38.105  31.310  31.667  1.00  0.00     0.049 A 
ATOM     54  C   UNL A   1      42.303  29.592  34.850  1.00  0.00     0.074 A 
ATOM     55  C   UNL A   1      37.114  32.062  32.277  1.00  0.00     0.029 A 
ATOM     56  N   UNL A   1      39.051  31.038  32.641  1.00  0.00    -0.354 N 
ATOM     57  N   UNL A   1      41.245  30.075  34.247  1.00  0.00    -0.248 NA
ATOM     58  C   UNL A   1      42.482  30.079  36.228  1.00  0.00     0.031 C 
ATOM     59  C   UNL A   1      37.490  32.296  33.603  1.00  0.00     0.029 A 
ATOM     60  C   UNL A   1      38.693  31.651  33.832  1.00  0.00     0.049 A 
ATOM     61  H   UNL A   1      39.858  30.490  32.507  1.00  0.00     0.167 HD
ATOM     62  C   UNL A   1      40.613  30.885  35.181  1.00  0.00     0.074 A 
ATOM     63  C   UNL A   1      41.402  30.830  36.392  1.00  0.00     0.031 C 
ATOM     64  C   UNL A   1      39.473  31.603  35.041  1.00  0.00     0.037 A 
BRANCH  51  65
ATOM     65  C   UNL A   1      37.110  31.358  29.363  1.00  0.00     0.057 A 
ATOM     66  C   UNL A   1      36.004  30.556  29.054  1.00  0.00     0.134 A 
ATOM     67  C   UNL A   1      37.138  32.657  28.843  1.00  0.00     0.134 A 
ATOM     68  F   UNL A   1      35.925  29.299  29.519  1.00  0.00    -0.206 F 
ATOM     69  C   UNL A   1      34.967  31.027  28.250  1.00  0.00     0.040 A 
ATOM     70  C   UNL A   1      36.097  33.147  28.055  1.00  0.00     0.040 A 
ATOM     71  F   UNL A   1      38.167  33.475  29.110  1.00  0.00    -0.206 F 
ATOM     72  C   UNL A   1      35.007  32.330  27.756  1.00  0.00     0.006 A 
ENDBRANCH  51  65
BRANCH  52  73
ATOM     73  C   UNL A   1      44.453  28.202  35.203  1.00  0.00     0.057 A 
ATOM     74  C   UNL A   1      45.672  28.888  35.180  1.00  0.00     0.134 A 
ATOM     75  C   UNL A   1      44.360  27.071  36.021  1.00  0.00     0.134 A 
ATOM     76  F   UNL A   1      45.829  29.962  34.392  1.00  0.00    -0.206 F 
ATOM     77  C   UNL A   1      46.771  28.446  35.919  1.00  0.00     0.040 A 
ATOM     78  C   UNL A   1      45.441  26.632  36.785  1.00  0.00     0.040 A 
ATOM     79  F   UNL A   1      43.219  26.366  36.072  1.00  0.00    -0.206 F 
ATOM     80  C   UNL A   1      46.656  27.315  36.726  1.00  0.00     0.006 A 
ENDBRANCH  52  73
BRANCH  64  81
ATOM     81  C   UNL A   1      38.990  32.377  36.234  1.00  0.00     0.057 A 
ATOM     82  C   UNL A   1      39.378  33.705  36.456  1.00  0.00     0.134 A 
ATOM     83  C   UNL A   1      38.102  31.801  37.151  1.00  0.00     0.134 A 
ATOM     84  F   UNL A   1      40.239  34.310  35.625  1.00  0.00    -0.206 F 
ATOM     85  C   UNL A   1      38.913  34.426  37.558  1.00  0.00     0.040 A 
ATOM     86  C   UNL A   1      37.610  32.520  38.242  1.00  0.00     0.040 A 
ATOM     87  F   UNL A   1      37.686  30.535  36.995  1.00  0.00    -0.206 F 
ATOM     88  C   UNL A   1      38.019  33.836  38.450  1.00  0.00     0.006 A 
ENDBRANCH  64  81
ENDBRANCH  38  39
ENDBRANCH  31  33
ENDBRANCH  30  31
ENDBRANCH  29  30
ENDBRANCH   1  29
TORSDOF 15
ENDMDL
