MODEL 1
REMARK VINA RESULT:     -11.6      0.000      0.000
REMARK SMILES CCc1cn(C[C@H](NC(=O)c2ccco2)C(=O)OCCOC(=O)c2ccc(-c3c4nc(c(-c5c(F)cccc5F)c5ccc([nH]5)c(-c5c(F)cccc5F)c5nc(c(-c6c(F)cccc6F)c6ccc3[nH]6)C=C5)C=C4)cc2)c(=O)[nH]c1=O
REMARK SMILES IDX 19 1 18 2 16 3 17 4 7 5 6 6 5 7 3 8 4 9 81 10 80 11 82 12
REMARK SMILES IDX 78 13 79 15 2 16 1 17 8 18 9 19 10 21 11 22 12 23 15 24
REMARK SMILES IDX 13 25 14 26 20 27 21 28 22 29 23 30 24 31 25 32 77 33 26 34
REMARK SMILES IDX 76 35 27 36 28 37 29 38 70 39 30 40 75 41 69 42 71 43 31 44
REMARK SMILES IDX 74 45 68 46 67 47 32 49 58 50 41 51 57 52 42 53 45 54 56 55
REMARK SMILES IDX 72 56 43 57 44 58 55 60 73 61 46 62 33 63 34 64 39 65 35 66
REMARK SMILES IDX 36 67 38 68 40 69 37 70 59 71 60 72 65 73 61 74 62 75 64 76
REMARK SMILES IDX 66 77 63 78 47 79 48 80 53 81 49 82 50 83 52 84 54 85 51 86
REMARK H PARENT 80 14 8 20 71 48 45 59
REMARK Flexibility Score: inf
ROOT
ATOM      1  C   UNL A   1      36.178  19.863  24.988  1.00  0.00     0.274 C 
ENDROOT
BRANCH   1   2
ATOM      2  O   UNL A   1      35.511  21.118  24.750  1.00  0.00    -0.460 OA
BRANCH   2   3
ATOM      3  C   UNL A   1      34.515  21.436  25.620  1.00  0.00     0.330 C 
ATOM      4  O   UNL A   1      34.578  21.299  26.839  1.00  0.00    -0.250 OA
BRANCH   3   5
ATOM      5  C   UNL A   1      33.232  21.890  24.913  1.00  0.00     0.212 C 
BRANCH   5   6
ATOM      6  C   UNL A   1      32.100  20.834  25.008  1.00  0.00     0.164 C 
BRANCH   6   7
ATOM      7  N   UNL A   1      32.431  19.519  24.458  1.00  0.00    -0.298 N 
ATOM      8  C   UNL A   1      33.258  17.318  24.810  1.00  0.00     0.033 A 
ATOM      9  C   UNL A   1      32.825  18.492  25.289  1.00  0.00     0.100 A 
ATOM     10  C   UNL A   1      33.429  17.196  23.341  1.00  0.00     0.256 A 
ATOM     11  N   UNL A   1      32.872  18.188  22.594  1.00  0.00    -0.274 N 
ATOM     12  O   UNL A   1      34.026  16.255  22.827  1.00  0.00    -0.269 OA
ATOM     13  C   UNL A   1      32.373  19.361  23.076  1.00  0.00     0.328 A 
ATOM     14  H   UNL A   1      32.826  18.046  21.621  1.00  0.00     0.175 HD
ATOM     15  O   UNL A   1      31.966  20.227  22.306  1.00  0.00    -0.248 OA
BRANCH   8  16
ATOM     16  C   UNL A   1      33.575  16.120  25.655  1.00  0.00     0.039 C 
ATOM     17  C   UNL A   1      32.415  15.130  25.660  1.00  0.00     0.009 C 
ENDBRANCH   8  16
ENDBRANCH   6   7
ENDBRANCH   5   6
BRANCH   5  18
ATOM     18  N   UNL A   1      33.469  22.279  23.516  1.00  0.00    -0.334 N 
ATOM     19  C   UNL A   1      33.430  23.544  22.979  1.00  0.00     0.287 C 
ATOM     20  H   UNL A   1      33.681  21.548  22.891  1.00  0.00     0.164 HD
ATOM     21  O   UNL A   1      33.456  23.678  21.758  1.00  0.00    -0.266 OA
BRANCH  19  22
ATOM     22  C   UNL A   1      33.359  24.651  23.906  1.00  0.00     0.191 A 
ATOM     23  C   UNL A   1      34.335  25.317  24.624  1.00  0.00     0.056 A 
ATOM     24  O   UNL A   1      32.133  25.181  24.204  1.00  0.00    -0.459 OA
ATOM     25  C   UNL A   1      33.671  26.278  25.421  1.00  0.00     0.043 A 
ATOM     26  C   UNL A   1      32.335  26.168  25.116  1.00  0.00     0.196 A 
ENDBRANCH  19  22
ENDBRANCH   5  18
ENDBRANCH   3   5
ENDBRANCH   2   3
ENDBRANCH   1   2
BRANCH   1  27
ATOM     27  C   UNL A   1      37.695  20.004  24.851  1.00  0.00     0.275 C 
BRANCH  27  28
ATOM     28  O   UNL A   1      38.202  21.082  25.656  1.00  0.00    -0.458 OA
BRANCH  28  29
ATOM     29  C   UNL A   1      39.418  20.854  26.210  1.00  0.00     0.338 C 
ATOM     30  O   UNL A   1      40.060  19.823  26.192  1.00  0.00    -0.246 OA
BRANCH  29  31
ATOM     31  C   UNL A   1      39.966  22.128  26.703  1.00  0.00     0.060 A 
ATOM     32  C   UNL A   1      40.974  22.162  27.664  1.00  0.00     0.016 A 
ATOM     33  C   UNL A   1      39.471  23.310  26.144  1.00  0.00     0.016 A 
ATOM     34  C   UNL A   1      41.484  23.396  28.067  1.00  0.00     0.010 A 
ATOM     35  C   UNL A   1      39.983  24.540  26.543  1.00  0.00     0.010 A 
ATOM     36  C   UNL A   1      40.997  24.592  27.506  1.00  0.00    -0.014 A 
BRANCH  36  37
ATOM     37  C   UNL A   1      41.613  25.887  27.873  1.00  0.00     0.031 A 
ATOM     38  C   UNL A   1      43.003  26.237  27.433  1.00  0.00     0.074 A 
ATOM     39  C   UNL A   1      40.900  26.744  28.625  1.00  0.00     0.049 A 
ATOM     40  N   UNL A   1      43.640  27.374  27.551  1.00  0.00    -0.248 NA
ATOM     41  C   UNL A   1      43.787  25.170  26.794  1.00  0.00     0.031 C 
ATOM     42  C   UNL A   1      39.571  26.472  29.178  1.00  0.00     0.029 A 
ATOM     43  N   UNL A   1      41.180  28.019  29.039  1.00  0.00    -0.354 N 
ATOM     44  C   UNL A   1      44.889  27.170  26.981  1.00  0.00     0.074 A 
ATOM     45  C   UNL A   1      44.945  25.779  26.581  1.00  0.00     0.031 C 
ATOM     46  C   UNL A   1      39.131  27.566  29.819  1.00  0.00     0.029 A 
ATOM     47  C   UNL A   1      40.151  28.607  29.733  1.00  0.00     0.049 A 
ATOM     48  H   UNL A   1      42.036  28.470  28.857  1.00  0.00     0.167 HD
ATOM     49  C   UNL A   1      45.884  28.069  26.786  1.00  0.00     0.037 A 
ATOM     50  C   UNL A   1      40.035  29.854  30.222  1.00  0.00     0.037 A 
ATOM     51  C   UNL A   1      45.821  29.446  27.206  1.00  0.00     0.049 A 
ATOM     52  C   UNL A   1      41.156  30.830  29.995  1.00  0.00     0.074 A 
ATOM     53  C   UNL A   1      46.751  30.454  27.015  1.00  0.00     0.029 A 
ATOM     54  N   UNL A   1      44.768  30.007  27.915  1.00  0.00    -0.354 N 
ATOM     55  N   UNL A   1      42.289  30.659  29.357  1.00  0.00    -0.248 NA
ATOM     56  C   UNL A   1      40.972  32.180  30.546  1.00  0.00     0.031 C 
ATOM     57  C   UNL A   1      46.282  31.610  27.651  1.00  0.00     0.029 A 
ATOM     58  C   UNL A   1      45.037  31.338  28.194  1.00  0.00     0.049 A 
ATOM     59  H   UNL A   1      43.951  29.529  28.183  1.00  0.00     0.167 HD
ATOM     60  C   UNL A   1      42.940  31.883  29.405  1.00  0.00     0.074 A 
ATOM     61  C   UNL A   1      42.065  32.794  30.116  1.00  0.00     0.031 C 
ATOM     62  C   UNL A   1      44.154  32.227  28.908  1.00  0.00     0.037 A 
BRANCH  49  63
ATOM     63  C   UNL A   1      47.120  27.587  26.079  1.00  0.00     0.057 A 
ATOM     64  C   UNL A   1      47.201  27.593  24.681  1.00  0.00     0.134 A 
ATOM     65  C   UNL A   1      48.224  27.089  26.786  1.00  0.00     0.134 A 
ATOM     66  F   UNL A   1      46.181  28.048  23.940  1.00  0.00    -0.206 F 
ATOM     67  C   UNL A   1      48.336  27.127  24.013  1.00  0.00     0.040 A 
ATOM     68  C   UNL A   1      49.375  26.646  26.130  1.00  0.00     0.040 A 
ATOM     69  F   UNL A   1      48.216  27.061  28.127  1.00  0.00    -0.206 F 
ATOM     70  C   UNL A   1      49.431  26.660  24.738  1.00  0.00     0.006 A 
ENDBRANCH  49  63
BRANCH  50  71
ATOM     71  C   UNL A   1      38.796  30.268  30.925  1.00  0.00     0.057 A 
ATOM     72  C   UNL A   1      37.738  30.878  30.243  1.00  0.00     0.134 A 
ATOM     73  C   UNL A   1      38.637  30.048  32.299  1.00  0.00     0.134 A 
ATOM     74  F   UNL A   1      37.834  31.126  28.929  1.00  0.00    -0.206 F 
ATOM     75  C   UNL A   1      36.565  31.252  30.900  1.00  0.00     0.040 A 
ATOM     76  C   UNL A   1      37.460  30.392  32.963  1.00  0.00     0.040 A 
ATOM     77  F   UNL A   1      39.613  29.455  33.004  1.00  0.00    -0.206 F 
ATOM     78  C   UNL A   1      36.420  30.999  32.262  1.00  0.00     0.006 A 
ENDBRANCH  50  71
BRANCH  62  79
ATOM     79  C   UNL A   1      44.584  33.653  29.097  1.00  0.00     0.057 A 
ATOM     80  C   UNL A   1      44.250  34.630  28.150  1.00  0.00     0.134 A 
ATOM     81  C   UNL A   1      45.329  34.061  30.212  1.00  0.00     0.134 A 
ATOM     82  F   UNL A   1      43.545  34.305  27.055  1.00  0.00    -0.206 F 
ATOM     83  C   UNL A   1      44.633  35.963  28.310  1.00  0.00     0.040 A 
ATOM     84  C   UNL A   1      45.692  35.396  30.397  1.00  0.00     0.040 A 
ATOM     85  F   UNL A   1      45.669  33.178  31.162  1.00  0.00    -0.206 F 
ATOM     86  C   UNL A   1      45.348  36.351  29.441  1.00  0.00     0.006 A 
ENDBRANCH  62  79
ENDBRANCH  36  37
ENDBRANCH  29  31
ENDBRANCH  28  29
ENDBRANCH  27  28
ENDBRANCH   1  27
TORSDOF 16
ENDMDL
MODEL 2
REMARK VINA RESULT:     -11.3      4.634      9.885
REMARK SMILES CCc1cn(C[C@H](NC(=O)c2ccco2)C(=O)OCCOC(=O)c2ccc(-c3c4nc(c(-c5c(F)cccc5F)c5ccc([nH]5)c(-c5c(F)cccc5F)c5nc(c(-c6c(F)cccc6F)c6ccc3[nH]6)C=C5)C=C4)cc2)c(=O)[nH]c1=O
REMARK SMILES IDX 19 1 18 2 16 3 17 4 7 5 6 6 5 7 3 8 4 9 81 10 80 11 82 12
REMARK SMILES IDX 78 13 79 15 2 16 1 17 8 18 9 19 10 21 11 22 12 23 15 24
REMARK SMILES IDX 13 25 14 26 20 27 21 28 22 29 23 30 24 31 25 32 77 33 26 34
REMARK SMILES IDX 76 35 27 36 28 37 29 38 70 39 30 40 75 41 69 42 71 43 31 44
REMARK SMILES IDX 74 45 68 46 67 47 32 49 58 50 41 51 57 52 42 53 45 54 56 55
REMARK SMILES IDX 72 56 43 57 44 58 55 60 73 61 46 62 33 63 34 64 39 65 35 66
REMARK SMILES IDX 36 67 38 68 40 69 37 70 59 71 60 72 65 73 61 74 62 75 64 76
REMARK SMILES IDX 66 77 63 78 47 79 48 80 53 81 49 82 50 83 52 84 54 85 51 86
REMARK H PARENT 80 14 8 20 71 48 45 59
REMARK Flexibility Score: inf
ROOT
ATOM      1  C   UNL A   1      31.147  30.261  25.213  1.00  0.00     0.274 C 
ENDROOT
BRANCH   1   2
ATOM      2  O   UNL A   1      32.160  29.239  25.137  1.00  0.00    -0.460 OA
BRANCH   2   3
ATOM      3  C   UNL A   1      32.408  28.738  23.897  1.00  0.00     0.330 C 
ATOM      4  O   UNL A   1      33.098  29.288  23.044  1.00  0.00    -0.250 OA
BRANCH   3   5
ATOM      5  C   UNL A   1      31.636  27.443  23.616  1.00  0.00     0.212 C 
BRANCH   5   6
ATOM      6  C   UNL A   1      30.692  27.572  22.393  1.00  0.00     0.164 C 
BRANCH   6   7
ATOM      7  N   UNL A   1      29.603  28.537  22.549  1.00  0.00    -0.298 N 
ATOM      8  C   UNL A   1      28.815  30.768  22.315  1.00  0.00     0.033 A 
ATOM      9  C   UNL A   1      29.737  29.825  22.076  1.00  0.00     0.100 A 
ATOM     10  C   UNL A   1      27.695  30.420  23.224  1.00  0.00     0.256 A 
ATOM     11  N   UNL A   1      27.554  29.097  23.514  1.00  0.00    -0.274 N 
ATOM     12  O   UNL A   1      26.935  31.267  23.682  1.00  0.00    -0.269 OA
ATOM     13  C   UNL A   1      28.458  28.120  23.222  1.00  0.00     0.328 A 
ATOM     14  H   UNL A   1      26.729  28.823  23.974  1.00  0.00     0.175 HD
ATOM     15  O   UNL A   1      28.271  26.966  23.600  1.00  0.00    -0.248 OA
BRANCH   8  16
ATOM     16  C   UNL A   1      28.835  32.145  21.724  1.00  0.00     0.039 C 
ATOM     17  C   UNL A   1      28.008  32.205  20.444  1.00  0.00     0.009 C 
ENDBRANCH   8  16
ENDBRANCH   6   7
ENDBRANCH   5   6
BRANCH   5  18
ATOM     18  N   UNL A   1      30.904  26.960  24.794  1.00  0.00    -0.334 N 
ATOM     19  C   UNL A   1      31.206  25.876  25.584  1.00  0.00     0.287 C 
ATOM     20  H   UNL A   1      30.102  27.472  25.049  1.00  0.00     0.164 HD
ATOM     21  O   UNL A   1      30.384  25.488  26.411  1.00  0.00    -0.266 OA
BRANCH  19  22
ATOM     22  C   UNL A   1      32.494  25.252  25.382  1.00  0.00     0.191 A 
ATOM     23  C   UNL A   1      33.759  25.583  25.833  1.00  0.00     0.056 A 
ATOM     24  O   UNL A   1      32.569  24.139  24.590  1.00  0.00    -0.459 OA
ATOM     25  C   UNL A   1      34.653  24.645  25.264  1.00  0.00     0.043 A 
ATOM     26  C   UNL A   1      33.878  23.778  24.531  1.00  0.00     0.196 A 
ENDBRANCH  19  22
ENDBRANCH   5  18
ENDBRANCH   3   5
ENDBRANCH   2   3
ENDBRANCH   1   2
BRANCH   1  27
ATOM     27  C   UNL A   1      31.514  31.335  26.239  1.00  0.00     0.275 C 
BRANCH  27  28
ATOM     28  O   UNL A   1      32.780  31.062  26.862  1.00  0.00    -0.458 OA
BRANCH  28  29
ATOM     29  C   UNL A   1      33.397  32.146  27.394  1.00  0.00     0.338 C 
ATOM     30  O   UNL A   1      32.939  33.261  27.544  1.00  0.00    -0.246 OA
BRANCH  29  31
ATOM     31  C   UNL A   1      34.690  31.731  27.961  1.00  0.00     0.060 A 
ATOM     32  C   UNL A   1      35.733  32.638  28.132  1.00  0.00     0.016 A 
ATOM     33  C   UNL A   1      34.827  30.399  28.365  1.00  0.00     0.016 A 
ATOM     34  C   UNL A   1      36.925  32.199  28.710  1.00  0.00     0.010 A 
ATOM     35  C   UNL A   1      36.014  29.963  28.946  1.00  0.00     0.010 A 
ATOM     36  C   UNL A   1      37.071  30.862  29.125  1.00  0.00    -0.014 A 
BRANCH  36  37
ATOM     37  C   UNL A   1      38.304  30.434  29.824  1.00  0.00     0.031 A 
ATOM     38  C   UNL A   1      38.590  30.868  31.230  1.00  0.00     0.074 A 
ATOM     39  C   UNL A   1      39.175  29.652  29.161  1.00  0.00     0.049 A 
ATOM     40  N   UNL A   1      39.550  30.480  32.030  1.00  0.00    -0.248 NA
ATOM     41  C   UNL A   1      37.697  31.884  31.807  1.00  0.00     0.031 C 
ATOM     42  C   UNL A   1      39.037  29.238  27.763  1.00  0.00     0.029 A 
ATOM     43  N   UNL A   1      40.335  29.052  29.576  1.00  0.00    -0.354 N 
ATOM     44  C   UNL A   1      39.363  31.182  33.213  1.00  0.00     0.074 A 
ATOM     45  C   UNL A   1      38.242  32.072  33.001  1.00  0.00     0.031 C 
ATOM     46  C   UNL A   1      40.048  28.412  27.450  1.00  0.00     0.029 A 
ATOM     47  C   UNL A   1      40.908  28.252  28.618  1.00  0.00     0.049 A 
ATOM     48  H   UNL A   1      40.719  29.182  30.473  1.00  0.00     0.167 HD
ATOM     49  C   UNL A   1      40.049  31.070  34.378  1.00  0.00     0.037 A 
ATOM     50  C   UNL A   1      41.992  27.459  28.686  1.00  0.00     0.037 A 
ATOM     51  C   UNL A   1      41.176  30.191  34.569  1.00  0.00     0.049 A 
ATOM     52  C   UNL A   1      42.738  27.357  29.988  1.00  0.00     0.074 A 
ATOM     53  C   UNL A   1      41.912  29.964  35.719  1.00  0.00     0.029 A 
ATOM     54  N   UNL A   1      41.738  29.402  33.575  1.00  0.00    -0.354 N 
ATOM     55  N   UNL A   1      42.487  27.941  31.135  1.00  0.00    -0.248 NA
ATOM     56  C   UNL A   1      43.910  26.472  30.005  1.00  0.00     0.031 C 
ATOM     57  C   UNL A   1      42.948  29.075  35.408  1.00  0.00     0.029 A 
ATOM     58  C   UNL A   1      42.827  28.708  34.078  1.00  0.00     0.049 A 
ATOM     59  H   UNL A   1      41.412  29.344  32.649  1.00  0.00     0.167 HD
ATOM     60  C   UNL A   1      43.451  27.474  32.017  1.00  0.00     0.074 A 
ATOM     61  C   UNL A   1      44.277  26.541  31.277  1.00  0.00     0.031 C 
ATOM     62  C   UNL A   1      43.640  27.787  33.323  1.00  0.00     0.037 A 
BRANCH  49  63
ATOM     63  C   UNL A   1      39.590  31.915  35.533  1.00  0.00     0.057 A 
ATOM     64  C   UNL A   1      40.178  33.158  35.797  1.00  0.00     0.134 A 
ATOM     65  C   UNL A   1      38.580  31.482  36.404  1.00  0.00     0.134 A 
ATOM     66  F   UNL A   1      41.155  33.632  35.011  1.00  0.00    -0.206 F 
ATOM     67  C   UNL A   1      39.774  33.941  36.881  1.00  0.00     0.040 A 
ATOM     68  C   UNL A   1      38.149  32.268  37.474  1.00  0.00     0.040 A 
ATOM     69  F   UNL A   1      37.969  30.304  36.204  1.00  0.00    -0.206 F 
ATOM     70  C   UNL A   1      38.751  33.501  37.718  1.00  0.00     0.006 A 
ENDBRANCH  49  63
BRANCH  50  71
ATOM     71  C   UNL A   1      42.407  26.660  27.507  1.00  0.00     0.057 A 
ATOM     72  C   UNL A   1      41.960  25.347  27.320  1.00  0.00     0.134 A 
ATOM     73  C   UNL A   1      43.252  27.200  26.530  1.00  0.00     0.134 A 
ATOM     74  F   UNL A   1      41.158  24.770  28.227  1.00  0.00    -0.206 F 
ATOM     75  C   UNL A   1      42.335  24.600  26.203  1.00  0.00     0.040 A 
ATOM     76  C   UNL A   1      43.613  26.474  25.394  1.00  0.00     0.040 A 
ATOM     77  F   UNL A   1      43.703  28.458  26.647  1.00  0.00    -0.206 F 
ATOM     78  C   UNL A   1      43.157  25.168  25.231  1.00  0.00     0.006 A 
ENDBRANCH  50  71
BRANCH  62  79
ATOM     79  C   UNL A   1      44.767  27.090  34.030  1.00  0.00     0.057 A 
ATOM     80  C   UNL A   1      46.043  27.665  34.075  1.00  0.00     0.134 A 
ATOM     81  C   UNL A   1      44.591  25.853  34.665  1.00  0.00     0.134 A 
ATOM     82  F   UNL A   1      46.282  28.844  33.481  1.00  0.00    -0.206 F 
ATOM     83  C   UNL A   1      47.103  27.037  34.733  1.00  0.00     0.040 A 
ATOM     84  C   UNL A   1      45.636  25.231  35.350  1.00  0.00     0.040 A 
ATOM     85  F   UNL A   1      43.390  25.256  34.671  1.00  0.00    -0.206 F 
ATOM     86  C   UNL A   1      46.898  25.822  35.382  1.00  0.00     0.006 A 
ENDBRANCH  62  79
ENDBRANCH  36  37
ENDBRANCH  29  31
ENDBRANCH  28  29
ENDBRANCH  27  28
ENDBRANCH   1  27
TORSDOF 16
ENDMDL
MODEL 3
REMARK VINA RESULT:     -11.3      4.432      9.074
REMARK SMILES CCc1cn(C[C@H](NC(=O)c2ccco2)C(=O)OCCOC(=O)c2ccc(-c3c4nc(c(-c5c(F)cccc5F)c5ccc([nH]5)c(-c5c(F)cccc5F)c5nc(c(-c6c(F)cccc6F)c6ccc3[nH]6)C=C5)C=C4)cc2)c(=O)[nH]c1=O
REMARK SMILES IDX 19 1 18 2 16 3 17 4 7 5 6 6 5 7 3 8 4 9 81 10 80 11 82 12
REMARK SMILES IDX 78 13 79 15 2 16 1 17 8 18 9 19 10 21 11 22 12 23 15 24
REMARK SMILES IDX 13 25 14 26 20 27 21 28 22 29 23 30 24 31 25 32 77 33 26 34
REMARK SMILES IDX 76 35 27 36 28 37 29 38 70 39 30 40 75 41 69 42 71 43 31 44
REMARK SMILES IDX 74 45 68 46 67 47 32 49 58 50 41 51 57 52 42 53 45 54 56 55
REMARK SMILES IDX 72 56 43 57 44 58 55 60 73 61 46 62 33 63 34 64 39 65 35 66
REMARK SMILES IDX 36 67 38 68 40 69 37 70 59 71 60 72 65 73 61 74 62 75 64 76
REMARK SMILES IDX 66 77 63 78 47 79 48 80 53 81 49 82 50 83 52 84 54 85 51 86
REMARK H PARENT 80 14 8 20 71 48 45 59
REMARK Flexibility Score: inf
ROOT
ATOM      1  C   UNL A   1      32.248  28.883  25.440  1.00  0.00     0.274 C 
ENDROOT
BRANCH   1   2
ATOM      2  O   UNL A   1      31.020  28.159  25.653  1.00  0.00    -0.460 OA
BRANCH   2   3
ATOM      3  C   UNL A   1      31.101  27.082  26.481  1.00  0.00     0.330 C 
ATOM      4  O   UNL A   1      31.570  27.104  27.616  1.00  0.00    -0.250 OA
BRANCH   3   5
ATOM      5  C   UNL A   1      30.641  25.782  25.811  1.00  0.00     0.212 C 
BRANCH   5   6
ATOM      6  C   UNL A   1      29.897  26.037  24.475  1.00  0.00     0.164 C 
BRANCH   6   7
ATOM      7  N   UNL A   1      30.701  25.838  23.268  1.00  0.00    -0.298 N 
ATOM      8  C   UNL A   1      32.347  24.575  22.109  1.00  0.00     0.033 A 
ATOM      9  C   UNL A   1      31.503  24.724  23.139  1.00  0.00     0.100 A 
ATOM     10  C   UNL A   1      32.494  25.714  21.169  1.00  0.00     0.256 A 
ATOM     11  N   UNL A   1      31.560  26.698  21.277  1.00  0.00    -0.274 N 
ATOM     12  O   UNL A   1      33.395  25.765  20.337  1.00  0.00    -0.269 OA
ATOM     13  C   UNL A   1      30.655  26.826  22.289  1.00  0.00     0.328 A 
ATOM     14  H   UNL A   1      31.535  27.375  20.564  1.00  0.00     0.175 HD
ATOM     15  O   UNL A   1      29.907  27.799  22.335  1.00  0.00    -0.248 OA
BRANCH   8  16
ATOM     16  C   UNL A   1      33.147  23.336  21.839  1.00  0.00     0.039 C 
ATOM     17  C   UNL A   1      34.358  23.253  22.763  1.00  0.00     0.009 C 
ENDBRANCH   8  16
ENDBRANCH   6   7
ENDBRANCH   5   6
BRANCH   5  18
ATOM     18  N   UNL A   1      29.835  24.944  26.708  1.00  0.00    -0.334 N 
ATOM     19  C   UNL A   1      30.028  23.618  27.018  1.00  0.00     0.287 C 
ATOM     20  H   UNL A   1      29.065  25.382  27.138  1.00  0.00     0.164 HD
ATOM     21  O   UNL A   1      29.152  23.011  27.628  1.00  0.00    -0.266 OA
BRANCH  19  22
ATOM     22  C   UNL A   1      31.273  23.018  26.596  1.00  0.00     0.191 A 
ATOM     23  C   UNL A   1      31.571  22.138  25.570  1.00  0.00     0.056 A 
ATOM     24  O   UNL A   1      32.412  23.297  27.301  1.00  0.00    -0.459 OA
ATOM     25  C   UNL A   1      32.951  21.843  25.675  1.00  0.00     0.043 A 
ATOM     26  C   UNL A   1      33.420  22.587  26.731  1.00  0.00     0.196 A 
ENDBRANCH  19  22
ENDBRANCH   5  18
ENDBRANCH   3   5
ENDBRANCH   2   3
ENDBRANCH   1   2
BRANCH   1  27
ATOM     27  C   UNL A   1      32.084  30.368  25.771  1.00  0.00     0.275 C 
BRANCH  27  28
ATOM     28  O   UNL A   1      32.451  30.651  27.131  1.00  0.00    -0.458 OA
BRANCH  28  29
ATOM     29  C   UNL A   1      33.188  31.776  27.298  1.00  0.00     0.338 C 
ATOM     30  O   UNL A   1      32.830  32.927  27.149  1.00  0.00    -0.246 OA
BRANCH  29  31
ATOM     31  C   UNL A   1      34.488  31.414  27.888  1.00  0.00     0.060 A 
ATOM     32  C   UNL A   1      35.486  32.366  28.085  1.00  0.00     0.016 A 
ATOM     33  C   UNL A   1      34.676  30.088  28.287  1.00  0.00     0.016 A 
ATOM     34  C   UNL A   1      36.685  31.975  28.684  1.00  0.00     0.010 A 
ATOM     35  C   UNL A   1      35.869  29.700  28.888  1.00  0.00     0.010 A 
ATOM     36  C   UNL A   1      36.881  30.643  29.094  1.00  0.00    -0.014 A 
BRANCH  36  37
ATOM     37  C   UNL A   1      38.119  30.265  29.814  1.00  0.00     0.031 A 
ATOM     38  C   UNL A   1      38.370  30.724  31.218  1.00  0.00     0.074 A 
ATOM     39  C   UNL A   1      39.024  29.506  29.172  1.00  0.00     0.049 A 
ATOM     40  N   UNL A   1      39.331  30.377  32.036  1.00  0.00    -0.248 NA
ATOM     41  C   UNL A   1      37.434  31.714  31.772  1.00  0.00     0.031 C 
ATOM     42  C   UNL A   1      38.921  29.073  27.777  1.00  0.00     0.029 A 
ATOM     43  N   UNL A   1      40.198  28.951  29.609  1.00  0.00    -0.354 N 
ATOM     44  C   UNL A   1      39.104  31.084  33.209  1.00  0.00     0.074 A 
ATOM     45  C   UNL A   1      37.956  31.934  32.972  1.00  0.00     0.031 C 
ATOM     46  C   UNL A   1      39.964  28.279  27.487  1.00  0.00     0.029 A 
ATOM     47  C   UNL A   1      40.812  28.161  28.668  1.00  0.00     0.049 A 
ATOM     48  H   UNL A   1      40.565  29.104  30.510  1.00  0.00     0.167 HD
ATOM     49  C   UNL A   1      39.777  31.009  34.384  1.00  0.00     0.037 A 
ATOM     50  C   UNL A   1      41.921  27.406  28.760  1.00  0.00     0.037 A 
ATOM     51  C   UNL A   1      40.930  30.171  34.600  1.00  0.00     0.049 A 
ATOM     52  C   UNL A   1      42.652  27.344  30.072  1.00  0.00     0.074 A 
ATOM     53  C   UNL A   1      41.657  29.982  35.763  1.00  0.00     0.029 A 
ATOM     54  N   UNL A   1      41.532  29.391  33.623  1.00  0.00    -0.354 N 
ATOM     55  N   UNL A   1      42.365  27.931  31.209  1.00  0.00    -0.248 NA
ATOM     56  C   UNL A   1      43.853  26.499  30.115  1.00  0.00     0.031 C 
ATOM     57  C   UNL A   1      42.728  29.125  35.476  1.00  0.00     0.029 A 
ATOM     58  C   UNL A   1      42.637  28.740  34.148  1.00  0.00     0.049 A 
ATOM     59  H   UNL A   1      41.221  29.312  32.693  1.00  0.00     0.167 HD
ATOM     60  C   UNL A   1      43.332  27.506  32.110  1.00  0.00     0.074 A 
ATOM     61  C   UNL A   1      44.200  26.594  31.391  1.00  0.00     0.031 C 
ATOM     62  C   UNL A   1      43.492  27.839  33.414  1.00  0.00     0.037 A 
BRANCH  49  63
ATOM     63  C   UNL A   1      39.273  31.849  35.523  1.00  0.00     0.057 A 
ATOM     64  C   UNL A   1      38.311  31.357  36.413  1.00  0.00     0.134 A 
ATOM     65  C   UNL A   1      39.721  33.163  35.722  1.00  0.00     0.134 A 
ATOM     66  F   UNL A   1      37.831  30.112  36.279  1.00  0.00    -0.206 F 
ATOM     67  C   UNL A   1      37.819  32.137  37.462  1.00  0.00     0.040 A 
ATOM     68  C   UNL A   1      39.258  33.943  36.783  1.00  0.00     0.040 A 
ATOM     69  F   UNL A   1      40.647  33.695  34.910  1.00  0.00    -0.206 F 
ATOM     70  C   UNL A   1      38.299  33.431  37.655  1.00  0.00     0.006 A 
ENDBRANCH  49  63
BRANCH  50  71
ATOM     71  C   UNL A   1      42.379  26.610  27.595  1.00  0.00     0.057 A 
ATOM     72  C   UNL A   1      43.224  27.157  26.622  1.00  0.00     0.134 A 
ATOM     73  C   UNL A   1      41.992  25.274  27.436  1.00  0.00     0.134 A 
ATOM     74  F   UNL A   1      43.621  28.434  26.712  1.00  0.00    -0.206 F 
ATOM     75  C   UNL A   1      43.669  26.404  25.535  1.00  0.00     0.040 A 
ATOM     76  C   UNL A   1      42.451  24.501  26.368  1.00  0.00     0.040 A 
ATOM     77  F   UNL A   1      41.193  24.690  28.342  1.00  0.00    -0.206 F 
ATOM     78  C   UNL A   1      43.290  25.068  25.412  1.00  0.00     0.006 A 
ENDBRANCH  50  71
BRANCH  62  79
ATOM     79  C   UNL A   1      44.632  27.189  34.145  1.00  0.00     0.057 A 
ATOM     80  C   UNL A   1      45.846  27.865  34.316  1.00  0.00     0.134 A 
ATOM     81  C   UNL A   1      44.530  25.896  34.676  1.00  0.00     0.134 A 
ATOM     82  F   UNL A   1      46.013  29.103  33.825  1.00  0.00    -0.206 F 
ATOM     83  C   UNL A   1      46.916  27.282  34.997  1.00  0.00     0.040 A 
ATOM     84  C   UNL A   1      45.583  25.315  35.385  1.00  0.00     0.040 A 
ATOM     85  F   UNL A   1      43.389  25.201  34.560  1.00  0.00    -0.206 F 
ATOM     86  C   UNL A   1      46.782  26.007  35.543  1.00  0.00     0.006 A 
ENDBRANCH  62  79
ENDBRANCH  36  37
ENDBRANCH  29  31
ENDBRANCH  28  29
ENDBRANCH  27  28
ENDBRANCH   1  27
TORSDOF 16
ENDMDL
