MODEL 1
REMARK VINA RESULT:     -11.4      0.000      0.000
REMARK SMILES CCc1cc(OC(F)(F)F)cc2c1O[C@@H](C(F)(F)F)C(C(=O)OCCOC(=O)c1ccc(-c3c4nc(c(-c5c(F)cccc5F)c5ccc([nH]5)c(-c5c(F)cccc5F)c5nc(c(-c6c(F)cccc6F)c6ccc3[nH]6)C=C5)C=C4)cc1)=C2
REMARK SMILES IDX 24 1 23 2 21 3 22 4 20 5 3 6 4 7 13 8 5 9 12 10 14 11 11 12
REMARK SMILES IDX 83 13 15 14 2 15 1 16 6 17 7 18 8 19 9 20 10 21 16 22 17 23
REMARK SMILES IDX 18 24 19 25 25 26 26 27 27 28 28 29 29 30 30 31 82 32 31 33
REMARK SMILES IDX 81 34 32 35 33 36 34 37 75 38 35 39 80 40 74 41 76 42 36 43
REMARK SMILES IDX 79 44 73 45 72 46 37 48 63 49 46 50 62 51 47 52 50 53 61 54
REMARK SMILES IDX 77 55 48 56 49 57 60 59 78 60 51 61 38 62 39 63 44 64 40 65
REMARK SMILES IDX 41 66 43 67 45 68 42 69 64 70 65 71 70 72 66 73 67 74 69 75
REMARK SMILES IDX 71 76 68 77 52 78 53 79 58 80 54 81 55 82 57 83 59 84 56 85
REMARK H PARENT 76 47 50 58
REMARK Flexibility Score: inf
ROOT
ATOM      1  C   UNL A   1      42.571  21.342  25.751  1.00  0.00     0.275 C 
ENDROOT
BRANCH   1   2
ATOM      2  O   UNL A   1      41.303  21.998  25.538  1.00  0.00    -0.459 OA
BRANCH   2   3
ATOM      3  C   UNL A   1      40.471  22.034  26.609  1.00  0.00     0.338 C 
ATOM      4  O   UNL A   1      40.813  21.900  27.771  1.00  0.00    -0.246 OA
BRANCH   3   5
ATOM      5  C   UNL A   1      39.072  22.319  26.213  1.00  0.00     0.087 C 
ATOM      6  C   UNL A   1      35.165  23.346  25.119  1.00  0.00    -0.002 A 
ATOM      7  C   UNL A   1      34.290  22.344  24.668  1.00  0.00     0.054 A 
ATOM      8  C   UNL A   1      36.432  22.973  25.587  1.00  0.00     0.131 A 
ATOM      9  C   UNL A   1      34.675  21.002  24.683  1.00  0.00     0.130 A 
ATOM     10  C   UNL A   1      36.860  21.642  25.536  1.00  0.00     0.021 A 
ATOM     11  O   UNL A   1      37.201  23.942  26.170  1.00  0.00    -0.475 OA
ATOM     12  C   UNL A   1      35.973  20.661  25.084  1.00  0.00     0.058 A 
ATOM     13  C   UNL A   1      38.218  21.307  25.971  1.00  0.00     0.027 C 
ATOM     14  C   UNL A   1      38.637  23.766  26.069  1.00  0.00     0.316 C 
BRANCH   6  15
ATOM     15  C   UNL A   1      34.736  24.794  25.056  1.00  0.00     0.036 C 
ATOM     16  C   UNL A   1      33.462  25.068  25.837  1.00  0.00     0.009 C 
ENDBRANCH   6  15
BRANCH   9  17
ATOM     17  O   UNL A   1      33.890  19.945  24.313  1.00  0.00    -0.406 OA
BRANCH  17  18
ATOM     18  C   UNL A   1      32.725  19.700  25.089  1.00  0.00     0.573 C 
ATOM     19  F   UNL A   1      33.022  19.565  26.399  1.00  0.00    -0.132 F 
ATOM     20  F   UNL A   1      31.824  20.693  24.931  1.00  0.00    -0.132 F 
ATOM     21  F   UNL A   1      32.157  18.548  24.668  1.00  0.00    -0.132 F 
ENDBRANCH  17  18
ENDBRANCH   9  17
BRANCH  14  22
ATOM     22  C   UNL A   1      39.285  24.824  26.983  1.00  0.00     0.430 C 
ATOM     23  F   UNL A   1      40.353  25.413  26.396  1.00  0.00    -0.167 F 
ATOM     24  F   UNL A   1      38.408  25.833  27.233  1.00  0.00    -0.167 F 
ATOM     25  F   UNL A   1      39.659  24.326  28.181  1.00  0.00    -0.167 F 
ENDBRANCH  14  22
ENDBRANCH   3   5
ENDBRANCH   2   3
ENDBRANCH   1   2
BRANCH   1  26
ATOM     26  C   UNL A   1      43.730  22.112  25.114  1.00  0.00     0.275 C 
BRANCH  26  27
ATOM     27  O   UNL A   1      43.356  23.469  24.810  1.00  0.00    -0.458 OA
BRANCH  27  28
ATOM     28  C   UNL A   1      44.276  24.401  25.155  1.00  0.00     0.338 C 
ATOM     29  O   UNL A   1      45.337  24.623  24.595  1.00  0.00    -0.246 OA
BRANCH  28  30
ATOM     30  C   UNL A   1      43.742  25.278  26.217  1.00  0.00     0.060 A 
ATOM     31  C   UNL A   1      43.150  24.645  27.313  1.00  0.00     0.016 A 
ATOM     32  C   UNL A   1      43.803  26.673  26.162  1.00  0.00     0.016 A 
ATOM     33  C   UNL A   1      42.678  25.394  28.388  1.00  0.00     0.010 A 
ATOM     34  C   UNL A   1      43.286  27.430  27.224  1.00  0.00     0.010 A 
ATOM     35  C   UNL A   1      42.733  26.792  28.347  1.00  0.00    -0.014 A 
BRANCH  35  36
ATOM     36  C   UNL A   1      42.142  27.558  29.470  1.00  0.00     0.031 A 
ATOM     37  C   UNL A   1      42.807  27.532  30.814  1.00  0.00     0.074 A 
ATOM     38  C   UNL A   1      41.066  28.339  29.269  1.00  0.00     0.049 A 
ATOM     39  N   UNL A   1      42.519  28.209  31.896  1.00  0.00    -0.248 NA
ATOM     40  C   UNL A   1      43.962  26.631  30.953  1.00  0.00     0.031 C 
ATOM     41  C   UNL A   1      40.355  28.490  28.001  1.00  0.00     0.029 A 
ATOM     42  N   UNL A   1      40.390  29.163  30.135  1.00  0.00    -0.354 N 
ATOM     43  C   UNL A   1      43.470  27.840  32.836  1.00  0.00     0.074 A 
ATOM     44  C   UNL A   1      44.324  26.853  32.208  1.00  0.00     0.031 C 
ATOM     45  C   UNL A   1      39.339  29.353  28.172  1.00  0.00     0.029 A 
ATOM     46  C   UNL A   1      39.318  29.802  29.563  1.00  0.00     0.049 A 
ATOM     47  H   UNL A   1      40.651  29.284  31.077  1.00  0.00     0.167 HD
ATOM     48  C   UNL A   1      43.622  28.287  34.106  1.00  0.00     0.037 A 
ATOM     49  C   UNL A   1      38.420  30.647  30.105  1.00  0.00     0.037 A 
ATOM     50  C   UNL A   1      42.749  29.234  34.750  1.00  0.00     0.049 A 
ATOM     51  C   UNL A   1      38.555  31.051  31.549  1.00  0.00     0.074 A 
ATOM     52  C   UNL A   1      42.819  29.736  36.038  1.00  0.00     0.029 A 
ATOM     53  N   UNL A   1      41.632  29.808  34.160  1.00  0.00    -0.354 N 
ATOM     54  N   UNL A   1      39.481  30.728  32.419  1.00  0.00    -0.248 NA
ATOM     55  C   UNL A   1      37.518  31.947  32.084  1.00  0.00     0.031 C 
ATOM     56  C   UNL A   1      41.717  30.574  36.245  1.00  0.00     0.029 A 
ATOM     57  C   UNL A   1      40.989  30.636  35.068  1.00  0.00     0.049 A 
ATOM     58  H   UNL A   1      41.339  29.651  33.234  1.00  0.00     0.167 HD
ATOM     59  C   UNL A   1      39.156  31.401  33.591  1.00  0.00     0.074 A 
ATOM     60  C   UNL A   1      37.958  32.166  33.315  1.00  0.00     0.031 C 
ATOM     61  C   UNL A   1      39.793  31.389  34.788  1.00  0.00     0.037 A 
BRANCH  48  62
ATOM     62  C   UNL A   1      44.767  27.725  34.893  1.00  0.00     0.057 A 
ATOM     63  C   UNL A   1      46.025  28.342  34.906  1.00  0.00     0.134 A 
ATOM     64  C   UNL A   1      44.606  26.565  35.662  1.00  0.00     0.134 A 
ATOM     65  F   UNL A   1      46.249  29.446  34.177  1.00  0.00    -0.206 F 
ATOM     66  C   UNL A   1      47.088  27.813  35.640  1.00  0.00     0.040 A 
ATOM     67  C   UNL A   1      45.655  26.041  36.418  1.00  0.00     0.040 A 
ATOM     68  F   UNL A   1      43.426  25.928  35.693  1.00  0.00    -0.206 F 
ATOM     69  C   UNL A   1      46.902  26.662  36.404  1.00  0.00     0.006 A 
ENDBRANCH  48  62
BRANCH  49  70
ATOM     70  C   UNL A   1      37.297  31.169  29.286  1.00  0.00     0.057 A 
ATOM     71  C   UNL A   1      37.304  32.475  28.785  1.00  0.00     0.134 A 
ATOM     72  C   UNL A   1      36.164  30.386  29.030  1.00  0.00     0.134 A 
ATOM     73  F   UNL A   1      38.347  33.284  29.023  1.00  0.00    -0.206 F 
ATOM     74  C   UNL A   1      36.216  32.994  28.080  1.00  0.00     0.040 A 
ATOM     75  C   UNL A   1      35.081  30.882  28.304  1.00  0.00     0.040 A 
ATOM     76  F   UNL A   1      36.093  29.128  29.488  1.00  0.00    -0.206 F 
ATOM     77  C   UNL A   1      35.101  32.194  27.835  1.00  0.00     0.006 A 
ENDBRANCH  49  70
BRANCH  61  78
ATOM     78  C   UNL A   1      39.220  32.250  35.878  1.00  0.00     0.057 A 
ATOM     79  C   UNL A   1      38.267  31.764  36.783  1.00  0.00     0.134 A 
ATOM     80  C   UNL A   1      39.634  33.580  36.031  1.00  0.00     0.134 A 
ATOM     81  F   UNL A   1      37.818  30.503  36.687  1.00  0.00    -0.206 F 
ATOM     82  C   UNL A   1      37.720  32.579  37.778  1.00  0.00     0.040 A 
ATOM     83  C   UNL A   1      39.115  34.396  37.038  1.00  0.00     0.040 A 
ATOM     84  F   UNL A   1      40.550  34.107  35.206  1.00  0.00    -0.206 F 
ATOM     85  C   UNL A   1      38.148  33.899  37.909  1.00  0.00     0.006 A 
ENDBRANCH  61  78
ENDBRANCH  35  36
ENDBRANCH  28  30
ENDBRANCH  27  28
ENDBRANCH  26  27
ENDBRANCH   1  26
TORSDOF 15
ENDMDL
MODEL 2
REMARK VINA RESULT:     -11.3      4.876     10.003
REMARK SMILES CCc1cc(OC(F)(F)F)cc2c1O[C@@H](C(F)(F)F)C(C(=O)OCCOC(=O)c1ccc(-c3c4nc(c(-c5c(F)cccc5F)c5ccc([nH]5)c(-c5c(F)cccc5F)c5nc(c(-c6c(F)cccc6F)c6ccc3[nH]6)C=C5)C=C4)cc1)=C2
REMARK SMILES IDX 24 1 23 2 21 3 22 4 20 5 3 6 4 7 13 8 5 9 12 10 14 11 11 12
REMARK SMILES IDX 83 13 15 14 2 15 1 16 6 17 7 18 8 19 9 20 10 21 16 22 17 23
REMARK SMILES IDX 18 24 19 25 25 26 26 27 27 28 28 29 29 30 30 31 82 32 31 33
REMARK SMILES IDX 81 34 32 35 33 36 34 37 75 38 35 39 80 40 74 41 76 42 36 43
REMARK SMILES IDX 79 44 73 45 72 46 37 48 63 49 46 50 62 51 47 52 50 53 61 54
REMARK SMILES IDX 77 55 48 56 49 57 60 59 78 60 51 61 38 62 39 63 44 64 40 65
REMARK SMILES IDX 41 66 43 67 45 68 42 69 64 70 65 71 70 72 66 73 67 74 69 75
REMARK SMILES IDX 71 76 68 77 52 78 53 79 58 80 54 81 55 82 57 83 59 84 56 85
REMARK H PARENT 76 47 50 58
REMARK Flexibility Score: inf
ROOT
ATOM      1  C   UNL A   1      34.464  33.504  30.448  1.00  0.00     0.275 C 
ENDROOT
BRANCH   1   2
ATOM      2  O   UNL A   1      34.602  32.227  29.790  1.00  0.00    -0.459 OA
BRANCH   2   3
ATOM      3  C   UNL A   1      34.921  32.274  28.472  1.00  0.00     0.338 C 
ATOM      4  O   UNL A   1      35.587  33.144  27.939  1.00  0.00    -0.246 OA
BRANCH   3   5
ATOM      5  C   UNL A   1      34.407  31.094  27.737  1.00  0.00     0.087 C 
ATOM      6  C   UNL A   1      33.119  27.635  25.764  1.00  0.00    -0.002 A 
ATOM      7  C   UNL A   1      31.959  27.684  24.976  1.00  0.00     0.054 A 
ATOM      8  C   UNL A   1      33.602  28.824  26.328  1.00  0.00     0.131 A 
ATOM      9  C   UNL A   1      31.294  28.893  24.759  1.00  0.00     0.130 A 
ATOM     10  C   UNL A   1      32.905  30.029  26.184  1.00  0.00     0.021 A 
ATOM     11  O   UNL A   1      34.817  28.780  26.953  1.00  0.00    -0.475 OA
ATOM     12  C   UNL A   1      31.752  30.055  25.393  1.00  0.00     0.058 A 
ATOM     13  C   UNL A   1      33.408  31.233  26.848  1.00  0.00     0.027 C 
ATOM     14  C   UNL A   1      35.020  29.736  28.025  1.00  0.00     0.316 C 
BRANCH   6  15
ATOM     15  C   UNL A   1      33.796  26.307  26.014  1.00  0.00     0.036 C 
ATOM     16  C   UNL A   1      34.170  25.583  24.731  1.00  0.00     0.009 C 
ENDBRANCH   6  15
BRANCH   9  17
ATOM     17  O   UNL A   1      30.188  29.063  23.974  1.00  0.00    -0.406 OA
BRANCH  17  18
ATOM     18  C   UNL A   1      30.390  29.099  22.568  1.00  0.00     0.573 C 
ATOM     19  F   UNL A   1      31.678  29.363  22.259  1.00  0.00    -0.132 F 
ATOM     20  F   UNL A   1      30.019  27.933  21.997  1.00  0.00    -0.132 F 
ATOM     21  F   UNL A   1      29.626  30.084  22.044  1.00  0.00    -0.132 F 
ENDBRANCH  17  18
ENDBRANCH   9  17
BRANCH  14  22
ATOM     22  C   UNL A   1      36.510  29.667  28.413  1.00  0.00     0.430 C 
ATOM     23  F   UNL A   1      36.679  29.563  29.752  1.00  0.00    -0.167 F 
ATOM     24  F   UNL A   1      37.083  28.550  27.889  1.00  0.00    -0.167 F 
ATOM     25  F   UNL A   1      37.221  30.721  27.958  1.00  0.00    -0.167 F 
ENDBRANCH  14  22
ENDBRANCH   3   5
ENDBRANCH   2   3
ENDBRANCH   1   2
BRANCH   1  26
ATOM     26  C   UNL A   1      34.536  33.376  31.972  1.00  0.00     0.275 C 
BRANCH  26  27
ATOM     27  O   UNL A   1      35.176  32.149  32.366  1.00  0.00    -0.458 OA
BRANCH  27  28
ATOM     28  C   UNL A   1      36.311  32.307  33.088  1.00  0.00     0.338 C 
ATOM     29  O   UNL A   1      36.398  32.721  34.233  1.00  0.00    -0.246 OA
BRANCH  28  30
ATOM     30  C   UNL A   1      37.461  31.725  32.367  1.00  0.00     0.060 A 
ATOM     31  C   UNL A   1      37.761  32.277  31.118  1.00  0.00     0.016 A 
ATOM     32  C   UNL A   1      38.231  30.675  32.872  1.00  0.00     0.016 A 
ATOM     33  C   UNL A   1      38.867  31.831  30.399  1.00  0.00     0.010 A 
ATOM     34  C   UNL A   1      39.318  30.193  32.127  1.00  0.00     0.010 A 
ATOM     35  C   UNL A   1      39.648  30.779  30.894  1.00  0.00    -0.014 A 
BRANCH  35  36
ATOM     36  C   UNL A   1      40.764  30.272  30.060  1.00  0.00     0.031 A 
ATOM     37  C   UNL A   1      41.937  31.163  29.776  1.00  0.00     0.074 A 
ATOM     38  C   UNL A   1      40.769  28.998  29.630  1.00  0.00     0.049 A 
ATOM     39  N   UNL A   1      43.060  30.885  29.163  1.00  0.00    -0.248 NA
ATOM     40  C   UNL A   1      41.838  32.548  30.260  1.00  0.00     0.031 C 
ATOM     41  C   UNL A   1      39.714  28.017  29.879  1.00  0.00     0.029 A 
ATOM     42  N   UNL A   1      41.706  28.309  28.901  1.00  0.00    -0.354 N 
ATOM     43  C   UNL A   1      43.813  32.049  29.211  1.00  0.00     0.074 A 
ATOM     44  C   UNL A   1      43.006  33.048  29.883  1.00  0.00     0.031 C 
ATOM     45  C   UNL A   1      40.061  26.852  29.308  1.00  0.00     0.029 A 
ATOM     46  C   UNL A   1      41.353  27.008  28.641  1.00  0.00     0.049 A 
ATOM     47  H   UNL A   1      42.552  28.709  28.595  1.00  0.00     0.167 HD
ATOM     48  C   UNL A   1      45.065  32.267  28.744  1.00  0.00     0.037 A 
ATOM     49  C   UNL A   1      41.997  26.056  27.939  1.00  0.00     0.037 A 
ATOM     50  C   UNL A   1      45.855  31.292  28.035  1.00  0.00     0.049 A 
ATOM     51  C   UNL A   1      43.347  26.356  27.344  1.00  0.00     0.074 A 
ATOM     52  C   UNL A   1      47.130  31.428  27.514  1.00  0.00     0.029 A 
ATOM     53  N   UNL A   1      45.435  30.006  27.730  1.00  0.00    -0.354 N 
ATOM     54  N   UNL A   1      44.068  27.447  27.428  1.00  0.00    -0.248 NA
ATOM     55  C   UNL A   1      43.976  25.283  26.558  1.00  0.00     0.031 C 
ATOM     56  C   UNL A   1      47.463  30.242  26.849  1.00  0.00     0.029 A 
ATOM     57  C   UNL A   1      46.415  29.348  27.002  1.00  0.00     0.049 A 
ATOM     58  H   UNL A   1      44.569  29.617  27.991  1.00  0.00     0.167 HD
ATOM     59  C   UNL A   1      45.244  27.183  26.735  1.00  0.00     0.074 A 
ATOM     60  C   UNL A   1      45.147  25.822  26.252  1.00  0.00     0.031 C 
ATOM     61  C   UNL A   1      46.309  27.994  26.520  1.00  0.00     0.037 A 
BRANCH  48  62
ATOM     62  C   UNL A   1      45.646  33.632  28.960  1.00  0.00     0.057 A 
ATOM     63  C   UNL A   1      46.452  33.922  30.069  1.00  0.00     0.134 A 
ATOM     64  C   UNL A   1      45.413  34.663  28.041  1.00  0.00     0.134 A 
ATOM     65  F   UNL A   1      46.699  32.982  30.995  1.00  0.00    -0.206 F 
ATOM     66  C   UNL A   1      46.989  35.195  30.266  1.00  0.00     0.040 A 
ATOM     67  C   UNL A   1      45.964  35.932  28.216  1.00  0.00     0.040 A 
ATOM     68  F   UNL A   1      44.652  34.449  26.958  1.00  0.00    -0.206 F 
ATOM     69  C   UNL A   1      46.750  36.203  29.334  1.00  0.00     0.006 A 
ENDBRANCH  48  62
BRANCH  49  70
ATOM     70  C   UNL A   1      41.375  24.722  27.743  1.00  0.00     0.057 A 
ATOM     71  C   UNL A   1      41.797  23.606  28.475  1.00  0.00     0.134 A 
ATOM     72  C   UNL A   1      40.378  24.524  26.781  1.00  0.00     0.134 A 
ATOM     73  F   UNL A   1      42.770  23.726  29.389  1.00  0.00    -0.206 F 
ATOM     74  C   UNL A   1      41.267  22.335  28.239  1.00  0.00     0.040 A 
ATOM     75  C   UNL A   1      39.821  23.265  26.553  1.00  0.00     0.040 A 
ATOM     76  F   UNL A   1      39.935  25.552  26.043  1.00  0.00    -0.206 F 
ATOM     77  C   UNL A   1      40.273  22.164  27.277  1.00  0.00     0.006 A 
ENDBRANCH  49  70
BRANCH  61  78
ATOM     78  C   UNL A   1      47.464  27.419  25.750  1.00  0.00     0.057 A 
ATOM     79  C   UNL A   1      48.524  26.757  26.384  1.00  0.00     0.134 A 
ATOM     80  C   UNL A   1      47.512  27.520  24.353  1.00  0.00     0.134 A 
ATOM     81  F   UNL A   1      48.547  26.635  27.720  1.00  0.00    -0.206 F 
ATOM     82  C   UNL A   1      49.606  26.249  25.662  1.00  0.00     0.040 A 
ATOM     83  C   UNL A   1      48.574  26.991  23.618  1.00  0.00     0.040 A 
ATOM     84  F   UNL A   1      46.526  28.131  23.679  1.00  0.00    -0.206 F 
ATOM     85  C   UNL A   1      49.631  26.361  24.273  1.00  0.00     0.006 A 
ENDBRANCH  61  78
ENDBRANCH  35  36
ENDBRANCH  28  30
ENDBRANCH  27  28
ENDBRANCH  26  27
ENDBRANCH   1  26
TORSDOF 15
ENDMDL
MODEL 3
REMARK VINA RESULT:     -11.2      3.021      8.257
REMARK SMILES CCc1cc(OC(F)(F)F)cc2c1O[C@@H](C(F)(F)F)C(C(=O)OCCOC(=O)c1ccc(-c3c4nc(c(-c5c(F)cccc5F)c5ccc([nH]5)c(-c5c(F)cccc5F)c5nc(c(-c6c(F)cccc6F)c6ccc3[nH]6)C=C5)C=C4)cc1)=C2
REMARK SMILES IDX 24 1 23 2 21 3 22 4 20 5 3 6 4 7 13 8 5 9 12 10 14 11 11 12
REMARK SMILES IDX 83 13 15 14 2 15 1 16 6 17 7 18 8 19 9 20 10 21 16 22 17 23
REMARK SMILES IDX 18 24 19 25 25 26 26 27 27 28 28 29 29 30 30 31 82 32 31 33
REMARK SMILES IDX 81 34 32 35 33 36 34 37 75 38 35 39 80 40 74 41 76 42 36 43
REMARK SMILES IDX 79 44 73 45 72 46 37 48 63 49 46 50 62 51 47 52 50 53 61 54
REMARK SMILES IDX 77 55 48 56 49 57 60 59 78 60 51 61 38 62 39 63 44 64 40 65
REMARK SMILES IDX 41 66 43 67 45 68 42 69 64 70 65 71 70 72 66 73 67 74 69 75
REMARK SMILES IDX 71 76 68 77 52 78 53 79 58 80 54 81 55 82 57 83 59 84 56 85
REMARK H PARENT 76 47 50 58
REMARK Flexibility Score: inf
ROOT
ATOM      1  C   UNL A   1      32.880  29.688  25.768  1.00  0.00     0.275 C 
ENDROOT
BRANCH   1   2
ATOM      2  O   UNL A   1      31.719  28.836  25.661  1.00  0.00    -0.459 OA
BRANCH   2   3
ATOM      3  C   UNL A   1      31.761  27.690  26.385  1.00  0.00     0.338 C 
ATOM      4  O   UNL A   1      31.335  27.557  27.519  1.00  0.00    -0.246 OA
BRANCH   3   5
ATOM      5  C   UNL A   1      32.343  26.568  25.611  1.00  0.00     0.087 C 
ATOM      6  C   UNL A   1      33.796  23.398  23.297  1.00  0.00    -0.002 A 
ATOM      7  C   UNL A   1      35.114  22.954  23.488  1.00  0.00     0.054 A 
ATOM      8  C   UNL A   1      33.286  24.384  24.154  1.00  0.00     0.131 A 
ATOM      9  C   UNL A   1      35.905  23.486  24.509  1.00  0.00     0.130 A 
ATOM     10  C   UNL A   1      34.091  24.980  25.130  1.00  0.00     0.021 A 
ATOM     11  O   UNL A   1      31.956  24.681  24.053  1.00  0.00    -0.475 OA
ATOM     12  C   UNL A   1      35.401  24.522  25.303  1.00  0.00     0.058 A 
ATOM     13  C   UNL A   1      33.538  26.056  25.957  1.00  0.00     0.027 C 
ATOM     14  C   UNL A   1      31.573  26.032  24.418  1.00  0.00     0.316 C 
BRANCH   6  15
ATOM     15  C   UNL A   1      32.976  22.832  22.161  1.00  0.00     0.036 C 
ATOM     16  C   UNL A   1      32.252  21.550  22.534  1.00  0.00     0.009 C 
ENDBRANCH   6  15
BRANCH   9  17
ATOM     17  O   UNL A   1      37.180  23.096  24.812  1.00  0.00    -0.406 OA
BRANCH  17  18
ATOM     18  C   UNL A   1      37.345  21.802  25.375  1.00  0.00     0.573 C 
ATOM     19  F   UNL A   1      36.276  21.445  26.119  1.00  0.00    -0.132 F 
ATOM     20  F   UNL A   1      37.551  20.880  24.411  1.00  0.00    -0.132 F 
ATOM     21  F   UNL A   1      38.429  21.813  26.182  1.00  0.00    -0.132 F 
ENDBRANCH  17  18
ENDBRANCH   9  17
BRANCH  14  22
ATOM     22  C   UNL A   1      30.033  26.068  24.459  1.00  0.00     0.430 C 
ATOM     23  F   UNL A   1      29.548  27.296  24.164  1.00  0.00    -0.167 F 
ATOM     24  F   UNL A   1      29.516  25.239  23.513  1.00  0.00    -0.167 F 
ATOM     25  F   UNL A   1      29.529  25.667  25.646  1.00  0.00    -0.167 F 
ENDBRANCH  14  22
ENDBRANCH   3   5
ENDBRANCH   2   3
ENDBRANCH   1   2
BRANCH   1  26
ATOM     26  C   UNL A   1      32.697  30.776  26.829  1.00  0.00     0.275 C 
BRANCH  26  27
ATOM     27  O   UNL A   1      33.608  30.596  27.929  1.00  0.00    -0.458 OA
BRANCH  27  28
ATOM     28  C   UNL A   1      34.447  31.637  28.146  1.00  0.00     0.338 C 
ATOM     29  O   UNL A   1      34.152  32.821  28.173  1.00  0.00    -0.246 OA
BRANCH  28  30
ATOM     30  C   UNL A   1      35.781  31.144  28.546  1.00  0.00     0.060 A 
ATOM     31  C   UNL A   1      35.822  29.909  29.199  1.00  0.00     0.016 A 
ATOM     32  C   UNL A   1      36.963  31.848  28.304  1.00  0.00     0.016 A 
ATOM     33  C   UNL A   1      37.043  29.340  29.553  1.00  0.00     0.010 A 
ATOM     34  C   UNL A   1      38.190  31.298  28.703  1.00  0.00     0.010 A 
ATOM     35  C   UNL A   1      38.236  30.036  29.317  1.00  0.00    -0.014 A 
BRANCH  35  36
ATOM     36  C   UNL A   1      39.509  29.440  29.788  1.00  0.00     0.031 A 
ATOM     37  C   UNL A   1      40.152  29.963  31.038  1.00  0.00     0.074 A 
ATOM     38  C   UNL A   1      40.042  28.383  29.151  1.00  0.00     0.049 A 
ATOM     39  N   UNL A   1      41.203  29.519  31.679  1.00  0.00    -0.248 NA
ATOM     40  C   UNL A   1      39.518  31.138  31.656  1.00  0.00     0.031 C 
ATOM     41  C   UNL A   1      39.490  27.748  27.955  1.00  0.00     0.029 A 
ATOM     42  N   UNL A   1      41.167  27.648  29.434  1.00  0.00    -0.354 N 
ATOM     43  C   UNL A   1      41.341  30.338  32.790  1.00  0.00     0.074 A 
ATOM     44  C   UNL A   1      40.287  31.330  32.718  1.00  0.00     0.031 C 
ATOM     45  C   UNL A   1      40.281  26.720  27.604  1.00  0.00     0.029 A 
ATOM     46  C   UNL A   1      41.401  26.634  28.539  1.00  0.00     0.049 A 
ATOM     47  H   UNL A   1      41.749  27.831  30.207  1.00  0.00     0.167 HD
ATOM     48  C   UNL A   1      42.259  30.269  33.784  1.00  0.00     0.037 A 
ATOM     49  C   UNL A   1      42.409  25.743  28.479  1.00  0.00     0.037 A 
ATOM     50  C   UNL A   1      43.336  29.313  33.837  1.00  0.00     0.049 A 
ATOM     51  C   UNL A   1      43.474  25.751  29.544  1.00  0.00     0.074 A 
ATOM     52  C   UNL A   1      44.321  29.175  34.800  1.00  0.00     0.029 A 
ATOM     53  N   UNL A   1      43.582  28.345  32.875  1.00  0.00    -0.354 N 
ATOM     54  N   UNL A   1      43.574  26.504  30.612  1.00  0.00    -0.248 NA
ATOM     55  C   UNL A   1      44.565  24.775  29.396  1.00  0.00     0.031 C 
ATOM     56  C   UNL A   1      45.192  28.157  34.396  1.00  0.00     0.029 A 
ATOM     57  C   UNL A   1      44.720  27.625  33.207  1.00  0.00     0.049 A 
ATOM     58  H   UNL A   1      43.031  28.191  32.074  1.00  0.00     0.167 HD
ATOM     59  C   UNL A   1      44.718  26.076  31.276  1.00  0.00     0.074 A 
ATOM     60  C   UNL A   1      45.267  24.984  30.500  1.00  0.00     0.031 C 
ATOM     61  C   UNL A   1      45.263  26.543  32.427  1.00  0.00     0.037 A 
BRANCH  48  62
ATOM     62  C   UNL A   1      42.151  31.282  34.883  1.00  0.00     0.057 A 
ATOM     63  C   UNL A   1      41.322  31.078  35.993  1.00  0.00     0.134 A 
ATOM     64  C   UNL A   1      42.898  32.466  34.840  1.00  0.00     0.134 A 
ATOM     65  F   UNL A   1      40.567  29.972  36.085  1.00  0.00    -0.206 F 
ATOM     66  C   UNL A   1      41.224  32.026  37.014  1.00  0.00     0.040 A 
ATOM     67  C   UNL A   1      42.827  33.409  35.866  1.00  0.00     0.040 A 
ATOM     68  F   UNL A   1      43.712  32.720  33.805  1.00  0.00    -0.206 F 
ATOM     69  C   UNL A   1      41.984  33.193  36.954  1.00  0.00     0.006 A 
ENDBRANCH  48  62
BRANCH  49  70
ATOM     70  C   UNL A   1      42.478  24.765  27.364  1.00  0.00     0.057 A 
ATOM     71  C   UNL A   1      41.939  23.479  27.486  1.00  0.00     0.134 A 
ATOM     72  C   UNL A   1      43.131  25.079  26.166  1.00  0.00     0.134 A 
ATOM     73  F   UNL A   1      41.328  23.108  28.621  1.00  0.00    -0.206 F 
ATOM     74  C   UNL A   1      42.069  22.532  26.468  1.00  0.00     0.040 A 
ATOM     75  C   UNL A   1      43.245  24.152  25.130  1.00  0.00     0.040 A 
ATOM     76  F   UNL A   1      43.674  26.293  25.990  1.00  0.00    -0.206 F 
ATOM     77  C   UNL A   1      42.722  22.870  25.284  1.00  0.00     0.006 A 
ENDBRANCH  49  70
BRANCH  61  78
ATOM     78  C   UNL A   1      46.503  25.855  32.926  1.00  0.00     0.057 A 
ATOM     79  C   UNL A   1      47.786  26.264  32.539  1.00  0.00     0.134 A 
ATOM     80  C   UNL A   1      46.412  24.775  33.814  1.00  0.00     0.134 A 
ATOM     81  F   UNL A   1      47.945  27.284  31.682  1.00  0.00    -0.206 F 
ATOM     82  C   UNL A   1      48.931  25.602  32.988  1.00  0.00     0.040 A 
ATOM     83  C   UNL A   1      47.550  24.123  34.291  1.00  0.00     0.040 A 
ATOM     84  F   UNL A   1      45.216  24.337  34.234  1.00  0.00    -0.206 F 
ATOM     85  C   UNL A   1      48.815  24.530  33.870  1.00  0.00     0.006 A 
ENDBRANCH  61  78
ENDBRANCH  35  36
ENDBRANCH  28  30
ENDBRANCH  27  28
ENDBRANCH  26  27
ENDBRANCH   1  26
TORSDOF 15
ENDMDL
