MODEL 1
REMARK VINA RESULT:     -10.8      0.000      0.000
REMARK SMILES COC(=O)c1cscc1NS(=O)(=O)c1cc(C)c(C(=O)OCCOC(=O)c2ccc(-c3c4nc(c(-c5c(F)cccc5F)c5ccc([nH]5)c(-c5c(F)cccc5F)c5nc(c(-c6c(F)cccc6F)c6ccc3[nH]6)C=C5)C=C4)cc2)s1
REMARK SMILES IDX 21 1 19 2 20 3 18 4 14 5 15 6 81 7 16 8 17 9 11 10 12 11
REMARK SMILES IDX 13 12 10 13 9 15 5 16 6 17 7 18 8 19 3 20 4 21 2 22 1 23
REMARK SMILES IDX 22 24 23 25 24 26 25 27 26 28 27 29 28 30 80 31 29 32 79 33
REMARK SMILES IDX 30 34 31 35 32 36 73 37 33 38 78 39 72 40 74 41 34 42 77 43
REMARK SMILES IDX 71 44 70 45 35 47 61 48 44 49 60 50 45 51 48 52 59 53 75 54
REMARK SMILES IDX 46 55 47 56 58 58 76 59 49 60 36 61 37 62 42 63 38 64 39 65
REMARK SMILES IDX 41 66 43 67 40 68 62 69 63 70 68 71 64 72 65 73 67 74 69 75
REMARK SMILES IDX 66 76 50 77 51 78 56 79 52 80 53 81 55 82 57 83 54 84
REMARK H PARENT 10 14 74 46 48 57
REMARK Flexibility Score: inf
ROOT
ATOM      1  O   UNL A   1      33.689  33.015  28.811  1.00  0.00    -0.458 OA
ENDROOT
BRANCH   1   2
ATOM      2  C   UNL A   1      34.699  32.602  27.994  1.00  0.00     0.348 C 
ATOM      3  O   UNL A   1      35.653  33.303  27.680  1.00  0.00    -0.245 OA
BRANCH   2   4
ATOM      4  C   UNL A   1      34.501  31.228  27.559  1.00  0.00     0.116 A 
ATOM      5  C   UNL A   1      33.297  29.128  27.027  1.00  0.00     0.141 A 
ATOM      6  C   UNL A   1      34.659  28.937  27.152  1.00  0.00     0.038 A 
ATOM      7  S   UNL A   1      32.916  30.781  27.080  1.00  0.00    -0.115 S 
ATOM      8  C   UNL A   1      35.371  30.147  27.484  1.00  0.00    -0.024 A 
ATOM      9  C   UNL A   1      36.829  30.188  27.800  1.00  0.00     0.046 C 
BRANCH   5  10
ATOM     10  S   UNL A   1      31.922  28.015  26.863  1.00  0.00     0.271 S 
ATOM     11  O   UNL A   1      31.327  28.383  25.594  1.00  0.00    -0.200 OA
ATOM     12  O   UNL A   1      31.157  28.104  28.089  1.00  0.00    -0.200 OA
BRANCH  10  13
ATOM     13  N   UNL A   1      32.438  26.416  26.700  1.00  0.00    -0.277 N 
ATOM     14  H   UNL A   1      32.497  25.898  27.535  1.00  0.00     0.180 HD
BRANCH  13  15
ATOM     15  C   UNL A   1      32.796  25.722  25.521  1.00  0.00     0.074 A 
ATOM     16  C   UNL A   1      32.366  24.358  25.276  1.00  0.00     0.094 A 
ATOM     17  C   UNL A   1      32.802  23.899  24.043  1.00  0.00     0.082 A 
ATOM     18  S   UNL A   1      33.690  25.063  23.177  1.00  0.00    -0.149 S 
ATOM     19  C   UNL A   1      33.462  26.212  24.418  1.00  0.00     0.092 A 
BRANCH  16  20
ATOM     20  C   UNL A   1      31.557  23.547  26.183  1.00  0.00     0.340 C 
ATOM     21  O   UNL A   1      30.556  22.945  25.811  1.00  0.00    -0.246 OA
BRANCH  20  22
ATOM     22  O   UNL A   1      32.050  23.528  27.455  1.00  0.00    -0.465 OA
ATOM     23  C   UNL A   1      32.989  22.490  27.738  1.00  0.00     0.282 C 
ENDBRANCH  20  22
ENDBRANCH  16  20
ENDBRANCH  13  15
ENDBRANCH  10  13
ENDBRANCH   5  10
ENDBRANCH   2   4
ENDBRANCH   1   2
BRANCH   1  24
ATOM     24  C   UNL A   1      33.107  34.290  28.475  1.00  0.00     0.275 C 
BRANCH  24  25
ATOM     25  C   UNL A   1      33.349  35.331  29.572  1.00  0.00     0.275 C 
BRANCH  25  26
ATOM     26  O   UNL A   1      32.368  35.236  30.622  1.00  0.00    -0.458 OA
BRANCH  26  27
ATOM     27  C   UNL A   1      32.709  35.838  31.782  1.00  0.00     0.338 C 
ATOM     28  O   UNL A   1      32.195  36.825  32.283  1.00  0.00    -0.246 OA
BRANCH  27  29
ATOM     29  C   UNL A   1      33.781  35.083  32.442  1.00  0.00     0.060 A 
ATOM     30  C   UNL A   1      35.058  35.638  32.480  1.00  0.00     0.016 A 
ATOM     31  C   UNL A   1      33.567  33.779  32.880  1.00  0.00     0.016 A 
ATOM     32  C   UNL A   1      36.151  34.870  32.860  1.00  0.00     0.010 A 
ATOM     33  C   UNL A   1      34.654  33.034  33.349  1.00  0.00     0.010 A 
ATOM     34  C   UNL A   1      35.959  33.563  33.312  1.00  0.00    -0.014 A 
BRANCH  34  35
ATOM     35  C   UNL A   1      37.120  32.727  33.707  1.00  0.00     0.031 A 
ATOM     36  C   UNL A   1      37.790  32.971  35.028  1.00  0.00     0.074 A 
ATOM     37  C   UNL A   1      37.577  31.766  32.884  1.00  0.00     0.049 A 
ATOM     38  N   UNL A   1      38.950  32.548  35.461  1.00  0.00    -0.248 NA
ATOM     39  C   UNL A   1      37.063  33.822  35.984  1.00  0.00     0.031 C 
ATOM     40  C   UNL A   1      36.968  31.374  31.612  1.00  0.00     0.029 A 
ATOM     41  N   UNL A   1      38.677  30.950  32.989  1.00  0.00    -0.354 N 
ATOM     42  C   UNL A   1      39.115  33.122  36.714  1.00  0.00     0.074 A 
ATOM     43  C   UNL A   1      37.941  33.929  36.971  1.00  0.00     0.031 C 
ATOM     44  C   UNL A   1      37.698  30.394  31.057  1.00  0.00     0.029 A 
ATOM     45  C   UNL A   1      38.870  30.150  31.890  1.00  0.00     0.049 A 
ATOM     46  H   UNL A   1      39.268  30.940  33.777  1.00  0.00     0.167 HD
ATOM     47  C   UNL A   1      40.160  32.990  37.568  1.00  0.00     0.037 A 
ATOM     48  C   UNL A   1      39.904  29.355  31.560  1.00  0.00     0.037 A 
ATOM     49  C   UNL A   1      41.300  32.148  37.313  1.00  0.00     0.049 A 
ATOM     50  C   UNL A   1      41.081  29.270  32.491  1.00  0.00     0.074 A 
ATOM     51  C   UNL A   1      42.414  31.938  38.106  1.00  0.00     0.029 A 
ATOM     52  N   UNL A   1      41.460  31.364  36.179  1.00  0.00    -0.354 N 
ATOM     53  N   UNL A   1      41.265  29.865  33.645  1.00  0.00    -0.248 NA
ATOM     54  C   UNL A   1      42.200  28.418  32.067  1.00  0.00     0.031 C 
ATOM     55  C   UNL A   1      43.267  31.057  37.434  1.00  0.00     0.029 A 
ATOM     56  C   UNL A   1      42.662  30.678  36.246  1.00  0.00     0.049 A 
ATOM     57  H   UNL A   1      40.817  31.305  35.437  1.00  0.00     0.167 HD
ATOM     58  C   UNL A   1      42.503  29.435  34.101  1.00  0.00     0.074 A 
ATOM     59  C   UNL A   1      43.025  28.528  33.099  1.00  0.00     0.031 C 
ATOM     60  C   UNL A   1      43.148  29.760  35.248  1.00  0.00     0.037 A 
BRANCH  47  61
ATOM     61  C   UNL A   1      40.134  33.802  38.829  1.00  0.00     0.057 A 
ATOM     62  C   UNL A   1      39.477  33.367  39.988  1.00  0.00     0.134 A 
ATOM     63  C   UNL A   1      40.797  35.036  38.889  1.00  0.00     0.134 A 
ATOM     64  F   UNL A   1      38.813  32.202  39.995  1.00  0.00    -0.206 F 
ATOM     65  C   UNL A   1      39.457  34.142  41.150  1.00  0.00     0.040 A 
ATOM     66  C   UNL A   1      40.807  35.806  40.054  1.00  0.00     0.040 A 
ATOM     67  F   UNL A   1      41.451  35.510  37.819  1.00  0.00    -0.206 F 
ATOM     68  C   UNL A   1      40.128  35.362  41.186  1.00  0.00     0.006 A 
ENDBRANCH  47  61
BRANCH  48  69
ATOM     69  C   UNL A   1      39.888  28.612  30.275  1.00  0.00     0.057 A 
ATOM     70  C   UNL A   1      39.266  27.363  30.171  1.00  0.00     0.134 A 
ATOM     71  C   UNL A   1      40.484  29.134  29.120  1.00  0.00     0.134 A 
ATOM     72  F   UNL A   1      38.696  26.801  31.245  1.00  0.00    -0.206 F 
ATOM     73  C   UNL A   1      39.247  26.654  28.967  1.00  0.00     0.040 A 
ATOM     74  C   UNL A   1      40.448  28.450  27.904  1.00  0.00     0.040 A 
ATOM     75  F   UNL A   1      41.094  30.328  29.151  1.00  0.00    -0.206 F 
ATOM     76  C   UNL A   1      39.833  27.203  27.827  1.00  0.00     0.006 A 
ENDBRANCH  48  69
BRANCH  60  77
ATOM     77  C   UNL A   1      44.459  29.083  35.513  1.00  0.00     0.057 A 
ATOM     78  C   UNL A   1      45.678  29.638  35.108  1.00  0.00     0.134 A 
ATOM     79  C   UNL A   1      44.499  27.884  36.237  1.00  0.00     0.134 A 
ATOM     80  F   UNL A   1      45.705  30.776  34.398  1.00  0.00    -0.206 F 
ATOM     81  C   UNL A   1      46.892  29.016  35.403  1.00  0.00     0.040 A 
ATOM     82  C   UNL A   1      45.707  27.268  36.560  1.00  0.00     0.040 A 
ATOM     83  F   UNL A   1      43.364  27.305  36.660  1.00  0.00    -0.206 F 
ATOM     84  C   UNL A   1      46.909  27.833  36.139  1.00  0.00     0.006 A 
ENDBRANCH  60  77
ENDBRANCH  34  35
ENDBRANCH  27  29
ENDBRANCH  26  27
ENDBRANCH  25  26
ENDBRANCH  24  25
ENDBRANCH   1  24
TORSDOF 16
ENDMDL
MODEL 2
REMARK VINA RESULT:     -10.7      4.658      7.209
REMARK SMILES COC(=O)c1cscc1NS(=O)(=O)c1cc(C)c(C(=O)OCCOC(=O)c2ccc(-c3c4nc(c(-c5c(F)cccc5F)c5ccc([nH]5)c(-c5c(F)cccc5F)c5nc(c(-c6c(F)cccc6F)c6ccc3[nH]6)C=C5)C=C4)cc2)s1
REMARK SMILES IDX 21 1 19 2 20 3 18 4 14 5 15 6 81 7 16 8 17 9 11 10 12 11
REMARK SMILES IDX 13 12 10 13 9 15 5 16 6 17 7 18 8 19 3 20 4 21 2 22 1 23
REMARK SMILES IDX 22 24 23 25 24 26 25 27 26 28 27 29 28 30 80 31 29 32 79 33
REMARK SMILES IDX 30 34 31 35 32 36 73 37 33 38 78 39 72 40 74 41 34 42 77 43
REMARK SMILES IDX 71 44 70 45 35 47 61 48 44 49 60 50 45 51 48 52 59 53 75 54
REMARK SMILES IDX 46 55 47 56 58 58 76 59 49 60 36 61 37 62 42 63 38 64 39 65
REMARK SMILES IDX 41 66 43 67 40 68 62 69 63 70 68 71 64 72 65 73 67 74 69 75
REMARK SMILES IDX 66 76 50 77 51 78 56 79 52 80 53 81 55 82 57 83 54 84
REMARK H PARENT 10 14 74 46 48 57
REMARK Flexibility Score: inf
ROOT
ATOM      1  O   UNL A   1      34.443  32.407  29.529  1.00  0.00    -0.458 OA
ENDROOT
BRANCH   1   2
ATOM      2  C   UNL A   1      34.810  32.345  28.218  1.00  0.00     0.348 C 
ATOM      3  O   UNL A   1      35.265  33.293  27.591  1.00  0.00    -0.245 OA
BRANCH   2   4
ATOM      4  C   UNL A   1      34.602  31.013  27.671  1.00  0.00     0.116 A 
ATOM      5  C   UNL A   1      33.385  28.969  26.975  1.00  0.00     0.141 A 
ATOM      6  C   UNL A   1      34.747  28.763  27.074  1.00  0.00     0.038 A 
ATOM      7  S   UNL A   1      33.012  30.613  27.168  1.00  0.00    -0.115 S 
ATOM      8  C   UNL A   1      35.467  29.939  27.501  1.00  0.00    -0.024 A 
ATOM      9  C   UNL A   1      36.928  29.947  27.808  1.00  0.00     0.046 C 
BRANCH   5  10
ATOM     10  S   UNL A   1      32.004  27.879  26.730  1.00  0.00     0.271 S 
ATOM     11  O   UNL A   1      31.321  28.438  25.580  1.00  0.00    -0.200 OA
ATOM     12  O   UNL A   1      31.327  27.760  28.004  1.00  0.00    -0.200 OA
BRANCH  10  13
ATOM     13  N   UNL A   1      32.511  26.334  26.276  1.00  0.00    -0.277 N 
ATOM     14  H   UNL A   1      33.252  25.955  26.802  1.00  0.00     0.180 HD
BRANCH  13  15
ATOM     15  C   UNL A   1      32.009  25.512  25.241  1.00  0.00     0.074 A 
ATOM     16  C   UNL A   1      31.310  24.271  25.520  1.00  0.00     0.094 A 
ATOM     17  C   UNL A   1      30.877  23.656  24.356  1.00  0.00     0.082 A 
ATOM     18  S   UNL A   1      31.270  24.535  22.954  1.00  0.00    -0.149 S 
ATOM     19  C   UNL A   1      31.982  25.774  23.888  1.00  0.00     0.092 A 
BRANCH  16  20
ATOM     20  C   UNL A   1      31.059  23.718  26.850  1.00  0.00     0.340 C 
ATOM     21  O   UNL A   1      31.958  23.285  27.562  1.00  0.00    -0.246 OA
BRANCH  20  22
ATOM     22  O   UNL A   1      29.741  23.760  27.198  1.00  0.00    -0.465 OA
ATOM     23  C   UNL A   1      29.106  22.492  27.364  1.00  0.00     0.282 C 
ENDBRANCH  20  22
ENDBRANCH  16  20
ENDBRANCH  13  15
ENDBRANCH  10  13
ENDBRANCH   5  10
ENDBRANCH   2   4
ENDBRANCH   1   2
BRANCH   1  24
ATOM     24  C   UNL A   1      34.406  33.732  30.097  1.00  0.00     0.275 C 
BRANCH  24  25
ATOM     25  C   UNL A   1      34.573  33.701  31.619  1.00  0.00     0.275 C 
BRANCH  25  26
ATOM     26  O   UNL A   1      35.053  32.422  32.076  1.00  0.00    -0.458 OA
BRANCH  26  27
ATOM     27  C   UNL A   1      36.216  32.458  32.762  1.00  0.00     0.338 C 
ATOM     28  O   UNL A   1      36.412  32.947  33.862  1.00  0.00    -0.246 OA
BRANCH  27  29
ATOM     29  C   UNL A   1      37.257  31.736  32.020  1.00  0.00     0.060 A 
ATOM     30  C   UNL A   1      37.918  30.687  32.654  1.00  0.00     0.016 A 
ATOM     31  C   UNL A   1      37.684  32.186  30.773  1.00  0.00     0.016 A 
ATOM     32  C   UNL A   1      39.069  30.140  32.102  1.00  0.00     0.010 A 
ATOM     33  C   UNL A   1      38.790  31.575  30.174  1.00  0.00     0.010 A 
ATOM     34  C   UNL A   1      39.511  30.570  30.849  1.00  0.00    -0.014 A 
BRANCH  34  35
ATOM     35  C   UNL A   1      40.747  30.004  30.254  1.00  0.00     0.031 A 
ATOM     36  C   UNL A   1      41.971  30.865  30.134  1.00  0.00     0.074 A 
ATOM     37  C   UNL A   1      40.769  28.733  29.813  1.00  0.00     0.049 A 
ATOM     38  N   UNL A   1      43.058  30.671  29.433  1.00  0.00    -0.248 NA
ATOM     39  C   UNL A   1      41.962  32.126  30.896  1.00  0.00     0.031 C 
ATOM     40  C   UNL A   1      39.676  27.768  29.942  1.00  0.00     0.029 A 
ATOM     41  N   UNL A   1      41.748  28.036  29.148  1.00  0.00    -0.354 N 
ATOM     42  C   UNL A   1      43.837  31.804  29.625  1.00  0.00     0.074 A 
ATOM     43  C   UNL A   1      43.097  32.685  30.503  1.00  0.00     0.031 C 
ATOM     44  C   UNL A   1      40.044  26.607  29.380  1.00  0.00     0.029 A 
ATOM     45  C   UNL A   1      41.361  26.772  28.776  1.00  0.00     0.049 A 
ATOM     46  H   UNL A   1      42.640  28.407  28.957  1.00  0.00     0.167 HD
ATOM     47  C   UNL A   1      45.058  32.081  29.106  1.00  0.00     0.037 A 
ATOM     48  C   UNL A   1      41.971  25.870  27.986  1.00  0.00     0.037 A 
ATOM     49  C   UNL A   1      45.797  31.173  28.268  1.00  0.00     0.049 A 
ATOM     50  C   UNL A   1      43.295  26.222  27.369  1.00  0.00     0.074 A 
ATOM     51  C   UNL A   1      47.040  31.350  27.688  1.00  0.00     0.029 A 
ATOM     52  N   UNL A   1      45.361  29.907  27.905  1.00  0.00    -0.354 N 
ATOM     53  N   UNL A   1      44.000  27.320  27.498  1.00  0.00    -0.248 NA
ATOM     54  C   UNL A   1      43.902  25.218  26.484  1.00  0.00     0.031 C 
ATOM     55  C   UNL A   1      47.339  30.206  26.941  1.00  0.00     0.029 A 
ATOM     56  C   UNL A   1      46.306  29.296  27.098  1.00  0.00     0.049 A 
ATOM     57  H   UNL A   1      44.507  29.503  28.180  1.00  0.00     0.167 HD
ATOM     58  C   UNL A   1      45.147  27.128  26.740  1.00  0.00     0.074 A 
ATOM     59  C   UNL A   1      45.043  25.807  26.155  1.00  0.00     0.031 C 
ATOM     60  C   UNL A   1      46.192  27.969  26.548  1.00  0.00     0.037 A 
BRANCH  47  61
ATOM     61  C   UNL A   1      45.645  33.432  29.395  1.00  0.00     0.057 A 
ATOM     62  C   UNL A   1      46.489  33.663  30.489  1.00  0.00     0.134 A 
ATOM     63  C   UNL A   1      45.374  34.517  28.549  1.00  0.00     0.134 A 
ATOM     64  F   UNL A   1      46.779  32.673  31.345  1.00  0.00    -0.206 F 
ATOM     65  C   UNL A   1      47.019  34.930  30.746  1.00  0.00     0.040 A 
ATOM     66  C   UNL A   1      45.921  35.780  28.781  1.00  0.00     0.040 A 
ATOM     67  F   UNL A   1      44.579  34.365  27.480  1.00  0.00    -0.206 F 
ATOM     68  C   UNL A   1      46.740  35.991  29.888  1.00  0.00     0.006 A 
ENDBRANCH  47  61
BRANCH  48  69
ATOM     69  C   UNL A   1      41.315  24.569  27.703  1.00  0.00     0.057 A 
ATOM     70  C   UNL A   1      40.298  24.464  26.748  1.00  0.00     0.134 A 
ATOM     71  C   UNL A   1      41.694  23.397  28.372  1.00  0.00     0.134 A 
ATOM     72  F   UNL A   1      39.877  25.553  26.089  1.00  0.00    -0.206 F 
ATOM     73  C   UNL A   1      39.673  23.245  26.476  1.00  0.00     0.040 A 
ATOM     74  C   UNL A   1      41.098  22.168  28.089  1.00  0.00     0.040 A 
ATOM     75  F   UNL A   1      42.666  23.427  29.296  1.00  0.00    -0.206 F 
ATOM     76  C   UNL A   1      40.080  22.090  27.142  1.00  0.00     0.006 A 
ENDBRANCH  48  69
BRANCH  60  77
ATOM     77  C   UNL A   1      47.337  27.462  25.724  1.00  0.00     0.057 A 
ATOM     78  C   UNL A   1      48.420  26.783  26.295  1.00  0.00     0.134 A 
ATOM     79  C   UNL A   1      47.322  27.609  24.331  1.00  0.00     0.134 A 
ATOM     80  F   UNL A   1      48.499  26.624  27.625  1.00  0.00    -0.206 F 
ATOM     81  C   UNL A   1      49.456  26.279  25.508  1.00  0.00     0.040 A 
ATOM     82  C   UNL A   1      48.339  27.086  23.533  1.00  0.00     0.040 A 
ATOM     83  F   UNL A   1      46.309  28.244  23.724  1.00  0.00    -0.206 F 
ATOM     84  C   UNL A   1      49.412  26.421  24.122  1.00  0.00     0.006 A 
ENDBRANCH  60  77
ENDBRANCH  34  35
ENDBRANCH  27  29
ENDBRANCH  26  27
ENDBRANCH  25  26
ENDBRANCH  24  25
ENDBRANCH   1  24
TORSDOF 16
ENDMDL
MODEL 3
REMARK VINA RESULT:     -10.5      5.255      9.483
REMARK SMILES COC(=O)c1cscc1NS(=O)(=O)c1cc(C)c(C(=O)OCCOC(=O)c2ccc(-c3c4nc(c(-c5c(F)cccc5F)c5ccc([nH]5)c(-c5c(F)cccc5F)c5nc(c(-c6c(F)cccc6F)c6ccc3[nH]6)C=C5)C=C4)cc2)s1
REMARK SMILES IDX 21 1 19 2 20 3 18 4 14 5 15 6 81 7 16 8 17 9 11 10 12 11
REMARK SMILES IDX 13 12 10 13 9 15 5 16 6 17 7 18 8 19 3 20 4 21 2 22 1 23
REMARK SMILES IDX 22 24 23 25 24 26 25 27 26 28 27 29 28 30 80 31 29 32 79 33
REMARK SMILES IDX 30 34 31 35 32 36 73 37 33 38 78 39 72 40 74 41 34 42 77 43
REMARK SMILES IDX 71 44 70 45 35 47 61 48 44 49 60 50 45 51 48 52 59 53 75 54
REMARK SMILES IDX 46 55 47 56 58 58 76 59 49 60 36 61 37 62 42 63 38 64 39 65
REMARK SMILES IDX 41 66 43 67 40 68 62 69 63 70 68 71 64 72 65 73 67 74 69 75
REMARK SMILES IDX 66 76 50 77 51 78 56 79 52 80 53 81 55 82 57 83 54 84
REMARK H PARENT 10 14 74 46 48 57
REMARK Flexibility Score: inf
ROOT
ATOM      1  O   UNL A   1      35.441  21.680  26.053  1.00  0.00    -0.458 OA
ENDROOT
BRANCH   1   2
ATOM      2  C   UNL A   1      34.114  21.992  26.076  1.00  0.00     0.348 C 
ATOM      3  O   UNL A   1      33.402  21.876  27.067  1.00  0.00    -0.245 OA
BRANCH   2   4
ATOM      4  C   UNL A   1      33.663  22.487  24.785  1.00  0.00     0.116 A 
ATOM      5  C   UNL A   1      33.091  24.124  23.014  1.00  0.00     0.141 A 
ATOM      6  C   UNL A   1      32.552  22.876  22.772  1.00  0.00     0.038 A 
ATOM      7  S   UNL A   1      34.140  24.075  24.347  1.00  0.00    -0.115 S 
ATOM      8  C   UNL A   1      32.858  21.917  23.806  1.00  0.00    -0.024 A 
ATOM      9  C   UNL A   1      32.291  20.537  23.849  1.00  0.00     0.046 C 
BRANCH   5  10
ATOM     10  S   UNL A   1      32.876  25.712  22.248  1.00  0.00     0.271 S 
ATOM     11  O   UNL A   1      32.060  25.428  21.084  1.00  0.00    -0.200 OA
ATOM     12  O   UNL A   1      34.194  26.293  22.099  1.00  0.00    -0.200 OA
BRANCH  10  13
ATOM     13  N   UNL A   1      31.969  26.750  23.222  1.00  0.00    -0.277 N 
ATOM     14  H   UNL A   1      31.146  27.108  22.817  1.00  0.00     0.180 HD
BRANCH  13  15
ATOM     15  C   UNL A   1      32.235  27.173  24.545  1.00  0.00     0.074 A 
ATOM     16  C   UNL A   1      31.373  26.807  25.653  1.00  0.00     0.094 A 
ATOM     17  C   UNL A   1      31.852  27.300  26.857  1.00  0.00     0.082 A 
ATOM     18  S   UNL A   1      33.306  28.166  26.689  1.00  0.00    -0.149 S 
ATOM     19  C   UNL A   1      33.340  27.851  25.012  1.00  0.00     0.092 A 
BRANCH  16  20
ATOM     20  C   UNL A   1      30.155  26.004  25.552  1.00  0.00     0.340 C 
ATOM     21  O   UNL A   1      29.355  26.136  24.632  1.00  0.00    -0.246 OA
BRANCH  20  22
ATOM     22  O   UNL A   1      30.031  25.104  26.570  1.00  0.00    -0.465 OA
ATOM     23  C   UNL A   1      30.576  23.809  26.318  1.00  0.00     0.282 C 
ENDBRANCH  20  22
ENDBRANCH  16  20
ENDBRANCH  13  15
ENDBRANCH  10  13
ENDBRANCH   5  10
ENDBRANCH   2   4
ENDBRANCH   1   2
BRANCH   1  24
ATOM     24  C   UNL A   1      35.809  20.624  25.142  1.00  0.00     0.275 C 
BRANCH  24  25
ATOM     25  C   UNL A   1      37.304  20.656  24.812  1.00  0.00     0.275 C 
BRANCH  25  26
ATOM     26  O   UNL A   1      37.968  21.759  25.458  1.00  0.00    -0.458 OA
BRANCH  26  27
ATOM     27  C   UNL A   1      39.117  21.443  26.094  1.00  0.00     0.338 C 
ATOM     28  O   UNL A   1      39.661  20.352  26.142  1.00  0.00    -0.246 OA
BRANCH  27  29
ATOM     29  C   UNL A   1      39.705  22.648  26.693  1.00  0.00     0.060 A 
ATOM     30  C   UNL A   1      39.321  23.891  26.197  1.00  0.00     0.016 A 
ATOM     31  C   UNL A   1      40.738  22.549  27.622  1.00  0.00     0.016 A 
ATOM     32  C   UNL A   1      40.022  25.038  26.544  1.00  0.00     0.010 A 
ATOM     33  C   UNL A   1      41.386  23.715  28.041  1.00  0.00     0.010 A 
ATOM     34  C   UNL A   1      41.055  24.965  27.481  1.00  0.00    -0.014 A 
BRANCH  34  35
ATOM     35  C   UNL A   1      41.821  26.180  27.850  1.00  0.00     0.031 A 
ATOM     36  C   UNL A   1      41.163  27.248  28.675  1.00  0.00     0.074 A 
ATOM     37  C   UNL A   1      43.094  26.333  27.438  1.00  0.00     0.049 A 
ATOM     38  N   UNL A   1      41.543  28.480  28.896  1.00  0.00    -0.248 NA
ATOM     39  C   UNL A   1      39.894  26.882  29.326  1.00  0.00     0.031 C 
ATOM     40  C   UNL A   1      43.875  25.338  26.701  1.00  0.00     0.029 A 
ATOM     41  N   UNL A   1      43.952  27.396  27.569  1.00  0.00    -0.354 N 
ATOM     42  C   UNL A   1      40.538  29.052  29.664  1.00  0.00     0.074 A 
ATOM     43  C   UNL A   1      39.527  28.035  29.867  1.00  0.00     0.031 C 
ATOM     44  C   UNL A   1      45.095  25.834  26.448  1.00  0.00     0.029 A 
ATOM     45  C   UNL A   1      45.152  27.211  26.927  1.00  0.00     0.049 A 
ATOM     46  H   UNL A   1      43.729  28.212  28.074  1.00  0.00     0.167 HD
ATOM     47  C   UNL A   1      40.467  30.315  30.148  1.00  0.00     0.037 A 
ATOM     48  C   UNL A   1      46.161  28.071  26.697  1.00  0.00     0.037 A 
ATOM     49  C   UNL A   1      41.503  31.300  29.971  1.00  0.00     0.049 A 
ATOM     50  C   UNL A   1      46.035  29.485  27.188  1.00  0.00     0.074 A 
ATOM     51  C   UNL A   1      41.537  32.608  30.418  1.00  0.00     0.029 A 
ATOM     52  N   UNL A   1      42.698  31.072  29.303  1.00  0.00    -0.354 N 
ATOM     53  N   UNL A   1      45.055  30.043  27.857  1.00  0.00    -0.248 NA
ATOM     54  C   UNL A   1      47.147  30.396  26.879  1.00  0.00     0.031 C 
ATOM     55  C   UNL A   1      42.735  33.185  29.986  1.00  0.00     0.029 A 
ATOM     56  C   UNL A   1      43.470  32.221  29.315  1.00  0.00     0.049 A 
ATOM     57  H   UNL A   1      42.957  30.222  28.882  1.00  0.00     0.167 HD
ATOM     58  C   UNL A   1      45.444  31.357  28.078  1.00  0.00     0.074 A 
ATOM     59  C   UNL A   1      46.751  31.513  27.472  1.00  0.00     0.031 C 
ATOM     60  C   UNL A   1      44.780  32.345  28.726  1.00  0.00     0.037 A 
BRANCH  47  61
ATOM     61  C   UNL A   1      39.215  30.712  30.873  1.00  0.00     0.057 A 
ATOM     62  C   UNL A   1      39.079  30.580  32.261  1.00  0.00     0.134 A 
ATOM     63  C   UNL A   1      38.131  31.255  30.169  1.00  0.00     0.134 A 
ATOM     64  F   UNL A   1      40.073  30.056  32.994  1.00  0.00    -0.206 F 
ATOM     65  C   UNL A   1      37.902  30.947  32.918  1.00  0.00     0.040 A 
ATOM     66  C   UNL A   1      36.961  31.652  30.818  1.00  0.00     0.040 A 
ATOM     67  F   UNL A   1      38.195  31.416  28.840  1.00  0.00    -0.206 F 
ATOM     68  C   UNL A   1      36.841  31.490  32.196  1.00  0.00     0.006 A 
ENDBRANCH  47  61
BRANCH  48  69
ATOM     69  C   UNL A   1      47.354  27.628  25.933  1.00  0.00     0.057 A 
ATOM     70  C   UNL A   1      48.480  27.114  26.585  1.00  0.00     0.134 A 
ATOM     71  C   UNL A   1      47.395  27.699  24.534  1.00  0.00     0.134 A 
ATOM     72  F   UNL A   1      48.510  27.040  27.923  1.00  0.00    -0.206 F 
ATOM     73  C   UNL A   1      49.608  26.696  25.876  1.00  0.00     0.040 A 
ATOM     74  C   UNL A   1      48.505  27.258  23.812  1.00  0.00     0.040 A 
ATOM     75  F   UNL A   1      46.348  28.178  23.848  1.00  0.00    -0.206 F 
ATOM     76  C   UNL A   1      49.618  26.760  24.484  1.00  0.00     0.006 A 
ENDBRANCH  48  69
BRANCH  60  77
ATOM     77  C   UNL A   1      45.481  33.661  28.872  1.00  0.00     0.057 A 
ATOM     78  C   UNL A   1      46.347  33.929  29.940  1.00  0.00     0.134 A 
ATOM     79  C   UNL A   1      45.329  34.653  27.894  1.00  0.00     0.134 A 
ATOM     80  F   UNL A   1      46.522  33.025  30.916  1.00  0.00    -0.206 F 
ATOM     81  C   UNL A   1      47.026  35.143  30.036  1.00  0.00     0.040 A 
ATOM     82  C   UNL A   1      46.023  35.860  27.967  1.00  0.00     0.040 A 
ATOM     83  F   UNL A   1      44.519  34.455  26.843  1.00  0.00    -0.206 F 
ATOM     84  C   UNL A   1      46.873  36.110  29.042  1.00  0.00     0.006 A 
ENDBRANCH  60  77
ENDBRANCH  34  35
ENDBRANCH  27  29
ENDBRANCH  26  27
ENDBRANCH  25  26
ENDBRANCH  24  25
ENDBRANCH   1  24
TORSDOF 16
ENDMDL
