MODEL 1
REMARK VINA RESULT:     -11.3      0.000      0.000
REMARK SMILES C[C@@H]1CCC[C@H](S[C@@H]2CCC[C@]([NH2+]C3CC3)(C(=O)OCCOC(=O)c3ccc(-c4c5nc(c(-c6c(F)cccc6F)c6ccc([nH]6)c(-c6c(F)cccc6F)c6nc(c(-c7c(F)cccc7F)c7ccc4[nH]7)C=C6)C=C5)cc3)C2)C1
REMARK SMILES IDX 20 1 19 2 17 3 18 4 12 5 8 6 9 7 79 8 10 9 11 10 7 11 6 12
REMARK SMILES IDX 1 13 2 14 3 15 80 16 4 17 5 18 13 19 14 22 15 23 16 24 21 25
REMARK SMILES IDX 22 26 23 27 24 28 25 29 26 30 78 31 27 32 77 33 28 34 29 35
REMARK SMILES IDX 30 36 71 37 31 38 76 39 70 40 72 41 32 42 75 43 69 44 68 45
REMARK SMILES IDX 33 47 59 48 42 49 58 50 43 51 46 52 57 53 73 54 44 55 45 56
REMARK SMILES IDX 56 58 74 59 47 60 34 61 35 62 40 63 36 64 37 65 39 66 41 67
REMARK SMILES IDX 38 68 60 69 61 70 66 71 62 72 63 73 65 74 67 75 64 76 48 77
REMARK SMILES IDX 49 78 54 79 50 80 51 81 53 82 55 83 52 84
REMARK H PARENT 13 20 13 21 72 46 46 57
REMARK Flexibility Score: inf
ROOT
ATOM      1  C   UNL A   1      32.350  30.941  26.906  1.00  0.00     0.274 C 
ENDROOT
BRANCH   1   2
ATOM      2  O   UNL A   1      32.747  30.201  25.733  1.00  0.00    -0.457 OA
BRANCH   2   3
ATOM      3  C   UNL A   1      32.074  29.029  25.541  1.00  0.00     0.368 C 
ATOM      4  O   UNL A   1      31.488  28.432  26.440  1.00  0.00    -0.245 OA
BRANCH   3   5
ATOM      5  C   UNL A   1      32.086  28.548  24.058  1.00  0.00     0.195 C 
ATOM      6  C   UNL A   1      32.098  26.270  22.820  1.00  0.00     0.053 C 
ATOM      7  C   UNL A   1      33.525  26.515  22.343  1.00  0.00     0.015 C 
ATOM      8  C   UNL A   1      31.794  27.029  24.105  1.00  0.00     0.095 C 
ATOM      9  C   UNL A   1      33.793  28.015  22.199  1.00  0.00     0.008 C 
ATOM     10  C   UNL A   1      33.531  28.750  23.519  1.00  0.00     0.081 C 
BRANCH   6  11
ATOM     11  S   UNL A   1      31.526  24.514  22.866  1.00  0.00    -0.155 SA
BRANCH  11  12
ATOM     12  C   UNL A   1      32.749  23.394  23.704  1.00  0.00     0.047 C 
ATOM     13  C   UNL A   1      34.181  25.674  25.752  1.00  0.00     0.007 C 
ATOM     14  C   UNL A   1      34.137  24.154  25.805  1.00  0.00    -0.013 C 
ATOM     15  C   UNL A   1      35.369  23.541  25.139  1.00  0.00     0.003 C 
ATOM     16  C   UNL A   1      32.833  23.570  25.235  1.00  0.00     0.017 C 
ATOM     17  C   UNL A   1      35.309  23.642  23.616  1.00  0.00     0.001 C 
ATOM     18  C   UNL A   1      34.064  22.965  23.053  1.00  0.00     0.014 C 
ENDBRANCH  11  12
ENDBRANCH   6  11
BRANCH   5  19
ATOM     19  N   UNL A   1      31.254  29.440  23.225  1.00  0.00    -0.330 N 
ATOM     20  H   UNL A   1      31.240  29.010  22.300  1.00  0.00     0.347 HD
ATOM     21  H   UNL A   1      31.717  30.332  23.399  1.00  0.00     0.347 HD
BRANCH  19  22
ATOM     22  C   UNL A   1      29.878  29.803  23.503  1.00  0.00     0.183 C 
ATOM     23  C   UNL A   1      28.918  30.505  22.593  1.00  0.00     0.071 C 
ATOM     24  C   UNL A   1      28.827  29.023  22.741  1.00  0.00     0.071 C 
ENDBRANCH  19  22
ENDBRANCH   5  19
ENDBRANCH   3   5
ENDBRANCH   2   3
ENDBRANCH   1   2
BRANCH   1  25
ATOM     25  C   UNL A   1      33.571  31.567  27.571  1.00  0.00     0.275 C 
BRANCH  25  26
ATOM     26  O   UNL A   1      34.409  30.505  28.069  1.00  0.00    -0.458 OA
BRANCH  26  27
ATOM     27  C   UNL A   1      35.441  30.906  28.844  1.00  0.00     0.338 C 
ATOM     28  O   UNL A   1      35.458  31.828  29.638  1.00  0.00    -0.246 OA
BRANCH  27  29
ATOM     29  C   UNL A   1      36.605  30.025  28.651  1.00  0.00     0.060 A 
ATOM     30  C   UNL A   1      37.119  29.330  29.740  1.00  0.00     0.016 A 
ATOM     31  C   UNL A   1      37.316  30.081  27.454  1.00  0.00     0.016 A 
ATOM     32  C   UNL A   1      38.407  28.791  29.665  1.00  0.00     0.010 A 
ATOM     33  C   UNL A   1      38.571  29.467  27.359  1.00  0.00     0.010 A 
ATOM     34  C   UNL A   1      39.161  28.859  28.481  1.00  0.00    -0.014 A 
BRANCH  34  35
ATOM     35  C   UNL A   1      40.581  28.387  28.439  1.00  0.00     0.031 A 
ATOM     36  C   UNL A   1      41.707  29.310  28.847  1.00  0.00     0.074 A 
ATOM     37  C   UNL A   1      40.895  27.120  28.102  1.00  0.00     0.049 A 
ATOM     38  N   UNL A   1      42.997  29.184  28.647  1.00  0.00    -0.248 NA
ATOM     39  C   UNL A   1      41.334  30.536  29.569  1.00  0.00     0.031 C 
ATOM     40  C   UNL A   1      39.937  26.064  27.775  1.00  0.00     0.029 A 
ATOM     41  N   UNL A   1      42.117  26.494  28.009  1.00  0.00    -0.354 N 
ATOM     42  C   UNL A   1      43.576  30.347  29.140  1.00  0.00     0.074 A 
ATOM     43  C   UNL A   1      42.503  31.152  29.685  1.00  0.00     0.031 C 
ATOM     44  C   UNL A   1      40.598  24.908  27.608  1.00  0.00     0.029 A 
ATOM     45  C   UNL A   1      42.032  25.162  27.687  1.00  0.00     0.049 A 
ATOM     46  H   UNL A   1      42.972  26.960  28.158  1.00  0.00     0.167 HD
ATOM     47  C   UNL A   1      44.880  30.716  29.120  1.00  0.00     0.037 A 
ATOM     48  C   UNL A   1      42.992  24.252  27.431  1.00  0.00     0.037 A 
ATOM     49  C   UNL A   1      45.959  29.883  28.653  1.00  0.00     0.049 A 
ATOM     50  C   UNL A   1      44.430  24.683  27.385  1.00  0.00     0.074 A 
ATOM     51  C   UNL A   1      47.305  30.193  28.535  1.00  0.00     0.029 A 
ATOM     52  N   UNL A   1      45.820  28.561  28.267  1.00  0.00    -0.354 N 
ATOM     53  N   UNL A   1      44.951  25.852  27.668  1.00  0.00    -0.248 NA
ATOM     54  C   UNL A   1      45.405  23.685  26.924  1.00  0.00     0.031 C 
ATOM     55  C   UNL A   1      47.977  29.058  28.064  1.00  0.00     0.029 A 
ATOM     56  C   UNL A   1      47.054  28.038  27.913  1.00  0.00     0.049 A 
ATOM     57  H   UNL A   1      44.970  28.065  28.247  1.00  0.00     0.167 HD
ATOM     58  C   UNL A   1      46.307  25.736  27.399  1.00  0.00     0.074 A 
ATOM     59  C   UNL A   1      46.538  24.374  26.966  1.00  0.00     0.031 C 
ATOM     60  C   UNL A   1      47.271  26.685  27.480  1.00  0.00     0.037 A 
BRANCH  47  61
ATOM     61  C   UNL A   1      45.213  32.111  29.557  1.00  0.00     0.057 A 
ATOM     62  C   UNL A   1      45.622  32.413  30.859  1.00  0.00     0.134 A 
ATOM     63  C   UNL A   1      45.172  33.161  28.629  1.00  0.00     0.134 A 
ATOM     64  F   UNL A   1      45.673  31.455  31.796  1.00  0.00    -0.206 F 
ATOM     65  C   UNL A   1      45.967  33.716  31.229  1.00  0.00     0.040 A 
ATOM     66  C   UNL A   1      45.530  34.463  28.981  1.00  0.00     0.040 A 
ATOM     67  F   UNL A   1      44.796  32.934  27.361  1.00  0.00    -0.206 F 
ATOM     68  C   UNL A   1      45.928  34.743  30.286  1.00  0.00     0.006 A 
ENDBRANCH  47  61
BRANCH  48  69
ATOM     69  C   UNL A   1      42.617  22.850  27.119  1.00  0.00     0.057 A 
ATOM     70  C   UNL A   1      42.588  22.390  25.798  1.00  0.00     0.134 A 
ATOM     71  C   UNL A   1      42.293  21.936  28.128  1.00  0.00     0.134 A 
ATOM     72  F   UNL A   1      42.857  23.227  24.785  1.00  0.00    -0.206 F 
ATOM     73  C   UNL A   1      42.262  21.067  25.493  1.00  0.00     0.040 A 
ATOM     74  C   UNL A   1      41.993  20.605  27.841  1.00  0.00     0.040 A 
ATOM     75  F   UNL A   1      42.295  22.319  29.414  1.00  0.00    -0.206 F 
ATOM     76  C   UNL A   1      41.975  20.169  26.519  1.00  0.00     0.006 A 
ENDBRANCH  48  69
BRANCH  60  77
ATOM     77  C   UNL A   1      48.659  26.278  27.092  1.00  0.00     0.057 A 
ATOM     78  C   UNL A   1      49.139  26.478  25.792  1.00  0.00     0.134 A 
ATOM     79  C   UNL A   1      49.528  25.702  28.026  1.00  0.00     0.134 A 
ATOM     80  F   UNL A   1      48.346  27.012  24.850  1.00  0.00    -0.206 F 
ATOM     81  C   UNL A   1      50.433  26.104  25.429  1.00  0.00     0.040 A 
ATOM     82  C   UNL A   1      50.829  25.337  27.678  1.00  0.00     0.040 A 
ATOM     83  F   UNL A   1      49.126  25.488  29.288  1.00  0.00    -0.206 F 
ATOM     84  C   UNL A   1      51.283  25.534  26.375  1.00  0.00     0.006 A 
ENDBRANCH  60  77
ENDBRANCH  34  35
ENDBRANCH  27  29
ENDBRANCH  26  27
ENDBRANCH  25  26
ENDBRANCH   1  25
TORSDOF 15
ENDMDL
MODEL 2
REMARK VINA RESULT:     -11.2      4.337      7.799
REMARK SMILES C[C@@H]1CCC[C@H](S[C@@H]2CCC[C@]([NH2+]C3CC3)(C(=O)OCCOC(=O)c3ccc(-c4c5nc(c(-c6c(F)cccc6F)c6ccc([nH]6)c(-c6c(F)cccc6F)c6nc(c(-c7c(F)cccc7F)c7ccc4[nH]7)C=C6)C=C5)cc3)C2)C1
REMARK SMILES IDX 20 1 19 2 17 3 18 4 12 5 8 6 9 7 79 8 10 9 11 10 7 11 6 12
REMARK SMILES IDX 1 13 2 14 3 15 80 16 4 17 5 18 13 19 14 22 15 23 16 24 21 25
REMARK SMILES IDX 22 26 23 27 24 28 25 29 26 30 78 31 27 32 77 33 28 34 29 35
REMARK SMILES IDX 30 36 71 37 31 38 76 39 70 40 72 41 32 42 75 43 69 44 68 45
REMARK SMILES IDX 33 47 59 48 42 49 58 50 43 51 46 52 57 53 73 54 44 55 45 56
REMARK SMILES IDX 56 58 74 59 47 60 34 61 35 62 40 63 36 64 37 65 39 66 41 67
REMARK SMILES IDX 38 68 60 69 61 70 66 71 62 72 63 73 65 74 67 75 64 76 48 77
REMARK SMILES IDX 49 78 54 79 50 80 51 81 53 82 55 83 52 84
REMARK H PARENT 13 20 13 21 72 46 46 57
REMARK Flexibility Score: inf
ROOT
ATOM      1  C   UNL A   1      31.396  27.495  26.260  1.00  0.00     0.274 C 
ENDROOT
BRANCH   1   2
ATOM      2  O   UNL A   1      32.513  26.585  26.324  1.00  0.00    -0.457 OA
BRANCH   2   3
ATOM      3  C   UNL A   1      32.188  25.267  26.166  1.00  0.00     0.368 C 
ATOM      4  O   UNL A   1      31.358  24.690  26.862  1.00  0.00    -0.245 OA
BRANCH   3   5
ATOM      5  C   UNL A   1      32.944  24.584  24.986  1.00  0.00     0.195 C 
ATOM      6  C   UNL A   1      33.297  22.163  24.131  1.00  0.00     0.053 C 
ATOM      7  C   UNL A   1      34.768  22.216  24.527  1.00  0.00     0.015 C 
ATOM      8  C   UNL A   1      32.452  23.117  24.964  1.00  0.00     0.095 C 
ATOM      9  C   UNL A   1      35.290  23.653  24.457  1.00  0.00     0.008 C 
ATOM     10  C   UNL A   1      34.458  24.585  25.345  1.00  0.00     0.081 C 
BRANCH   6  11
ATOM     11  S   UNL A   1      32.541  20.485  23.966  1.00  0.00    -0.155 SA
BRANCH  11  12
ATOM     12  C   UNL A   1      33.345  19.234  25.081  1.00  0.00     0.047 C 
ATOM     13  C   UNL A   1      34.075  16.894  22.749  1.00  0.00     0.007 C 
ATOM     14  C   UNL A   1      34.633  17.141  24.143  1.00  0.00    -0.013 C 
ATOM     15  C   UNL A   1      33.904  16.299  25.189  1.00  0.00     0.003 C 
ATOM     16  C   UNL A   1      34.653  18.631  24.527  1.00  0.00     0.017 C 
ATOM     17  C   UNL A   1      32.506  16.836  25.488  1.00  0.00     0.001 C 
ATOM     18  C   UNL A   1      32.547  18.281  25.971  1.00  0.00     0.014 C 
ENDBRANCH  11  12
ENDBRANCH   6  11
BRANCH   5  19
ATOM     19  N   UNL A   1      32.853  25.417  23.770  1.00  0.00    -0.330 N 
ATOM     20  H   UNL A   1      33.588  25.074  23.151  1.00  0.00     0.347 HD
ATOM     21  H   UNL A   1      32.889  26.348  24.186  1.00  0.00     0.347 HD
BRANCH  19  22
ATOM     22  C   UNL A   1      31.676  25.553  22.933  1.00  0.00     0.183 C 
ATOM     23  C   UNL A   1      31.028  26.820  22.468  1.00  0.00     0.071 C 
ATOM     24  C   UNL A   1      31.923  26.076  21.534  1.00  0.00     0.071 C 
ENDBRANCH  19  22
ENDBRANCH   5  19
ENDBRANCH   3   5
ENDBRANCH   2   3
ENDBRANCH   1   2
BRANCH   1  25
ATOM     25  C   UNL A   1      31.696  28.752  27.069  1.00  0.00     0.275 C 
BRANCH  25  26
ATOM     26  O   UNL A   1      32.438  29.663  26.232  1.00  0.00    -0.458 OA
BRANCH  26  27
ATOM     27  C   UNL A   1      32.897  30.769  26.857  1.00  0.00     0.338 C 
ATOM     28  O   UNL A   1      32.274  31.779  27.130  1.00  0.00    -0.246 OA
BRANCH  27  29
ATOM     29  C   UNL A   1      34.307  30.599  27.243  1.00  0.00     0.060 A 
ATOM     30  C   UNL A   1      34.847  29.318  27.295  1.00  0.00     0.016 A 
ATOM     31  C   UNL A   1      35.008  31.679  27.775  1.00  0.00     0.016 A 
ATOM     32  C   UNL A   1      36.040  29.104  27.992  1.00  0.00     0.010 A 
ATOM     33  C   UNL A   1      36.243  31.469  28.400  1.00  0.00     0.010 A 
ATOM     34  C   UNL A   1      36.754  30.170  28.566  1.00  0.00    -0.014 A 
BRANCH  34  35
ATOM     35  C   UNL A   1      37.965  29.925  29.411  1.00  0.00     0.031 A 
ATOM     36  C   UNL A   1      39.149  29.169  28.852  1.00  0.00     0.074 A 
ATOM     37  C   UNL A   1      38.066  30.419  30.662  1.00  0.00     0.049 A 
ATOM     38  N   UNL A   1      40.170  28.642  29.483  1.00  0.00    -0.248 NA
ATOM     39  C   UNL A   1      39.187  28.977  27.394  1.00  0.00     0.031 C 
ATOM     40  C   UNL A   1      37.069  31.253  31.330  1.00  0.00     0.029 A 
ATOM     41  N   UNL A   1      39.080  30.315  31.587  1.00  0.00    -0.354 N 
ATOM     42  C   UNL A   1      40.922  27.987  28.515  1.00  0.00     0.074 A 
ATOM     43  C   UNL A   1      40.263  28.216  27.246  1.00  0.00     0.031 C 
ATOM     44  C   UNL A   1      37.555  31.657  32.514  1.00  0.00     0.029 A 
ATOM     45  C   UNL A   1      38.842  31.010  32.747  1.00  0.00     0.049 A 
ATOM     46  H   UNL A   1      39.898  29.790  31.430  1.00  0.00     0.167 HD
ATOM     47  C   UNL A   1      42.047  27.248  28.674  1.00  0.00     0.037 A 
ATOM     48  C   UNL A   1      39.546  31.083  33.894  1.00  0.00     0.037 A 
ATOM     49  C   UNL A   1      42.750  27.087  29.922  1.00  0.00     0.049 A 
ATOM     50  C   UNL A   1      40.774  30.236  34.065  1.00  0.00     0.074 A 
ATOM     51  C   UNL A   1      43.862  26.307  30.196  1.00  0.00     0.029 A 
ATOM     52  N   UNL A   1      42.433  27.754  31.094  1.00  0.00    -0.354 N 
ATOM     53  N   UNL A   1      41.370  29.461  33.193  1.00  0.00    -0.248 NA
ATOM     54  C   UNL A   1      41.389  30.227  35.400  1.00  0.00     0.031 C 
ATOM     55  C   UNL A   1      44.209  26.493  31.540  1.00  0.00     0.029 A 
ATOM     56  C   UNL A   1      43.328  27.407  32.093  1.00  0.00     0.049 A 
ATOM     57  H   UNL A   1      41.683  28.382  31.201  1.00  0.00     0.167 HD
ATOM     58  C   UNL A   1      42.415  28.857  33.878  1.00  0.00     0.074 A 
ATOM     59  C   UNL A   1      42.396  29.382  35.227  1.00  0.00     0.031 C 
ATOM     60  C   UNL A   1      43.298  27.930  33.432  1.00  0.00     0.037 A 
BRANCH  47  61
ATOM     61  C   UNL A   1      42.558  26.496  27.483  1.00  0.00     0.057 A 
ATOM     62  C   UNL A   1      42.130  25.202  27.171  1.00  0.00     0.134 A 
ATOM     63  C   UNL A   1      43.459  27.111  26.603  1.00  0.00     0.134 A 
ATOM     64  F   UNL A   1      41.276  24.555  27.977  1.00  0.00    -0.206 F 
ATOM     65  C   UNL A   1      42.592  24.539  26.030  1.00  0.00     0.040 A 
ATOM     66  C   UNL A   1      43.913  26.468  25.452  1.00  0.00     0.040 A 
ATOM     67  F   UNL A   1      43.900  28.356  26.842  1.00  0.00    -0.206 F 
ATOM     68  C   UNL A   1      43.480  25.175  25.164  1.00  0.00     0.006 A 
ENDBRANCH  47  61
BRANCH  48  69
ATOM     69  C   UNL A   1      39.059  31.937  35.006  1.00  0.00     0.057 A 
ATOM     70  C   UNL A   1      39.322  33.311  35.025  1.00  0.00     0.134 A 
ATOM     71  C   UNL A   1      38.310  31.407  36.063  1.00  0.00     0.134 A 
ATOM     72  F   UNL A   1      40.062  33.872  34.058  1.00  0.00    -0.206 F 
ATOM     73  C   UNL A   1      38.848  34.130  36.052  1.00  0.00     0.040 A 
ATOM     74  C   UNL A   1      37.806  32.217  37.080  1.00  0.00     0.040 A 
ATOM     75  F   UNL A   1      38.032  30.096  36.104  1.00  0.00    -0.206 F 
ATOM     76  C   UNL A   1      38.077  33.583  37.077  1.00  0.00     0.006 A 
ENDBRANCH  48  69
BRANCH  60  77
ATOM     77  C   UNL A   1      44.309  27.427  34.414  1.00  0.00     0.057 A 
ATOM     78  C   UNL A   1      45.533  28.083  34.598  1.00  0.00     0.134 A 
ATOM     79  C   UNL A   1      44.053  26.295  35.195  1.00  0.00     0.134 A 
ATOM     80  F   UNL A   1      45.840  29.166  33.868  1.00  0.00    -0.206 F 
ATOM     81  C   UNL A   1      46.475  27.619  35.517  1.00  0.00     0.040 A 
ATOM     82  C   UNL A   1      44.982  25.829  36.126  1.00  0.00     0.040 A 
ATOM     83  F   UNL A   1      42.898  25.625  35.064  1.00  0.00    -0.206 F 
ATOM     84  C   UNL A   1      46.199  26.490  36.286  1.00  0.00     0.006 A 
ENDBRANCH  60  77
ENDBRANCH  34  35
ENDBRANCH  27  29
ENDBRANCH  26  27
ENDBRANCH  25  26
ENDBRANCH   1  25
TORSDOF 15
ENDMDL
MODEL 3
REMARK VINA RESULT:     -11.2      4.119      7.515
REMARK SMILES C[C@@H]1CCC[C@H](S[C@@H]2CCC[C@]([NH2+]C3CC3)(C(=O)OCCOC(=O)c3ccc(-c4c5nc(c(-c6c(F)cccc6F)c6ccc([nH]6)c(-c6c(F)cccc6F)c6nc(c(-c7c(F)cccc7F)c7ccc4[nH]7)C=C6)C=C5)cc3)C2)C1
REMARK SMILES IDX 20 1 19 2 17 3 18 4 12 5 8 6 9 7 79 8 10 9 11 10 7 11 6 12
REMARK SMILES IDX 1 13 2 14 3 15 80 16 4 17 5 18 13 19 14 22 15 23 16 24 21 25
REMARK SMILES IDX 22 26 23 27 24 28 25 29 26 30 78 31 27 32 77 33 28 34 29 35
REMARK SMILES IDX 30 36 71 37 31 38 76 39 70 40 72 41 32 42 75 43 69 44 68 45
REMARK SMILES IDX 33 47 59 48 42 49 58 50 43 51 46 52 57 53 73 54 44 55 45 56
REMARK SMILES IDX 56 58 74 59 47 60 34 61 35 62 40 63 36 64 37 65 39 66 41 67
REMARK SMILES IDX 38 68 60 69 61 70 66 71 62 72 63 73 65 74 67 75 64 76 48 77
REMARK SMILES IDX 49 78 54 79 50 80 51 81 53 82 55 83 52 84
REMARK H PARENT 13 20 13 21 72 46 46 57
REMARK Flexibility Score: inf
ROOT
ATOM      1  C   UNL A   1      32.470  29.613  24.749  1.00  0.00     0.274 C 
ENDROOT
BRANCH   1   2
ATOM      2  O   UNL A   1      32.710  28.272  25.225  1.00  0.00    -0.457 OA
BRANCH   2   3
ATOM      3  C   UNL A   1      32.740  27.315  24.251  1.00  0.00     0.368 C 
ATOM      4  O   UNL A   1      33.572  27.299  23.347  1.00  0.00    -0.245 OA
BRANCH   3   5
ATOM      5  C   UNL A   1      31.642  26.223  24.427  1.00  0.00     0.195 C 
ATOM      6  C   UNL A   1      31.419  23.967  25.683  1.00  0.00     0.053 C 
ATOM      7  C   UNL A   1      31.408  23.209  24.360  1.00  0.00     0.015 C 
ATOM      8  C   UNL A   1      32.143  25.301  25.564  1.00  0.00     0.095 C 
ATOM      9  C   UNL A   1      30.822  24.081  23.248  1.00  0.00     0.008 C 
ATOM     10  C   UNL A   1      31.600  25.394  23.110  1.00  0.00     0.081 C 
BRANCH   6  11
ATOM     11  S   UNL A   1      31.911  23.010  27.185  1.00  0.00    -0.155 SA
BRANCH  11  12
ATOM     12  C   UNL A   1      33.432  21.980  26.901  1.00  0.00     0.047 C 
ATOM     13  C   UNL A   1      34.987  24.003  24.680  1.00  0.00     0.007 C 
ATOM     14  C   UNL A   1      35.513  22.888  25.572  1.00  0.00    -0.013 C 
ATOM     15  C   UNL A   1      35.544  21.552  24.829  1.00  0.00     0.003 C 
ATOM     16  C   UNL A   1      34.754  22.777  26.905  1.00  0.00     0.017 C 
ATOM     17  C   UNL A   1      34.148  20.960  24.651  1.00  0.00     0.001 C 
ATOM     18  C   UNL A   1      33.446  20.754  25.988  1.00  0.00     0.014 C 
ENDBRANCH  11  12
ENDBRANCH   6  11
BRANCH   5  19
ATOM     19  N   UNL A   1      30.307  26.849  24.511  1.00  0.00    -0.330 N 
ATOM     20  H   UNL A   1      30.454  27.737  24.992  1.00  0.00     0.347 HD
ATOM     21  H   UNL A   1      29.777  26.088  24.934  1.00  0.00     0.347 HD
BRANCH  19  22
ATOM     22  C   UNL A   1      29.455  27.161  23.380  1.00  0.00     0.183 C 
ATOM     23  C   UNL A   1      28.098  27.792  23.406  1.00  0.00     0.071 C 
ATOM     24  C   UNL A   1      29.284  28.635  23.074  1.00  0.00     0.071 C 
ENDBRANCH  19  22
ENDBRANCH   5  19
ENDBRANCH   3   5
ENDBRANCH   2   3
ENDBRANCH   1   2
BRANCH   1  25
ATOM     25  C   UNL A   1      31.600  30.375  25.742  1.00  0.00     0.275 C 
BRANCH  25  26
ATOM     26  O   UNL A   1      32.283  30.404  27.012  1.00  0.00    -0.458 OA
BRANCH  26  27
ATOM     27  C   UNL A   1      32.997  31.526  27.252  1.00  0.00     0.338 C 
ATOM     28  O   UNL A   1      32.596  32.676  27.246  1.00  0.00    -0.246 OA
BRANCH  27  29
ATOM     29  C   UNL A   1      34.389  31.190  27.592  1.00  0.00     0.060 A 
ATOM     30  C   UNL A   1      34.736  29.860  27.800  1.00  0.00     0.016 A 
ATOM     31  C   UNL A   1      35.276  32.209  27.934  1.00  0.00     0.016 A 
ATOM     32  C   UNL A   1      35.928  29.557  28.464  1.00  0.00     0.010 A 
ATOM     33  C   UNL A   1      36.506  31.894  28.524  1.00  0.00     0.010 A 
ATOM     34  C   UNL A   1      36.829  30.565  28.849  1.00  0.00    -0.014 A 
BRANCH  34  35
ATOM     35  C   UNL A   1      38.045  30.248  29.663  1.00  0.00     0.031 A 
ATOM     36  C   UNL A   1      39.187  29.464  29.060  1.00  0.00     0.074 A 
ATOM     37  C   UNL A   1      38.187  30.701  30.926  1.00  0.00     0.049 A 
ATOM     38  N   UNL A   1      40.198  28.880  29.656  1.00  0.00    -0.248 NA
ATOM     39  C   UNL A   1      39.192  29.314  27.596  1.00  0.00     0.031 C 
ATOM     40  C   UNL A   1      37.235  31.553  31.637  1.00  0.00     0.029 A 
ATOM     41  N   UNL A   1      39.212  30.530  31.828  1.00  0.00    -0.354 N 
ATOM     42  C   UNL A   1      40.907  28.225  28.655  1.00  0.00     0.074 A 
ATOM     43  C   UNL A   1      40.235  28.516  27.406  1.00  0.00     0.031 C 
ATOM     44  C   UNL A   1      37.758  31.902  32.822  1.00  0.00     0.029 A 
ATOM     45  C   UNL A   1      39.023  31.199  33.012  1.00  0.00     0.049 A 
ATOM     46  H   UNL A   1      40.007  29.979  31.640  1.00  0.00     0.167 HD
ATOM     47  C   UNL A   1      42.004  27.438  28.772  1.00  0.00     0.037 A 
ATOM     48  C   UNL A   1      39.749  31.210  34.146  1.00  0.00     0.037 A 
ATOM     49  C   UNL A   1      42.723  27.213  30.000  1.00  0.00     0.049 A 
ATOM     50  C   UNL A   1      40.946  30.312  34.270  1.00  0.00     0.074 A 
ATOM     51  C   UNL A   1      43.808  26.383  30.231  1.00  0.00     0.029 A 
ATOM     52  N   UNL A   1      42.453  27.856  31.197  1.00  0.00    -0.354 N 
ATOM     53  N   UNL A   1      41.496  29.541  33.365  1.00  0.00    -0.248 NA
ATOM     54  C   UNL A   1      41.584  30.239  35.592  1.00  0.00     0.031 C 
ATOM     55  C   UNL A   1      44.186  26.515  31.573  1.00  0.00     0.029 A 
ATOM     56  C   UNL A   1      43.352  27.445  32.169  1.00  0.00     0.049 A 
ATOM     57  H   UNL A   1      41.730  28.510  31.336  1.00  0.00     0.167 HD
ATOM     58  C   UNL A   1      42.529  28.877  34.012  1.00  0.00     0.074 A 
ATOM     59  C   UNL A   1      42.554  29.362  35.376  1.00  0.00     0.031 C 
ATOM     60  C   UNL A   1      43.366  27.930  33.522  1.00  0.00     0.037 A 
BRANCH  47  61
ATOM     61  C   UNL A   1      42.464  26.702  27.549  1.00  0.00     0.057 A 
ATOM     62  C   UNL A   1      41.991  25.429  27.216  1.00  0.00     0.134 A 
ATOM     63  C   UNL A   1      43.361  27.314  26.663  1.00  0.00     0.134 A 
ATOM     64  F   UNL A   1      41.138  24.787  28.027  1.00  0.00    -0.206 F 
ATOM     65  C   UNL A   1      42.405  24.783  26.048  1.00  0.00     0.040 A 
ATOM     66  C   UNL A   1      43.768  26.687  25.485  1.00  0.00     0.040 A 
ATOM     67  F   UNL A   1      43.844  28.539  26.922  1.00  0.00    -0.206 F 
ATOM     68  C   UNL A   1      43.290  25.416  25.176  1.00  0.00     0.006 A 
ENDBRANCH  47  61
BRANCH  48  69
ATOM     69  C   UNL A   1      39.317  32.050  35.292  1.00  0.00     0.057 A 
ATOM     70  C   UNL A   1      39.759  33.371  35.423  1.00  0.00     0.134 A 
ATOM     71  C   UNL A   1      38.443  31.560  36.270  1.00  0.00     0.134 A 
ATOM     72  F   UNL A   1      40.622  33.886  34.536  1.00  0.00    -0.206 F 
ATOM     73  C   UNL A   1      39.338  34.178  36.482  1.00  0.00     0.040 A 
ATOM     74  C   UNL A   1      37.992  32.364  37.316  1.00  0.00     0.040 A 
ATOM     75  F   UNL A   1      37.990  30.299  36.203  1.00  0.00    -0.206 F 
ATOM     76  C   UNL A   1      38.442  33.677  37.425  1.00  0.00     0.006 A 
ENDBRANCH  48  69
BRANCH  60  77
ATOM     77  C   UNL A   1      44.374  27.359  34.470  1.00  0.00     0.057 A 
ATOM     78  C   UNL A   1      45.627  27.960  34.648  1.00  0.00     0.134 A 
ATOM     79  C   UNL A   1      44.087  26.216  35.225  1.00  0.00     0.134 A 
ATOM     80  F   UNL A   1      45.964  29.049  33.941  1.00  0.00    -0.206 F 
ATOM     81  C   UNL A   1      46.566  27.432  35.534  1.00  0.00     0.040 A 
ATOM     82  C   UNL A   1      45.013  25.688  36.124  1.00  0.00     0.040 A 
ATOM     83  F   UNL A   1      42.903  25.598  35.099  1.00  0.00    -0.206 F 
ATOM     84  C   UNL A   1      46.259  26.295  36.278  1.00  0.00     0.006 A 
ENDBRANCH  60  77
ENDBRANCH  34  35
ENDBRANCH  27  29
ENDBRANCH  26  27
ENDBRANCH  25  26
ENDBRANCH   1  25
TORSDOF 15
ENDMDL
