MODEL 1
REMARK VINA RESULT:      -9.7      0.000      0.000
REMARK SMILES CN(C)S(=O)(=O)c1c[nH]c(C(=O)OCCOC(=O)c2ccc(-c3c4nc(c(-c5c(F)cccc5F)c5ccc([nH]5)c(-c5c(F)cccc5F)c5nc(c(-c6c(F)cccc6F)c6ccc3[nH]6)C=C5)C=C4)cc2)c1
REMARK SMILES IDX 14 1 13 2 11 3 12 4 10 5 7 6 8 7 73 8 9 9 4 11 5 12 6 13
REMARK SMILES IDX 2 14 1 15 3 16 15 17 16 18 17 19 18 20 19 21 20 22 72 23
REMARK SMILES IDX 21 24 71 25 22 26 23 27 24 28 65 29 25 30 70 31 64 32 66 33
REMARK SMILES IDX 26 34 69 35 63 36 62 37 27 39 53 40 36 41 52 42 37 43 40 44
REMARK SMILES IDX 51 45 67 46 38 47 39 48 50 50 68 51 41 52 28 53 29 54 34 55
REMARK SMILES IDX 30 56 31 57 33 58 35 59 32 60 54 61 55 62 60 63 56 64 57 65
REMARK SMILES IDX 59 66 61 67 58 68 42 69 43 70 48 71 44 72 45 73 47 74 49 75
REMARK SMILES IDX 46 76
REMARK H PARENT 9 10 66 38 40 49
REMARK Flexibility Score: inf
ROOT
ATOM      1  C   UNL A   1      41.931  20.664  26.963  1.00  0.00     0.275 C 
ENDROOT
BRANCH   1   2
ATOM      2  O   UNL A   1      40.518  20.892  27.105  1.00  0.00    -0.457 OA
BRANCH   2   3
ATOM      3  C   UNL A   1      39.749  20.338  26.119  1.00  0.00     0.354 C 
ATOM      4  O   UNL A   1      39.856  19.204  25.703  1.00  0.00    -0.244 OA
BRANCH   3   5
ATOM      5  C   UNL A   1      38.707  21.251  25.695  1.00  0.00     0.126 A 
ATOM      6  C   UNL A   1      36.893  22.357  24.902  1.00  0.00     0.100 A 
ATOM      7  C   UNL A   1      37.754  23.282  25.455  1.00  0.00     0.105 A 
ATOM      8  C   UNL A   1      37.508  21.079  25.019  1.00  0.00     0.057 A 
ATOM      9  N   UNL A   1      38.829  22.602  25.952  1.00  0.00    -0.354 N 
ATOM     10  H   UNL A   1      39.585  23.018  26.426  1.00  0.00     0.166 HD
BRANCH   6  11
ATOM     11  S   UNL A   1      35.321  22.691  24.259  1.00  0.00     0.244 S 
ATOM     12  O   UNL A   1      34.613  21.429  24.332  1.00  0.00    -0.207 OA
ATOM     13  O   UNL A   1      35.603  23.328  22.991  1.00  0.00    -0.207 OA
BRANCH  11  14
ATOM     14  N   UNL A   1      34.500  23.809  25.254  1.00  0.00    -0.204 NA
ATOM     15  C   UNL A   1      34.402  25.148  24.624  1.00  0.00     0.124 C 
ATOM     16  C   UNL A   1      33.182  23.344  25.739  1.00  0.00     0.124 C 
ENDBRANCH  11  14
ENDBRANCH   6  11
ENDBRANCH   3   5
ENDBRANCH   2   3
ENDBRANCH   1   2
BRANCH   1  17
ATOM     17  C   UNL A   1      42.565  21.499  25.846  1.00  0.00     0.275 C 
BRANCH  17  18
ATOM     18  O   UNL A   1      42.050  22.833  25.735  1.00  0.00    -0.458 OA
BRANCH  18  19
ATOM     19  C   UNL A   1      42.948  23.792  26.052  1.00  0.00     0.338 C 
ATOM     20  O   UNL A   1      44.157  23.759  25.882  1.00  0.00    -0.246 OA
BRANCH  19  21
ATOM     21  C   UNL A   1      42.320  24.904  26.766  1.00  0.00     0.060 A 
ATOM     22  C   UNL A   1      42.968  26.143  26.735  1.00  0.00     0.016 A 
ATOM     23  C   UNL A   1      41.263  24.648  27.647  1.00  0.00     0.016 A 
ATOM     24  C   UNL A   1      42.591  27.125  27.634  1.00  0.00     0.010 A 
ATOM     25  C   UNL A   1      40.906  25.622  28.568  1.00  0.00     0.010 A 
ATOM     26  C   UNL A   1      41.583  26.850  28.564  1.00  0.00    -0.014 A 
BRANCH  26  27
ATOM     27  C   UNL A   1      41.177  27.926  29.487  1.00  0.00     0.031 A 
ATOM     28  C   UNL A   1      41.912  27.842  30.840  1.00  0.00     0.074 A 
ATOM     29  C   UNL A   1      40.215  28.769  29.010  1.00  0.00     0.049 A 
ATOM     30  N   UNL A   1      41.603  28.307  32.017  1.00  0.00    -0.248 NA
ATOM     31  C   UNL A   1      43.176  27.053  30.887  1.00  0.00     0.031 C 
ATOM     32  C   UNL A   1      39.593  28.690  27.668  1.00  0.00     0.029 A 
ATOM     33  N   UNL A   1      39.552  29.843  29.548  1.00  0.00    -0.354 N 
ATOM     34  C   UNL A   1      42.696  28.035  32.870  1.00  0.00     0.074 A 
ATOM     35  C   UNL A   1      43.575  27.165  32.153  1.00  0.00     0.031 C 
ATOM     36  C   UNL A   1      38.603  29.599  27.541  1.00  0.00     0.029 A 
ATOM     37  C   UNL A   1      38.487  30.363  28.765  1.00  0.00     0.049 A 
ATOM     38  H   UNL A   1      39.798  30.228  30.420  1.00  0.00     0.167 HD
ATOM     39  C   UNL A   1      42.921  28.659  34.063  1.00  0.00     0.037 A 
ATOM     40  C   UNL A   1      37.545  31.291  29.125  1.00  0.00     0.037 A 
ATOM     41  C   UNL A   1      41.900  29.595  34.387  1.00  0.00     0.049 A 
ATOM     42  C   UNL A   1      37.930  31.676  30.492  1.00  0.00     0.074 A 
ATOM     43  C   UNL A   1      40.771  29.641  35.166  1.00  0.00     0.029 A 
ATOM     44  N   UNL A   1      42.027  30.811  33.772  1.00  0.00    -0.354 N 
ATOM     45  N   UNL A   1      38.936  32.434  30.795  1.00  0.00    -0.248 NA
ATOM     46  C   UNL A   1      37.286  30.962  31.591  1.00  0.00     0.031 C 
ATOM     47  C   UNL A   1      40.131  30.870  34.853  1.00  0.00     0.029 A 
ATOM     48  C   UNL A   1      40.794  31.399  33.751  1.00  0.00     0.049 A 
ATOM     49  H   UNL A   1      42.860  31.194  33.411  1.00  0.00     0.167 HD
ATOM     50  C   UNL A   1      39.225  32.092  32.097  1.00  0.00     0.074 A 
ATOM     51  C   UNL A   1      38.119  31.275  32.575  1.00  0.00     0.031 C 
ATOM     52  C   UNL A   1      40.480  32.194  32.600  1.00  0.00     0.037 A 
BRANCH  39  53
ATOM     53  C   UNL A   1      44.197  28.779  34.872  1.00  0.00     0.057 A 
ATOM     54  C   UNL A   1      45.315  29.396  34.266  1.00  0.00     0.134 A 
ATOM     55  C   UNL A   1      44.481  27.980  35.988  1.00  0.00     0.134 A 
ATOM     56  F   UNL A   1      45.162  30.227  33.223  1.00  0.00    -0.206 F 
ATOM     57  C   UNL A   1      46.631  29.121  34.650  1.00  0.00     0.040 A 
ATOM     58  C   UNL A   1      45.797  27.744  36.419  1.00  0.00     0.040 A 
ATOM     59  F   UNL A   1      43.516  27.320  36.642  1.00  0.00    -0.206 F 
ATOM     60  C   UNL A   1      46.877  28.274  35.721  1.00  0.00     0.006 A 
ENDBRANCH  39  53
BRANCH  40  61
ATOM     61  C   UNL A   1      36.236  31.832  28.607  1.00  0.00     0.057 A 
ATOM     62  C   UNL A   1      35.125  31.079  28.216  1.00  0.00     0.134 A 
ATOM     63  C   UNL A   1      36.018  33.238  28.563  1.00  0.00     0.134 A 
ATOM     64  F   UNL A   1      35.194  29.750  28.083  1.00  0.00    -0.206 F 
ATOM     65  C   UNL A   1      33.875  31.664  27.925  1.00  0.00     0.040 A 
ATOM     66  C   UNL A   1      34.778  33.832  28.299  1.00  0.00     0.040 A 
ATOM     67  F   UNL A   1      37.009  34.111  28.794  1.00  0.00    -0.206 F 
ATOM     68  C   UNL A   1      33.688  33.039  28.000  1.00  0.00     0.006 A 
ENDBRANCH  40  61
BRANCH  52  69
ATOM     69  C   UNL A   1      41.501  32.734  31.621  1.00  0.00     0.057 A 
ATOM     70  C   UNL A   1      41.728  34.100  31.471  1.00  0.00     0.134 A 
ATOM     71  C   UNL A   1      42.204  31.896  30.733  1.00  0.00     0.134 A 
ATOM     72  F   UNL A   1      41.097  34.979  32.262  1.00  0.00    -0.206 F 
ATOM     73  C   UNL A   1      42.616  34.596  30.503  1.00  0.00     0.040 A 
ATOM     74  C   UNL A   1      43.099  32.367  29.773  1.00  0.00     0.040 A 
ATOM     75  F   UNL A   1      42.056  30.573  30.792  1.00  0.00    -0.206 F 
ATOM     76  C   UNL A   1      43.305  33.731  29.652  1.00  0.00     0.006 A 
ENDBRANCH  52  69
ENDBRANCH  26  27
ENDBRANCH  19  21
ENDBRANCH  18  19
ENDBRANCH  17  18
ENDBRANCH   1  17
TORSDOF 13
ENDMDL
MODEL 2
REMARK VINA RESULT:      -9.6      3.436      7.358
REMARK SMILES CN(C)S(=O)(=O)c1c[nH]c(C(=O)OCCOC(=O)c2ccc(-c3c4nc(c(-c5c(F)cccc5F)c5ccc([nH]5)c(-c5c(F)cccc5F)c5nc(c(-c6c(F)cccc6F)c6ccc3[nH]6)C=C5)C=C4)cc2)c1
REMARK SMILES IDX 14 1 13 2 11 3 12 4 10 5 7 6 8 7 73 8 9 9 4 11 5 12 6 13
REMARK SMILES IDX 2 14 1 15 3 16 15 17 16 18 17 19 18 20 19 21 20 22 72 23
REMARK SMILES IDX 21 24 71 25 22 26 23 27 24 28 65 29 25 30 70 31 64 32 66 33
REMARK SMILES IDX 26 34 69 35 63 36 62 37 27 39 53 40 36 41 52 42 37 43 40 44
REMARK SMILES IDX 51 45 67 46 38 47 39 48 50 50 68 51 41 52 28 53 29 54 34 55
REMARK SMILES IDX 30 56 31 57 33 58 35 59 32 60 54 61 55 62 60 63 56 64 57 65
REMARK SMILES IDX 59 66 61 67 58 68 42 69 43 70 48 71 44 72 45 73 47 74 49 75
REMARK SMILES IDX 46 76
REMARK H PARENT 9 10 66 38 40 49
REMARK Flexibility Score: inf
ROOT
ATOM      1  C   UNL A   1      31.891  29.022  24.328  1.00  0.00     0.275 C 
ENDROOT
BRANCH   1   2
ATOM      2  O   UNL A   1      30.628  28.368  24.109  1.00  0.00    -0.457 OA
BRANCH   2   3
ATOM      3  C   UNL A   1      30.449  27.882  22.844  1.00  0.00     0.354 C 
ATOM      4  O   UNL A   1      29.725  28.371  22.002  1.00  0.00    -0.244 OA
BRANCH   3   5
ATOM      5  C   UNL A   1      31.322  26.754  22.591  1.00  0.00     0.126 A 
ATOM      6  C   UNL A   1      32.587  24.872  22.558  1.00  0.00     0.100 A 
ATOM      7  C   UNL A   1      32.740  25.516  21.347  1.00  0.00     0.105 A 
ATOM      8  C   UNL A   1      31.722  25.670  23.357  1.00  0.00     0.057 A 
ATOM      9  N   UNL A   1      31.954  26.632  21.370  1.00  0.00    -0.354 N 
ATOM     10  H   UNL A   1      31.854  27.262  20.620  1.00  0.00     0.166 HD
BRANCH   6  11
ATOM     11  S   UNL A   1      33.264  23.337  22.983  1.00  0.00     0.244 S 
ATOM     12  O   UNL A   1      34.581  23.331  22.379  1.00  0.00    -0.207 OA
ATOM     13  O   UNL A   1      32.243  22.394  22.582  1.00  0.00    -0.207 OA
BRANCH  11  14
ATOM     14  N   UNL A   1      33.465  23.227  24.675  1.00  0.00    -0.204 NA
ATOM     15  C   UNL A   1      33.633  21.825  25.126  1.00  0.00     0.124 C 
ATOM     16  C   UNL A   1      34.525  24.101  25.223  1.00  0.00     0.124 C 
ENDBRANCH  11  14
ENDBRANCH   6  11
ENDBRANCH   3   5
ENDBRANCH   2   3
ENDBRANCH   1   2
BRANCH   1  17
ATOM     17  C   UNL A   1      31.892  29.930  25.563  1.00  0.00     0.275 C 
BRANCH  17  18
ATOM     18  O   UNL A   1      33.029  29.765  26.422  1.00  0.00    -0.458 OA
BRANCH  18  19
ATOM     19  C   UNL A   1      33.354  30.878  27.115  1.00  0.00     0.338 C 
ATOM     20  O   UNL A   1      32.687  31.894  27.238  1.00  0.00    -0.246 OA
BRANCH  19  21
ATOM     21  C   UNL A   1      34.712  30.801  27.653  1.00  0.00     0.060 A 
ATOM     22  C   UNL A   1      35.094  29.612  28.284  1.00  0.00     0.016 A 
ATOM     23  C   UNL A   1      35.481  31.966  27.751  1.00  0.00     0.016 A 
ATOM     24  C   UNL A   1      36.232  29.600  29.070  1.00  0.00     0.010 A 
ATOM     25  C   UNL A   1      36.606  31.962  28.563  1.00  0.00     0.010 A 
ATOM     26  C   UNL A   1      36.967  30.781  29.229  1.00  0.00    -0.014 A 
BRANCH  26  27
ATOM     27  C   UNL A   1      38.195  30.732  30.043  1.00  0.00     0.031 A 
ATOM     28  C   UNL A   1      39.295  29.873  29.388  1.00  0.00     0.074 A 
ATOM     29  C   UNL A   1      38.134  31.408  31.227  1.00  0.00     0.049 A 
ATOM     30  N   UNL A   1      40.326  29.261  29.898  1.00  0.00    -0.248 NA
ATOM     31  C   UNL A   1      39.181  29.610  27.925  1.00  0.00     0.031 C 
ATOM     32  C   UNL A   1      36.968  32.179  31.718  1.00  0.00     0.029 A 
ATOM     33  N   UNL A   1      39.018  31.575  32.264  1.00  0.00    -0.354 N 
ATOM     34  C   UNL A   1      41.061  28.719  28.820  1.00  0.00     0.074 A 
ATOM     35  C   UNL A   1      40.250  28.865  27.650  1.00  0.00     0.031 C 
ATOM     36  C   UNL A   1      37.186  32.640  32.968  1.00  0.00     0.029 A 
ATOM     37  C   UNL A   1      38.504  32.236  33.411  1.00  0.00     0.049 A 
ATOM     38  H   UNL A   1      39.949  31.258  32.215  1.00  0.00     0.167 HD
ATOM     39  C   UNL A   1      42.365  28.324  28.892  1.00  0.00     0.037 A 
ATOM     40  C   UNL A   1      39.086  32.371  34.644  1.00  0.00     0.037 A 
ATOM     41  C   UNL A   1      42.904  28.472  30.201  1.00  0.00     0.049 A 
ATOM     42  C   UNL A   1      40.401  31.731  34.487  1.00  0.00     0.074 A 
ATOM     43  C   UNL A   1      43.143  27.684  31.298  1.00  0.00     0.029 A 
ATOM     44  N   UNL A   1      43.315  29.741  30.506  1.00  0.00    -0.354 N 
ATOM     45  N   UNL A   1      41.406  32.240  33.847  1.00  0.00    -0.248 NA
ATOM     46  C   UNL A   1      40.505  30.325  34.868  1.00  0.00     0.031 C 
ATOM     47  C   UNL A   1      43.545  28.569  32.334  1.00  0.00     0.029 A 
ATOM     48  C   UNL A   1      43.323  29.861  31.867  1.00  0.00     0.049 A 
ATOM     49  H   UNL A   1      43.561  30.443  29.860  1.00  0.00     0.167 HD
ATOM     50  C   UNL A   1      42.169  31.146  33.508  1.00  0.00     0.074 A 
ATOM     51  C   UNL A   1      41.639  30.013  34.253  1.00  0.00     0.031 C 
ATOM     52  C   UNL A   1      42.955  31.138  32.403  1.00  0.00     0.037 A 
BRANCH  39  53
ATOM     53  C   UNL A   1      43.380  28.112  27.788  1.00  0.00     0.057 A 
ATOM     54  C   UNL A   1      44.025  26.856  27.707  1.00  0.00     0.134 A 
ATOM     55  C   UNL A   1      44.020  29.162  27.114  1.00  0.00     0.134 A 
ATOM     56  F   UNL A   1      43.480  25.765  28.266  1.00  0.00    -0.206 F 
ATOM     57  C   UNL A   1      45.286  26.690  27.127  1.00  0.00     0.040 A 
ATOM     58  C   UNL A   1      45.260  28.992  26.477  1.00  0.00     0.040 A 
ATOM     59  F   UNL A   1      43.527  30.408  27.130  1.00  0.00    -0.206 F 
ATOM     60  C   UNL A   1      45.919  27.768  26.525  1.00  0.00     0.006 A 
ENDBRANCH  39  53
BRANCH  40  61
ATOM     61  C   UNL A   1      38.697  32.801  36.037  1.00  0.00     0.057 A 
ATOM     62  C   UNL A   1      38.164  31.982  37.036  1.00  0.00     0.134 A 
ATOM     63  C   UNL A   1      38.945  34.136  36.462  1.00  0.00     0.134 A 
ATOM     64  F   UNL A   1      37.761  30.734  36.776  1.00  0.00    -0.206 F 
ATOM     65  C   UNL A   1      38.006  32.416  38.369  1.00  0.00     0.040 A 
ATOM     66  C   UNL A   1      38.816  34.574  37.785  1.00  0.00     0.040 A 
ATOM     67  F   UNL A   1      39.346  35.085  35.604  1.00  0.00    -0.206 F 
ATOM     68  C   UNL A   1      38.365  33.702  38.756  1.00  0.00     0.006 A 
ENDBRANCH  40  61
BRANCH  52  69
ATOM     69  C   UNL A   1      42.931  32.430  31.613  1.00  0.00     0.057 A 
ATOM     70  C   UNL A   1      43.758  33.504  31.932  1.00  0.00     0.134 A 
ATOM     71  C   UNL A   1      42.000  32.659  30.581  1.00  0.00     0.134 A 
ATOM     72  F   UNL A   1      44.669  33.387  32.909  1.00  0.00    -0.206 F 
ATOM     73  C   UNL A   1      43.671  34.727  31.247  1.00  0.00     0.040 A 
ATOM     74  C   UNL A   1      41.905  33.862  29.880  1.00  0.00     0.040 A 
ATOM     75  F   UNL A   1      41.161  31.696  30.201  1.00  0.00    -0.206 F 
ATOM     76  C   UNL A   1      42.746  34.909  30.219  1.00  0.00     0.006 A 
ENDBRANCH  52  69
ENDBRANCH  26  27
ENDBRANCH  19  21
ENDBRANCH  18  19
ENDBRANCH  17  18
ENDBRANCH   1  17
TORSDOF 13
ENDMDL
MODEL 3
REMARK VINA RESULT:      -9.6      3.538      8.305
REMARK SMILES CN(C)S(=O)(=O)c1c[nH]c(C(=O)OCCOC(=O)c2ccc(-c3c4nc(c(-c5c(F)cccc5F)c5ccc([nH]5)c(-c5c(F)cccc5F)c5nc(c(-c6c(F)cccc6F)c6ccc3[nH]6)C=C5)C=C4)cc2)c1
REMARK SMILES IDX 14 1 13 2 11 3 12 4 10 5 7 6 8 7 73 8 9 9 4 11 5 12 6 13
REMARK SMILES IDX 2 14 1 15 3 16 15 17 16 18 17 19 18 20 19 21 20 22 72 23
REMARK SMILES IDX 21 24 71 25 22 26 23 27 24 28 65 29 25 30 70 31 64 32 66 33
REMARK SMILES IDX 26 34 69 35 63 36 62 37 27 39 53 40 36 41 52 42 37 43 40 44
REMARK SMILES IDX 51 45 67 46 38 47 39 48 50 50 68 51 41 52 28 53 29 54 34 55
REMARK SMILES IDX 30 56 31 57 33 58 35 59 32 60 54 61 55 62 60 63 56 64 57 65
REMARK SMILES IDX 59 66 61 67 58 68 42 69 43 70 48 71 44 72 45 73 47 74 49 75
REMARK SMILES IDX 46 76
REMARK H PARENT 9 10 66 38 40 49
REMARK Flexibility Score: inf
ROOT
ATOM      1  C   UNL A   1      32.939  28.318  25.514  1.00  0.00     0.275 C 
ENDROOT
BRANCH   1   2
ATOM      2  O   UNL A   1      33.062  27.136  26.325  1.00  0.00    -0.457 OA
BRANCH   2   3
ATOM      3  C   UNL A   1      31.872  26.572  26.694  1.00  0.00     0.354 C 
ATOM      4  O   UNL A   1      30.923  27.175  27.150  1.00  0.00    -0.244 OA
BRANCH   3   5
ATOM      5  C   UNL A   1      31.843  25.159  26.375  1.00  0.00     0.126 A 
ATOM      6  C   UNL A   1      32.146  23.015  25.702  1.00  0.00     0.100 A 
ATOM      7  C   UNL A   1      30.947  23.089  26.380  1.00  0.00     0.105 A 
ATOM      8  C   UNL A   1      32.696  24.327  25.665  1.00  0.00     0.057 A 
ATOM      9  N   UNL A   1      30.789  24.378  26.802  1.00  0.00    -0.354 N 
ATOM     10  H   UNL A   1      30.029  24.703  27.336  1.00  0.00     0.166 HD
BRANCH   6  11
ATOM     11  S   UNL A   1      32.875  21.572  25.083  1.00  0.00     0.244 S 
ATOM     12  O   UNL A   1      33.466  21.965  23.820  1.00  0.00    -0.207 OA
ATOM     13  O   UNL A   1      31.806  20.599  25.148  1.00  0.00    -0.207 OA
BRANCH  11  14
ATOM     14  N   UNL A   1      34.135  21.057  26.113  1.00  0.00    -0.204 NA
ATOM     15  C   UNL A   1      35.473  21.327  25.534  1.00  0.00     0.124 C 
ATOM     16  C   UNL A   1      34.036  21.562  27.500  1.00  0.00     0.124 C 
ENDBRANCH  11  14
ENDBRANCH   6  11
ENDBRANCH   3   5
ENDBRANCH   2   3
ENDBRANCH   1   2
BRANCH   1  17
ATOM     17  C   UNL A   1      33.843  29.464  25.981  1.00  0.00     0.275 C 
BRANCH  17  18
ATOM     18  O   UNL A   1      34.560  29.199  27.195  1.00  0.00    -0.458 OA
BRANCH  18  19
ATOM     19  C   UNL A   1      35.149  30.291  27.729  1.00  0.00     0.338 C 
ATOM     20  O   UNL A   1      34.754  31.446  27.677  1.00  0.00    -0.246 OA
BRANCH  19  21
ATOM     21  C   UNL A   1      36.447  29.968  28.322  1.00  0.00     0.060 A 
ATOM     22  C   UNL A   1      37.578  30.079  27.506  1.00  0.00     0.016 A 
ATOM     23  C   UNL A   1      36.497  29.330  29.566  1.00  0.00     0.016 A 
ATOM     24  C   UNL A   1      38.765  29.496  27.913  1.00  0.00     0.010 A 
ATOM     25  C   UNL A   1      37.679  28.720  29.960  1.00  0.00     0.010 A 
ATOM     26  C   UNL A   1      38.802  28.795  29.125  1.00  0.00    -0.014 A 
BRANCH  26  27
ATOM     27  C   UNL A   1      40.088  28.213  29.552  1.00  0.00     0.031 A 
ATOM     28  C   UNL A   1      40.408  26.898  28.813  1.00  0.00     0.074 A 
ATOM     29  C   UNL A   1      40.741  28.904  30.532  1.00  0.00     0.049 A 
ATOM     30  N   UNL A   1      41.182  25.900  29.130  1.00  0.00    -0.248 NA
ATOM     31  C   UNL A   1      39.690  26.638  27.532  1.00  0.00     0.031 C 
ATOM     32  C   UNL A   1      40.271  30.163  31.154  1.00  0.00     0.029 A 
ATOM     33  N   UNL A   1      41.910  28.689  31.217  1.00  0.00    -0.354 N 
ATOM     34  C   UNL A   1      41.186  25.013  28.031  1.00  0.00     0.074 A 
ATOM     35  C   UNL A   1      40.165  25.459  27.134  1.00  0.00     0.031 C 
ATOM     36  C   UNL A   1      41.086  30.537  32.163  1.00  0.00     0.029 A 
ATOM     37  C   UNL A   1      42.165  29.580  32.293  1.00  0.00     0.049 A 
ATOM     38  H   UNL A   1      42.533  27.965  30.978  1.00  0.00     0.167 HD
ATOM     39  C   UNL A   1      42.129  24.049  27.817  1.00  0.00     0.037 A 
ATOM     40  C   UNL A   1      43.138  29.492  33.254  1.00  0.00     0.037 A 
ATOM     41  C   UNL A   1      43.098  23.998  28.857  1.00  0.00     0.049 A 
ATOM     42  C   UNL A   1      43.904  28.295  32.875  1.00  0.00     0.074 A 
ATOM     43  C   UNL A   1      43.341  23.255  29.986  1.00  0.00     0.029 A 
ATOM     44  N   UNL A   1      44.091  24.934  28.756  1.00  0.00    -0.354 N 
ATOM     45  N   UNL A   1      44.737  28.227  31.885  1.00  0.00    -0.248 NA
ATOM     46  C   UNL A   1      43.520  27.034  33.503  1.00  0.00     0.031 C 
ATOM     47  C   UNL A   1      44.417  23.901  30.652  1.00  0.00     0.029 A 
ATOM     48  C   UNL A   1      44.624  25.113  30.002  1.00  0.00     0.049 A 
ATOM     49  H   UNL A   1      44.372  25.395  27.933  1.00  0.00     0.167 HD
ATOM     50  C   UNL A   1      44.785  26.884  31.587  1.00  0.00     0.074 A 
ATOM     51  C   UNL A   1      44.117  26.185  32.675  1.00  0.00     0.031 C 
ATOM     52  C   UNL A   1      45.051  26.440  30.334  1.00  0.00     0.037 A 
BRANCH  39  53
ATOM     53  C   UNL A   1      42.499  23.317  26.543  1.00  0.00     0.057 A 
ATOM     54  C   UNL A   1      42.657  21.913  26.603  1.00  0.00     0.134 A 
ATOM     55  C   UNL A   1      43.087  23.942  25.435  1.00  0.00     0.134 A 
ATOM     56  F   UNL A   1      42.092  21.198  27.588  1.00  0.00    -0.206 F 
ATOM     57  C   UNL A   1      43.466  21.205  25.710  1.00  0.00     0.040 A 
ATOM     58  C   UNL A   1      43.853  23.230  24.498  1.00  0.00     0.040 A 
ATOM     59  F   UNL A   1      43.032  25.271  25.269  1.00  0.00    -0.206 F 
ATOM     60  C   UNL A   1      44.086  21.868  24.661  1.00  0.00     0.006 A 
ENDBRANCH  39  53
BRANCH  40  61
ATOM     61  C   UNL A   1      43.483  30.134  34.575  1.00  0.00     0.057 A 
ATOM     62  C   UNL A   1      44.607  30.920  34.845  1.00  0.00     0.134 A 
ATOM     63  C   UNL A   1      42.578  30.035  35.669  1.00  0.00     0.134 A 
ATOM     64  F   UNL A   1      45.614  31.022  33.972  1.00  0.00    -0.206 F 
ATOM     65  C   UNL A   1      44.759  31.640  36.048  1.00  0.00     0.040 A 
ATOM     66  C   UNL A   1      42.703  30.761  36.859  1.00  0.00     0.040 A 
ATOM     67  F   UNL A   1      41.506  29.230  35.625  1.00  0.00    -0.206 F 
ATOM     68  C   UNL A   1      43.791  31.591  37.045  1.00  0.00     0.006 A 
ENDBRANCH  40  61
BRANCH  52  69
ATOM     69  C   UNL A   1      45.310  27.540  29.325  1.00  0.00     0.057 A 
ATOM     70  C   UNL A   1      44.294  28.071  28.536  1.00  0.00     0.134 A 
ATOM     71  C   UNL A   1      46.608  28.015  29.053  1.00  0.00     0.134 A 
ATOM     72  F   UNL A   1      43.025  27.672  28.712  1.00  0.00    -0.206 F 
ATOM     73  C   UNL A   1      44.557  29.031  27.547  1.00  0.00     0.040 A 
ATOM     74  C   UNL A   1      46.890  28.978  28.083  1.00  0.00     0.040 A 
ATOM     75  F   UNL A   1      47.652  27.569  29.751  1.00  0.00    -0.206 F 
ATOM     76  C   UNL A   1      45.855  29.489  27.318  1.00  0.00     0.006 A 
ENDBRANCH  52  69
ENDBRANCH  26  27
ENDBRANCH  19  21
ENDBRANCH  18  19
ENDBRANCH  17  18
ENDBRANCH   1  17
TORSDOF 13
ENDMDL
