MODEL 1
REMARK VINA RESULT:     -11.0      0.000      0.000
REMARK SMILES C[C@H](NC(=O)N[C@](C)(C(=O)OCCOC(=O)c1ccc(-c2c3nc(c(-c4c(F)cccc4F)c4ccc([nH]4)c(-c4c(F)cccc4F)c4nc(c(-c5c(F)cccc5F)c5ccc2[nH]5)C=C4)C=C3)cc1)C(F)(F)F)C(N)=O
REMARK SMILES IDX 12 1 11 2 9 3 10 4 7 5 8 6 6 7 3 8 4 9 5 11 2 13 1 14 75 15
REMARK SMILES IDX 76 16 77 17 71 20 72 21 73 22 74 23 13 24 14 25 15 26 16 27
REMARK SMILES IDX 17 28 18 29 70 30 19 31 69 32 20 33 21 34 22 35 63 36 23 37
REMARK SMILES IDX 68 38 62 39 64 40 24 41 67 42 61 43 60 44 25 46 51 47 34 48
REMARK SMILES IDX 50 49 35 50 38 51 49 52 65 53 36 54 37 55 48 57 66 58 39 59
REMARK SMILES IDX 26 60 27 61 32 62 28 63 29 64 31 65 33 66 30 67 52 68 53 69
REMARK SMILES IDX 58 70 54 71 55 72 57 73 59 74 56 75 40 76 41 77 46 78 42 79
REMARK SMILES IDX 43 80 45 81 47 82 44 83
REMARK H PARENT 3 10 6 12 76 18 76 19 64 45 38 56
REMARK Flexibility Score: inf
ROOT
ATOM      1  C   UNL A   1      31.347  28.665  24.578  1.00  0.00     0.274 C 
ENDROOT
BRANCH   1   2
ATOM      2  O   UNL A   1      32.288  27.689  25.076  1.00  0.00    -0.460 OA
BRANCH   2   3
ATOM      3  C   UNL A   1      31.801  26.682  25.870  1.00  0.00     0.341 C 
ATOM      4  O   UNL A   1      31.128  26.879  26.871  1.00  0.00    -0.249 OA
BRANCH   3   5
ATOM      5  C   UNL A   1      32.125  25.311  25.261  1.00  0.00     0.232 C 
ATOM      6  C   UNL A   1      33.401  25.436  24.406  1.00  0.00     0.058 C 
BRANCH   5   7
ATOM      7  N   UNL A   1      32.429  24.411  26.394  1.00  0.00    -0.315 N 
ATOM      8  N   UNL A   1      32.165  22.223  27.003  1.00  0.00    -0.327 N 
ATOM      9  C   UNL A   1      31.613  23.461  26.889  1.00  0.00     0.316 C 
ATOM     10  H   UNL A   1      31.890  21.684  27.780  1.00  0.00     0.166 HD
ATOM     11  O   UNL A   1      30.466  23.682  27.246  1.00  0.00    -0.249 OA
ATOM     12  H   UNL A   1      33.308  24.516  26.825  1.00  0.00     0.166 HD
BRANCH   8  13
ATOM     13  C   UNL A   1      33.135  21.608  26.078  1.00  0.00     0.169 C 
ATOM     14  C   UNL A   1      34.542  21.621  26.696  1.00  0.00     0.041 C 
BRANCH  13  15
ATOM     15  C   UNL A   1      32.664  20.268  25.445  1.00  0.00     0.239 C 
ATOM     16  N   UNL A   1      32.924  19.110  26.120  1.00  0.00    -0.368 N 
ATOM     17  O   UNL A   1      32.142  20.196  24.332  1.00  0.00    -0.273 OA
ATOM     18  H   UNL A   1      33.342  19.142  27.010  1.00  0.00     0.159 HD
ATOM     19  H   UNL A   1      32.696  18.243  25.714  1.00  0.00     0.159 HD
ENDBRANCH  13  15
ENDBRANCH   8  13
ENDBRANCH   5   7
BRANCH   5  20
ATOM     20  C   UNL A   1      30.965  24.926  24.334  1.00  0.00     0.422 C 
ATOM     21  F   UNL A   1      29.777  25.353  24.841  1.00  0.00    -0.168 F 
ATOM     22  F   UNL A   1      31.071  25.537  23.128  1.00  0.00    -0.168 F 
ATOM     23  F   UNL A   1      30.868  23.598  24.124  1.00  0.00    -0.168 F 
ENDBRANCH   5  20
ENDBRANCH   3   5
ENDBRANCH   2   3
ENDBRANCH   1   2
BRANCH   1  24
ATOM     24  C   UNL A   1      31.438  29.964  25.378  1.00  0.00     0.275 C 
BRANCH  24  25
ATOM     25  O   UNL A   1      32.738  30.030  25.984  1.00  0.00    -0.458 OA
BRANCH  25  26
ATOM     26  C   UNL A   1      32.961  31.059  26.831  1.00  0.00     0.338 C 
ATOM     27  O   UNL A   1      32.213  31.977  27.108  1.00  0.00    -0.246 OA
BRANCH  26  28
ATOM     28  C   UNL A   1      34.279  30.857  27.460  1.00  0.00     0.060 A 
ATOM     29  C   UNL A   1      34.685  29.561  27.775  1.00  0.00     0.016 A 
ATOM     30  C   UNL A   1      35.065  31.943  27.828  1.00  0.00     0.016 A 
ATOM     31  C   UNL A   1      35.826  29.342  28.533  1.00  0.00     0.010 A 
ATOM     32  C   UNL A   1      36.273  31.716  28.496  1.00  0.00     0.010 A 
ATOM     33  C   UNL A   1      36.651  30.414  28.880  1.00  0.00    -0.014 A 
BRANCH  33  34
ATOM     34  C   UNL A   1      37.886  30.184  29.674  1.00  0.00     0.031 A 
ATOM     35  C   UNL A   1      39.008  29.380  29.084  1.00  0.00     0.074 A 
ATOM     36  C   UNL A   1      38.017  30.698  30.913  1.00  0.00     0.049 A 
ATOM     37  N   UNL A   1      40.046  28.845  29.675  1.00  0.00    -0.248 NA
ATOM     38  C   UNL A   1      38.947  29.130  27.634  1.00  0.00     0.031 C 
ATOM     39  C   UNL A   1      37.047  31.568  31.583  1.00  0.00     0.029 A 
ATOM     40  N   UNL A   1      39.027  30.564  31.830  1.00  0.00    -0.354 N 
ATOM     41  C   UNL A   1      40.718  28.137  28.688  1.00  0.00     0.074 A 
ATOM     42  C   UNL A   1      39.982  28.322  27.456  1.00  0.00     0.031 C 
ATOM     43  C   UNL A   1      37.526  31.917  32.785  1.00  0.00     0.029 A 
ATOM     44  C   UNL A   1      38.785  31.220  33.013  1.00  0.00     0.049 A 
ATOM     45  H   UNL A   1      39.847  30.047  31.658  1.00  0.00     0.167 HD
ATOM     46  C   UNL A   1      41.841  27.391  28.808  1.00  0.00     0.037 A 
ATOM     47  C   UNL A   1      39.473  31.218  34.170  1.00  0.00     0.037 A 
ATOM     48  C   UNL A   1      42.600  27.264  30.024  1.00  0.00     0.049 A 
ATOM     49  C   UNL A   1      40.698  30.363  34.291  1.00  0.00     0.074 A 
ATOM     50  C   UNL A   1      43.744  26.520  30.256  1.00  0.00     0.029 A 
ATOM     51  N   UNL A   1      42.302  27.922  31.207  1.00  0.00    -0.354 N 
ATOM     52  N   UNL A   1      41.265  29.600  33.388  1.00  0.00    -0.248 NA
ATOM     53  C   UNL A   1      41.360  30.337  35.603  1.00  0.00     0.031 C 
ATOM     54  C   UNL A   1      44.127  26.715  31.589  1.00  0.00     0.029 A 
ATOM     55  C   UNL A   1      43.239  27.603  32.175  1.00  0.00     0.049 A 
ATOM     56  H   UNL A   1      41.537  28.528  31.340  1.00  0.00     0.167 HD
ATOM     57  C   UNL A   1      42.352  29.010  34.017  1.00  0.00     0.074 A 
ATOM     58  C   UNL A   1      42.375  29.515  35.375  1.00  0.00     0.031 C 
ATOM     59  C   UNL A   1      43.244  28.122  33.518  1.00  0.00     0.037 A 
BRANCH  46  60
ATOM     60  C   UNL A   1      42.282  26.616  27.603  1.00  0.00     0.057 A 
ATOM     61  C   UNL A   1      43.147  27.153  26.643  1.00  0.00     0.134 A 
ATOM     62  C   UNL A   1      41.834  25.302  27.410  1.00  0.00     0.134 A 
ATOM     63  F   UNL A   1      43.593  28.412  26.760  1.00  0.00    -0.206 F 
ATOM     64  C   UNL A   1      43.536  26.417  25.521  1.00  0.00     0.040 A 
ATOM     65  C   UNL A   1      42.233  24.550  26.304  1.00  0.00     0.040 A 
ATOM     66  F   UNL A   1      41.003  24.728  28.292  1.00  0.00    -0.206 F 
ATOM     67  C   UNL A   1      43.082  25.110  25.352  1.00  0.00     0.006 A 
ENDBRANCH  46  60
BRANCH  47  68
ATOM     68  C   UNL A   1      38.979  32.015  35.320  1.00  0.00     0.057 A 
ATOM     69  C   UNL A   1      38.213  31.422  36.330  1.00  0.00     0.134 A 
ATOM     70  C   UNL A   1      39.276  33.377  35.450  1.00  0.00     0.134 A 
ATOM     71  F   UNL A   1      37.875  30.127  36.248  1.00  0.00    -0.206 F 
ATOM     72  C   UNL A   1      37.759  32.156  37.427  1.00  0.00     0.040 A 
ATOM     73  C   UNL A   1      38.850  34.117  36.553  1.00  0.00     0.040 A 
ATOM     74  F   UNL A   1      40.007  34.002  34.514  1.00  0.00    -0.206 F 
ATOM     75  C   UNL A   1      38.086  33.506  37.545  1.00  0.00     0.006 A 
ENDBRANCH  47  68
BRANCH  59  76
ATOM     76  C   UNL A   1      44.331  27.664  34.439  1.00  0.00     0.057 A 
ATOM     77  C   UNL A   1      45.531  28.374  34.567  1.00  0.00     0.134 A 
ATOM     78  C   UNL A   1      44.162  26.521  35.231  1.00  0.00     0.134 A 
ATOM     79  F   UNL A   1      45.757  29.468  33.825  1.00  0.00    -0.206 F 
ATOM     80  C   UNL A   1      46.534  27.952  35.441  1.00  0.00     0.040 A 
ATOM     81  C   UNL A   1      45.149  26.101  36.120  1.00  0.00     0.040 A 
ATOM     82  F   UNL A   1      43.031  25.803  35.155  1.00  0.00    -0.206 F 
ATOM     83  C   UNL A   1      46.341  26.815  36.225  1.00  0.00     0.006 A 
ENDBRANCH  59  76
ENDBRANCH  33  34
ENDBRANCH  26  28
ENDBRANCH  25  26
ENDBRANCH  24  25
ENDBRANCH   1  24
TORSDOF 15
ENDMDL
MODEL 2
REMARK VINA RESULT:     -10.9      3.952      8.820
REMARK SMILES C[C@H](NC(=O)N[C@](C)(C(=O)OCCOC(=O)c1ccc(-c2c3nc(c(-c4c(F)cccc4F)c4ccc([nH]4)c(-c4c(F)cccc4F)c4nc(c(-c5c(F)cccc5F)c5ccc2[nH]5)C=C4)C=C3)cc1)C(F)(F)F)C(N)=O
REMARK SMILES IDX 12 1 11 2 9 3 10 4 7 5 8 6 6 7 3 8 4 9 5 11 2 13 1 14 75 15
REMARK SMILES IDX 76 16 77 17 71 20 72 21 73 22 74 23 13 24 14 25 15 26 16 27
REMARK SMILES IDX 17 28 18 29 70 30 19 31 69 32 20 33 21 34 22 35 63 36 23 37
REMARK SMILES IDX 68 38 62 39 64 40 24 41 67 42 61 43 60 44 25 46 51 47 34 48
REMARK SMILES IDX 50 49 35 50 38 51 49 52 65 53 36 54 37 55 48 57 66 58 39 59
REMARK SMILES IDX 26 60 27 61 32 62 28 63 29 64 31 65 33 66 30 67 52 68 53 69
REMARK SMILES IDX 58 70 54 71 55 72 57 73 59 74 56 75 40 76 41 77 46 78 42 79
REMARK SMILES IDX 43 80 45 81 47 82 44 83
REMARK H PARENT 3 10 6 12 76 18 76 19 64 45 38 56
REMARK Flexibility Score: inf
ROOT
ATOM      1  C   UNL A   1      34.733  21.166  24.634  1.00  0.00     0.274 C 
ENDROOT
BRANCH   1   2
ATOM      2  O   UNL A   1      33.817  22.283  24.616  1.00  0.00    -0.460 OA
BRANCH   2   3
ATOM      3  C   UNL A   1      34.050  23.283  23.707  1.00  0.00     0.341 C 
ATOM      4  O   UNL A   1      34.897  23.212  22.828  1.00  0.00    -0.249 OA
BRANCH   3   5
ATOM      5  C   UNL A   1      33.036  24.421  23.886  1.00  0.00     0.232 C 
ATOM      6  C   UNL A   1      32.923  24.754  25.387  1.00  0.00     0.058 C 
BRANCH   5   7
ATOM      7  N   UNL A   1      33.609  25.603  23.207  1.00  0.00    -0.315 N 
ATOM      8  N   UNL A   1      32.942  27.357  21.900  1.00  0.00    -0.327 N 
ATOM      9  C   UNL A   1      33.282  26.042  21.976  1.00  0.00     0.316 C 
ATOM     10  H   UNL A   1      33.218  27.840  21.088  1.00  0.00     0.166 HD
ATOM     11  O   UNL A   1      33.312  25.334  20.982  1.00  0.00    -0.249 OA
ATOM     12  H   UNL A   1      34.291  26.115  23.698  1.00  0.00     0.166 HD
BRANCH   8  13
ATOM     13  C   UNL A   1      32.202  28.130  22.914  1.00  0.00     0.169 C 
ATOM     14  C   UNL A   1      33.153  29.078  23.661  1.00  0.00     0.041 C 
BRANCH  13  15
ATOM     15  C   UNL A   1      30.863  28.742  22.409  1.00  0.00     0.239 C 
ATOM     16  N   UNL A   1      30.912  29.923  21.727  1.00  0.00    -0.368 N 
ATOM     17  O   UNL A   1      29.761  28.254  22.665  1.00  0.00    -0.273 OA
ATOM     18  H   UNL A   1      31.781  30.333  21.512  1.00  0.00     0.159 HD
ATOM     19  H   UNL A   1      30.077  30.367  21.451  1.00  0.00     0.159 HD
ENDBRANCH  13  15
ENDBRANCH   8  13
ENDBRANCH   5   7
BRANCH   5  20
ATOM     20  C   UNL A   1      31.671  23.912  23.406  1.00  0.00     0.422 C 
ATOM     21  F   UNL A   1      31.820  22.969  22.437  1.00  0.00    -0.168 F 
ATOM     22  F   UNL A   1      30.997  23.288  24.403  1.00  0.00    -0.168 F 
ATOM     23  F   UNL A   1      30.882  24.887  22.912  1.00  0.00    -0.168 F 
ENDBRANCH   5  20
ENDBRANCH   3   5
ENDBRANCH   2   3
ENDBRANCH   1   2
BRANCH   1  24
ATOM     24  C   UNL A   1      35.781  21.342  25.732  1.00  0.00     0.275 C 
BRANCH  24  25
ATOM     25  O   UNL A   1      36.986  21.839  25.129  1.00  0.00    -0.458 OA
BRANCH  25  26
ATOM     26  C   UNL A   1      38.151  21.353  25.612  1.00  0.00     0.338 C 
ATOM     27  O   UNL A   1      38.586  20.221  25.522  1.00  0.00    -0.246 OA
BRANCH  26  28
ATOM     28  C   UNL A   1      38.891  22.468  26.231  1.00  0.00     0.060 A 
ATOM     29  C   UNL A   1      38.482  23.775  25.972  1.00  0.00     0.016 A 
ATOM     30  C   UNL A   1      40.039  22.231  26.980  1.00  0.00     0.016 A 
ATOM     31  C   UNL A   1      39.257  24.852  26.376  1.00  0.00     0.010 A 
ATOM     32  C   UNL A   1      40.761  23.319  27.483  1.00  0.00     0.010 A 
ATOM     33  C   UNL A   1      40.392  24.640  27.162  1.00  0.00    -0.014 A 
BRANCH  33  34
ATOM     34  C   UNL A   1      41.215  25.791  27.618  1.00  0.00     0.031 A 
ATOM     35  C   UNL A   1      40.613  26.818  28.532  1.00  0.00     0.074 A 
ATOM     36  C   UNL A   1      42.499  25.917  27.230  1.00  0.00     0.049 A 
ATOM     37  N   UNL A   1      41.049  28.012  28.840  1.00  0.00    -0.248 NA
ATOM     38  C   UNL A   1      39.337  26.460  29.175  1.00  0.00     0.031 C 
ATOM     39  C   UNL A   1      43.244  24.956  26.413  1.00  0.00     0.029 A 
ATOM     40  N   UNL A   1      43.410  26.913  27.478  1.00  0.00    -0.354 N 
ATOM     41  C   UNL A   1      40.072  28.574  29.650  1.00  0.00     0.074 A 
ATOM     42  C   UNL A   1      39.025  27.585  29.801  1.00  0.00     0.031 C 
ATOM     43  C   UNL A   1      44.503  25.390  26.259  1.00  0.00     0.029 A 
ATOM     44  C   UNL A   1      44.628  26.703  26.879  1.00  0.00     0.049 A 
ATOM     45  H   UNL A   1      43.209  27.702  28.032  1.00  0.00     0.167 HD
ATOM     46  C   UNL A   1      40.048  29.808  30.204  1.00  0.00     0.037 A 
ATOM     47  C   UNL A   1      45.709  27.501  26.793  1.00  0.00     0.037 A 
ATOM     48  C   UNL A   1      41.121  30.760  30.100  1.00  0.00     0.049 A 
ATOM     49  C   UNL A   1      45.652  28.876  27.390  1.00  0.00     0.074 A 
ATOM     50  C   UNL A   1      41.192  32.045  30.612  1.00  0.00     0.029 A 
ATOM     51  N   UNL A   1      42.326  30.518  29.459  1.00  0.00    -0.354 N 
ATOM     52  N   UNL A   1      44.678  29.447  28.055  1.00  0.00    -0.248 NA
ATOM     53  C   UNL A   1      46.831  29.732  27.193  1.00  0.00     0.031 C 
ATOM     54  C   UNL A   1      42.436  32.586  30.262  1.00  0.00     0.029 A 
ATOM     55  C   UNL A   1      43.148  31.627  29.560  1.00  0.00     0.049 A 
ATOM     56  H   UNL A   1      42.563  29.679  28.999  1.00  0.00     0.167 HD
ATOM     57  C   UNL A   1      45.125  30.724  28.362  1.00  0.00     0.074 A 
ATOM     58  C   UNL A   1      46.466  30.839  27.824  1.00  0.00     0.031 C 
ATOM     59  C   UNL A   1      44.481  31.716  29.021  1.00  0.00     0.037 A 
BRANCH  46  60
ATOM     60  C   UNL A   1      38.799  30.211  30.929  1.00  0.00     0.057 A 
ATOM     61  C   UNL A   1      38.621  29.982  32.298  1.00  0.00     0.134 A 
ATOM     62  C   UNL A   1      37.760  30.850  30.238  1.00  0.00     0.134 A 
ATOM     63  F   UNL A   1      39.569  29.355  33.011  1.00  0.00    -0.206 F 
ATOM     64  C   UNL A   1      37.444  30.355  32.952  1.00  0.00     0.040 A 
ATOM     65  C   UNL A   1      36.589  31.246  30.885  1.00  0.00     0.040 A 
ATOM     66  F   UNL A   1      37.868  31.099  28.924  1.00  0.00    -0.206 F 
ATOM     67  C   UNL A   1      36.426  30.993  32.245  1.00  0.00     0.006 A 
ENDBRANCH  46  60
BRANCH  47  68
ATOM     68  C   UNL A   1      46.913  27.033  26.064  1.00  0.00     0.057 A 
ATOM     69  C   UNL A   1      47.078  27.300  24.700  1.00  0.00     0.134 A 
ATOM     70  C   UNL A   1      47.934  26.328  26.712  1.00  0.00     0.134 A 
ATOM     71  F   UNL A   1      46.123  27.950  24.019  1.00  0.00    -0.206 F 
ATOM     72  C   UNL A   1      48.216  26.882  24.008  1.00  0.00     0.040 A 
ATOM     73  C   UNL A   1      49.087  25.925  26.038  1.00  0.00     0.040 A 
ATOM     74  F   UNL A   1      47.834  26.041  28.019  1.00  0.00    -0.206 F 
ATOM     75  C   UNL A   1      49.229  26.200  24.680  1.00  0.00     0.006 A 
ENDBRANCH  47  68
BRANCH  59  76
ATOM     76  C   UNL A   1      45.229  32.997  29.217  1.00  0.00     0.057 A 
ATOM     77  C   UNL A   1      45.123  34.055  28.305  1.00  0.00     0.134 A 
ATOM     78  C   UNL A   1      46.036  33.187  30.346  1.00  0.00     0.134 A 
ATOM     79  F   UNL A   1      44.377  33.926  27.199  1.00  0.00    -0.206 F 
ATOM     80  C   UNL A   1      45.809  35.253  28.503  1.00  0.00     0.040 A 
ATOM     81  C   UNL A   1      46.711  34.387  30.563  1.00  0.00     0.040 A 
ATOM     82  F   UNL A   1      46.171  32.211  31.256  1.00  0.00    -0.206 F 
ATOM     83  C   UNL A   1      46.602  35.423  29.638  1.00  0.00     0.006 A 
ENDBRANCH  59  76
ENDBRANCH  33  34
ENDBRANCH  26  28
ENDBRANCH  25  26
ENDBRANCH  24  25
ENDBRANCH   1  24
TORSDOF 15
ENDMDL
MODEL 3
REMARK VINA RESULT:     -10.9      3.912      8.662
REMARK SMILES C[C@H](NC(=O)N[C@](C)(C(=O)OCCOC(=O)c1ccc(-c2c3nc(c(-c4c(F)cccc4F)c4ccc([nH]4)c(-c4c(F)cccc4F)c4nc(c(-c5c(F)cccc5F)c5ccc2[nH]5)C=C4)C=C3)cc1)C(F)(F)F)C(N)=O
REMARK SMILES IDX 12 1 11 2 9 3 10 4 7 5 8 6 6 7 3 8 4 9 5 11 2 13 1 14 75 15
REMARK SMILES IDX 76 16 77 17 71 20 72 21 73 22 74 23 13 24 14 25 15 26 16 27
REMARK SMILES IDX 17 28 18 29 70 30 19 31 69 32 20 33 21 34 22 35 63 36 23 37
REMARK SMILES IDX 68 38 62 39 64 40 24 41 67 42 61 43 60 44 25 46 51 47 34 48
REMARK SMILES IDX 50 49 35 50 38 51 49 52 65 53 36 54 37 55 48 57 66 58 39 59
REMARK SMILES IDX 26 60 27 61 32 62 28 63 29 64 31 65 33 66 30 67 52 68 53 69
REMARK SMILES IDX 58 70 54 71 55 72 57 73 59 74 56 75 40 76 41 77 46 78 42 79
REMARK SMILES IDX 43 80 45 81 47 82 44 83
REMARK H PARENT 3 10 6 12 76 18 76 19 64 45 38 56
REMARK Flexibility Score: inf
ROOT
ATOM      1  C   UNL A   1      36.043  22.933  23.634  1.00  0.00     0.274 C 
ENDROOT
BRANCH   1   2
ATOM      2  O   UNL A   1      35.137  23.609  24.534  1.00  0.00    -0.460 OA
BRANCH   2   3
ATOM      3  C   UNL A   1      33.805  23.623  24.205  1.00  0.00     0.341 C 
ATOM      4  O   UNL A   1      33.386  23.952  23.105  1.00  0.00    -0.249 OA
BRANCH   3   5
ATOM      5  C   UNL A   1      32.959  23.072  25.360  1.00  0.00     0.232 C 
ATOM      6  C   UNL A   1      33.671  23.384  26.691  1.00  0.00     0.058 C 
BRANCH   5   7
ATOM      7  N   UNL A   1      31.686  23.825  25.344  1.00  0.00    -0.315 N 
ATOM      8  N   UNL A   1      30.653  25.529  26.466  1.00  0.00    -0.327 N 
ATOM      9  C   UNL A   1      30.982  24.210  26.426  1.00  0.00     0.316 C 
ATOM     10  H   UNL A   1      29.777  25.756  26.851  1.00  0.00     0.166 HD
ATOM     11  O   UNL A   1      30.628  23.439  27.304  1.00  0.00    -0.249 OA
ATOM     12  H   UNL A   1      31.321  24.068  24.463  1.00  0.00     0.166 HD
BRANCH   8  13
ATOM     13  C   UNL A   1      31.482  26.652  25.990  1.00  0.00     0.169 C 
ATOM     14  C   UNL A   1      30.804  27.347  24.798  1.00  0.00     0.041 C 
BRANCH  13  15
ATOM     15  C   UNL A   1      32.027  27.577  27.117  1.00  0.00     0.239 C 
ATOM     16  N   UNL A   1      31.166  27.968  28.101  1.00  0.00    -0.368 N 
ATOM     17  O   UNL A   1      33.171  28.034  27.118  1.00  0.00    -0.273 OA
ATOM     18  H   UNL A   1      30.246  27.617  28.120  1.00  0.00     0.159 HD
ATOM     19  H   UNL A   1      31.464  28.603  28.792  1.00  0.00     0.159 HD
ENDBRANCH  13  15
ENDBRANCH   8  13
ENDBRANCH   5   7
BRANCH   5  20
ATOM     20  C   UNL A   1      32.888  21.547  25.202  1.00  0.00     0.422 C 
ATOM     21  F   UNL A   1      33.718  20.930  26.087  1.00  0.00    -0.168 F 
ATOM     22  F   UNL A   1      31.650  21.076  25.494  1.00  0.00    -0.168 F 
ATOM     23  F   UNL A   1      33.218  21.124  23.966  1.00  0.00    -0.168 F 
ENDBRANCH   5  20
ENDBRANCH   3   5
ENDBRANCH   2   3
ENDBRANCH   1   2
BRANCH   1  24
ATOM     24  C   UNL A   1      36.484  21.591  24.216  1.00  0.00     0.275 C 
BRANCH  24  25
ATOM     25  O   UNL A   1      36.976  21.816  25.545  1.00  0.00    -0.458 OA
BRANCH  25  26
ATOM     26  C   UNL A   1      38.241  21.414  25.800  1.00  0.00     0.338 C 
ATOM     27  O   UNL A   1      38.753  20.341  25.544  1.00  0.00    -0.246 OA
BRANCH  26  28
ATOM     28  C   UNL A   1      38.971  22.548  26.395  1.00  0.00     0.060 A 
ATOM     29  C   UNL A   1      38.523  23.844  26.145  1.00  0.00     0.016 A 
ATOM     30  C   UNL A   1      40.146  22.342  27.110  1.00  0.00     0.016 A 
ATOM     31  C   UNL A   1      39.283  24.941  26.525  1.00  0.00     0.010 A 
ATOM     32  C   UNL A   1      40.856  23.449  27.590  1.00  0.00     0.010 A 
ATOM     33  C   UNL A   1      40.446  24.760  27.278  1.00  0.00    -0.014 A 
BRANCH  33  34
ATOM     34  C   UNL A   1      41.253  25.931  27.707  1.00  0.00     0.031 A 
ATOM     35  C   UNL A   1      40.637  26.970  28.599  1.00  0.00     0.074 A 
ATOM     36  C   UNL A   1      42.534  26.067  27.314  1.00  0.00     0.049 A 
ATOM     37  N   UNL A   1      41.057  28.176  28.880  1.00  0.00    -0.248 NA
ATOM     38  C   UNL A   1      39.368  26.607  29.252  1.00  0.00     0.031 C 
ATOM     39  C   UNL A   1      43.291  25.099  26.517  1.00  0.00     0.029 A 
ATOM     40  N   UNL A   1      43.431  27.081  27.539  1.00  0.00    -0.354 N 
ATOM     41  C   UNL A   1      40.073  28.741  29.680  1.00  0.00     0.074 A 
ATOM     42  C   UNL A   1      39.040  27.742  29.854  1.00  0.00     0.031 C 
ATOM     43  C   UNL A   1      44.543  25.548  26.352  1.00  0.00     0.029 A 
ATOM     44  C   UNL A   1      44.651  26.875  26.943  1.00  0.00     0.049 A 
ATOM     45  H   UNL A   1      43.220  27.879  28.076  1.00  0.00     0.167 HD
ATOM     46  C   UNL A   1      40.033  29.987  30.207  1.00  0.00     0.037 A 
ATOM     47  C   UNL A   1      45.721  27.686  26.837  1.00  0.00     0.037 A 
ATOM     48  C   UNL A   1      41.092  30.952  30.081  1.00  0.00     0.049 A 
ATOM     49  C   UNL A   1      45.646  29.073  27.404  1.00  0.00     0.074 A 
ATOM     50  C   UNL A   1      41.146  32.248  30.564  1.00  0.00     0.029 A 
ATOM     51  N   UNL A   1      42.300  30.712  29.442  1.00  0.00    -0.354 N 
ATOM     52  N   UNL A   1      44.664  29.645  28.059  1.00  0.00    -0.248 NA
ATOM     53  C   UNL A   1      46.812  29.940  27.187  1.00  0.00     0.031 C 
ATOM     54  C   UNL A   1      42.381  32.798  30.201  1.00  0.00     0.029 A 
ATOM     55  C   UNL A   1      43.106  31.835  29.518  1.00  0.00     0.049 A 
ATOM     56  H   UNL A   1      42.547  29.868  29.001  1.00  0.00     0.167 HD
ATOM     57  C   UNL A   1      45.094  30.934  28.337  1.00  0.00     0.074 A 
ATOM     58  C   UNL A   1      46.432  31.056  27.795  1.00  0.00     0.031 C 
ATOM     59  C   UNL A   1      44.436  31.931  28.975  1.00  0.00     0.037 A 
BRANCH  46  60
ATOM     60  C   UNL A   1      38.779  30.389  30.925  1.00  0.00     0.057 A 
ATOM     61  C   UNL A   1      38.601  30.176  32.297  1.00  0.00     0.134 A 
ATOM     62  C   UNL A   1      37.735  31.008  30.225  1.00  0.00     0.134 A 
ATOM     63  F   UNL A   1      39.554  29.568  33.019  1.00  0.00    -0.206 F 
ATOM     64  C   UNL A   1      37.420  30.547  32.944  1.00  0.00     0.040 A 
ATOM     65  C   UNL A   1      36.559  31.402  30.864  1.00  0.00     0.040 A 
ATOM     66  F   UNL A   1      37.842  31.240  28.908  1.00  0.00    -0.206 F 
ATOM     67  C   UNL A   1      36.398  31.166  32.228  1.00  0.00     0.006 A 
ENDBRANCH  46  60
BRANCH  47  68
ATOM     68  C   UNL A   1      46.931  27.219  26.116  1.00  0.00     0.057 A 
ATOM     69  C   UNL A   1      47.072  27.425  24.740  1.00  0.00     0.134 A 
ATOM     70  C   UNL A   1      47.979  26.576  26.785  1.00  0.00     0.134 A 
ATOM     71  F   UNL A   1      46.090  28.012  24.041  1.00  0.00    -0.206 F 
ATOM     72  C   UNL A   1      48.214  27.007  24.054  1.00  0.00     0.040 A 
ATOM     73  C   UNL A   1      49.136  26.176  26.117  1.00  0.00     0.040 A 
ATOM     74  F   UNL A   1      47.903  26.351  28.106  1.00  0.00    -0.206 F 
ATOM     75  C   UNL A   1      49.255  26.389  24.746  1.00  0.00     0.006 A 
ENDBRANCH  47  68
BRANCH  59  76
ATOM     76  C   UNL A   1      45.167  33.226  29.142  1.00  0.00     0.057 A 
ATOM     77  C   UNL A   1      45.044  34.263  28.209  1.00  0.00     0.134 A 
ATOM     78  C   UNL A   1      45.974  33.451  30.265  1.00  0.00     0.134 A 
ATOM     79  F   UNL A   1      44.297  34.101  27.107  1.00  0.00    -0.206 F 
ATOM     80  C   UNL A   1      45.713  35.475  28.379  1.00  0.00     0.040 A 
ATOM     81  C   UNL A   1      46.633  34.665  30.454  1.00  0.00     0.040 A 
ATOM     82  F   UNL A   1      46.125  32.497  31.195  1.00  0.00    -0.206 F 
ATOM     83  C   UNL A   1      46.506  35.680  29.508  1.00  0.00     0.006 A 
ENDBRANCH  59  76
ENDBRANCH  33  34
ENDBRANCH  26  28
ENDBRANCH  25  26
ENDBRANCH  24  25
ENDBRANCH   1  24
TORSDOF 15
ENDMDL
