MODEL 1
REMARK VINA RESULT:      -9.3      0.000      0.000
REMARK SMILES O=C(OCCOC(=O)[C@@]1([NH2+]C2CC2)CC[C@H](OC2CCC2)C1)c1ccc(-c2c3nc(c(-c4c(F)cccc4F)c4ccc([nH]4)c(-c4c(F)cccc4F)c4nc(c(-c5c(F)cccc5F)c5ccc2[nH]5)C=C4)C=C3)cc1
REMARK SMILES IDX 4 1 3 2 2 3 1 4 23 5 24 6 76 7 25 8 75 9 26 10 27 11 28 12
REMARK SMILES IDX 69 13 29 14 74 15 68 16 70 17 30 18 73 19 67 20 66 21 31 23
REMARK SMILES IDX 57 24 40 25 56 26 41 27 44 28 55 29 71 30 42 31 43 32 54 34
REMARK SMILES IDX 72 35 45 36 32 37 33 38 38 39 34 40 35 41 37 42 39 43 36 44
REMARK SMILES IDX 58 45 59 46 64 47 60 48 61 49 63 50 65 51 62 52 46 53 47 54
REMARK SMILES IDX 52 55 48 56 49 57 51 58 53 59 50 60 5 61 6 62 7 63 8 64 9 65
REMARK SMILES IDX 14 66 22 67 15 68 16 69 10 70 11 73 12 74 13 75 17 76 18 77
REMARK SMILES IDX 19 78 21 79 20 80
REMARK H PARENT 70 22 44 33 10 71 10 72
REMARK Flexibility Score: inf
ROOT
ATOM      1  C   UNL A   1      34.053  32.764  27.734  1.00  0.00     0.275 C 
ENDROOT
BRANCH   1   2
ATOM      2  O   UNL A   1      33.886  31.471  28.355  1.00  0.00    -0.458 OA
BRANCH   2   3
ATOM      3  C   UNL A   1      34.520  30.351  27.950  1.00  0.00     0.338 C 
ATOM      4  O   UNL A   1      33.986  29.581  27.152  1.00  0.00    -0.246 OA
BRANCH   3   5
ATOM      5  C   UNL A   1      35.919  30.101  28.410  1.00  0.00     0.060 A 
ATOM      6  C   UNL A   1      36.286  29.730  29.708  1.00  0.00     0.016 A 
ATOM      7  C   UNL A   1      36.927  30.209  27.445  1.00  0.00     0.016 A 
ATOM      8  C   UNL A   1      37.594  29.305  29.994  1.00  0.00     0.010 A 
ATOM      9  C   UNL A   1      38.217  29.750  27.717  1.00  0.00     0.010 A 
ATOM     10  C   UNL A   1      38.562  29.256  28.988  1.00  0.00    -0.014 A 
BRANCH  10  11
ATOM     11  C   UNL A   1      39.952  28.771  29.230  1.00  0.00     0.031 A 
ATOM     12  C   UNL A   1      40.930  29.737  29.848  1.00  0.00     0.074 A 
ATOM     13  C   UNL A   1      40.367  27.546  28.831  1.00  0.00     0.049 A 
ATOM     14  N   UNL A   1      42.216  29.611  30.047  1.00  0.00    -0.248 NA
ATOM     15  C   UNL A   1      40.388  31.045  30.267  1.00  0.00     0.031 C 
ATOM     16  C   UNL A   1      39.530  26.522  28.198  1.00  0.00     0.029 A 
ATOM     17  N   UNL A   1      41.614  26.960  28.859  1.00  0.00    -0.354 N 
ATOM     18  C   UNL A   1      42.615  30.806  30.631  1.00  0.00     0.074 A 
ATOM     19  C   UNL A   1      41.485  31.702  30.598  1.00  0.00     0.031 C 
ATOM     20  C   UNL A   1      40.288  25.457  27.876  1.00  0.00     0.029 A 
ATOM     21  C   UNL A   1      41.672  25.719  28.256  1.00  0.00     0.049 A 
ATOM     22  H   UNL A   1      42.397  27.390  29.274  1.00  0.00     0.167 HD
ATOM     23  C   UNL A   1      43.781  31.099  31.250  1.00  0.00     0.037 A 
ATOM     24  C   UNL A   1      42.726  24.905  28.022  1.00  0.00     0.037 A 
ATOM     25  C   UNL A   1      44.872  30.178  31.346  1.00  0.00     0.049 A 
ATOM     26  C   UNL A   1      44.084  25.354  28.543  1.00  0.00     0.074 A 
ATOM     27  C   UNL A   1      46.047  30.295  32.062  1.00  0.00     0.029 A 
ATOM     28  N   UNL A   1      44.909  28.956  30.693  1.00  0.00    -0.354 N 
ATOM     29  N   UNL A   1      44.387  26.408  29.266  1.00  0.00    -0.248 NA
ATOM     30  C   UNL A   1      45.244  24.499  28.240  1.00  0.00     0.031 C 
ATOM     31  C   UNL A   1      46.810  29.149  31.819  1.00  0.00     0.029 A 
ATOM     32  C   UNL A   1      46.100  28.315  30.968  1.00  0.00     0.049 A 
ATOM     33  H   UNL A   1      44.193  28.598  30.120  1.00  0.00     0.167 HD
ATOM     34  C   UNL A   1      45.729  26.267  29.610  1.00  0.00     0.074 A 
ATOM     35  C   UNL A   1      46.198  25.059  28.970  1.00  0.00     0.031 C 
ATOM     36  C   UNL A   1      46.497  27.050  30.407  1.00  0.00     0.037 A 
BRANCH  23  37
ATOM     37  C   UNL A   1      43.863  32.428  31.939  1.00  0.00     0.057 A 
ATOM     38  C   UNL A   1      43.461  32.573  33.277  1.00  0.00     0.134 A 
ATOM     39  C   UNL A   1      44.289  33.575  31.265  1.00  0.00     0.134 A 
ATOM     40  F   UNL A   1      43.025  31.511  33.973  1.00  0.00    -0.206 F 
ATOM     41  C   UNL A   1      43.426  33.819  33.900  1.00  0.00     0.040 A 
ATOM     42  C   UNL A   1      44.288  34.826  31.889  1.00  0.00     0.040 A 
ATOM     43  F   UNL A   1      44.692  33.507  29.988  1.00  0.00    -0.206 F 
ATOM     44  C   UNL A   1      43.841  34.951  33.204  1.00  0.00     0.006 A 
ENDBRANCH  23  37
BRANCH  24  45
ATOM     45  C   UNL A   1      42.604  23.599  27.288  1.00  0.00     0.057 A 
ATOM     46  C   UNL A   1      42.343  22.402  27.968  1.00  0.00     0.134 A 
ATOM     47  C   UNL A   1      42.867  23.475  25.917  1.00  0.00     0.134 A 
ATOM     48  F   UNL A   1      42.039  22.422  29.274  1.00  0.00    -0.206 F 
ATOM     49  C   UNL A   1      42.460  21.151  27.348  1.00  0.00     0.040 A 
ATOM     50  C   UNL A   1      42.988  22.235  25.280  1.00  0.00     0.040 A 
ATOM     51  F   UNL A   1      42.998  24.558  25.146  1.00  0.00    -0.206 F 
ATOM     52  C   UNL A   1      42.810  21.064  26.004  1.00  0.00     0.006 A 
ENDBRANCH  24  45
BRANCH  36  53
ATOM     53  C   UNL A   1      47.860  26.549  30.778  1.00  0.00     0.057 A 
ATOM     54  C   UNL A   1      48.086  25.758  31.909  1.00  0.00     0.134 A 
ATOM     55  C   UNL A   1      48.942  26.778  29.916  1.00  0.00     0.134 A 
ATOM     56  F   UNL A   1      47.093  25.517  32.778  1.00  0.00    -0.206 F 
ATOM     57  C   UNL A   1      49.343  25.211  32.170  1.00  0.00     0.040 A 
ATOM     58  C   UNL A   1      50.195  26.214  30.153  1.00  0.00     0.040 A 
ATOM     59  F   UNL A   1      48.785  27.519  28.808  1.00  0.00    -0.206 F 
ATOM     60  C   UNL A   1      50.397  25.427  31.283  1.00  0.00     0.006 A 
ENDBRANCH  36  53
ENDBRANCH  10  11
ENDBRANCH   3   5
ENDBRANCH   2   3
ENDBRANCH   1   2
BRANCH   1  61
ATOM     61  C   UNL A   1      33.339  33.959  28.380  1.00  0.00     0.274 C 
BRANCH  61  62
ATOM     62  O   UNL A   1      34.195  34.766  29.206  1.00  0.00    -0.457 OA
BRANCH  62  63
ATOM     63  C   UNL A   1      33.837  34.793  30.539  1.00  0.00     0.368 C 
ATOM     64  O   UNL A   1      32.777  35.270  30.933  1.00  0.00    -0.245 OA
BRANCH  63  65
ATOM     65  C   UNL A   1      34.944  34.223  31.468  1.00  0.00     0.197 C 
ATOM     66  C   UNL A   1      34.682  34.522  32.933  1.00  0.00     0.084 C 
ATOM     67  C   UNL A   1      34.874  32.668  31.538  1.00  0.00     0.113 C 
ATOM     68  C   UNL A   1      35.512  33.548  33.716  1.00  0.00     0.039 C 
ATOM     69  C   UNL A   1      35.466  32.262  32.919  1.00  0.00     0.125 C 
BRANCH  65  70
ATOM     70  N   UNL A   1      36.301  34.552  30.990  1.00  0.00    -0.330 N 
ATOM     71  H   UNL A   1      36.826  34.819  31.822  1.00  0.00     0.347 HD
ATOM     72  H   UNL A   1      36.079  35.226  30.257  1.00  0.00     0.347 HD
BRANCH  70  73
ATOM     73  C   UNL A   1      37.170  33.641  30.256  1.00  0.00     0.183 C 
ATOM     74  C   UNL A   1      37.497  33.593  28.797  1.00  0.00     0.071 C 
ATOM     75  C   UNL A   1      38.479  34.207  29.747  1.00  0.00     0.071 C 
ENDBRANCH  70  73
ENDBRANCH  65  70
BRANCH  69  76
ATOM     76  O   UNL A   1      36.789  31.737  32.813  1.00  0.00    -0.375 OA
BRANCH  76  77
ATOM     77  C   UNL A   1      37.823  32.134  33.764  1.00  0.00     0.118 C 
ATOM     78  C   UNL A   1      38.801  31.077  34.356  1.00  0.00     0.032 C 
ATOM     79  C   UNL A   1      39.077  32.904  33.299  1.00  0.00     0.032 C 
ATOM     80  C   UNL A   1      39.891  32.162  34.367  1.00  0.00     0.005 C 
ENDBRANCH  76  77
ENDBRANCH  69  76
ENDBRANCH  63  65
ENDBRANCH  62  63
ENDBRANCH  61  62
ENDBRANCH   1  61
TORSDOF 15
ENDMDL
MODEL 2
REMARK VINA RESULT:      -9.2      3.882      6.739
REMARK SMILES O=C(OCCOC(=O)[C@@]1([NH2+]C2CC2)CC[C@H](OC2CCC2)C1)c1ccc(-c2c3nc(c(-c4c(F)cccc4F)c4ccc([nH]4)c(-c4c(F)cccc4F)c4nc(c(-c5c(F)cccc5F)c5ccc2[nH]5)C=C4)C=C3)cc1
REMARK SMILES IDX 4 1 3 2 2 3 1 4 23 5 24 6 76 7 25 8 75 9 26 10 27 11 28 12
REMARK SMILES IDX 69 13 29 14 74 15 68 16 70 17 30 18 73 19 67 20 66 21 31 23
REMARK SMILES IDX 57 24 40 25 56 26 41 27 44 28 55 29 71 30 42 31 43 32 54 34
REMARK SMILES IDX 72 35 45 36 32 37 33 38 38 39 34 40 35 41 37 42 39 43 36 44
REMARK SMILES IDX 58 45 59 46 64 47 60 48 61 49 63 50 65 51 62 52 46 53 47 54
REMARK SMILES IDX 52 55 48 56 49 57 51 58 53 59 50 60 5 61 6 62 7 63 8 64 9 65
REMARK SMILES IDX 14 66 22 67 15 68 16 69 10 70 11 73 12 74 13 75 17 76 18 77
REMARK SMILES IDX 19 78 21 79 20 80
REMARK H PARENT 70 22 44 33 10 71 10 72
REMARK Flexibility Score: inf
ROOT
ATOM      1  C   UNL A   1      31.779  33.025  26.602  1.00  0.00     0.275 C 
ENDROOT
BRANCH   1   2
ATOM      2  O   UNL A   1      32.164  33.497  27.911  1.00  0.00    -0.458 OA
BRANCH   2   3
ATOM      3  C   UNL A   1      33.312  34.157  28.168  1.00  0.00     0.338 C 
ATOM      4  O   UNL A   1      33.327  35.386  28.233  1.00  0.00    -0.246 OA
BRANCH   3   5
ATOM      5  C   UNL A   1      34.549  33.376  28.467  1.00  0.00     0.060 A 
ATOM      6  C   UNL A   1      35.857  33.835  28.274  1.00  0.00     0.016 A 
ATOM      7  C   UNL A   1      34.371  32.104  29.022  1.00  0.00     0.016 A 
ATOM      8  C   UNL A   1      36.954  33.121  28.785  1.00  0.00     0.010 A 
ATOM      9  C   UNL A   1      35.456  31.413  29.566  1.00  0.00     0.010 A 
ATOM     10  C   UNL A   1      36.762  31.929  29.487  1.00  0.00    -0.014 A 
BRANCH  10  11
ATOM     11  C   UNL A   1      37.890  31.156  30.086  1.00  0.00     0.031 A 
ATOM     12  C   UNL A   1      38.305  31.504  31.492  1.00  0.00     0.074 A 
ATOM     13  C   UNL A   1      38.589  30.238  29.378  1.00  0.00     0.049 A 
ATOM     14  N   UNL A   1      39.323  31.077  32.192  1.00  0.00    -0.248 NA
ATOM     15  C   UNL A   1      37.477  32.505  32.194  1.00  0.00     0.031 C 
ATOM     16  C   UNL A   1      38.308  29.823  28.000  1.00  0.00     0.029 A 
ATOM     17  N   UNL A   1      39.712  29.510  29.704  1.00  0.00    -0.354 N 
ATOM     18  C   UNL A   1      39.232  31.737  33.410  1.00  0.00     0.074 A 
ATOM     19  C   UNL A   1      38.175  32.712  33.297  1.00  0.00     0.031 C 
ATOM     20  C   UNL A   1      39.244  28.944  27.596  1.00  0.00     0.029 A 
ATOM     21  C   UNL A   1      40.210  28.740  28.670  1.00  0.00     0.049 A 
ATOM     22  H   UNL A   1      40.125  29.536  30.597  1.00  0.00     0.167 HD
ATOM     23  C   UNL A   1      39.887  31.480  34.565  1.00  0.00     0.037 A 
ATOM     24  C   UNL A   1      41.327  27.981  28.600  1.00  0.00     0.037 A 
ATOM     25  C   UNL A   1      40.883  30.460  34.692  1.00  0.00     0.049 A 
ATOM     26  C   UNL A   1      42.177  27.871  29.857  1.00  0.00     0.074 A 
ATOM     27  C   UNL A   1      41.517  30.003  35.830  1.00  0.00     0.029 A 
ATOM     28  N   UNL A   1      41.385  29.735  33.623  1.00  0.00    -0.354 N 
ATOM     29  N   UNL A   1      41.950  28.359  31.055  1.00  0.00    -0.248 NA
ATOM     30  C   UNL A   1      43.423  27.093  29.768  1.00  0.00     0.031 C 
ATOM     31  C   UNL A   1      42.428  29.015  35.443  1.00  0.00     0.029 A 
ATOM     32  C   UNL A   1      42.343  28.847  34.068  1.00  0.00     0.049 A 
ATOM     33  H   UNL A   1      41.100  29.837  32.686  1.00  0.00     0.167 HD
ATOM     34  C   UNL A   1      42.945  27.838  31.879  1.00  0.00     0.074 A 
ATOM     35  C   UNL A   1      43.810  27.044  31.035  1.00  0.00     0.031 C 
ATOM     36  C   UNL A   1      43.113  27.978  33.216  1.00  0.00     0.037 A 
BRANCH  23  37
ATOM     37  C   UNL A   1      39.456  32.257  35.772  1.00  0.00     0.057 A 
ATOM     38  C   UNL A   1      40.050  33.491  36.085  1.00  0.00     0.134 A 
ATOM     39  C   UNL A   1      38.492  31.762  36.654  1.00  0.00     0.134 A 
ATOM     40  F   UNL A   1      40.994  34.013  35.287  1.00  0.00    -0.206 F 
ATOM     41  C   UNL A   1      39.741  34.174  37.261  1.00  0.00     0.040 A 
ATOM     42  C   UNL A   1      38.153  32.453  37.820  1.00  0.00     0.040 A 
ATOM     43  F   UNL A   1      37.882  30.592  36.412  1.00  0.00    -0.206 F 
ATOM     44  C   UNL A   1      38.789  33.654  38.132  1.00  0.00     0.006 A 
ENDBRANCH  23  37
BRANCH  24  45
ATOM     45  C   UNL A   1      41.743  27.252  27.353  1.00  0.00     0.057 A 
ATOM     46  C   UNL A   1      41.533  25.874  27.208  1.00  0.00     0.134 A 
ATOM     47  C   UNL A   1      42.472  27.867  26.326  1.00  0.00     0.134 A 
ATOM     48  F   UNL A   1      40.810  25.205  28.119  1.00  0.00    -0.206 F 
ATOM     49  C   UNL A   1      42.117  25.134  26.173  1.00  0.00     0.040 A 
ATOM     50  C   UNL A   1      43.064  27.146  25.283  1.00  0.00     0.040 A 
ATOM     51  F   UNL A   1      42.618  29.194  26.293  1.00  0.00    -0.206 F 
ATOM     52  C   UNL A   1      42.909  25.768  25.219  1.00  0.00     0.006 A 
ENDBRANCH  24  45
BRANCH  36  53
ATOM     53  C   UNL A   1      44.154  27.133  33.886  1.00  0.00     0.057 A 
ATOM     54  C   UNL A   1      43.869  25.871  34.415  1.00  0.00     0.134 A 
ATOM     55  C   UNL A   1      45.492  27.556  33.894  1.00  0.00     0.134 A 
ATOM     56  F   UNL A   1      42.606  25.418  34.448  1.00  0.00    -0.206 F 
ATOM     57  C   UNL A   1      44.878  25.057  34.931  1.00  0.00     0.040 A 
ATOM     58  C   UNL A   1      46.512  26.740  34.382  1.00  0.00     0.040 A 
ATOM     59  F   UNL A   1      45.830  28.752  33.389  1.00  0.00    -0.206 F 
ATOM     60  C   UNL A   1      46.205  25.485  34.902  1.00  0.00     0.006 A 
ENDBRANCH  36  53
ENDBRANCH  10  11
ENDBRANCH   3   5
ENDBRANCH   2   3
ENDBRANCH   1   2
BRANCH   1  61
ATOM     61  C   UNL A   1      31.303  31.571  26.484  1.00  0.00     0.274 C 
BRANCH  61  62
ATOM     62  O   UNL A   1      32.364  30.606  26.572  1.00  0.00    -0.457 OA
BRANCH  62  63
ATOM     63  C   UNL A   1      31.940  29.292  26.565  1.00  0.00     0.368 C 
ATOM     64  O   UNL A   1      31.448  28.747  27.549  1.00  0.00    -0.245 OA
BRANCH  63  65
ATOM     65  C   UNL A   1      32.217  28.580  25.212  1.00  0.00     0.197 C 
ATOM     66  C   UNL A   1      33.270  29.295  24.386  1.00  0.00     0.084 C 
ATOM     67  C   UNL A   1      32.974  27.235  25.430  1.00  0.00     0.113 C 
ATOM     68  C   UNL A   1      33.774  28.292  23.388  1.00  0.00     0.039 C 
ATOM     69  C   UNL A   1      33.789  26.973  24.130  1.00  0.00     0.125 C 
BRANCH  65  70
ATOM     70  N   UNL A   1      30.974  28.240  24.494  1.00  0.00    -0.330 N 
ATOM     71  H   UNL A   1      30.333  27.895  25.207  1.00  0.00     0.347 HD
ATOM     72  H   UNL A   1      31.343  27.629  23.765  1.00  0.00     0.347 HD
BRANCH  70  73
ATOM     73  C   UNL A   1      30.195  29.172  23.688  1.00  0.00     0.183 C 
ATOM     74  C   UNL A   1      30.304  29.506  22.234  1.00  0.00     0.071 C 
ATOM     75  C   UNL A   1      29.228  28.569  22.691  1.00  0.00     0.071 C 
ENDBRANCH  70  73
ENDBRANCH  65  70
BRANCH  69  76
ATOM     76  O   UNL A   1      33.194  25.972  23.304  1.00  0.00    -0.375 OA
BRANCH  76  77
ATOM     77  C   UNL A   1      33.812  24.656  23.173  1.00  0.00     0.118 C 
ATOM     78  C   UNL A   1      33.856  23.679  24.384  1.00  0.00     0.032 C 
ATOM     79  C   UNL A   1      33.108  23.522  22.398  1.00  0.00     0.032 C 
ATOM     80  C   UNL A   1      33.703  22.516  23.390  1.00  0.00     0.005 C 
ENDBRANCH  76  77
ENDBRANCH  69  76
ENDBRANCH  63  65
ENDBRANCH  62  63
ENDBRANCH  61  62
ENDBRANCH   1  61
TORSDOF 15
ENDMDL
MODEL 3
REMARK VINA RESULT:      -9.1      3.701     10.388
REMARK SMILES O=C(OCCOC(=O)[C@@]1([NH2+]C2CC2)CC[C@H](OC2CCC2)C1)c1ccc(-c2c3nc(c(-c4c(F)cccc4F)c4ccc([nH]4)c(-c4c(F)cccc4F)c4nc(c(-c5c(F)cccc5F)c5ccc2[nH]5)C=C4)C=C3)cc1
REMARK SMILES IDX 4 1 3 2 2 3 1 4 23 5 24 6 76 7 25 8 75 9 26 10 27 11 28 12
REMARK SMILES IDX 69 13 29 14 74 15 68 16 70 17 30 18 73 19 67 20 66 21 31 23
REMARK SMILES IDX 57 24 40 25 56 26 41 27 44 28 55 29 71 30 42 31 43 32 54 34
REMARK SMILES IDX 72 35 45 36 32 37 33 38 38 39 34 40 35 41 37 42 39 43 36 44
REMARK SMILES IDX 58 45 59 46 64 47 60 48 61 49 63 50 65 51 62 52 46 53 47 54
REMARK SMILES IDX 52 55 48 56 49 57 51 58 53 59 50 60 5 61 6 62 7 63 8 64 9 65
REMARK SMILES IDX 14 66 22 67 15 68 16 69 10 70 11 73 12 74 13 75 17 76 18 77
REMARK SMILES IDX 19 78 21 79 20 80
REMARK H PARENT 70 22 44 33 10 71 10 72
REMARK Flexibility Score: inf
ROOT
ATOM      1  C   UNL A   1      40.423  21.541  26.924  1.00  0.00     0.275 C 
ENDROOT
BRANCH   1   2
ATOM      2  O   UNL A   1      39.431  21.971  25.967  1.00  0.00    -0.458 OA
BRANCH   2   3
ATOM      3  C   UNL A   1      38.721  23.113  26.078  1.00  0.00     0.338 C 
ATOM      4  O   UNL A   1      37.559  23.170  25.677  1.00  0.00    -0.246 OA
BRANCH   3   5
ATOM      5  C   UNL A   1      39.329  24.283  26.780  1.00  0.00     0.060 A 
ATOM      6  C   UNL A   1      40.161  25.236  26.184  1.00  0.00     0.016 A 
ATOM      7  C   UNL A   1      38.997  24.449  28.129  1.00  0.00     0.016 A 
ATOM      8  C   UNL A   1      40.507  26.417  26.862  1.00  0.00     0.010 A 
ATOM      9  C   UNL A   1      39.306  25.638  28.791  1.00  0.00     0.010 A 
ATOM     10  C   UNL A   1      40.037  26.658  28.155  1.00  0.00    -0.014 A 
BRANCH  10  11
ATOM     11  C   UNL A   1      40.340  27.914  28.902  1.00  0.00     0.031 A 
ATOM     12  C   UNL A   1      41.647  27.984  29.648  1.00  0.00     0.074 A 
ATOM     13  C   UNL A   1      39.448  28.927  28.997  1.00  0.00     0.049 A 
ATOM     14  N   UNL A   1      42.093  28.900  30.467  1.00  0.00    -0.248 NA
ATOM     15  C   UNL A   1      42.566  26.841  29.475  1.00  0.00     0.031 C 
ATOM     16  C   UNL A   1      38.135  28.978  28.345  1.00  0.00     0.029 A 
ATOM     17  N   UNL A   1      39.488  30.102  29.716  1.00  0.00    -0.354 N 
ATOM     18  C   UNL A   1      43.341  28.449  30.876  1.00  0.00     0.074 A 
ATOM     19  C   UNL A   1      43.510  27.113  30.358  1.00  0.00     0.031 C 
ATOM     20  C   UNL A   1      37.492  30.101  28.715  1.00  0.00     0.029 A 
ATOM     21  C   UNL A   1      38.328  30.850  29.648  1.00  0.00     0.049 A 
ATOM     22  H   UNL A   1      40.275  30.384  30.235  1.00  0.00     0.167 HD
ATOM     23  C   UNL A   1      44.317  29.125  31.523  1.00  0.00     0.037 A 
ATOM     24  C   UNL A   1      37.981  31.992  30.283  1.00  0.00     0.037 A 
ATOM     25  C   UNL A   1      44.172  30.478  31.968  1.00  0.00     0.049 A 
ATOM     26  C   UNL A   1      39.025  32.634  31.185  1.00  0.00     0.074 A 
ATOM     27  C   UNL A   1      45.123  31.322  32.507  1.00  0.00     0.029 A 
ATOM     28  N   UNL A   1      42.980  31.183  31.917  1.00  0.00    -0.354 N 
ATOM     29  N   UNL A   1      40.271  32.277  31.394  1.00  0.00    -0.248 NA
ATOM     30  C   UNL A   1      38.631  33.845  31.924  1.00  0.00     0.031 C 
ATOM     31  C   UNL A   1      44.495  32.535  32.808  1.00  0.00     0.029 A 
ATOM     32  C   UNL A   1      43.160  32.448  32.439  1.00  0.00     0.049 A 
ATOM     33  H   UNL A   1      42.130  30.834  31.562  1.00  0.00     0.167 HD
ATOM     34  C   UNL A   1      40.836  33.285  32.171  1.00  0.00     0.074 A 
ATOM     35  C   UNL A   1      39.784  34.237  32.446  1.00  0.00     0.031 C 
ATOM     36  C   UNL A   1      42.116  33.426  32.595  1.00  0.00     0.037 A 
BRANCH  23  37
ATOM     37  C   UNL A   1      45.632  28.425  31.682  1.00  0.00     0.057 A 
ATOM     38  C   UNL A   1      46.662  28.603  30.744  1.00  0.00     0.134 A 
ATOM     39  C   UNL A   1      45.863  27.534  32.733  1.00  0.00     0.134 A 
ATOM     40  F   UNL A   1      46.496  29.432  29.702  1.00  0.00    -0.206 F 
ATOM     41  C   UNL A   1      47.850  27.876  30.815  1.00  0.00     0.040 A 
ATOM     42  C   UNL A   1      47.062  26.823  32.832  1.00  0.00     0.040 A 
ATOM     43  F   UNL A   1      44.925  27.322  33.668  1.00  0.00    -0.206 F 
ATOM     44  C   UNL A   1      48.052  26.983  31.862  1.00  0.00     0.006 A 
ENDBRANCH  23  37
BRANCH  24  45
ATOM     45  C   UNL A   1      36.632  32.637  30.127  1.00  0.00     0.057 A 
ATOM     46  C   UNL A   1      36.363  33.518  29.071  1.00  0.00     0.134 A 
ATOM     47  C   UNL A   1      35.616  32.504  31.082  1.00  0.00     0.134 A 
ATOM     48  F   UNL A   1      37.258  33.680  28.085  1.00  0.00    -0.206 F 
ATOM     49  C   UNL A   1      35.208  34.310  29.034  1.00  0.00     0.040 A 
ATOM     50  C   UNL A   1      34.455  33.285  31.063  1.00  0.00     0.040 A 
ATOM     51  F   UNL A   1      35.709  31.596  32.057  1.00  0.00    -0.206 F 
ATOM     52  C   UNL A   1      34.261  34.213  30.049  1.00  0.00     0.006 A 
ENDBRANCH  24  45
BRANCH  36  53
ATOM     53  C   UNL A   1      42.501  34.721  33.245  1.00  0.00     0.057 A 
ATOM     54  C   UNL A   1      42.414  34.923  34.625  1.00  0.00     0.134 A 
ATOM     55  C   UNL A   1      43.075  35.741  32.471  1.00  0.00     0.134 A 
ATOM     56  F   UNL A   1      41.862  33.989  35.414  1.00  0.00    -0.206 F 
ATOM     57  C   UNL A   1      42.885  36.096  35.216  1.00  0.00     0.040 A 
ATOM     58  C   UNL A   1      43.573  36.905  33.054  1.00  0.00     0.040 A 
ATOM     59  F   UNL A   1      43.197  35.601  31.142  1.00  0.00    -0.206 F 
ATOM     60  C   UNL A   1      43.480  37.084  34.432  1.00  0.00     0.006 A 
ENDBRANCH  36  53
ENDBRANCH  10  11
ENDBRANCH   3   5
ENDBRANCH   2   3
ENDBRANCH   1   2
BRANCH   1  61
ATOM     61  C   UNL A   1      41.700  20.889  26.377  1.00  0.00     0.274 C 
BRANCH  61  62
ATOM     62  O   UNL A   1      42.405  21.705  25.427  1.00  0.00    -0.457 OA
BRANCH  62  63
ATOM     63  C   UNL A   1      43.736  21.374  25.270  1.00  0.00     0.368 C 
ATOM     64  O   UNL A   1      44.104  20.272  24.872  1.00  0.00    -0.245 OA
BRANCH  63  65
ATOM     65  C   UNL A   1      44.694  22.514  25.712  1.00  0.00     0.197 C 
ATOM     66  C   UNL A   1      45.995  22.513  24.929  1.00  0.00     0.084 C 
ATOM     67  C   UNL A   1      44.159  23.905  25.260  1.00  0.00     0.113 C 
ATOM     68  C   UNL A   1      46.588  23.882  25.098  1.00  0.00     0.039 C 
ATOM     69  C   UNL A   1      45.404  24.826  25.098  1.00  0.00     0.125 C 
BRANCH  65  70
ATOM     70  N   UNL A   1      44.839  22.586  27.178  1.00  0.00    -0.330 N 
ATOM     71  H   UNL A   1      45.792  22.908  27.343  1.00  0.00     0.347 HD
ATOM     72  H   UNL A   1      44.540  21.646  27.439  1.00  0.00     0.347 HD
BRANCH  70  73
ATOM     73  C   UNL A   1      44.000  23.385  28.062  1.00  0.00     0.183 C 
ATOM     74  C   UNL A   1      43.106  22.957  29.182  1.00  0.00     0.071 C 
ATOM     75  C   UNL A   1      44.456  23.523  29.498  1.00  0.00     0.071 C 
ENDBRANCH  70  73
ENDBRANCH  65  70
BRANCH  69  76
ATOM     76  O   UNL A   1      45.548  25.746  26.179  1.00  0.00    -0.375 OA
BRANCH  76  77
ATOM     77  C   UNL A   1      45.161  27.144  26.019  1.00  0.00     0.118 C 
ATOM     78  C   UNL A   1      43.671  27.530  25.780  1.00  0.00     0.032 C 
ATOM     79  C   UNL A   1      45.121  28.101  27.229  1.00  0.00     0.032 C 
ATOM     80  C   UNL A   1      43.923  28.813  26.589  1.00  0.00     0.005 C 
ENDBRANCH  76  77
ENDBRANCH  69  76
ENDBRANCH  63  65
ENDBRANCH  62  63
ENDBRANCH  61  62
ENDBRANCH   1  61
TORSDOF 15
ENDMDL
