MODEL 1
REMARK VINA RESULT:     -12.0      0.000      0.000
REMARK SMILES O=C(OCCOC(=O)c1c[nH]c(=O)c(-c2cccc([N+](=O)[O-])c2)c1)c1ccc(-c2c3nc(c(-c4c(F)cccc4F)c4ccc([nH]4)c(-c4c(F)cccc4F)c4nc(c(-c5c(F)cccc5F)c5ccc2[nH]5)C=C4)C=C3)cc1
REMARK SMILES IDX 4 1 3 2 2 3 1 4 25 5 26 6 78 7 27 8 77 9 28 10 29 11 30 12
REMARK SMILES IDX 71 13 31 14 76 15 70 16 72 17 32 18 75 19 69 20 68 21 33 23
REMARK SMILES IDX 59 24 42 25 58 26 43 27 46 28 57 29 73 30 44 31 45 32 56 34
REMARK SMILES IDX 74 35 47 36 34 37 35 38 40 39 36 40 37 41 39 42 41 43 38 44
REMARK SMILES IDX 60 45 61 46 66 47 62 48 63 49 65 50 67 51 64 52 48 53 49 54
REMARK SMILES IDX 54 55 50 56 51 57 53 58 55 59 52 60 5 61 6 62 7 63 8 64 9 65
REMARK SMILES IDX 10 66 24 67 11 68 14 69 12 70 13 72 15 73 16 74 23 75 17 76
REMARK SMILES IDX 19 77 18 78 20 79 21 80 22 81
REMARK H PARENT 72 22 46 33 11 71
REMARK Flexibility Score: inf
ROOT
ATOM      1  C   UNL A   1      38.932  19.929  25.073  1.00  0.00     0.275 C 
ENDROOT
BRANCH   1   2
ATOM      2  O   UNL A   1      39.930  19.148  25.755  1.00  0.00    -0.458 OA
BRANCH   2   3
ATOM      3  C   UNL A   1      41.247  19.411  25.931  1.00  0.00     0.338 C 
ATOM      4  O   UNL A   1      42.068  18.512  25.757  1.00  0.00    -0.246 OA
BRANCH   3   5
ATOM      5  C   UNL A   1      41.744  20.693  26.514  1.00  0.00     0.060 A 
ATOM      6  C   UNL A   1      41.729  21.027  27.869  1.00  0.00     0.016 A 
ATOM      7  C   UNL A   1      42.215  21.652  25.598  1.00  0.00     0.016 A 
ATOM      8  C   UNL A   1      42.220  22.260  28.306  1.00  0.00     0.010 A 
ATOM      9  C   UNL A   1      42.714  22.885  26.028  1.00  0.00     0.010 A 
ATOM     10  C   UNL A   1      42.698  23.200  27.389  1.00  0.00    -0.014 A 
BRANCH  10  11
ATOM     11  C   UNL A   1      42.956  24.581  27.852  1.00  0.00     0.031 A 
ATOM     12  C   UNL A   1      44.388  25.019  27.991  1.00  0.00     0.074 A 
ATOM     13  C   UNL A   1      41.948  25.451  28.041  1.00  0.00     0.049 A 
ATOM     14  N   UNL A   1      44.870  26.205  28.253  1.00  0.00    -0.248 NA
ATOM     15  C   UNL A   1      45.417  23.987  27.766  1.00  0.00     0.031 C 
ATOM     16  C   UNL A   1      40.527  25.167  27.845  1.00  0.00     0.029 A 
ATOM     17  N   UNL A   1      41.972  26.763  28.434  1.00  0.00    -0.354 N 
ATOM     18  C   UNL A   1      46.251  26.072  28.175  1.00  0.00     0.074 A 
ATOM     19  C   UNL A   1      46.535  24.679  27.915  1.00  0.00     0.031 C 
ATOM     20  C   UNL A   1      39.812  26.267  28.143  1.00  0.00     0.029 A 
ATOM     21  C   UNL A   1      40.727  27.331  28.542  1.00  0.00     0.049 A 
ATOM     22  H   UNL A   1      42.805  27.254  28.621  1.00  0.00     0.167 HD
ATOM     23  C   UNL A   1      47.198  27.033  28.271  1.00  0.00     0.037 A 
ATOM     24  C   UNL A   1      40.378  28.573  28.923  1.00  0.00     0.037 A 
ATOM     25  C   UNL A   1      46.911  28.407  28.570  1.00  0.00     0.049 A 
ATOM     26  C   UNL A   1      41.456  29.565  29.246  1.00  0.00     0.074 A 
ATOM     27  C   UNL A   1      47.786  29.472  28.682  1.00  0.00     0.029 A 
ATOM     28  N   UNL A   1      45.641  28.900  28.834  1.00  0.00    -0.354 N 
ATOM     29  N   UNL A   1      42.755  29.436  29.141  1.00  0.00    -0.248 NA
ATOM     30  C   UNL A   1      41.012  30.886  29.711  1.00  0.00     0.031 C 
ATOM     31  C   UNL A   1      47.048  30.603  29.052  1.00  0.00     0.029 A 
ATOM     32  C   UNL A   1      45.709  30.249  29.129  1.00  0.00     0.049 A 
ATOM     33  H   UNL A   1      44.813  28.367  28.813  1.00  0.00     0.167 HD
ATOM     34  C   UNL A   1      43.285  30.674  29.475  1.00  0.00     0.074 A 
ATOM     35  C   UNL A   1      42.166  31.529  29.818  1.00  0.00     0.031 C 
ATOM     36  C   UNL A   1      44.579  31.078  29.458  1.00  0.00     0.037 A 
BRANCH  23  37
ATOM     37  C   UNL A   1      48.617  26.607  28.051  1.00  0.00     0.057 A 
ATOM     38  C   UNL A   1      49.187  26.600  26.769  1.00  0.00     0.134 A 
ATOM     39  C   UNL A   1      49.414  26.174  29.115  1.00  0.00     0.134 A 
ATOM     40  F   UNL A   1      48.468  26.983  25.702  1.00  0.00    -0.206 F 
ATOM     41  C   UNL A   1      50.489  26.148  26.551  1.00  0.00     0.040 A 
ATOM     42  C   UNL A   1      50.726  25.739  28.912  1.00  0.00     0.040 A 
ATOM     43  F   UNL A   1      48.929  26.153  30.364  1.00  0.00    -0.206 F 
ATOM     44  C   UNL A   1      51.264  25.718  27.626  1.00  0.00     0.006 A 
ENDBRANCH  23  37
BRANCH  24  45
ATOM     45  C   UNL A   1      38.955  28.965  29.022  1.00  0.00     0.057 A 
ATOM     46  C   UNL A   1      38.273  29.541  27.948  1.00  0.00     0.134 A 
ATOM     47  C   UNL A   1      38.261  28.820  30.226  1.00  0.00     0.134 A 
ATOM     48  F   UNL A   1      38.899  29.740  26.780  1.00  0.00    -0.206 F 
ATOM     49  C   UNL A   1      36.942  29.948  28.067  1.00  0.00     0.040 A 
ATOM     50  C   UNL A   1      36.928  29.209  30.358  1.00  0.00     0.040 A 
ATOM     51  F   UNL A   1      38.886  28.329  31.302  1.00  0.00    -0.206 F 
ATOM     52  C   UNL A   1      36.264  29.776  29.273  1.00  0.00     0.006 A 
ENDBRANCH  24  45
BRANCH  36  53
ATOM     53  C   UNL A   1      44.834  32.527  29.734  1.00  0.00     0.057 A 
ATOM     54  C   UNL A   1      45.141  33.002  31.013  1.00  0.00     0.134 A 
ATOM     55  C   UNL A   1      44.781  33.455  28.686  1.00  0.00     0.134 A 
ATOM     56  F   UNL A   1      45.183  32.163  32.058  1.00  0.00    -0.206 F 
ATOM     57  C   UNL A   1      45.369  34.359  31.244  1.00  0.00     0.040 A 
ATOM     58  C   UNL A   1      45.031  34.809  28.901  1.00  0.00     0.040 A 
ATOM     59  F   UNL A   1      44.493  33.058  27.437  1.00  0.00    -0.206 F 
ATOM     60  C   UNL A   1      45.320  35.265  30.185  1.00  0.00     0.006 A 
ENDBRANCH  36  53
ENDBRANCH  10  11
ENDBRANCH   3   5
ENDBRANCH   2   3
ENDBRANCH   1   2
BRANCH   1  61
ATOM     61  C   UNL A   1      38.524  21.215  25.797  1.00  0.00     0.275 C 
BRANCH  61  62
ATOM     62  O   UNL A   1      37.761  22.103  24.966  1.00  0.00    -0.458 OA
BRANCH  62  63
ATOM     63  C   UNL A   1      36.878  22.886  25.643  1.00  0.00     0.339 C 
ATOM     64  O   UNL A   1      37.117  23.974  26.147  1.00  0.00    -0.246 OA
BRANCH  63  65
ATOM     65  C   UNL A   1      35.520  22.303  25.568  1.00  0.00     0.077 A 
ATOM     66  C   UNL A   1      34.531  23.066  26.060  1.00  0.00     0.101 A 
ATOM     67  C   UNL A   1      35.216  20.999  25.007  1.00  0.00     0.031 A 
ATOM     68  N   UNL A   1      33.232  22.638  25.992  1.00  0.00    -0.328 N 
ATOM     69  C   UNL A   1      33.949  20.526  24.967  1.00  0.00     0.048 A 
ATOM     70  C   UNL A   1      32.843  21.432  25.464  1.00  0.00     0.255 A 
ATOM     71  H   UNL A   1      32.533  23.235  26.343  1.00  0.00     0.169 HD
ATOM     72  O   UNL A   1      31.656  21.126  25.415  1.00  0.00    -0.269 OA
BRANCH  69  73
ATOM     73  C   UNL A   1      33.632  19.152  24.510  1.00  0.00    -0.006 A 
ATOM     74  C   UNL A   1      32.856  18.946  23.355  1.00  0.00     0.009 A 
ATOM     75  C   UNL A   1      34.188  18.035  25.153  1.00  0.00     0.094 A 
ATOM     76  C   UNL A   1      32.669  17.663  22.829  1.00  0.00     0.008 A 
ATOM     77  C   UNL A   1      34.013  16.755  24.612  1.00  0.00     0.270 A 
ATOM     78  C   UNL A   1      33.267  16.565  23.444  1.00  0.00     0.085 A 
BRANCH  77  79
ATOM     79  N   UNL A   1      34.660  15.609  25.250  1.00  0.00     0.062 N 
ATOM     80  O   UNL A   1      34.004  14.559  25.333  1.00  0.00    -0.258 OA
ATOM     81  O   UNL A   1      35.824  15.752  25.646  1.00  0.00    -0.258 OA
ENDBRANCH  77  79
ENDBRANCH  69  73
ENDBRANCH  63  65
ENDBRANCH  62  63
ENDBRANCH  61  62
ENDBRANCH   1  61
TORSDOF 13
ENDMDL
MODEL 2
REMARK VINA RESULT:     -12.0      4.996      9.667
REMARK SMILES O=C(OCCOC(=O)c1c[nH]c(=O)c(-c2cccc([N+](=O)[O-])c2)c1)c1ccc(-c2c3nc(c(-c4c(F)cccc4F)c4ccc([nH]4)c(-c4c(F)cccc4F)c4nc(c(-c5c(F)cccc5F)c5ccc2[nH]5)C=C4)C=C3)cc1
REMARK SMILES IDX 4 1 3 2 2 3 1 4 25 5 26 6 78 7 27 8 77 9 28 10 29 11 30 12
REMARK SMILES IDX 71 13 31 14 76 15 70 16 72 17 32 18 75 19 69 20 68 21 33 23
REMARK SMILES IDX 59 24 42 25 58 26 43 27 46 28 57 29 73 30 44 31 45 32 56 34
REMARK SMILES IDX 74 35 47 36 34 37 35 38 40 39 36 40 37 41 39 42 41 43 38 44
REMARK SMILES IDX 60 45 61 46 66 47 62 48 63 49 65 50 67 51 64 52 48 53 49 54
REMARK SMILES IDX 54 55 50 56 51 57 53 58 55 59 52 60 5 61 6 62 7 63 8 64 9 65
REMARK SMILES IDX 10 66 24 67 11 68 14 69 12 70 13 72 15 73 16 74 23 75 17 76
REMARK SMILES IDX 19 77 18 78 20 79 21 80 22 81
REMARK H PARENT 72 22 46 33 11 71
REMARK Flexibility Score: inf
ROOT
ATOM      1  C   UNL A   1      31.512  32.204  26.729  1.00  0.00     0.275 C 
ENDROOT
BRANCH   1   2
ATOM      2  O   UNL A   1      32.540  33.207  26.819  1.00  0.00    -0.458 OA
BRANCH   2   3
ATOM      3  C   UNL A   1      33.046  33.815  27.919  1.00  0.00     0.338 C 
ATOM      4  O   UNL A   1      32.543  34.867  28.308  1.00  0.00    -0.246 OA
BRANCH   3   5
ATOM      5  C   UNL A   1      34.311  33.373  28.577  1.00  0.00     0.060 A 
ATOM      6  C   UNL A   1      35.592  33.830  28.262  1.00  0.00     0.016 A 
ATOM      7  C   UNL A   1      34.185  32.371  29.558  1.00  0.00     0.016 A 
ATOM      8  C   UNL A   1      36.711  33.345  28.943  1.00  0.00     0.010 A 
ATOM      9  C   UNL A   1      35.299  31.886  30.248  1.00  0.00     0.010 A 
ATOM     10  C   UNL A   1      36.574  32.360  29.926  1.00  0.00    -0.014 A 
BRANCH  10  11
ATOM     11  C   UNL A   1      37.787  31.682  30.432  1.00  0.00     0.031 A 
ATOM     12  C   UNL A   1      38.232  31.993  31.834  1.00  0.00     0.074 A 
ATOM     13  C   UNL A   1      38.412  30.740  29.703  1.00  0.00     0.049 A 
ATOM     14  N   UNL A   1      39.179  31.440  32.544  1.00  0.00    -0.248 NA
ATOM     15  C   UNL A   1      37.482  33.045  32.545  1.00  0.00     0.031 C 
ATOM     16  C   UNL A   1      38.014  30.288  28.370  1.00  0.00     0.029 A 
ATOM     17  N   UNL A   1      39.516  29.984  29.993  1.00  0.00    -0.354 N 
ATOM     18  C   UNL A   1      39.105  32.039  33.796  1.00  0.00     0.074 A 
ATOM     19  C   UNL A   1      38.072  33.048  33.729  1.00  0.00     0.031 C 
ATOM     20  C   UNL A   1      38.879  29.349  27.946  1.00  0.00     0.029 A 
ATOM     21  C   UNL A   1      39.883  29.130  28.982  1.00  0.00     0.049 A 
ATOM     22  H   UNL A   1      40.002  30.046  30.847  1.00  0.00     0.167 HD
ATOM     23  C   UNL A   1      39.807  31.746  34.914  1.00  0.00     0.037 A 
ATOM     24  C   UNL A   1      40.918  28.274  28.914  1.00  0.00     0.037 A 
ATOM     25  C   UNL A   1      40.859  30.771  34.962  1.00  0.00     0.049 A 
ATOM     26  C   UNL A   1      41.826  28.131  30.099  1.00  0.00     0.074 A 
ATOM     27  C   UNL A   1      41.633  30.381  36.040  1.00  0.00     0.029 A 
ATOM     28  N   UNL A   1      41.303  30.047  33.865  1.00  0.00    -0.354 N 
ATOM     29  N   UNL A   1      41.729  28.681  31.284  1.00  0.00    -0.248 NA
ATOM     30  C   UNL A   1      42.970  27.224  29.942  1.00  0.00     0.031 C 
ATOM     31  C   UNL A   1      42.572  29.448  35.585  1.00  0.00     0.029 A 
ATOM     32  C   UNL A   1      42.354  29.228  34.233  1.00  0.00     0.049 A 
ATOM     33  H   UNL A   1      40.925  30.109  32.958  1.00  0.00     0.167 HD
ATOM     34  C   UNL A   1      42.767  28.146  32.034  1.00  0.00     0.074 A 
ATOM     35  C   UNL A   1      43.500  27.255  31.157  1.00  0.00     0.031 C 
ATOM     36  C   UNL A   1      43.061  28.344  33.342  1.00  0.00     0.037 A 
BRANCH  23  37
ATOM     37  C   UNL A   1      39.445  32.502  36.156  1.00  0.00     0.057 A 
ATOM     38  C   UNL A   1      38.436  32.048  37.019  1.00  0.00     0.134 A 
ATOM     39  C   UNL A   1      40.083  33.702  36.482  1.00  0.00     0.134 A 
ATOM     40  F   UNL A   1      37.769  30.915  36.751  1.00  0.00    -0.206 F 
ATOM     41  C   UNL A   1      38.054  32.780  38.145  1.00  0.00     0.040 A 
ATOM     42  C   UNL A   1      39.724  34.433  37.618  1.00  0.00     0.040 A 
ATOM     43  F   UNL A   1      41.053  34.193  35.698  1.00  0.00    -0.206 F 
ATOM     44  C   UNL A   1      38.702  33.976  38.448  1.00  0.00     0.006 A 
ENDBRANCH  23  37
BRANCH  24  45
ATOM     45  C   UNL A   1      41.163  27.476  27.692  1.00  0.00     0.057 A 
ATOM     46  C   UNL A   1      40.660  26.181  27.544  1.00  0.00     0.134 A 
ATOM     47  C   UNL A   1      41.961  27.981  26.662  1.00  0.00     0.134 A 
ATOM     48  F   UNL A   1      39.921  25.629  28.515  1.00  0.00    -0.206 F 
ATOM     49  C   UNL A   1      40.936  25.421  26.404  1.00  0.00     0.040 A 
ATOM     50  C   UNL A   1      42.235  27.241  25.512  1.00  0.00     0.040 A 
ATOM     51  F   UNL A   1      42.515  29.193  26.780  1.00  0.00    -0.206 F 
ATOM     52  C   UNL A   1      41.720  25.954  25.382  1.00  0.00     0.006 A 
ENDBRANCH  24  45
BRANCH  36  53
ATOM     53  C   UNL A   1      44.165  27.513  33.915  1.00  0.00     0.057 A 
ATOM     54  C   UNL A   1      43.945  26.233  34.435  1.00  0.00     0.134 A 
ATOM     55  C   UNL A   1      45.475  28.009  33.930  1.00  0.00     0.134 A 
ATOM     56  F   UNL A   1      42.709  25.716  34.467  1.00  0.00    -0.206 F 
ATOM     57  C   UNL A   1      44.992  25.481  34.969  1.00  0.00     0.040 A 
ATOM     58  C   UNL A   1      46.532  27.257  34.439  1.00  0.00     0.040 A 
ATOM     59  F   UNL A   1      45.747  29.230  33.444  1.00  0.00    -0.206 F 
ATOM     60  C   UNL A   1      46.290  25.991  34.965  1.00  0.00     0.006 A 
ENDBRANCH  36  53
ENDBRANCH  10  11
ENDBRANCH   3   5
ENDBRANCH   2   3
ENDBRANCH   1   2
BRANCH   1  61
ATOM     61  C   UNL A   1      32.013  30.764  26.862  1.00  0.00     0.275 C 
BRANCH  61  62
ATOM     62  O   UNL A   1      32.434  30.203  25.609  1.00  0.00    -0.458 OA
BRANCH  62  63
ATOM     63  C   UNL A   1      33.494  29.355  25.701  1.00  0.00     0.339 C 
ATOM     64  O   UNL A   1      34.296  29.301  26.622  1.00  0.00    -0.246 OA
BRANCH  63  65
ATOM     65  C   UNL A   1      33.470  28.386  24.583  1.00  0.00     0.077 A 
ATOM     66  C   UNL A   1      33.227  28.904  23.369  1.00  0.00     0.101 A 
ATOM     67  C   UNL A   1      33.689  26.958  24.728  1.00  0.00     0.031 A 
ATOM     68  N   UNL A   1      33.232  28.099  22.262  1.00  0.00    -0.328 N 
ATOM     69  C   UNL A   1      33.656  26.127  23.662  1.00  0.00     0.048 A 
ATOM     70  C   UNL A   1      33.449  26.743  22.294  1.00  0.00     0.255 A 
ATOM     71  H   UNL A   1      33.072  28.520  21.386  1.00  0.00     0.169 HD
ATOM     72  O   UNL A   1      33.463  26.088  21.257  1.00  0.00    -0.269 OA
BRANCH  69  73
ATOM     73  C   UNL A   1      33.757  24.655  23.802  1.00  0.00    -0.006 A 
ATOM     74  C   UNL A   1      34.970  23.995  23.535  1.00  0.00     0.009 A 
ATOM     75  C   UNL A   1      32.684  23.906  24.309  1.00  0.00     0.094 A 
ATOM     76  C   UNL A   1      35.125  22.630  23.801  1.00  0.00     0.008 A 
ATOM     77  C   UNL A   1      32.850  22.544  24.591  1.00  0.00     0.270 A 
ATOM     78  C   UNL A   1      34.071  21.905  24.352  1.00  0.00     0.085 A 
BRANCH  77  79
ATOM     79  N   UNL A   1      31.746  21.792  25.188  1.00  0.00     0.062 N 
ATOM     80  O   UNL A   1      30.788  22.443  25.632  1.00  0.00    -0.258 OA
ATOM     81  O   UNL A   1      31.828  20.557  25.193  1.00  0.00    -0.258 OA
ENDBRANCH  77  79
ENDBRANCH  69  73
ENDBRANCH  63  65
ENDBRANCH  62  63
ENDBRANCH  61  62
ENDBRANCH   1  61
TORSDOF 13
ENDMDL
MODEL 3
REMARK VINA RESULT:     -11.9      6.336     11.011
REMARK SMILES O=C(OCCOC(=O)c1c[nH]c(=O)c(-c2cccc([N+](=O)[O-])c2)c1)c1ccc(-c2c3nc(c(-c4c(F)cccc4F)c4ccc([nH]4)c(-c4c(F)cccc4F)c4nc(c(-c5c(F)cccc5F)c5ccc2[nH]5)C=C4)C=C3)cc1
REMARK SMILES IDX 4 1 3 2 2 3 1 4 25 5 26 6 78 7 27 8 77 9 28 10 29 11 30 12
REMARK SMILES IDX 71 13 31 14 76 15 70 16 72 17 32 18 75 19 69 20 68 21 33 23
REMARK SMILES IDX 59 24 42 25 58 26 43 27 46 28 57 29 73 30 44 31 45 32 56 34
REMARK SMILES IDX 74 35 47 36 34 37 35 38 40 39 36 40 37 41 39 42 41 43 38 44
REMARK SMILES IDX 60 45 61 46 66 47 62 48 63 49 65 50 67 51 64 52 48 53 49 54
REMARK SMILES IDX 54 55 50 56 51 57 53 58 55 59 52 60 5 61 6 62 7 63 8 64 9 65
REMARK SMILES IDX 10 66 24 67 11 68 14 69 12 70 13 72 15 73 16 74 23 75 17 76
REMARK SMILES IDX 19 77 18 78 20 79 21 80 22 81
REMARK H PARENT 72 22 46 33 11 71
REMARK Flexibility Score: inf
ROOT
ATOM      1  C   UNL A   1      31.976  32.440  27.294  1.00  0.00     0.275 C 
ENDROOT
BRANCH   1   2
ATOM      2  O   UNL A   1      32.334  33.830  27.402  1.00  0.00    -0.458 OA
BRANCH   2   3
ATOM      3  C   UNL A   1      32.955  34.475  28.418  1.00  0.00     0.338 C 
ATOM      4  O   UNL A   1      32.539  35.576  28.773  1.00  0.00    -0.246 OA
BRANCH   3   5
ATOM      5  C   UNL A   1      34.242  34.003  29.009  1.00  0.00     0.060 A 
ATOM      6  C   UNL A   1      35.508  34.199  28.455  1.00  0.00     0.016 A 
ATOM      7  C   UNL A   1      34.145  33.255  30.197  1.00  0.00     0.016 A 
ATOM      8  C   UNL A   1      36.651  33.711  29.094  1.00  0.00     0.010 A 
ATOM      9  C   UNL A   1      35.283  32.769  30.846  1.00  0.00     0.010 A 
ATOM     10  C   UNL A   1      36.544  32.980  30.281  1.00  0.00    -0.014 A 
BRANCH  10  11
ATOM     11  C   UNL A   1      37.732  32.256  30.783  1.00  0.00     0.031 A 
ATOM     12  C   UNL A   1      38.258  32.628  32.142  1.00  0.00     0.074 A 
ATOM     13  C   UNL A   1      38.262  31.229  30.096  1.00  0.00     0.049 A 
ATOM     14  N   UNL A   1      39.198  32.059  32.851  1.00  0.00    -0.248 NA
ATOM     15  C   UNL A   1      37.610  33.771  32.810  1.00  0.00     0.031 C 
ATOM     16  C   UNL A   1      37.777  30.719  28.814  1.00  0.00     0.029 A 
ATOM     17  N   UNL A   1      39.327  30.420  30.393  1.00  0.00    -0.354 N 
ATOM     18  C   UNL A   1      39.218  32.742  34.060  1.00  0.00     0.074 A 
ATOM     19  C   UNL A   1      38.251  33.812  33.966  1.00  0.00     0.031 C 
ATOM     20  C   UNL A   1      38.560  29.698  28.421  1.00  0.00     0.029 A 
ATOM     21  C   UNL A   1      39.592  29.480  29.428  1.00  0.00     0.049 A 
ATOM     22  H   UNL A   1      39.853  30.505  31.220  1.00  0.00     0.167 HD
ATOM     23  C   UNL A   1      39.949  32.476  35.167  1.00  0.00     0.037 A 
ATOM     24  C   UNL A   1      40.566  28.553  29.377  1.00  0.00     0.037 A 
ATOM     25  C   UNL A   1      40.937  31.437  35.239  1.00  0.00     0.049 A 
ATOM     26  C   UNL A   1      41.514  28.426  30.532  1.00  0.00     0.074 A 
ATOM     27  C   UNL A   1      41.731  31.067  36.310  1.00  0.00     0.029 A 
ATOM     28  N   UNL A   1      41.284  30.615  34.177  1.00  0.00    -0.354 N 
ATOM     29  N   UNL A   1      41.505  29.057  31.680  1.00  0.00    -0.248 NA
ATOM     30  C   UNL A   1      42.589  27.436  30.391  1.00  0.00     0.031 C 
ATOM     31  C   UNL A   1      42.586  30.045  35.882  1.00  0.00     0.029 A 
ATOM     32  C   UNL A   1      42.295  29.752  34.558  1.00  0.00     0.049 A 
ATOM     33  H   UNL A   1      40.871  30.642  33.283  1.00  0.00     0.167 HD
ATOM     34  C   UNL A   1      42.539  28.504  32.422  1.00  0.00     0.074 A 
ATOM     35  C   UNL A   1      43.173  27.510  31.579  1.00  0.00     0.031 C 
ATOM     36  C   UNL A   1      42.902  28.766  33.701  1.00  0.00     0.037 A 
BRANCH  23  37
ATOM     37  C   UNL A   1      39.691  33.333  36.368  1.00  0.00     0.057 A 
ATOM     38  C   UNL A   1      40.415  34.514  36.591  1.00  0.00     0.134 A 
ATOM     39  C   UNL A   1      38.739  32.969  37.325  1.00  0.00     0.134 A 
ATOM     40  F   UNL A   1      41.359  34.909  35.723  1.00  0.00    -0.206 F 
ATOM     41  C   UNL A   1      40.220  35.285  37.739  1.00  0.00     0.040 A 
ATOM     42  C   UNL A   1      38.520  33.743  38.467  1.00  0.00     0.040 A 
ATOM     43  F   UNL A   1      38.016  31.850  37.174  1.00  0.00    -0.206 F 
ATOM     44  C   UNL A   1      39.267  34.900  38.680  1.00  0.00     0.006 A 
ENDBRANCH  23  37
BRANCH  24  45
ATOM     45  C   UNL A   1      40.704  27.662  28.203  1.00  0.00     0.057 A 
ATOM     46  C   UNL A   1      41.407  28.052  27.061  1.00  0.00     0.134 A 
ATOM     47  C   UNL A   1      40.079  26.413  28.183  1.00  0.00     0.134 A 
ATOM     48  F   UNL A   1      41.994  29.255  27.008  1.00  0.00    -0.206 F 
ATOM     49  C   UNL A   1      41.493  27.220  25.942  1.00  0.00     0.040 A 
ATOM     50  C   UNL A   1      40.166  25.564  27.079  1.00  0.00     0.040 A 
ATOM     51  F   UNL A   1      39.343  26.016  29.228  1.00  0.00    -0.206 F 
ATOM     52  C   UNL A   1      40.876  25.969  25.952  1.00  0.00     0.006 A 
ENDBRANCH  24  45
BRANCH  36  53
ATOM     53  C   UNL A   1      43.975  27.902  34.285  1.00  0.00     0.057 A 
ATOM     54  C   UNL A   1      43.701  26.657  34.861  1.00  0.00     0.134 A 
ATOM     55  C   UNL A   1      45.309  28.328  34.252  1.00  0.00     0.134 A 
ATOM     56  F   UNL A   1      42.440  26.207  34.941  1.00  0.00    -0.206 F 
ATOM     57  C   UNL A   1      44.719  25.872  35.404  1.00  0.00     0.040 A 
ATOM     58  C   UNL A   1      46.337  27.542  34.770  1.00  0.00     0.040 A 
ATOM     59  F   UNL A   1      45.633  29.513  33.711  1.00  0.00    -0.206 F 
ATOM     60  C   UNL A   1      46.042  26.312  35.353  1.00  0.00     0.006 A 
ENDBRANCH  36  53
ENDBRANCH  10  11
ENDBRANCH   3   5
ENDBRANCH   2   3
ENDBRANCH   1   2
BRANCH   1  61
ATOM     61  C   UNL A   1      33.165  31.480  27.204  1.00  0.00     0.275 C 
BRANCH  61  62
ATOM     62  O   UNL A   1      32.779  30.103  27.333  1.00  0.00    -0.458 OA
BRANCH  62  63
ATOM     63  C   UNL A   1      33.560  29.233  26.637  1.00  0.00     0.339 C 
ATOM     64  O   UNL A   1      34.625  28.764  27.009  1.00  0.00    -0.246 OA
BRANCH  63  65
ATOM     65  C   UNL A   1      32.868  28.806  25.400  1.00  0.00     0.077 A 
ATOM     66  C   UNL A   1      33.500  27.873  24.673  1.00  0.00     0.101 A 
ATOM     67  C   UNL A   1      31.588  29.326  24.954  1.00  0.00     0.031 A 
ATOM     68  N   UNL A   1      32.921  27.375  23.537  1.00  0.00    -0.328 N 
ATOM     69  C   UNL A   1      31.009  28.890  23.812  1.00  0.00     0.048 A 
ATOM     70  C   UNL A   1      31.707  27.788  23.045  1.00  0.00     0.255 A 
ATOM     71  H   UNL A   1      33.405  26.675  23.042  1.00  0.00     0.169 HD
ATOM     72  O   UNL A   1      31.237  27.279  22.032  1.00  0.00    -0.269 OA
BRANCH  69  73
ATOM     73  C   UNL A   1      29.764  29.491  23.277  1.00  0.00    -0.006 A 
ATOM     74  C   UNL A   1      28.575  28.742  23.226  1.00  0.00     0.009 A 
ATOM     75  C   UNL A   1      29.719  30.847  22.916  1.00  0.00     0.094 A 
ATOM     76  C   UNL A   1      27.361  29.336  22.861  1.00  0.00     0.008 A 
ATOM     77  C   UNL A   1      28.499  31.440  22.569  1.00  0.00     0.270 A 
ATOM     78  C   UNL A   1      27.316  30.693  22.553  1.00  0.00     0.085 A 
BRANCH  77  79
ATOM     79  N   UNL A   1      28.453  32.871  22.267  1.00  0.00     0.062 N 
ATOM     80  O   UNL A   1      29.076  33.633  23.023  1.00  0.00    -0.258 OA
ATOM     81  O   UNL A   1      27.816  33.228  21.267  1.00  0.00    -0.258 OA
ENDBRANCH  77  79
ENDBRANCH  69  73
ENDBRANCH  63  65
ENDBRANCH  62  63
ENDBRANCH  61  62
ENDBRANCH   1  61
TORSDOF 13
ENDMDL
