MODEL 1
REMARK VINA RESULT:     -10.5      0.000      0.000
REMARK SMILES COc1ccc2cc([C@H](C)C(=O)OCCOC(=O)c3ccc(-c4c5nc(c(-c6c(F)cccc6F)c6ccc([nH]6)c(-c6c(F)cccc6F)c6nc(c(-c7c(F)cccc7F)c7ccc4[nH]7)C=C6)C=C5)cc3)ccc2c1
REMARK SMILES IDX 14 1 13 2 11 3 12 4 9 5 10 6 8 7 3 8 4 9 76 10 5 11 75 12
REMARK SMILES IDX 6 13 74 14 7 15 73 16 2 17 1 18 15 19 16 20 17 21 18 22
REMARK SMILES IDX 19 23 20 24 72 25 21 26 71 27 22 28 23 29 24 30 65 31 25 32
REMARK SMILES IDX 70 33 64 34 66 35 26 36 69 37 63 38 62 39 27 41 53 42 36 43
REMARK SMILES IDX 52 44 37 45 40 46 51 47 67 48 38 49 39 50 50 52 68 53 41 54
REMARK SMILES IDX 28 55 29 56 34 57 30 58 31 59 33 60 35 61 32 62 54 63 55 64
REMARK SMILES IDX 60 65 56 66 57 67 59 68 61 69 58 70 42 71 43 72 48 73 44 74
REMARK SMILES IDX 45 75 47 76 49 77 46 78
REMARK H PARENT 66 40 40 51
REMARK Flexibility Score: inf
ROOT
ATOM      1  C   UNL A   1      42.261  18.985  26.347  1.00  0.00     0.274 C 
ENDROOT
BRANCH   1   2
ATOM      2  O   UNL A   1      42.642  20.144  27.114  1.00  0.00    -0.462 OA
BRANCH   2   3
ATOM      3  C   UNL A   1      42.095  21.326  26.723  1.00  0.00     0.313 C 
ATOM      4  O   UNL A   1      42.246  21.825  25.611  1.00  0.00    -0.252 OA
BRANCH   3   5
ATOM      5  C   UNL A   1      41.299  22.014  27.830  1.00  0.00     0.126 C 
ATOM      6  C   UNL A   1      42.103  22.993  28.688  1.00  0.00     0.025 C 
BRANCH   5   7
ATOM      7  C   UNL A   1      40.013  22.575  27.256  1.00  0.00    -0.033 A 
ATOM      8  C   UNL A   1      35.837  23.286  24.458  1.00  0.00     0.119 A 
ATOM      9  C   UNL A   1      36.233  21.970  24.229  1.00  0.00     0.047 A 
ATOM     10  C   UNL A   1      36.581  24.093  25.322  1.00  0.00     0.055 A 
ATOM     11  C   UNL A   1      37.360  21.460  24.877  1.00  0.00     0.012 A 
ATOM     12  C   UNL A   1      37.712  23.594  25.987  1.00  0.00    -0.015 A 
ATOM     13  C   UNL A   1      38.106  22.260  25.756  1.00  0.00    -0.018 A 
ATOM     14  C   UNL A   1      38.464  24.392  26.862  1.00  0.00     0.009 A 
ATOM     15  C   UNL A   1      39.252  21.767  26.393  1.00  0.00     0.013 A 
ATOM     16  C   UNL A   1      39.608  23.891  27.487  1.00  0.00     0.005 A 
BRANCH   8  17
ATOM     17  O   UNL A   1      34.770  23.901  23.862  1.00  0.00    -0.497 OA
ATOM     18  C   UNL A   1      34.142  23.156  22.825  1.00  0.00     0.278 C 
ENDBRANCH   8  17
ENDBRANCH   5   7
ENDBRANCH   3   5
ENDBRANCH   2   3
ENDBRANCH   1   2
BRANCH   1  19
ATOM     19  C   UNL A   1      43.421  18.460  25.495  1.00  0.00     0.275 C 
BRANCH  19  20
ATOM     20  O   UNL A   1      43.667  19.286  24.341  1.00  0.00    -0.458 OA
BRANCH  20  21
ATOM     21  C   UNL A   1      44.969  19.565  24.100  1.00  0.00     0.338 C 
ATOM     22  O   UNL A   1      45.796  18.837  23.578  1.00  0.00    -0.246 OA
BRANCH  21  23
ATOM     23  C   UNL A   1      45.253  20.968  24.436  1.00  0.00     0.060 A 
ATOM     24  C   UNL A   1      45.720  21.255  25.722  1.00  0.00     0.016 A 
ATOM     25  C   UNL A   1      44.974  21.997  23.535  1.00  0.00     0.016 A 
ATOM     26  C   UNL A   1      45.903  22.572  26.123  1.00  0.00     0.010 A 
ATOM     27  C   UNL A   1      45.153  23.322  23.941  1.00  0.00     0.010 A 
ATOM     28  C   UNL A   1      45.603  23.615  25.241  1.00  0.00    -0.014 A 
BRANCH  28  29
ATOM     29  C   UNL A   1      45.689  25.015  25.710  1.00  0.00     0.031 A 
ATOM     30  C   UNL A   1      47.012  25.721  25.682  1.00  0.00     0.074 A 
ATOM     31  C   UNL A   1      44.585  25.654  26.132  1.00  0.00     0.049 A 
ATOM     32  N   UNL A   1      47.331  26.902  26.145  1.00  0.00    -0.248 NA
ATOM     33  C   UNL A   1      48.126  25.000  25.044  1.00  0.00     0.031 C 
ATOM     34  C   UNL A   1      43.235  25.089  26.144  1.00  0.00     0.029 A 
ATOM     35  N   UNL A   1      44.427  26.917  26.641  1.00  0.00    -0.354 N 
ATOM     36  C   UNL A   1      48.685  27.056  25.882  1.00  0.00     0.074 A 
ATOM     37  C   UNL A   1      49.130  25.847  25.223  1.00  0.00     0.031 C 
ATOM     38  C   UNL A   1      42.386  26.003  26.642  1.00  0.00     0.029 A 
ATOM     39  C   UNL A   1      43.140  27.193  27.027  1.00  0.00     0.049 A 
ATOM     40  H   UNL A   1      45.166  27.564  26.720  1.00  0.00     0.167 HD
ATOM     41  C   UNL A   1      49.482  28.113  26.167  1.00  0.00     0.037 A 
ATOM     42  C   UNL A   1      42.635  28.273  27.653  1.00  0.00     0.037 A 
ATOM     43  C   UNL A   1      49.029  29.318  26.808  1.00  0.00     0.049 A 
ATOM     44  C   UNL A   1      43.551  29.408  28.014  1.00  0.00     0.074 A 
ATOM     45  C   UNL A   1      49.756  30.446  27.142  1.00  0.00     0.029 A 
ATOM     46  N   UNL A   1      47.722  29.550  27.211  1.00  0.00    -0.354 N 
ATOM     47  N   UNL A   1      44.837  29.536  27.786  1.00  0.00    -0.248 NA
ATOM     48  C   UNL A   1      42.951  30.543  28.728  1.00  0.00     0.031 C 
ATOM     49  C   UNL A   1      48.895  31.349  27.776  1.00  0.00     0.029 A 
ATOM     50  C   UNL A   1      47.624  30.798  27.803  1.00  0.00     0.049 A 
ATOM     51  H   UNL A   1      46.973  28.921  27.093  1.00  0.00     0.167 HD
ATOM     52  C   UNL A   1      45.195  30.771  28.309  1.00  0.00     0.074 A 
ATOM     53  C   UNL A   1      43.989  31.358  28.858  1.00  0.00     0.031 C 
ATOM     54  C   UNL A   1      46.412  31.366  28.335  1.00  0.00     0.037 A 
BRANCH  41  55
ATOM     55  C   UNL A   1      50.934  27.992  25.818  1.00  0.00     0.057 A 
ATOM     56  C   UNL A   1      51.904  27.669  26.776  1.00  0.00     0.134 A 
ATOM     57  C   UNL A   1      51.365  28.186  24.500  1.00  0.00     0.134 A 
ATOM     58  F   UNL A   1      51.557  27.489  28.058  1.00  0.00    -0.206 F 
ATOM     59  C   UNL A   1      53.254  27.561  26.438  1.00  0.00     0.040 A 
ATOM     60  C   UNL A   1      52.709  28.061  24.146  1.00  0.00     0.040 A 
ATOM     61  F   UNL A   1      50.486  28.498  23.535  1.00  0.00    -0.206 F 
ATOM     62  C   UNL A   1      53.659  27.753  25.117  1.00  0.00     0.006 A 
ENDBRANCH  41  55
BRANCH  42  63
ATOM     63  C   UNL A   1      41.194  28.316  28.003  1.00  0.00     0.057 A 
ATOM     64  C   UNL A   1      40.731  27.814  29.223  1.00  0.00     0.134 A 
ATOM     65  C   UNL A   1      40.249  28.861  27.126  1.00  0.00     0.134 A 
ATOM     66  F   UNL A   1      41.586  27.259  30.094  1.00  0.00    -0.206 F 
ATOM     67  C   UNL A   1      39.375  27.845  29.557  1.00  0.00     0.040 A 
ATOM     68  C   UNL A   1      38.894  28.919  27.456  1.00  0.00     0.040 A 
ATOM     69  F   UNL A   1      40.632  29.357  25.940  1.00  0.00    -0.206 F 
ATOM     70  C   UNL A   1      38.454  28.405  28.674  1.00  0.00     0.006 A 
ENDBRANCH  42  63
BRANCH  54  71
ATOM     71  C   UNL A   1      46.491  32.733  28.944  1.00  0.00     0.057 A 
ATOM     72  C   UNL A   1      46.271  33.889  28.186  1.00  0.00     0.134 A 
ATOM     73  C   UNL A   1      46.749  32.889  30.310  1.00  0.00     0.134 A 
ATOM     74  F   UNL A   1      46.031  33.805  26.869  1.00  0.00    -0.206 F 
ATOM     75  C   UNL A   1      46.321  35.158  28.766  1.00  0.00     0.040 A 
ATOM     76  C   UNL A   1      46.782  34.150  30.905  1.00  0.00     0.040 A 
ATOM     77  F   UNL A   1      46.963  31.818  31.090  1.00  0.00    -0.206 F 
ATOM     78  C   UNL A   1      46.571  35.289  30.131  1.00  0.00     0.006 A 
ENDBRANCH  54  71
ENDBRANCH  28  29
ENDBRANCH  21  23
ENDBRANCH  20  21
ENDBRANCH  19  20
ENDBRANCH   1  19
TORSDOF 13
ENDMDL
MODEL 2
REMARK VINA RESULT:     -10.5      7.543     12.945
REMARK SMILES COc1ccc2cc([C@H](C)C(=O)OCCOC(=O)c3ccc(-c4c5nc(c(-c6c(F)cccc6F)c6ccc([nH]6)c(-c6c(F)cccc6F)c6nc(c(-c7c(F)cccc7F)c7ccc4[nH]7)C=C6)C=C5)cc3)ccc2c1
REMARK SMILES IDX 14 1 13 2 11 3 12 4 9 5 10 6 8 7 3 8 4 9 76 10 5 11 75 12
REMARK SMILES IDX 6 13 74 14 7 15 73 16 2 17 1 18 15 19 16 20 17 21 18 22
REMARK SMILES IDX 19 23 20 24 72 25 21 26 71 27 22 28 23 29 24 30 65 31 25 32
REMARK SMILES IDX 70 33 64 34 66 35 26 36 69 37 63 38 62 39 27 41 53 42 36 43
REMARK SMILES IDX 52 44 37 45 40 46 51 47 67 48 38 49 39 50 50 52 68 53 41 54
REMARK SMILES IDX 28 55 29 56 34 57 30 58 31 59 33 60 35 61 32 62 54 63 55 64
REMARK SMILES IDX 60 65 56 66 57 67 59 68 61 69 58 70 42 71 43 72 48 73 44 74
REMARK SMILES IDX 45 75 47 76 49 77 46 78
REMARK H PARENT 66 40 40 51
REMARK Flexibility Score: inf
ROOT
ATOM      1  C   UNL A   1      33.686  35.507  28.865  1.00  0.00     0.274 C 
ENDROOT
BRANCH   1   2
ATOM      2  O   UNL A   1      33.255  34.133  28.818  1.00  0.00    -0.462 OA
BRANCH   2   3
ATOM      3  C   UNL A   1      34.171  33.205  29.206  1.00  0.00     0.313 C 
ATOM      4  O   UNL A   1      34.232  32.721  30.333  1.00  0.00    -0.252 OA
BRANCH   3   5
ATOM      5  C   UNL A   1      35.166  32.846  28.104  1.00  0.00     0.126 C 
ATOM      6  C   UNL A   1      36.630  33.135  28.441  1.00  0.00     0.025 C 
BRANCH   5   7
ATOM      7  C   UNL A   1      34.889  31.441  27.610  1.00  0.00    -0.033 A 
ATOM      8  C   UNL A   1      32.577  27.173  26.120  1.00  0.00     0.119 A 
ATOM      9  C   UNL A   1      31.600  28.168  26.096  1.00  0.00     0.047 A 
ATOM     10  C   UNL A   1      33.880  27.492  26.510  1.00  0.00     0.055 A 
ATOM     11  C   UNL A   1      31.934  29.478  26.445  1.00  0.00     0.012 A 
ATOM     12  C   UNL A   1      34.233  28.804  26.858  1.00  0.00    -0.015 A 
ATOM     13  C   UNL A   1      33.243  29.808  26.827  1.00  0.00    -0.018 A 
ATOM     14  C   UNL A   1      35.539  29.137  27.247  1.00  0.00     0.009 A 
ATOM     15  C   UNL A   1      33.583  31.113  27.204  1.00  0.00     0.013 A 
ATOM     16  C   UNL A   1      35.865  30.441  27.625  1.00  0.00     0.005 A 
BRANCH   8  17
ATOM     17  O   UNL A   1      32.363  25.855  25.824  1.00  0.00    -0.497 OA
ATOM     18  C   UNL A   1      33.486  25.001  26.009  1.00  0.00     0.278 C 
ENDBRANCH   8  17
ENDBRANCH   5   7
ENDBRANCH   3   5
ENDBRANCH   2   3
ENDBRANCH   1   2
BRANCH   1  19
ATOM     19  C   UNL A   1      32.902  36.314  29.906  1.00  0.00     0.275 C 
BRANCH  19  20
ATOM     20  O   UNL A   1      32.442  35.494  30.997  1.00  0.00    -0.458 OA
BRANCH  20  21
ATOM     21  C   UNL A   1      32.768  35.943  32.231  1.00  0.00     0.338 C 
ATOM     22  O   UNL A   1      32.169  36.769  32.899  1.00  0.00    -0.246 OA
BRANCH  21  23
ATOM     23  C   UNL A   1      33.913  35.183  32.756  1.00  0.00     0.060 A 
ATOM     24  C   UNL A   1      35.195  35.701  32.552  1.00  0.00     0.016 A 
ATOM     25  C   UNL A   1      33.738  33.935  33.354  1.00  0.00     0.016 A 
ATOM     26  C   UNL A   1      36.314  34.973  32.934  1.00  0.00     0.010 A 
ATOM     27  C   UNL A   1      34.864  33.199  33.735  1.00  0.00     0.010 A 
ATOM     28  C   UNL A   1      36.156  33.708  33.512  1.00  0.00    -0.014 A 
BRANCH  28  29
ATOM     29  C   UNL A   1      37.350  32.888  33.812  1.00  0.00     0.031 A 
ATOM     30  C   UNL A   1      38.109  33.129  35.083  1.00  0.00     0.074 A 
ATOM     31  C   UNL A   1      37.733  31.920  32.962  1.00  0.00     0.049 A 
ATOM     32  N   UNL A   1      39.237  32.604  35.486  1.00  0.00    -0.248 NA
ATOM     33  C   UNL A   1      37.516  34.091  36.027  1.00  0.00     0.031 C 
ATOM     34  C   UNL A   1      37.035  31.553  31.730  1.00  0.00     0.029 A 
ATOM     35  N   UNL A   1      38.809  31.071  33.006  1.00  0.00    -0.354 N 
ATOM     36  C   UNL A   1      39.505  33.189  36.715  1.00  0.00     0.074 A 
ATOM     37  C   UNL A   1      38.425  34.113  36.991  1.00  0.00     0.031 C 
ATOM     38  C   UNL A   1      37.707  30.556  31.130  1.00  0.00     0.029 A 
ATOM     39  C   UNL A   1      38.903  30.251  31.911  1.00  0.00     0.049 A 
ATOM     40  H   UNL A   1      39.451  31.053  33.753  1.00  0.00     0.167 HD
ATOM     41  C   UNL A   1      40.559  32.973  37.538  1.00  0.00     0.037 A 
ATOM     42  C   UNL A   1      39.865  29.377  31.562  1.00  0.00     0.037 A 
ATOM     43  C   UNL A   1      41.620  32.042  37.264  1.00  0.00     0.049 A 
ATOM     44  C   UNL A   1      41.056  29.199  32.461  1.00  0.00     0.074 A 
ATOM     45  C   UNL A   1      42.733  31.748  38.031  1.00  0.00     0.029 A 
ATOM     46  N   UNL A   1      41.696  31.247  36.129  1.00  0.00    -0.354 N 
ATOM     47  N   UNL A   1      41.317  29.775  33.610  1.00  0.00    -0.248 NA
ATOM     48  C   UNL A   1      42.091  28.258  32.012  1.00  0.00     0.031 C 
ATOM     49  C   UNL A   1      43.499  30.799  37.345  1.00  0.00     0.029 A 
ATOM     50  C   UNL A   1      42.844  30.474  36.168  1.00  0.00     0.049 A 
ATOM     51  H   UNL A   1      41.031  31.234  35.402  1.00  0.00     0.167 HD
ATOM     52  C   UNL A   1      42.533  29.253  34.030  1.00  0.00     0.074 A 
ATOM     53  C   UNL A   1      42.954  28.306  33.017  1.00  0.00     0.031 C 
ATOM     54  C   UNL A   1      43.239  29.532  35.152  1.00  0.00     0.037 A 
BRANCH  41  55
ATOM     55  C   UNL A   1      40.629  33.788  38.793  1.00  0.00     0.057 A 
ATOM     56  C   UNL A   1      41.391  34.961  38.875  1.00  0.00     0.134 A 
ATOM     57  C   UNL A   1      39.912  33.401  39.931  1.00  0.00     0.134 A 
ATOM     58  F   UNL A   1      42.115  35.375  37.825  1.00  0.00    -0.206 F 
ATOM     59  C   UNL A   1      41.449  35.710  40.051  1.00  0.00     0.040 A 
ATOM     60  C   UNL A   1      39.946  34.153  41.106  1.00  0.00     0.040 A 
ATOM     61  F   UNL A   1      39.164  32.287  39.918  1.00  0.00    -0.206 F 
ATOM     62  C   UNL A   1      40.721  35.309  41.170  1.00  0.00     0.006 A 
ENDBRANCH  41  55
BRANCH  42  63
ATOM     63  C   UNL A   1      39.753  28.626  30.288  1.00  0.00     0.057 A 
ATOM     64  C   UNL A   1      39.116  27.383  30.234  1.00  0.00     0.134 A 
ATOM     65  C   UNL A   1      40.281  29.136  29.095  1.00  0.00     0.134 A 
ATOM     66  F   UNL A   1      38.610  26.834  31.348  1.00  0.00    -0.206 F 
ATOM     67  C   UNL A   1      39.013  26.667  29.040  1.00  0.00     0.040 A 
ATOM     68  C   UNL A   1      40.166  28.441  27.890  1.00  0.00     0.040 A 
ATOM     69  F   UNL A   1      40.906  30.323  29.083  1.00  0.00    -0.206 F 
ATOM     70  C   UNL A   1      39.534  27.201  27.862  1.00  0.00     0.006 A 
ENDBRANCH  42  63
BRANCH  54  71
ATOM     71  C   UNL A   1      44.519  28.781  35.359  1.00  0.00     0.057 A 
ATOM     72  C   UNL A   1      44.550  27.554  36.032  1.00  0.00     0.134 A 
ATOM     73  C   UNL A   1      45.723  29.271  34.842  1.00  0.00     0.134 A 
ATOM     74  F   UNL A   1      43.431  27.039  36.561  1.00  0.00    -0.206 F 
ATOM     75  C   UNL A   1      45.743  26.847  36.198  1.00  0.00     0.040 A 
ATOM     76  C   UNL A   1      46.917  28.565  34.985  1.00  0.00     0.040 A 
ATOM     77  F   UNL A   1      45.756  30.439  34.182  1.00  0.00    -0.206 F 
ATOM     78  C   UNL A   1      46.929  27.350  35.667  1.00  0.00     0.006 A 
ENDBRANCH  54  71
ENDBRANCH  28  29
ENDBRANCH  21  23
ENDBRANCH  20  21
ENDBRANCH  19  20
ENDBRANCH   1  19
TORSDOF 13
ENDMDL
MODEL 3
REMARK VINA RESULT:     -10.2      6.186     11.502
REMARK SMILES COc1ccc2cc([C@H](C)C(=O)OCCOC(=O)c3ccc(-c4c5nc(c(-c6c(F)cccc6F)c6ccc([nH]6)c(-c6c(F)cccc6F)c6nc(c(-c7c(F)cccc7F)c7ccc4[nH]7)C=C6)C=C5)cc3)ccc2c1
REMARK SMILES IDX 14 1 13 2 11 3 12 4 9 5 10 6 8 7 3 8 4 9 76 10 5 11 75 12
REMARK SMILES IDX 6 13 74 14 7 15 73 16 2 17 1 18 15 19 16 20 17 21 18 22
REMARK SMILES IDX 19 23 20 24 72 25 21 26 71 27 22 28 23 29 24 30 65 31 25 32
REMARK SMILES IDX 70 33 64 34 66 35 26 36 69 37 63 38 62 39 27 41 53 42 36 43
REMARK SMILES IDX 52 44 37 45 40 46 51 47 67 48 38 49 39 50 50 52 68 53 41 54
REMARK SMILES IDX 28 55 29 56 34 57 30 58 31 59 33 60 35 61 32 62 54 63 55 64
REMARK SMILES IDX 60 65 56 66 57 67 59 68 61 69 58 70 42 71 43 72 48 73 44 74
REMARK SMILES IDX 45 75 47 76 49 77 46 78
REMARK H PARENT 66 40 40 51
REMARK Flexibility Score: inf
ROOT
ATOM      1  C   UNL A   1      31.391  31.946  26.745  1.00  0.00     0.274 C 
ENDROOT
BRANCH   1   2
ATOM      2  O   UNL A   1      32.383  30.914  26.910  1.00  0.00    -0.462 OA
BRANCH   2   3
ATOM      3  C   UNL A   1      32.432  29.970  25.932  1.00  0.00     0.313 C 
ATOM      4  O   UNL A   1      31.544  29.783  25.104  1.00  0.00    -0.252 OA
BRANCH   3   5
ATOM      5  C   UNL A   1      33.697  29.116  25.985  1.00  0.00     0.126 C 
ATOM      6  C   UNL A   1      34.425  29.130  27.331  1.00  0.00     0.025 C 
BRANCH   5   7
ATOM      7  C   UNL A   1      33.401  27.736  25.433  1.00  0.00    -0.033 A 
ATOM      8  C   UNL A   1      32.157  22.833  24.999  1.00  0.00     0.119 A 
ATOM      9  C   UNL A   1      31.728  23.227  26.265  1.00  0.00     0.047 A 
ATOM     10  C   UNL A   1      32.789  23.757  24.163  1.00  0.00     0.055 A 
ATOM     11  C   UNL A   1      31.915  24.547  26.683  1.00  0.00     0.012 A 
ATOM     12  C   UNL A   1      32.980  25.087  24.566  1.00  0.00    -0.015 A 
ATOM     13  C   UNL A   1      32.539  25.484  25.845  1.00  0.00    -0.018 A 
ATOM     14  C   UNL A   1      33.609  26.026  23.733  1.00  0.00     0.009 A 
ATOM     15  C   UNL A   1      32.755  26.803  26.263  1.00  0.00     0.013 A 
ATOM     16  C   UNL A   1      33.824  27.337  24.163  1.00  0.00     0.005 A 
BRANCH   8  17
ATOM     17  O   UNL A   1      32.051  21.567  24.493  1.00  0.00    -0.497 OA
ATOM     18  C   UNL A   1      33.251  20.802  24.514  1.00  0.00     0.278 C 
ENDBRANCH   8  17
ENDBRANCH   5   7
ENDBRANCH   3   5
ENDBRANCH   2   3
ENDBRANCH   1   2
BRANCH   1  19
ATOM     19  C   UNL A   1      32.011  33.347  26.816  1.00  0.00     0.275 C 
BRANCH  19  20
ATOM     20  O   UNL A   1      32.215  33.783  28.173  1.00  0.00    -0.458 OA
BRANCH  20  21
ATOM     21  C   UNL A   1      33.299  34.569  28.367  1.00  0.00     0.338 C 
ATOM     22  O   UNL A   1      33.344  35.787  28.334  1.00  0.00    -0.246 OA
BRANCH  21  23
ATOM     23  C   UNL A   1      34.449  33.748  28.775  1.00  0.00     0.060 A 
ATOM     24  C   UNL A   1      34.194  32.498  29.346  1.00  0.00     0.016 A 
ATOM     25  C   UNL A   1      35.753  34.236  28.687  1.00  0.00     0.016 A 
ATOM     26  C   UNL A   1      35.238  31.728  29.843  1.00  0.00     0.010 A 
ATOM     27  C   UNL A   1      36.803  33.464  29.193  1.00  0.00     0.010 A 
ATOM     28  C   UNL A   1      36.548  32.215  29.787  1.00  0.00    -0.014 A 
BRANCH  28  29
ATOM     29  C   UNL A   1      37.640  31.445  30.420  1.00  0.00     0.031 A 
ATOM     30  C   UNL A   1      37.964  31.679  31.866  1.00  0.00     0.074 A 
ATOM     31  C   UNL A   1      38.318  30.527  29.710  1.00  0.00     0.049 A 
ATOM     32  N   UNL A   1      38.945  31.197  32.583  1.00  0.00    -0.248 NA
ATOM     33  C   UNL A   1      37.058  32.576  32.603  1.00  0.00     0.031 C 
ATOM     34  C   UNL A   1      38.049  30.170  28.317  1.00  0.00     0.029 A 
ATOM     35  N   UNL A   1      39.378  29.732  30.064  1.00  0.00    -0.354 N 
ATOM     36  C   UNL A   1      38.794  31.750  33.847  1.00  0.00     0.074 A 
ATOM     37  C   UNL A   1      37.630  32.610  33.798  1.00  0.00     0.031 C 
ATOM     38  C   UNL A   1      38.928  29.229  27.932  1.00  0.00     0.029 A 
ATOM     39  C   UNL A   1      39.846  28.957  29.034  1.00  0.00     0.049 A 
ATOM     40  H   UNL A   1      39.764  29.720  30.970  1.00  0.00     0.167 HD
ATOM     41  C   UNL A   1      39.560  31.559  34.947  1.00  0.00     0.037 A 
ATOM     42  C   UNL A   1      40.918  28.145  28.978  1.00  0.00     0.037 A 
ATOM     43  C   UNL A   1      40.707  30.691  34.991  1.00  0.00     0.049 A 
ATOM     44  C   UNL A   1      41.789  27.994  30.194  1.00  0.00     0.074 A 
ATOM     45  C   UNL A   1      41.550  30.427  36.055  1.00  0.00     0.029 A 
ATOM     46  N   UNL A   1      41.168  29.942  33.919  1.00  0.00    -0.354 N 
ATOM     47  N   UNL A   1      41.656  28.542  31.378  1.00  0.00    -0.248 NA
ATOM     48  C   UNL A   1      42.965  27.122  30.063  1.00  0.00     0.031 C 
ATOM     49  C   UNL A   1      42.542  29.542  35.618  1.00  0.00     0.029 A 
ATOM     50  C   UNL A   1      42.293  29.226  34.292  1.00  0.00     0.049 A 
ATOM     51  H   UNL A   1      40.756  29.922  33.025  1.00  0.00     0.167 HD
ATOM     52  C   UNL A   1      42.716  28.067  32.139  1.00  0.00     0.074 A 
ATOM     53  C   UNL A   1      43.478  27.179  31.284  1.00  0.00     0.031 C 
ATOM     54  C   UNL A   1      43.032  28.342  33.427  1.00  0.00     0.037 A 
BRANCH  41  55
ATOM     55  C   UNL A   1      39.200  32.331  36.179  1.00  0.00     0.057 A 
ATOM     56  C   UNL A   1      38.287  31.841  37.121  1.00  0.00     0.134 A 
ATOM     57  C   UNL A   1      39.787  33.577  36.433  1.00  0.00     0.134 A 
ATOM     58  F   UNL A   1      37.676  30.663  36.926  1.00  0.00    -0.206 F 
ATOM     59  C   UNL A   1      37.958  32.571  38.264  1.00  0.00     0.040 A 
ATOM     60  C   UNL A   1      39.482  34.307  37.582  1.00  0.00     0.040 A 
ATOM     61  F   UNL A   1      40.669  34.102  35.569  1.00  0.00    -0.206 F 
ATOM     62  C   UNL A   1      38.560  33.806  38.499  1.00  0.00     0.006 A 
ENDBRANCH  41  55
BRANCH  42  63
ATOM     63  C   UNL A   1      41.241  27.434  27.717  1.00  0.00     0.057 A 
ATOM     64  C   UNL A   1      42.069  28.015  26.751  1.00  0.00     0.134 A 
ATOM     65  C   UNL A   1      40.730  26.159  27.450  1.00  0.00     0.134 A 
ATOM     66  F   UNL A   1      42.570  29.244  26.942  1.00  0.00    -0.206 F 
ATOM     67  C   UNL A   1      42.373  27.356  25.559  1.00  0.00     0.040 A 
ATOM     68  C   UNL A   1      41.043  25.478  26.272  1.00  0.00     0.040 A 
ATOM     69  F   UNL A   1      39.929  25.550  28.337  1.00  0.00    -0.206 F 
ATOM     70  C   UNL A   1      41.863  26.080  25.320  1.00  0.00     0.006 A 
ENDBRANCH  42  63
BRANCH  54  71
ATOM     71  C   UNL A   1      44.230  27.648  34.000  1.00  0.00     0.057 A 
ATOM     72  C   UNL A   1      45.509  28.214  33.933  1.00  0.00     0.134 A 
ATOM     73  C   UNL A   1      44.095  26.422  34.660  1.00  0.00     0.134 A 
ATOM     74  F   UNL A   1      45.705  29.381  33.302  1.00  0.00    -0.206 F 
ATOM     75  C   UNL A   1      46.616  27.574  34.492  1.00  0.00     0.040 A 
ATOM     76  C   UNL A   1      45.191  25.782  35.239  1.00  0.00     0.040 A 
ATOM     77  F   UNL A   1      42.893  25.832  34.762  1.00  0.00    -0.206 F 
ATOM     78  C   UNL A   1      46.456  26.357  35.152  1.00  0.00     0.006 A 
ENDBRANCH  54  71
ENDBRANCH  28  29
ENDBRANCH  21  23
ENDBRANCH  20  21
ENDBRANCH  19  20
ENDBRANCH   1  19
TORSDOF 13
ENDMDL
