MODEL 1
REMARK VINA RESULT:     -13.0      0.000      0.000
REMARK SMILES Cc1ccc(F)c(-c2ccc(C(=O)OCCOC(=O)c3ccc(-c4c5nc(c(-c6c(F)cccc6F)c6ccc([nH]6)c(-c6c(F)cccc6F)c6nc(c(-c7c(F)cccc7F)c7ccc4[nH]7)C=C6)C=C5)cc3)cc2C)c1
REMARK SMILES IDX 16 1 15 2 14 3 12 4 13 5 11 6 8 7 9 8 75 9 10 10 74 11 76 12
REMARK SMILES IDX 7 13 1 14 2 15 3 16 77 17 4 18 5 19 6 20 17 21 18 22 19 23
REMARK SMILES IDX 20 24 21 25 73 26 22 27 72 28 23 29 24 30 25 31 66 32 26 33
REMARK SMILES IDX 71 34 65 35 67 36 27 37 70 38 64 39 63 40 28 42 54 43 37 44
REMARK SMILES IDX 53 45 38 46 41 47 52 48 68 49 39 50 40 51 51 53 69 54 42 55
REMARK SMILES IDX 29 56 30 57 35 58 31 59 32 60 34 61 36 62 33 63 55 64 56 65
REMARK SMILES IDX 61 66 57 67 58 68 60 69 62 70 59 71 43 72 44 73 49 74 45 75
REMARK SMILES IDX 46 76 48 77 50 78 47 79
REMARK H PARENT 67 41 41 52
REMARK Flexibility Score: inf
ROOT
ATOM      1  C   UNL A   1      32.887  36.207  31.751  1.00  0.00     0.275 C 
ENDROOT
BRANCH   1   2
ATOM      2  C   UNL A   1      33.112  36.910  30.407  1.00  0.00     0.275 C 
BRANCH   2   3
ATOM      3  O   UNL A   1      32.486  36.137  29.369  1.00  0.00    -0.458 OA
BRANCH   3   4
ATOM      4  C   UNL A   1      33.376  35.327  28.476  1.00  0.00     0.338 C 
ATOM      5  O   UNL A   1      34.308  36.167  28.306  1.00  0.00    -0.246 OA
BRANCH   4   6
ATOM      6  C   UNL A   1      33.030  33.313  27.772  1.00  0.00     0.060 A 
ATOM      7  C   UNL A   1      32.631  30.290  26.760  1.00  0.00    -0.012 A 
ATOM      8  C   UNL A   1      31.692  31.293  26.557  1.00  0.00     0.010 A 
ATOM      9  C   UNL A   1      33.783  30.695  27.412  1.00  0.00    -0.042 A 
ATOM     10  C   UNL A   1      31.871  32.652  27.028  1.00  0.00     0.016 A 
ATOM     11  C   UNL A   1      33.939  32.069  27.839  1.00  0.00     0.019 A 
ATOM     12  C   UNL A   1      34.916  29.753  27.761  1.00  0.00     0.045 C 
BRANCH   7  13
ATOM     13  C   UNL A   1      32.447  28.914  26.255  1.00  0.00     0.018 A 
ATOM     14  C   UNL A   1      33.715  26.760  23.352  1.00  0.00     0.044 C 
ATOM     15  C   UNL A   1      33.037  27.174  24.627  1.00  0.00    -0.050 A 
ATOM     16  C   UNL A   1      32.429  26.206  25.434  1.00  0.00     0.006 A 
ATOM     17  C   UNL A   1      33.035  28.519  25.040  1.00  0.00     0.015 A 
ATOM     18  C   UNL A   1      31.808  26.581  26.623  1.00  0.00     0.040 A 
ATOM     19  C   UNL A   1      31.811  27.919  27.016  1.00  0.00     0.131 A 
ATOM     20  F   UNL A   1      31.242  28.230  28.192  1.00  0.00    -0.206 F 
ENDBRANCH   7  13
ENDBRANCH   4   6
ENDBRANCH   3   4
ENDBRANCH   2   3
ENDBRANCH   1   2
BRANCH   1  21
ATOM     21  O   UNL A   1      33.388  34.844  31.831  1.00  0.00    -0.458 OA
BRANCH  21  22
ATOM     22  C   UNL A   1      34.719  34.597  32.009  1.00  0.00     0.338 C 
ATOM     23  O   UNL A   1      35.517  35.380  32.493  1.00  0.00    -0.246 OA
BRANCH  22  24
ATOM     24  C   UNL A   1      35.164  33.458  31.186  1.00  0.00     0.060 A 
ATOM     25  C   UNL A   1      35.152  31.882  32.074  1.00  0.00     0.016 A 
ATOM     26  C   UNL A   1      36.438  33.814  29.963  1.00  0.00     0.016 A 
ATOM     27  C   UNL A   1      36.491  30.650  31.765  1.00  0.00     0.010 A 
ATOM     28  C   UNL A   1      37.796  32.603  29.690  1.00  0.00     0.010 A 
ATOM     29  C   UNL A   1      37.809  31.037  30.610  1.00  0.00    -0.014 A 
BRANCH  29  30
ATOM     30  C   UNL A   1      39.141  30.489  30.780  1.00  0.00     0.031 A 
ATOM     31  C   UNL A   1      39.423  29.275  30.009  1.00  0.00     0.074 A 
ATOM     32  C   UNL A   1      40.086  31.234  31.409  1.00  0.00     0.049 A 
ATOM     33  N   UNL A   1      40.502  28.606  30.120  1.00  0.00    -0.248 NA
ATOM     34  C   UNL A   1      38.486  28.656  29.072  1.00  0.00     0.031 C 
ATOM     35  C   UNL A   1      41.542  31.165  31.294  1.00  0.00     0.029 A 
ATOM     36  N   UNL A   1      39.894  32.163  32.440  1.00  0.00    -0.354 N 
ATOM     37  C   UNL A   1      40.555  27.700  29.085  1.00  0.00     0.074 A 
ATOM     38  C   UNL A   1      39.243  27.714  28.506  1.00  0.00     0.031 C 
ATOM     39  C   UNL A   1      42.105  31.769  32.356  1.00  0.00     0.029 A 
ATOM     40  C   UNL A   1      41.038  32.151  33.258  1.00  0.00     0.049 A 
ATOM     41  H   UNL A   1      39.096  32.726  32.569  1.00  0.00     0.167 HD
ATOM     42  C   UNL A   1      41.774  27.169  28.809  1.00  0.00     0.037 A 
ATOM     43  C   UNL A   1      40.951  31.751  34.562  1.00  0.00     0.037 A 
ATOM     44  C   UNL A   1      42.704  27.559  29.873  1.00  0.00     0.049 A 
ATOM     45  C   UNL A   1      41.621  30.409  34.788  1.00  0.00     0.074 A 
ATOM     46  C   UNL A   1      43.638  28.573  29.996  1.00  0.00     0.029 A 
ATOM     47  N   UNL A   1      42.407  27.151  31.168  1.00  0.00    -0.354 N 
ATOM     48  N   UNL A   1      41.897  29.562  33.830  1.00  0.00    -0.248 NA
ATOM     49  C   UNL A   1      42.104  29.949  36.083  1.00  0.00     0.031 C 
ATOM     50  C   UNL A   1      43.907  28.753  31.385  1.00  0.00     0.029 A 
ATOM     51  C   UNL A   1      43.154  27.836  32.101  1.00  0.00     0.049 A 
ATOM     52  H   UNL A   1      41.746  26.457  31.391  1.00  0.00     0.167 HD
ATOM     53  C   UNL A   1      42.607  28.494  34.327  1.00  0.00     0.074 A 
ATOM     54  C   UNL A   1      42.711  28.797  35.744  1.00  0.00     0.031 C 
ATOM     55  C   UNL A   1      43.053  27.479  33.516  1.00  0.00     0.037 A 
BRANCH  42  56
ATOM     56  C   UNL A   1      42.198  26.502  27.524  1.00  0.00     0.057 A 
ATOM     57  C   UNL A   1      42.650  25.168  27.556  1.00  0.00     0.134 A 
ATOM     58  C   UNL A   1      42.256  27.096  26.249  1.00  0.00     0.134 A 
ATOM     59  F   UNL A   1      42.633  24.445  28.683  1.00  0.00    -0.206 F 
ATOM     60  C   UNL A   1      43.158  24.501  26.433  1.00  0.00     0.040 A 
ATOM     61  C   UNL A   1      42.775  26.444  25.119  1.00  0.00     0.040 A 
ATOM     62  F   UNL A   1      41.796  28.325  26.005  1.00  0.00    -0.206 F 
ATOM     63  C   UNL A   1      43.234  25.142  25.209  1.00  0.00     0.006 A 
ENDBRANCH  42  56
BRANCH  43  64
ATOM     64  C   UNL A   1      39.746  32.316  35.238  1.00  0.00     0.057 A 
ATOM     65  C   UNL A   1      39.812  33.689  35.565  1.00  0.00     0.134 A 
ATOM     66  C   UNL A   1      38.472  31.768  35.082  1.00  0.00     0.134 A 
ATOM     67  F   UNL A   1      41.000  34.262  35.817  1.00  0.00    -0.206 F 
ATOM     68  C   UNL A   1      38.699  34.524  35.459  1.00  0.00     0.040 A 
ATOM     69  C   UNL A   1      37.333  32.590  35.060  1.00  0.00     0.040 A 
ATOM     70  F   UNL A   1      38.318  30.475  34.762  1.00  0.00    -0.206 F 
ATOM     71  C   UNL A   1      37.460  33.978  35.153  1.00  0.00     0.006 A 
ENDBRANCH  43  64
BRANCH  55  72
ATOM     72  C   UNL A   1      43.496  26.067  33.919  1.00  0.00     0.057 A 
ATOM     73  C   UNL A   1      42.748  25.161  34.681  1.00  0.00     0.134 A 
ATOM     74  C   UNL A   1      44.717  25.509  33.435  1.00  0.00     0.134 A 
ATOM     75  F   UNL A   1      41.534  25.451  35.153  1.00  0.00    -0.206 F 
ATOM     76  C   UNL A   1      43.185  23.859  34.974  1.00  0.00     0.040 A 
ATOM     77  C   UNL A   1      45.123  24.190  33.653  1.00  0.00     0.040 A 
ATOM     78  F   UNL A   1      45.596  26.197  32.697  1.00  0.00    -0.206 F 
ATOM     79  C   UNL A   1      44.365  23.360  34.448  1.00  0.00     0.006 A 
ENDBRANCH  55  72
ENDBRANCH  29  30
ENDBRANCH  22  24
ENDBRANCH  21  22
ENDBRANCH   1  21
TORSDOF 12
ENDMDL
MODEL 2
REMARK VINA RESULT:     -12.3      0.852      1.814
REMARK SMILES Cc1ccc(F)c(-c2ccc(C(=O)OCCOC(=O)c3ccc(-c4c5nc(c(-c6c(F)cccc6F)c6ccc([nH]6)c(-c6c(F)cccc6F)c6nc(c(-c7c(F)cccc7F)c7ccc4[nH]7)C=C6)C=C5)cc3)cc2C)c1
REMARK SMILES IDX 16 1 15 2 14 3 12 4 13 5 11 6 8 7 9 8 75 9 10 10 74 11 76 12
REMARK SMILES IDX 7 13 1 14 2 15 3 16 77 17 4 18 5 19 6 20 17 21 18 22 19 23
REMARK SMILES IDX 20 24 21 25 73 26 22 27 72 28 23 29 24 30 25 31 66 32 26 33
REMARK SMILES IDX 71 34 65 35 67 36 27 37 70 38 64 39 63 40 28 42 54 43 37 44
REMARK SMILES IDX 53 45 38 46 41 47 52 48 68 49 39 50 40 51 51 53 69 54 42 55
REMARK SMILES IDX 29 56 30 57 35 58 31 59 32 60 34 61 36 62 33 63 55 64 56 65
REMARK SMILES IDX 61 66 57 67 58 68 60 69 62 70 59 71 43 72 44 73 49 74 45 75
REMARK SMILES IDX 46 76 48 77 50 78 47 79
REMARK H PARENT 67 41 41 52
REMARK Flexibility Score: inf
ROOT
ATOM      1  C   UNL A   1      32.957  36.096  30.912  1.00  0.00     0.275 C 
ENDROOT
BRANCH   1   2
ATOM      2  C   UNL A   1      33.105  35.948  29.392  1.00  0.00     0.275 C 
BRANCH   2   3
ATOM      3  O   UNL A   1      32.678  34.628  29.012  1.00  0.00    -0.458 OA
BRANCH   3   4
ATOM      4  C   UNL A   1      33.499  33.903  27.990  1.00  0.00     0.338 C 
ATOM      5  O   UNL A   1      34.229  34.861  27.601  1.00  0.00    -0.246 OA
BRANCH   4   6
ATOM      6  C   UNL A   1      33.361  31.814  27.452  1.00  0.00     0.060 A 
ATOM      7  C   UNL A   1      33.061  28.737  26.580  1.00  0.00    -0.012 A 
ATOM      8  C   UNL A   1      33.957  29.171  27.547  1.00  0.00     0.010 A 
ATOM      9  C   UNL A   1      32.272  29.731  26.028  1.00  0.00    -0.042 A 
ATOM     10  C   UNL A   1      34.099  30.563  27.927  1.00  0.00     0.016 A 
ATOM     11  C   UNL A   1      32.420  31.105  26.456  1.00  0.00     0.019 A 
ATOM     12  C   UNL A   1      31.256  29.477  24.935  1.00  0.00     0.045 C 
BRANCH   7  13
ATOM     13  C   UNL A   1      32.911  27.312  26.218  1.00  0.00     0.018 A 
ATOM     14  C   UNL A   1      35.098  24.481  24.850  1.00  0.00     0.044 C 
ATOM     15  C   UNL A   1      33.931  25.219  25.440  1.00  0.00    -0.050 A 
ATOM     16  C   UNL A   1      32.795  24.509  25.846  1.00  0.00     0.006 A 
ATOM     17  C   UNL A   1      33.976  26.614  25.622  1.00  0.00     0.015 A 
ATOM     18  C   UNL A   1      31.713  25.186  26.403  1.00  0.00     0.040 A 
ATOM     19  C   UNL A   1      31.772  26.569  26.574  1.00  0.00     0.131 A 
ATOM     20  F   UNL A   1      30.727  27.175  27.159  1.00  0.00    -0.206 F 
ENDBRANCH   7  13
ENDBRANCH   4   6
ENDBRANCH   3   4
ENDBRANCH   2   3
ENDBRANCH   1   2
BRANCH   1  21
ATOM     21  O   UNL A   1      33.352  34.934  31.691  1.00  0.00    -0.458 OA
BRANCH  21  22
ATOM     22  C   UNL A   1      34.670  34.664  31.925  1.00  0.00     0.338 C 
ATOM     23  O   UNL A   1      35.462  35.436  32.435  1.00  0.00    -0.246 OA
BRANCH  22  24
ATOM     24  C   UNL A   1      35.126  33.508  31.131  1.00  0.00     0.060 A 
ATOM     25  C   UNL A   1      35.114  31.953  32.054  1.00  0.00     0.016 A 
ATOM     26  C   UNL A   1      36.407  33.844  29.910  1.00  0.00     0.016 A 
ATOM     27  C   UNL A   1      36.461  30.721  31.783  1.00  0.00     0.010 A 
ATOM     28  C   UNL A   1      37.772  32.632  29.674  1.00  0.00     0.010 A 
ATOM     29  C   UNL A   1      37.786  31.088  30.628  1.00  0.00    -0.014 A 
BRANCH  29  30
ATOM     30  C   UNL A   1      39.118  30.550  30.821  1.00  0.00     0.031 A 
ATOM     31  C   UNL A   1      39.417  29.329  30.067  1.00  0.00     0.074 A 
ATOM     32  C   UNL A   1      40.052  31.308  31.451  1.00  0.00     0.049 A 
ATOM     33  N   UNL A   1      40.499  28.668  30.199  1.00  0.00    -0.248 NA
ATOM     34  C   UNL A   1      38.494  28.693  29.127  1.00  0.00     0.031 C 
ATOM     35  C   UNL A   1      41.509  31.247  31.354  1.00  0.00     0.029 A 
ATOM     36  N   UNL A   1      39.842  32.249  32.469  1.00  0.00    -0.354 N 
ATOM     37  C   UNL A   1      40.569  27.750  29.176  1.00  0.00     0.074 A 
ATOM     38  C   UNL A   1      39.264  27.749  28.581  1.00  0.00     0.031 C 
ATOM     39  C   UNL A   1      42.057  31.867  32.415  1.00  0.00     0.029 A 
ATOM     40  C   UNL A   1      40.977  32.253  33.300  1.00  0.00     0.049 A 
ATOM     41  H   UNL A   1      39.040  32.808  32.582  1.00  0.00     0.167 HD
ATOM     42  C   UNL A   1      41.794  27.223  28.920  1.00  0.00     0.037 A 
ATOM     43  C   UNL A   1      40.878  31.868  34.608  1.00  0.00     0.037 A 
ATOM     44  C   UNL A   1      42.710  27.631  29.990  1.00  0.00     0.049 A 
ATOM     45  C   UNL A   1      41.553  30.533  34.857  1.00  0.00     0.074 A 
ATOM     46  C   UNL A   1      43.636  28.653  30.111  1.00  0.00     0.029 A 
ATOM     47  N   UNL A   1      42.401  27.237  31.286  1.00  0.00    -0.354 N 
ATOM     48  N   UNL A   1      41.846  29.676  33.912  1.00  0.00    -0.248 NA
ATOM     49  C   UNL A   1      42.024  30.092  36.163  1.00  0.00     0.031 C 
ATOM     50  C   UNL A   1      43.888  28.850  31.501  1.00  0.00     0.029 A 
ATOM     51  C   UNL A   1      43.132  27.938  32.219  1.00  0.00     0.049 A 
ATOM     52  H   UNL A   1      41.741  26.542  31.510  1.00  0.00     0.167 HD
ATOM     53  C   UNL A   1      42.556  28.619  34.431  1.00  0.00     0.074 A 
ATOM     54  C   UNL A   1      42.641  28.939  35.845  1.00  0.00     0.031 C 
ATOM     55  C   UNL A   1      43.017  27.597  33.637  1.00  0.00     0.037 A 
BRANCH  42  56
ATOM     56  C   UNL A   1      42.237  26.544  27.648  1.00  0.00     0.057 A 
ATOM     57  C   UNL A   1      42.772  25.241  27.711  1.00  0.00     0.134 A 
ATOM     58  C   UNL A   1      42.236  27.100  26.354  1.00  0.00     0.134 A 
ATOM     59  F   UNL A   1      42.819  24.555  28.861  1.00  0.00    -0.206 F 
ATOM     60  C   UNL A   1      43.301  24.572  26.600  1.00  0.00     0.040 A 
ATOM     61  C   UNL A   1      42.776  26.445  25.235  1.00  0.00     0.040 A 
ATOM     62  F   UNL A   1      41.696  28.289  26.083  1.00  0.00    -0.206 F 
ATOM     63  C   UNL A   1      43.316  25.177  25.356  1.00  0.00     0.006 A 
ENDBRANCH  42  56
BRANCH  43  64
ATOM     64  C   UNL A   1      39.662  32.434  35.263  1.00  0.00     0.057 A 
ATOM     65  C   UNL A   1      38.630  31.512  35.544  1.00  0.00     0.134 A 
ATOM     66  C   UNL A   1      39.700  33.591  36.042  1.00  0.00     0.134 A 
ATOM     67  F   UNL A   1      38.479  30.420  34.776  1.00  0.00    -0.206 F 
ATOM     68  C   UNL A   1      37.863  31.597  36.707  1.00  0.00     0.040 A 
ATOM     69  C   UNL A   1      38.871  33.727  37.169  1.00  0.00     0.040 A 
ATOM     70  F   UNL A   1      40.652  34.515  35.851  1.00  0.00    -0.206 F 
ATOM     71  C   UNL A   1      38.022  32.686  37.552  1.00  0.00     0.006 A 
ENDBRANCH  43  64
BRANCH  55  72
ATOM     72  C   UNL A   1      43.464  26.192  34.062  1.00  0.00     0.057 A 
ATOM     73  C   UNL A   1      44.737  25.644  33.861  1.00  0.00     0.134 A 
ATOM     74  C   UNL A   1      42.608  25.343  34.823  1.00  0.00     0.134 A 
ATOM     75  F   UNL A   1      45.718  26.312  33.252  1.00  0.00    -0.206 F 
ATOM     76  C   UNL A   1      45.106  24.369  34.321  1.00  0.00     0.040 A 
ATOM     77  C   UNL A   1      42.991  24.108  35.355  1.00  0.00     0.040 A 
ATOM     78  F   UNL A   1      41.343  25.657  35.126  1.00  0.00    -0.206 F 
ATOM     79  C   UNL A   1      44.242  23.602  35.085  1.00  0.00     0.006 A 
ENDBRANCH  55  72
ENDBRANCH  29  30
ENDBRANCH  22  24
ENDBRANCH  21  22
ENDBRANCH   1  21
TORSDOF 12
ENDMDL
MODEL 3
REMARK VINA RESULT:     -12.2      5.810     11.018
REMARK SMILES Cc1ccc(F)c(-c2ccc(C(=O)OCCOC(=O)c3ccc(-c4c5nc(c(-c6c(F)cccc6F)c6ccc([nH]6)c(-c6c(F)cccc6F)c6nc(c(-c7c(F)cccc7F)c7ccc4[nH]7)C=C6)C=C5)cc3)cc2C)c1
REMARK SMILES IDX 16 1 15 2 14 3 12 4 13 5 11 6 8 7 9 8 75 9 10 10 74 11 76 12
REMARK SMILES IDX 7 13 1 14 2 15 3 16 77 17 4 18 5 19 6 20 17 21 18 22 19 23
REMARK SMILES IDX 20 24 21 25 73 26 22 27 72 28 23 29 24 30 25 31 66 32 26 33
REMARK SMILES IDX 71 34 65 35 67 36 27 37 70 38 64 39 63 40 28 42 54 43 37 44
REMARK SMILES IDX 53 45 38 46 41 47 52 48 68 49 39 50 40 51 51 53 69 54 42 55
REMARK SMILES IDX 29 56 30 57 35 58 31 59 32 60 34 61 36 62 33 63 55 64 56 65
REMARK SMILES IDX 61 66 57 67 58 68 60 69 62 70 59 71 43 72 44 73 49 74 45 75
REMARK SMILES IDX 46 76 48 77 50 78 47 79
REMARK H PARENT 67 41 41 52
REMARK Flexibility Score: inf
ROOT
ATOM      1  C   UNL A   1      43.810  19.392  24.793  1.00  0.00     0.275 C 
ENDROOT
BRANCH   1   2
ATOM      2  C   UNL A   1      42.719  18.904  25.754  1.00  0.00     0.275 C 
BRANCH   2   3
ATOM      3  O   UNL A   1      41.458  19.458  25.342  1.00  0.00    -0.458 OA
BRANCH   3   4
ATOM      4  C   UNL A   1      40.633  20.151  26.384  1.00  0.00     0.338 C 
ATOM      5  O   UNL A   1      41.257  19.773  27.419  1.00  0.00    -0.246 OA
BRANCH   4   6
ATOM      6  C   UNL A   1      38.906  21.408  26.054  1.00  0.00     0.060 A 
ATOM      7  C   UNL A   1      36.280  23.180  25.517  1.00  0.00    -0.012 A 
ATOM      8  C   UNL A   1      37.472  23.708  25.994  1.00  0.00     0.010 A 
ATOM      9  C   UNL A   1      36.309  21.821  25.256  1.00  0.00    -0.042 A 
ATOM     10  C   UNL A   1      38.650  22.902  26.249  1.00  0.00     0.016 A 
ATOM     11  C   UNL A   1      37.514  21.055  25.492  1.00  0.00     0.019 A 
ATOM     12  C   UNL A   1      35.108  21.043  24.761  1.00  0.00     0.045 C 
BRANCH   7  13
ATOM     13  C   UNL A   1      35.094  24.016  25.240  1.00  0.00     0.018 A 
ATOM     14  C   UNL A   1      33.592  25.924  22.277  1.00  0.00     0.044 C 
ATOM     15  C   UNL A   1      33.750  25.295  23.632  1.00  0.00    -0.050 A 
ATOM     16  C   UNL A   1      32.683  25.319  24.536  1.00  0.00     0.006 A 
ATOM     17  C   UNL A   1      34.948  24.651  23.993  1.00  0.00     0.015 A 
ATOM     18  C   UNL A   1      32.818  24.728  25.790  1.00  0.00     0.040 A 
ATOM     19  C   UNL A   1      34.014  24.097  26.134  1.00  0.00     0.131 A 
ATOM     20  F   UNL A   1      34.085  23.500  27.335  1.00  0.00    -0.206 F 
ENDBRANCH   7  13
ENDBRANCH   4   6
ENDBRANCH   3   4
ENDBRANCH   2   3
ENDBRANCH   1   2
BRANCH   1  21
ATOM     21  O   UNL A   1      45.012  19.908  25.428  1.00  0.00    -0.458 OA
BRANCH  21  22
ATOM     22  C   UNL A   1      45.331  21.233  25.350  1.00  0.00     0.338 C 
ATOM     23  O   UNL A   1      46.459  21.687  25.421  1.00  0.00    -0.246 OA
BRANCH  22  24
ATOM     24  C   UNL A   1      44.147  22.081  25.582  1.00  0.00     0.060 A 
ATOM     25  C   UNL A   1      44.074  23.527  24.498  1.00  0.00     0.016 A 
ATOM     26  C   UNL A   1      43.564  22.177  27.284  1.00  0.00     0.016 A 
ATOM     27  C   UNL A   1      43.450  25.132  25.159  1.00  0.00     0.010 A 
ATOM     28  C   UNL A   1      42.984  23.790  27.952  1.00  0.00     0.010 A 
ATOM     29  C   UNL A   1      42.947  25.254  26.878  1.00  0.00    -0.014 A 
BRANCH  29  30
ATOM     30  C   UNL A   1      43.073  26.499  27.610  1.00  0.00     0.031 A 
ATOM     31  C   UNL A   1      41.821  27.233  27.818  1.00  0.00     0.074 A 
ATOM     32  C   UNL A   1      44.237  26.774  28.252  1.00  0.00     0.049 A 
ATOM     33  N   UNL A   1      41.765  28.392  28.347  1.00  0.00    -0.248 NA
ATOM     34  C   UNL A   1      40.505  26.758  27.393  1.00  0.00     0.031 C 
ATOM     35  C   UNL A   1      44.474  27.646  29.401  1.00  0.00     0.029 A 
ATOM     36  N   UNL A   1      45.531  26.393  27.872  1.00  0.00    -0.354 N 
ATOM     37  C   UNL A   1      40.448  28.671  28.630  1.00  0.00     0.074 A 
ATOM     38  C   UNL A   1      39.693  27.660  27.948  1.00  0.00     0.031 C 
ATOM     39  C   UNL A   1      45.781  27.957  29.468  1.00  0.00     0.029 A 
ATOM     40  C   UNL A   1      46.424  27.394  28.298  1.00  0.00     0.049 A 
ATOM     41  H   UNL A   1      45.774  25.569  27.391  1.00  0.00     0.167 HD
ATOM     42  C   UNL A   1      40.221  29.668  29.524  1.00  0.00     0.037 A 
ATOM     43  C   UNL A   1      47.134  28.121  27.384  1.00  0.00     0.037 A 
ATOM     44  C   UNL A   1      41.490  30.350  29.794  1.00  0.00     0.049 A 
ATOM     45  C   UNL A   1      46.648  29.555  27.302  1.00  0.00     0.074 A 
ATOM     46  C   UNL A   1      42.437  30.235  30.796  1.00  0.00     0.029 A 
ATOM     47  N   UNL A   1      42.136  30.954  28.722  1.00  0.00    -0.354 N 
ATOM     48  N   UNL A   1      45.480  29.956  27.736  1.00  0.00    -0.248 NA
ATOM     49  C   UNL A   1      47.458  30.661  26.807  1.00  0.00     0.031 C 
ATOM     50  C   UNL A   1      43.656  30.796  30.311  1.00  0.00     0.029 A 
ATOM     51  C   UNL A   1      43.442  31.268  29.026  1.00  0.00     0.049 A 
ATOM     52  H   UNL A   1      41.712  31.137  27.853  1.00  0.00     0.167 HD
ATOM     53  C   UNL A   1      45.376  31.323  27.633  1.00  0.00     0.074 A 
ATOM     54  C   UNL A   1      46.650  31.709  27.050  1.00  0.00     0.031 C 
ATOM     55  C   UNL A   1      44.258  31.999  28.057  1.00  0.00     0.037 A 
BRANCH  42  56
ATOM     56  C   UNL A   1      38.955  29.904  30.310  1.00  0.00     0.057 A 
ATOM     57  C   UNL A   1      38.302  31.149  30.210  1.00  0.00     0.134 A 
ATOM     58  C   UNL A   1      38.353  29.014  31.220  1.00  0.00     0.134 A 
ATOM     59  F   UNL A   1      38.726  32.101  29.368  1.00  0.00    -0.206 F 
ATOM     60  C   UNL A   1      37.182  31.495  30.977  1.00  0.00     0.040 A 
ATOM     61  C   UNL A   1      37.239  29.352  32.005  1.00  0.00     0.040 A 
ATOM     62  F   UNL A   1      38.779  27.761  31.390  1.00  0.00    -0.206 F 
ATOM     63  C   UNL A   1      36.651  30.600  31.889  1.00  0.00     0.006 A 
ENDBRANCH  42  56
BRANCH  43  64
ATOM     64  C   UNL A   1      47.685  27.260  26.296  1.00  0.00     0.057 A 
ATOM     65  C   UNL A   1      47.072  27.401  25.031  1.00  0.00     0.134 A 
ATOM     66  C   UNL A   1      48.996  26.782  26.310  1.00  0.00     0.134 A 
ATOM     67  F   UNL A   1      45.784  27.771  24.948  1.00  0.00    -0.206 F 
ATOM     68  C   UNL A   1      47.809  27.346  23.847  1.00  0.00     0.040 A 
ATOM     69  C   UNL A   1      49.722  26.640  25.115  1.00  0.00     0.040 A 
ATOM     70  F   UNL A   1      49.657  26.628  27.466  1.00  0.00    -0.206 F 
ATOM     71  C   UNL A   1      49.155  27.014  23.894  1.00  0.00     0.006 A 
ENDBRANCH  43  64
BRANCH  55  72
ATOM     72  C   UNL A   1      43.806  33.416  27.681  1.00  0.00     0.057 A 
ATOM     73  C   UNL A   1      43.616  33.895  26.380  1.00  0.00     0.134 A 
ATOM     74  C   UNL A   1      43.426  34.359  28.681  1.00  0.00     0.134 A 
ATOM     75  F   UNL A   1      43.824  33.141  25.299  1.00  0.00    -0.206 F 
ATOM     76  C   UNL A   1      43.148  35.189  26.098  1.00  0.00     0.040 A 
ATOM     77  C   UNL A   1      42.883  35.619  28.412  1.00  0.00     0.040 A 
ATOM     78  F   UNL A   1      43.534  34.122  29.993  1.00  0.00    -0.206 F 
ATOM     79  C   UNL A   1      42.762  36.052  27.111  1.00  0.00     0.006 A 
ENDBRANCH  55  72
ENDBRANCH  29  30
ENDBRANCH  22  24
ENDBRANCH  21  22
ENDBRANCH   1  21
TORSDOF 12
ENDMDL
