MODEL 1
REMARK VINA RESULT:     -12.0      0.000      0.000
REMARK SMILES C[C@@H](Oc1ccc(-c2ccccc2)cc1)C(=O)N1CCC[C@H](C(=O)OCCOC(=O)c2ccc(-c3c4nc(c(-c5c(F)cccc5F)c5ccc([nH]5)c(-c5c(F)cccc5F)c5nc(c(-c6c(F)cccc6F)c6ccc3[nH]6)C=C5)C=C4)cc2)C1
REMARK SMILES IDX 25 1 23 2 24 3 22 4 18 5 19 6 85 7 20 8 21 9 16 10 17 11
REMARK SMILES IDX 2 12 1 13 3 14 4 15 5 16 15 17 6 18 14 19 7 20 8 21 9 22
REMARK SMILES IDX 13 23 10 24 12 25 11 26 26 27 27 28 28 29 29 30 30 31 31 32
REMARK SMILES IDX 32 33 84 34 33 35 83 36 34 37 35 38 36 39 77 40 37 41 82 42
REMARK SMILES IDX 76 43 78 44 38 45 81 46 75 47 74 48 39 50 65 51 48 52 64 53
REMARK SMILES IDX 49 54 52 55 63 56 79 57 50 58 51 59 62 61 80 62 53 63 40 64
REMARK SMILES IDX 41 65 46 66 42 67 43 68 45 69 47 70 44 71 66 72 67 73 72 74
REMARK SMILES IDX 68 75 69 76 71 77 73 78 70 79 54 80 55 81 60 82 56 83 57 84
REMARK SMILES IDX 59 85 61 86 58 87
REMARK H PARENT 78 49 52 60
REMARK Flexibility Score: inf
ROOT
ATOM      1  O   UNL A   1      31.745  30.049  25.135  1.00  0.00    -0.462 OA
ENDROOT
BRANCH   1   2
ATOM      2  C   UNL A   1      32.725  29.304  24.569  1.00  0.00     0.310 C 
ATOM      3  O   UNL A   1      33.632  28.761  25.189  1.00  0.00    -0.252 OA
BRANCH   2   4
ATOM      4  C   UNL A   1      32.626  29.237  23.052  1.00  0.00     0.119 C 
ATOM      5  N   UNL A   1      31.270  27.204  22.907  1.00  0.00    -0.339 N 
ATOM      6  C   UNL A   1      32.287  26.458  22.170  1.00  0.00     0.119 C 
ATOM      7  C   UNL A   1      31.278  28.644  22.662  1.00  0.00     0.134 C 
ATOM      8  C   UNL A   1      33.693  26.988  22.433  1.00  0.00     0.022 C 
ATOM      9  C   UNL A   1      33.777  28.514  22.340  1.00  0.00     0.019 C 
BRANCH   5  10
ATOM     10  C   UNL A   1      30.411  26.532  23.770  1.00  0.00     0.263 C 
ATOM     11  O   UNL A   1      29.185  26.618  23.643  1.00  0.00    -0.271 OA
BRANCH  10  12
ATOM     12  C   UNL A   1      30.988  25.677  24.919  1.00  0.00     0.259 C 
ATOM     13  C   UNL A   1      30.956  26.403  26.262  1.00  0.00     0.064 C 
BRANCH  12  14
ATOM     14  O   UNL A   1      30.260  24.444  24.962  1.00  0.00    -0.481 OA
BRANCH  14  15
ATOM     15  C   UNL A   1      31.032  23.350  24.711  1.00  0.00     0.120 A 
ATOM     16  C   UNL A   1      31.395  23.041  23.404  1.00  0.00     0.047 A 
ATOM     17  C   UNL A   1      31.306  22.472  25.751  1.00  0.00     0.047 A 
ATOM     18  C   UNL A   1      32.045  21.831  23.138  1.00  0.00     0.012 A 
ATOM     19  C   UNL A   1      31.959  21.271  25.482  1.00  0.00     0.012 A 
ATOM     20  C   UNL A   1      32.322  20.917  24.170  1.00  0.00    -0.018 A 
BRANCH  20  21
ATOM     21  C   UNL A   1      32.923  19.603  23.894  1.00  0.00    -0.018 A 
ATOM     22  C   UNL A   1      34.033  19.134  24.613  1.00  0.00     0.009 A 
ATOM     23  C   UNL A   1      32.387  18.772  22.893  1.00  0.00     0.009 A 
ATOM     24  C   UNL A   1      34.579  17.875  24.348  1.00  0.00     0.001 A 
ATOM     25  C   UNL A   1      32.930  17.514  22.627  1.00  0.00     0.001 A 
ATOM     26  C   UNL A   1      34.026  17.064  23.358  1.00  0.00     0.000 A 
ENDBRANCH  20  21
ENDBRANCH  14  15
ENDBRANCH  12  14
ENDBRANCH  10  12
ENDBRANCH   5  10
ENDBRANCH   2   4
ENDBRANCH   1   2
BRANCH   1  27
ATOM     27  C   UNL A   1      31.953  30.529  26.477  1.00  0.00     0.274 C 
BRANCH  27  28
ATOM     28  C   UNL A   1      31.899  32.056  26.530  1.00  0.00     0.275 C 
BRANCH  28  29
ATOM     29  O   UNL A   1      32.319  32.539  27.820  1.00  0.00    -0.458 OA
BRANCH  29  30
ATOM     30  C   UNL A   1      33.318  33.451  27.784  1.00  0.00     0.338 C 
ATOM     31  O   UNL A   1      33.224  34.651  27.598  1.00  0.00    -0.246 OA
BRANCH  30  32
ATOM     32  C   UNL A   1      34.580  32.811  28.177  1.00  0.00     0.060 A 
ATOM     33  C   UNL A   1      34.508  31.512  28.687  1.00  0.00     0.016 A 
ATOM     34  C   UNL A   1      35.794  33.496  28.142  1.00  0.00     0.016 A 
ATOM     35  C   UNL A   1      35.647  30.893  29.183  1.00  0.00     0.010 A 
ATOM     36  C   UNL A   1      36.941  32.876  28.649  1.00  0.00     0.010 A 
ATOM     37  C   UNL A   1      36.866  31.580  29.191  1.00  0.00    -0.014 A 
BRANCH  37  38
ATOM     38  C   UNL A   1      38.023  30.963  29.879  1.00  0.00     0.031 A 
ATOM     39  C   UNL A   1      38.273  31.278  31.326  1.00  0.00     0.074 A 
ATOM     40  C   UNL A   1      38.790  30.066  29.236  1.00  0.00     0.049 A 
ATOM     41  N   UNL A   1      39.225  30.851  32.115  1.00  0.00    -0.248 NA
ATOM     42  C   UNL A   1      37.321  32.197  31.972  1.00  0.00     0.031 C 
ATOM     43  C   UNL A   1      38.608  29.640  27.849  1.00  0.00     0.029 A 
ATOM     44  N   UNL A   1      39.870  29.342  29.673  1.00  0.00    -0.354 N 
ATOM     45  C   UNL A   1      38.999  31.459  33.342  1.00  0.00     0.074 A 
ATOM     46  C   UNL A   1      37.829  32.298  33.191  1.00  0.00     0.031 C 
ATOM     47  C   UNL A   1      39.540  28.720  27.550  1.00  0.00     0.029 A 
ATOM     48  C   UNL A   1      40.401  28.519  28.713  1.00  0.00     0.049 A 
ATOM     49  H   UNL A   1      40.228  29.407  30.587  1.00  0.00     0.167 HD
ATOM     50  C   UNL A   1      39.699  31.324  34.492  1.00  0.00     0.037 A 
ATOM     51  C   UNL A   1      41.473  27.705  28.765  1.00  0.00     0.037 A 
ATOM     52  C   UNL A   1      40.852  30.476  34.646  1.00  0.00     0.049 A 
ATOM     53  C   UNL A   1      42.258  27.604  30.043  1.00  0.00     0.074 A 
ATOM     54  C   UNL A   1      41.634  30.273  35.769  1.00  0.00     0.029 A 
ATOM     55  N   UNL A   1      41.385  29.685  33.638  1.00  0.00    -0.354 N 
ATOM     56  N   UNL A   1      42.045  28.197  31.193  1.00  0.00    -0.248 NA
ATOM     57  C   UNL A   1      43.434  26.724  30.028  1.00  0.00     0.031 C 
ATOM     58  C   UNL A   1      42.659  29.381  35.434  1.00  0.00     0.029 A 
ATOM     59  C   UNL A   1      42.494  29.001  34.111  1.00  0.00     0.049 A 
ATOM     60  H   UNL A   1      41.029  29.619  32.724  1.00  0.00     0.167 HD
ATOM     61  C   UNL A   1      43.050  27.751  32.042  1.00  0.00     0.074 A 
ATOM     62  C   UNL A   1      43.860  26.823  31.279  1.00  0.00     0.031 C 
ATOM     63  C   UNL A   1      43.287  28.084  33.335  1.00  0.00     0.037 A 
BRANCH  50  64
ATOM     64  C   UNL A   1      39.250  32.140  35.667  1.00  0.00     0.057 A 
ATOM     65  C   UNL A   1      39.675  33.460  35.857  1.00  0.00     0.134 A 
ATOM     66  C   UNL A   1      38.370  31.600  36.613  1.00  0.00     0.134 A 
ATOM     67  F   UNL A   1      40.534  34.029  34.997  1.00  0.00    -0.206 F 
ATOM     68  C   UNL A   1      39.257  34.209  36.959  1.00  0.00     0.040 A 
ATOM     69  C   UNL A   1      37.928  32.345  37.707  1.00  0.00     0.040 A 
ATOM     70  F   UNL A   1      37.925  30.341  36.488  1.00  0.00    -0.206 F 
ATOM     71  C   UNL A   1      38.376  33.652  37.885  1.00  0.00     0.006 A 
ENDBRANCH  50  64
BRANCH  51  72
ATOM     72  C   UNL A   1      41.874  26.929  27.566  1.00  0.00     0.057 A 
ATOM     73  C   UNL A   1      42.710  27.482  26.590  1.00  0.00     0.134 A 
ATOM     74  C   UNL A   1      41.417  25.622  27.362  1.00  0.00     0.134 A 
ATOM     75  F   UNL A   1      43.160  28.738  26.719  1.00  0.00    -0.206 F 
ATOM     76  C   UNL A   1      43.070  26.766  25.447  1.00  0.00     0.040 A 
ATOM     77  C   UNL A   1      41.787  24.886  26.236  1.00  0.00     0.040 A 
ATOM     78  F   UNL A   1      40.613  25.037  28.262  1.00  0.00    -0.206 F 
ATOM     79  C   UNL A   1      42.611  25.462  25.271  1.00  0.00     0.006 A 
ENDBRANCH  51  72
BRANCH  63  80
ATOM     80  C   UNL A   1      44.453  27.422  34.002  1.00  0.00     0.057 A 
ATOM     81  C   UNL A   1      44.325  26.189  34.655  1.00  0.00     0.134 A 
ATOM     82  C   UNL A   1      45.722  28.014  33.977  1.00  0.00     0.134 A 
ATOM     83  F   UNL A   1      43.133  25.578  34.726  1.00  0.00    -0.206 F 
ATOM     84  C   UNL A   1      45.413  25.582  35.283  1.00  0.00     0.040 A 
ATOM     85  C   UNL A   1      46.822  27.406  34.582  1.00  0.00     0.040 A 
ATOM     86  F   UNL A   1      45.912  29.190  33.362  1.00  0.00    -0.206 F 
ATOM     87  C   UNL A   1      46.667  26.188  35.244  1.00  0.00     0.006 A 
ENDBRANCH  63  80
ENDBRANCH  37  38
ENDBRANCH  30  32
ENDBRANCH  29  30
ENDBRANCH  28  29
ENDBRANCH  27  28
ENDBRANCH   1  27
TORSDOF 16
ENDMDL
MODEL 2
REMARK VINA RESULT:     -11.9      4.121      9.444
REMARK SMILES C[C@@H](Oc1ccc(-c2ccccc2)cc1)C(=O)N1CCC[C@H](C(=O)OCCOC(=O)c2ccc(-c3c4nc(c(-c5c(F)cccc5F)c5ccc([nH]5)c(-c5c(F)cccc5F)c5nc(c(-c6c(F)cccc6F)c6ccc3[nH]6)C=C5)C=C4)cc2)C1
REMARK SMILES IDX 25 1 23 2 24 3 22 4 18 5 19 6 85 7 20 8 21 9 16 10 17 11
REMARK SMILES IDX 2 12 1 13 3 14 4 15 5 16 15 17 6 18 14 19 7 20 8 21 9 22
REMARK SMILES IDX 13 23 10 24 12 25 11 26 26 27 27 28 28 29 29 30 30 31 31 32
REMARK SMILES IDX 32 33 84 34 33 35 83 36 34 37 35 38 36 39 77 40 37 41 82 42
REMARK SMILES IDX 76 43 78 44 38 45 81 46 75 47 74 48 39 50 65 51 48 52 64 53
REMARK SMILES IDX 49 54 52 55 63 56 79 57 50 58 51 59 62 61 80 62 53 63 40 64
REMARK SMILES IDX 41 65 46 66 42 67 43 68 45 69 47 70 44 71 66 72 67 73 72 74
REMARK SMILES IDX 68 75 69 76 71 77 73 78 70 79 54 80 55 81 60 82 56 83 57 84
REMARK SMILES IDX 59 85 61 86 58 87
REMARK H PARENT 78 49 52 60
REMARK Flexibility Score: inf
ROOT
ATOM      1  O   UNL A   1      35.453  22.066  24.525  1.00  0.00    -0.462 OA
ENDROOT
BRANCH   1   2
ATOM      2  C   UNL A   1      35.125  22.485  25.772  1.00  0.00     0.310 C 
ATOM      3  O   UNL A   1      35.590  23.479  26.317  1.00  0.00    -0.252 OA
BRANCH   2   4
ATOM      4  C   UNL A   1      34.137  21.563  26.472  1.00  0.00     0.119 C 
ATOM      5  N   UNL A   1      32.250  21.896  24.949  1.00  0.00    -0.339 N 
ATOM      6  C   UNL A   1      31.382  22.454  25.985  1.00  0.00     0.119 C 
ATOM      7  C   UNL A   1      33.224  20.922  25.434  1.00  0.00     0.134 C 
ATOM      8  C   UNL A   1      32.178  23.087  27.121  1.00  0.00     0.022 C 
ATOM      9  C   UNL A   1      33.325  22.196  27.609  1.00  0.00     0.019 C 
BRANCH   5  10
ATOM     10  C   UNL A   1      32.112  22.322  23.632  1.00  0.00     0.263 C 
ATOM     11  O   UNL A   1      31.571  21.604  22.784  1.00  0.00    -0.271 OA
BRANCH  10  12
ATOM     12  C   UNL A   1      32.658  23.702  23.208  1.00  0.00     0.259 C 
ATOM     13  C   UNL A   1      33.089  23.736  21.743  1.00  0.00     0.064 C 
BRANCH  12  14
ATOM     14  O   UNL A   1      31.652  24.682  23.491  1.00  0.00    -0.481 OA
BRANCH  14  15
ATOM     15  C   UNL A   1      32.065  25.648  24.358  1.00  0.00     0.120 A 
ATOM     16  C   UNL A   1      31.212  26.696  24.689  1.00  0.00     0.047 A 
ATOM     17  C   UNL A   1      33.391  25.654  24.770  1.00  0.00     0.047 A 
ATOM     18  C   UNL A   1      31.698  27.767  25.446  1.00  0.00     0.012 A 
ATOM     19  C   UNL A   1      33.870  26.719  25.529  1.00  0.00     0.012 A 
ATOM     20  C   UNL A   1      33.041  27.805  25.863  1.00  0.00    -0.018 A 
BRANCH  20  21
ATOM     21  C   UNL A   1      33.590  28.966  26.582  1.00  0.00    -0.018 A 
ATOM     22  C   UNL A   1      32.839  30.134  26.781  1.00  0.00     0.009 A 
ATOM     23  C   UNL A   1      34.898  28.928  27.099  1.00  0.00     0.009 A 
ATOM     24  C   UNL A   1      33.372  31.219  27.483  1.00  0.00     0.001 A 
ATOM     25  C   UNL A   1      35.433  30.010  27.800  1.00  0.00     0.001 A 
ATOM     26  C   UNL A   1      34.667  31.156  27.994  1.00  0.00     0.000 A 
ENDBRANCH  20  21
ENDBRANCH  14  15
ENDBRANCH  12  14
ENDBRANCH  10  12
ENDBRANCH   5  10
ENDBRANCH   2   4
ENDBRANCH   1   2
BRANCH   1  27
ATOM     27  C   UNL A   1      36.846  22.073  24.158  1.00  0.00     0.274 C 
BRANCH  27  28
ATOM     28  C   UNL A   1      37.571  20.852  24.725  1.00  0.00     0.275 C 
BRANCH  28  29
ATOM     29  O   UNL A   1      38.004  21.095  26.076  1.00  0.00    -0.458 OA
BRANCH  29  30
ATOM     30  C   UNL A   1      39.340  21.006  26.267  1.00  0.00     0.338 C 
ATOM     31  O   UNL A   1      40.084  20.107  25.915  1.00  0.00    -0.246 OA
BRANCH  30  32
ATOM     32  C   UNL A   1      39.840  22.263  26.837  1.00  0.00     0.060 A 
ATOM     33  C   UNL A   1      39.273  23.450  26.366  1.00  0.00     0.016 A 
ATOM     34  C   UNL A   1      40.904  22.291  27.737  1.00  0.00     0.016 A 
ATOM     35  C   UNL A   1      39.776  24.676  26.777  1.00  0.00     0.010 A 
ATOM     36  C   UNL A   1      41.418  23.526  28.147  1.00  0.00     0.010 A 
ATOM     37  C   UNL A   1      40.869  24.723  27.650  1.00  0.00    -0.014 A 
BRANCH  37  38
ATOM     38  C   UNL A   1      41.492  26.035  27.937  1.00  0.00     0.031 A 
ATOM     39  C   UNL A   1      42.869  26.326  27.412  1.00  0.00     0.074 A 
ATOM     40  C   UNL A   1      40.797  26.983  28.589  1.00  0.00     0.049 A 
ATOM     41  N   UNL A   1      43.597  27.405  27.549  1.00  0.00    -0.248 NA
ATOM     42  C   UNL A   1      43.512  25.261  26.626  1.00  0.00     0.031 C 
ATOM     43  C   UNL A   1      39.434  26.832  29.095  1.00  0.00     0.029 A 
ATOM     44  N   UNL A   1      41.143  28.267  28.923  1.00  0.00    -0.354 N 
ATOM     45  C   UNL A   1      44.786  27.144  26.883  1.00  0.00     0.074 A 
ATOM     46  C   UNL A   1      44.691  25.799  26.356  1.00  0.00     0.031 C 
ATOM     47  C   UNL A   1      39.053  27.986  29.670  1.00  0.00     0.029 A 
ATOM     48  C   UNL A   1      40.156  28.940  29.600  1.00  0.00     0.049 A 
ATOM     49  H   UNL A   1      42.013  28.668  28.700  1.00  0.00     0.167 HD
ATOM     50  C   UNL A   1      45.857  27.955  26.720  1.00  0.00     0.037 A 
ATOM     51  C   UNL A   1      40.153  30.184  30.116  1.00  0.00     0.037 A 
ATOM     52  C   UNL A   1      45.944  29.298  27.230  1.00  0.00     0.049 A 
ATOM     53  C   UNL A   1      41.371  31.050  29.957  1.00  0.00     0.074 A 
ATOM     54  C   UNL A   1      46.987  30.199  27.122  1.00  0.00     0.029 A 
ATOM     55  N   UNL A   1      44.938  29.933  27.944  1.00  0.00    -0.354 N 
ATOM     56  N   UNL A   1      42.498  30.786  29.339  1.00  0.00    -0.248 NA
ATOM     57  C   UNL A   1      41.318  32.384  30.569  1.00  0.00     0.031 C 
ATOM     58  C   UNL A   1      46.626  31.370  27.797  1.00  0.00     0.029 A 
ATOM     59  C   UNL A   1      45.342  31.212  28.295  1.00  0.00     0.049 A 
ATOM     60  H   UNL A   1      44.067  29.535  28.169  1.00  0.00     0.167 HD
ATOM     61  C   UNL A   1      43.281  31.925  29.476  1.00  0.00     0.074 A 
ATOM     62  C   UNL A   1      42.492  32.888  30.218  1.00  0.00     0.031 C 
ATOM     63  C   UNL A   1      44.542  32.153  29.034  1.00  0.00     0.037 A 
BRANCH  50  64
ATOM     64  C   UNL A   1      47.035  27.393  25.983  1.00  0.00     0.057 A 
ATOM     65  C   UNL A   1      48.065  26.711  26.643  1.00  0.00     0.134 A 
ATOM     66  C   UNL A   1      47.133  27.524  24.592  1.00  0.00     0.134 A 
ATOM     67  F   UNL A   1      48.041  26.569  27.976  1.00  0.00    -0.206 F 
ATOM     68  C   UNL A   1      49.162  26.199  25.947  1.00  0.00     0.040 A 
ATOM     69  C   UNL A   1      48.213  26.997  23.883  1.00  0.00     0.040 A 
ATOM     70  F   UNL A   1      46.178  28.165  23.901  1.00  0.00    -0.206 F 
ATOM     71  C   UNL A   1      49.235  26.337  24.562  1.00  0.00     0.006 A 
ENDBRANCH  50  64
BRANCH  51  72
ATOM     72  C   UNL A   1      38.960  30.681  30.844  1.00  0.00     0.057 A 
ATOM     73  C   UNL A   1      38.774  30.411  32.204  1.00  0.00     0.134 A 
ATOM     74  C   UNL A   1      37.970  31.426  30.191  1.00  0.00     0.134 A 
ATOM     75  F   UNL A   1      39.676  29.683  32.877  1.00  0.00    -0.206 F 
ATOM     76  C   UNL A   1      37.641  30.854  32.888  1.00  0.00     0.040 A 
ATOM     77  C   UNL A   1      36.844  31.895  30.867  1.00  0.00     0.040 A 
ATOM     78  F   UNL A   1      38.091  31.717  28.888  1.00  0.00    -0.206 F 
ATOM     79  C   UNL A   1      36.674  31.603  32.220  1.00  0.00     0.006 A 
ENDBRANCH  51  72
BRANCH  63  80
ATOM     80  C   UNL A   1      45.129  33.500  29.325  1.00  0.00     0.057 A 
ATOM     81  C   UNL A   1      45.892  33.737  30.477  1.00  0.00     0.134 A 
ATOM     82  C   UNL A   1      44.945  34.568  28.439  1.00  0.00     0.134 A 
ATOM     83  F   UNL A   1      46.092  32.758  31.372  1.00  0.00    -0.206 F 
ATOM     84  C   UNL A   1      46.429  34.995  30.748  1.00  0.00     0.040 A 
ATOM     85  C   UNL A   1      45.496  35.825  28.688  1.00  0.00     0.040 A 
ATOM     86  F   UNL A   1      44.231  34.404  27.315  1.00  0.00    -0.206 F 
ATOM     87  C   UNL A   1      46.234  36.044  29.850  1.00  0.00     0.006 A 
ENDBRANCH  63  80
ENDBRANCH  37  38
ENDBRANCH  30  32
ENDBRANCH  29  30
ENDBRANCH  28  29
ENDBRANCH  27  28
ENDBRANCH   1  27
TORSDOF 16
ENDMDL
MODEL 3
REMARK VINA RESULT:     -11.9      1.481      2.105
REMARK SMILES C[C@@H](Oc1ccc(-c2ccccc2)cc1)C(=O)N1CCC[C@H](C(=O)OCCOC(=O)c2ccc(-c3c4nc(c(-c5c(F)cccc5F)c5ccc([nH]5)c(-c5c(F)cccc5F)c5nc(c(-c6c(F)cccc6F)c6ccc3[nH]6)C=C5)C=C4)cc2)C1
REMARK SMILES IDX 25 1 23 2 24 3 22 4 18 5 19 6 85 7 20 8 21 9 16 10 17 11
REMARK SMILES IDX 2 12 1 13 3 14 4 15 5 16 15 17 6 18 14 19 7 20 8 21 9 22
REMARK SMILES IDX 13 23 10 24 12 25 11 26 26 27 27 28 28 29 29 30 30 31 31 32
REMARK SMILES IDX 32 33 84 34 33 35 83 36 34 37 35 38 36 39 77 40 37 41 82 42
REMARK SMILES IDX 76 43 78 44 38 45 81 46 75 47 74 48 39 50 65 51 48 52 64 53
REMARK SMILES IDX 49 54 52 55 63 56 79 57 50 58 51 59 62 61 80 62 53 63 40 64
REMARK SMILES IDX 41 65 46 66 42 67 43 68 45 69 47 70 44 71 66 72 67 73 72 74
REMARK SMILES IDX 68 75 69 76 71 77 73 78 70 79 54 80 55 81 60 82 56 83 57 84
REMARK SMILES IDX 59 85 61 86 58 87
REMARK H PARENT 78 49 52 60
REMARK Flexibility Score: inf
ROOT
ATOM      1  O   UNL A   1      31.666  29.156  25.296  1.00  0.00    -0.462 OA
ENDROOT
BRANCH   1   2
ATOM      2  C   UNL A   1      32.780  28.832  24.596  1.00  0.00     0.310 C 
ATOM      3  O   UNL A   1      33.858  28.540  25.100  1.00  0.00    -0.252 OA
BRANCH   2   4
ATOM      4  C   UNL A   1      32.584  28.911  23.088  1.00  0.00     0.119 C 
ATOM      5  N   UNL A   1      31.133  26.954  22.849  1.00  0.00    -0.339 N 
ATOM      6  C   UNL A   1      32.068  26.241  21.982  1.00  0.00     0.119 C 
ATOM      7  C   UNL A   1      31.189  28.410  22.736  1.00  0.00     0.134 C 
ATOM      8  C   UNL A   1      33.509  26.690  22.199  1.00  0.00     0.022 C 
ATOM      9  C   UNL A   1      33.655  28.214  22.239  1.00  0.00     0.019 C 
BRANCH   5  10
ATOM     10  C   UNL A   1      30.300  26.238  23.702  1.00  0.00     0.263 C 
ATOM     11  O   UNL A   1      29.086  26.153  23.485  1.00  0.00    -0.271 OA
BRANCH  10  12
ATOM     12  C   UNL A   1      30.888  25.550  24.954  1.00  0.00     0.259 C 
ATOM     13  C   UNL A   1      29.920  25.561  26.136  1.00  0.00     0.064 C 
BRANCH  12  14
ATOM     14  O   UNL A   1      31.271  24.219  24.589  1.00  0.00    -0.481 OA
BRANCH  14  15
ATOM     15  C   UNL A   1      32.610  23.994  24.689  1.00  0.00     0.120 A 
ATOM     16  C   UNL A   1      33.143  22.776  24.278  1.00  0.00     0.047 A 
ATOM     17  C   UNL A   1      33.397  24.926  25.351  1.00  0.00     0.047 A 
ATOM     18  C   UNL A   1      34.488  22.491  24.536  1.00  0.00     0.012 A 
ATOM     19  C   UNL A   1      34.738  24.641  25.600  1.00  0.00     0.012 A 
ATOM     20  C   UNL A   1      35.303  23.411  25.217  1.00  0.00    -0.018 A 
BRANCH  20  21
ATOM     21  C   UNL A   1      36.694  23.090  25.575  1.00  0.00    -0.018 A 
ATOM     22  C   UNL A   1      37.518  24.013  26.238  1.00  0.00     0.009 A 
ATOM     23  C   UNL A   1      37.236  21.830  25.262  1.00  0.00     0.009 A 
ATOM     24  C   UNL A   1      38.831  23.682  26.586  1.00  0.00     0.001 A 
ATOM     25  C   UNL A   1      38.547  21.497  25.608  1.00  0.00     0.001 A 
ATOM     26  C   UNL A   1      39.344  22.424  26.273  1.00  0.00     0.000 A 
ENDBRANCH  20  21
ENDBRANCH  14  15
ENDBRANCH  12  14
ENDBRANCH  10  12
ENDBRANCH   5  10
ENDBRANCH   2   4
ENDBRANCH   1   2
BRANCH   1  27
ATOM     27  C   UNL A   1      31.820  29.505  26.684  1.00  0.00     0.274 C 
BRANCH  27  28
ATOM     28  C   UNL A   1      31.771  31.021  26.878  1.00  0.00     0.275 C 
BRANCH  28  29
ATOM     29  O   UNL A   1      33.030  31.625  26.526  1.00  0.00    -0.458 OA
BRANCH  29  30
ATOM     30  C   UNL A   1      33.525  32.482  27.447  1.00  0.00     0.338 C 
ATOM     31  O   UNL A   1      32.963  33.441  27.949  1.00  0.00    -0.246 OA
BRANCH  30  32
ATOM     32  C   UNL A   1      34.831  32.001  27.914  1.00  0.00     0.060 A 
ATOM     33  C   UNL A   1      34.938  30.645  28.232  1.00  0.00     0.016 A 
ATOM     34  C   UNL A   1      35.899  32.870  28.133  1.00  0.00     0.016 A 
ATOM     35  C   UNL A   1      36.109  30.148  28.786  1.00  0.00     0.010 A 
ATOM     36  C   UNL A   1      37.078  32.372  28.700  1.00  0.00     0.010 A 
ATOM     37  C   UNL A   1      37.177  31.013  29.048  1.00  0.00    -0.014 A 
BRANCH  37  38
ATOM     38  C   UNL A   1      38.345  30.491  29.794  1.00  0.00     0.031 A 
ATOM     39  C   UNL A   1      38.538  30.889  31.230  1.00  0.00     0.074 A 
ATOM     40  C   UNL A   1      39.174  29.606  29.216  1.00  0.00     0.049 A 
ATOM     41  N   UNL A   1      39.490  30.550  32.063  1.00  0.00    -0.248 NA
ATOM     42  C   UNL A   1      37.524  31.786  31.806  1.00  0.00     0.031 C 
ATOM     43  C   UNL A   1      39.052  29.105  27.848  1.00  0.00     0.029 A 
ATOM     44  N   UNL A   1      40.277  28.961  29.716  1.00  0.00    -0.354 N 
ATOM     45  C   UNL A   1      39.199  31.204  33.252  1.00  0.00     0.074 A 
ATOM     46  C   UNL A   1      37.992  31.973  33.031  1.00  0.00     0.031 C 
ATOM     47  C   UNL A   1      40.039  28.221  27.618  1.00  0.00     0.029 A 
ATOM     48  C   UNL A   1      40.877  28.122  28.811  1.00  0.00     0.049 A 
ATOM     49  H   UNL A   1      40.607  29.089  30.634  1.00  0.00     0.167 HD
ATOM     50  C   UNL A   1      39.873  31.162  34.425  1.00  0.00     0.037 A 
ATOM     51  C   UNL A   1      41.986  27.369  28.930  1.00  0.00     0.037 A 
ATOM     52  C   UNL A   1      41.064  30.384  34.648  1.00  0.00     0.049 A 
ATOM     53  C   UNL A   1      42.740  27.371  30.230  1.00  0.00     0.074 A 
ATOM     54  C   UNL A   1      41.823  30.277  35.800  1.00  0.00     0.029 A 
ATOM     55  N   UNL A   1      41.664  29.574  33.695  1.00  0.00    -0.354 N 
ATOM     56  N   UNL A   1      42.466  28.006  31.344  1.00  0.00    -0.248 NA
ATOM     57  C   UNL A   1      43.960  26.554  30.289  1.00  0.00     0.031 C 
ATOM     58  C   UNL A   1      42.901  29.425  35.534  1.00  0.00     0.029 A 
ATOM     59  C   UNL A   1      42.793  28.973  34.229  1.00  0.00     0.049 A 
ATOM     60  H   UNL A   1      41.337  29.445  32.777  1.00  0.00     0.167 HD
ATOM     61  C   UNL A   1      43.469  27.656  32.239  1.00  0.00     0.074 A 
ATOM     62  C   UNL A   1      44.346  26.735  31.543  1.00  0.00     0.031 C 
ATOM     63  C   UNL A   1      43.652  28.062  33.519  1.00  0.00     0.037 A 
BRANCH  50  64
ATOM     64  C   UNL A   1      39.351  32.009  35.546  1.00  0.00     0.057 A 
ATOM     65  C   UNL A   1      39.771  33.332  35.732  1.00  0.00     0.134 A 
ATOM     66  C   UNL A   1      38.405  31.497  36.443  1.00  0.00     0.134 A 
ATOM     67  F   UNL A   1      40.690  33.874  34.919  1.00  0.00    -0.206 F 
ATOM     68  C   UNL A   1      39.283  34.109  36.784  1.00  0.00     0.040 A 
ATOM     69  C   UNL A   1      37.895  32.271  37.485  1.00  0.00     0.040 A 
ATOM     70  F   UNL A   1      37.961  30.237  36.318  1.00  0.00    -0.206 F 
ATOM     71  C   UNL A   1      38.339  33.580  37.662  1.00  0.00     0.006 A 
ENDBRANCH  50  64
BRANCH  51  72
ATOM     72  C   UNL A   1      42.459  26.558  27.781  1.00  0.00     0.057 A 
ATOM     73  C   UNL A   1      43.287  27.108  26.797  1.00  0.00     0.134 A 
ATOM     74  C   UNL A   1      42.082  25.218  27.635  1.00  0.00     0.134 A 
ATOM     75  F   UNL A   1      43.663  28.392  26.870  1.00  0.00    -0.206 F 
ATOM     76  C   UNL A   1      43.714  26.358  25.700  1.00  0.00     0.040 A 
ATOM     77  C   UNL A   1      42.519  24.449  26.556  1.00  0.00     0.040 A 
ATOM     78  F   UNL A   1      41.289  24.635  28.546  1.00  0.00    -0.206 F 
ATOM     79  C   UNL A   1      43.334  25.022  25.581  1.00  0.00     0.006 A 
ENDBRANCH  51  72
BRANCH  63  80
ATOM     80  C   UNL A   1      44.833  27.496  34.247  1.00  0.00     0.057 A 
ATOM     81  C   UNL A   1      44.752  26.287  34.951  1.00  0.00     0.134 A 
ATOM     82  C   UNL A   1      46.067  28.156  34.231  1.00  0.00     0.134 A 
ATOM     83  F   UNL A   1      43.594  25.614  35.015  1.00  0.00    -0.206 F 
ATOM     84  C   UNL A   1      45.852  25.768  35.635  1.00  0.00     0.040 A 
ATOM     85  C   UNL A   1      47.180  27.636  34.893  1.00  0.00     0.040 A 
ATOM     86  F   UNL A   1      46.212  29.314  33.570  1.00  0.00    -0.206 F 
ATOM     87  C   UNL A   1      47.072  26.442  35.604  1.00  0.00     0.006 A 
ENDBRANCH  63  80
ENDBRANCH  37  38
ENDBRANCH  30  32
ENDBRANCH  29  30
ENDBRANCH  28  29
ENDBRANCH  27  28
ENDBRANCH   1  27
TORSDOF 16
ENDMDL
