MODEL 1
REMARK VINA RESULT:     -10.1      0.000      0.000
REMARK SMILES C/C(C(=O)OCCOC(=O)c1ccc(-c2c3nc(c(-c4c(F)cccc4F)c4ccc([nH]4)c(-c4c(F)cccc4F)c4nc(c(-c5c(F)cccc5F)c5ccc2[nH]5)C=C4)C=C3)cc1)=C(\C)c1ccc(C)c(F)c1
REMARK SMILES IDX 7 1 6 2 5 3 3 4 4 5 2 6 1 7 65 8 66 9 67 10 68 11 74 12
REMARK SMILES IDX 69 13 72 14 70 15 73 16 71 17 8 18 9 19 10 20 11 21 12 22
REMARK SMILES IDX 64 23 13 24 63 25 14 26 15 27 16 28 57 29 17 30 62 31 56 32
REMARK SMILES IDX 58 33 18 34 61 35 55 36 54 37 19 39 45 40 28 41 44 42 29 43
REMARK SMILES IDX 32 44 43 45 59 46 30 47 31 48 42 50 60 51 33 52 20 53 21 54
REMARK SMILES IDX 26 55 22 56 23 57 25 58 27 59 24 60 46 61 47 62 52 63 48 64
REMARK SMILES IDX 49 65 51 66 53 67 50 68 34 69 35 70 40 71 36 72 37 73 39 74
REMARK SMILES IDX 41 75 38 76
REMARK H PARENT 58 38 32 49
REMARK Flexibility Score: inf
ROOT
ATOM      1  C   UNL A   1      46.005  23.086  24.632  1.00  0.00     0.275 C 
ENDROOT
BRANCH   1   2
ATOM      2  C   UNL A   1      47.035  24.107  25.103  1.00  0.00     0.275 C 
BRANCH   2   3
ATOM      3  O   UNL A   1      47.205  23.993  26.535  1.00  0.00    -0.459 OA
BRANCH   3   4
ATOM      4  C   UNL A   1      48.201  24.739  27.074  1.00  0.00     0.334 C 
ATOM      5  O   UNL A   1      49.304  24.332  27.407  1.00  0.00    -0.247 OA
BRANCH   4   6
ATOM      6  C   UNL A   1      47.728  26.131  27.333  1.00  0.00     0.038 C 
ATOM      7  C   UNL A   1      48.239  27.081  26.289  1.00  0.00     0.052 C 
ATOM      8  C   UNL A   1      46.847  26.457  28.316  1.00  0.00    -0.034 C 
ATOM      9  C   UNL A   1      46.183  27.799  28.433  1.00  0.00     0.045 C 
BRANCH   8  10
ATOM     10  C   UNL A   1      46.358  25.452  29.286  1.00  0.00    -0.019 A 
ATOM     11  C   UNL A   1      46.851  25.700  30.968  1.00  0.00     0.009 A 
ATOM     12  C   UNL A   1      44.983  24.307  28.969  1.00  0.00     0.048 A 
ATOM     13  C   UNL A   1      46.050  24.937  32.353  1.00  0.00     0.007 A 
ATOM     14  C   UNL A   1      44.053  23.494  30.576  1.00  0.00     0.126 A 
ATOM     15  C   UNL A   1      44.680  23.859  32.208  1.00  0.00    -0.015 A 
ATOM     16  F   UNL A   1      42.959  22.682  30.665  1.00  0.00    -0.207 F 
ATOM     17  C   UNL A   1      44.152  23.059  33.352  1.00  0.00     0.047 C 
ENDBRANCH   8  10
ENDBRANCH   4   6
ENDBRANCH   3   4
ENDBRANCH   2   3
ENDBRANCH   1   2
BRANCH   1  18
ATOM     18  O   UNL A   1      44.839  23.807  24.203  1.00  0.00    -0.458 OA
BRANCH  18  19
ATOM     19  C   UNL A   1      43.682  23.373  24.744  1.00  0.00     0.338 C 
ATOM     20  O   UNL A   1      43.087  22.334  24.518  1.00  0.00    -0.246 OA
BRANCH  19  21
ATOM     21  C   UNL A   1      43.274  24.291  25.804  1.00  0.00     0.060 A 
ATOM     22  C   UNL A   1      41.909  23.867  26.888  1.00  0.00     0.016 A 
ATOM     23  C   UNL A   1      43.728  25.981  25.670  1.00  0.00     0.016 A 
ATOM     24  C   UNL A   1      40.959  25.368  27.853  1.00  0.00     0.010 A 
ATOM     25  C   UNL A   1      42.933  27.283  26.601  1.00  0.00     0.010 A 
ATOM     26  C   UNL A   1      41.574  27.050  27.725  1.00  0.00    -0.014 A 
BRANCH  26  27
ATOM     27  C   UNL A   1      41.305  28.056  28.875  1.00  0.00     0.031 A 
ATOM     28  C   UNL A   1      42.013  27.902  30.216  1.00  0.00     0.074 A 
ATOM     29  C   UNL A   1      40.319  29.001  28.837  1.00  0.00     0.049 A 
ATOM     30  N   UNL A   1      41.714  28.420  31.388  1.00  0.00    -0.248 NA
ATOM     31  C   UNL A   1      43.213  27.054  30.248  1.00  0.00     0.031 C 
ATOM     32  C   UNL A   1      39.536  29.435  27.688  1.00  0.00     0.029 A 
ATOM     33  N   UNL A   1      39.740  29.765  29.849  1.00  0.00    -0.354 N 
ATOM     34  C   UNL A   1      42.665  27.934  32.283  1.00  0.00     0.074 A 
ATOM     35  C   UNL A   1      43.476  26.990  31.546  1.00  0.00     0.031 C 
ATOM     36  C   UNL A   1      38.542  30.249  28.034  1.00  0.00     0.029 A 
ATOM     37  C   UNL A   1      38.608  30.459  29.454  1.00  0.00     0.049 A 
ATOM     38  H   UNL A   1      40.103  29.806  30.763  1.00  0.00     0.167 HD
ATOM     39  C   UNL A   1      42.904  28.288  33.572  1.00  0.00     0.037 A 
ATOM     40  C   UNL A   1      37.689  31.212  30.087  1.00  0.00     0.037 A 
ATOM     41  C   UNL A   1      42.165  29.290  34.300  1.00  0.00     0.049 A 
ATOM     42  C   UNL A   1      37.911  31.540  31.517  1.00  0.00     0.074 A 
ATOM     43  C   UNL A   1      42.404  29.785  35.573  1.00  0.00     0.029 A 
ATOM     44  N   UNL A   1      41.049  29.959  33.820  1.00  0.00    -0.354 N 
ATOM     45  N   UNL A   1      38.861  31.109  32.305  1.00  0.00    -0.248 NA
ATOM     46  C   UNL A   1      36.988  32.499  32.131  1.00  0.00     0.031 C 
ATOM     47  C   UNL A   1      41.405  30.715  35.881  1.00  0.00     0.029 A 
ATOM     48  C   UNL A   1      40.570  30.835  34.785  1.00  0.00     0.049 A 
ATOM     49  H   UNL A   1      40.655  29.832  32.927  1.00  0.00     0.167 HD
ATOM     50  C   UNL A   1      38.680  31.780  33.500  1.00  0.00     0.074 A 
ATOM     51  C   UNL A   1      37.534  32.651  33.328  1.00  0.00     0.031 C 
ATOM     52  C   UNL A   1      39.417  31.684  34.629  1.00  0.00     0.037 A 
BRANCH  39  53
ATOM     53  C   UNL A   1      44.057  27.612  34.272  1.00  0.00     0.057 A 
ATOM     54  C   UNL A   1      43.890  26.420  34.992  1.00  0.00     0.134 A 
ATOM     55  C   UNL A   1      45.350  28.149  34.216  1.00  0.00     0.134 A 
ATOM     56  F   UNL A   1      42.680  25.848  35.087  1.00  0.00    -0.206 F 
ATOM     57  C   UNL A   1      44.949  25.820  35.677  1.00  0.00     0.040 A 
ATOM     58  C   UNL A   1      46.425  27.539  34.869  1.00  0.00     0.040 A 
ATOM     59  F   UNL A   1      45.593  29.273  33.526  1.00  0.00    -0.206 F 
ATOM     60  C   UNL A   1      46.223  26.379  35.614  1.00  0.00     0.006 A 
ENDBRANCH  39  53
BRANCH  40  61
ATOM     61  C   UNL A   1      36.524  31.769  29.337  1.00  0.00     0.057 A 
ATOM     62  C   UNL A   1      36.490  33.106  28.923  1.00  0.00     0.134 A 
ATOM     63  C   UNL A   1      35.435  30.961  28.978  1.00  0.00     0.134 A 
ATOM     64  F   UNL A   1      37.502  33.931  29.227  1.00  0.00    -0.206 F 
ATOM     65  C   UNL A   1      35.407  33.629  28.212  1.00  0.00     0.040 A 
ATOM     66  C   UNL A   1      34.356  31.465  28.247  1.00  0.00     0.040 A 
ATOM     67  F   UNL A   1      35.416  29.662  29.311  1.00  0.00    -0.206 F 
ATOM     68  C   UNL A   1      34.336  32.806  27.869  1.00  0.00     0.006 A 
ENDBRANCH  40  61
BRANCH  52  69
ATOM     69  C   UNL A   1      39.000  32.557  35.768  1.00  0.00     0.057 A 
ATOM     70  C   UNL A   1      39.441  33.882  35.875  1.00  0.00     0.134 A 
ATOM     71  C   UNL A   1      38.158  32.067  36.772  1.00  0.00     0.134 A 
ATOM     72  F   UNL A   1      40.276  34.397  34.959  1.00  0.00    -0.206 F 
ATOM     73  C   UNL A   1      39.075  34.684  36.954  1.00  0.00     0.040 A 
ATOM     74  C   UNL A   1      37.760  32.870  37.841  1.00  0.00     0.040 A 
ATOM     75  F   UNL A   1      37.709  30.803  36.731  1.00  0.00    -0.206 F 
ATOM     76  C   UNL A   1      38.225  34.180  37.937  1.00  0.00     0.006 A 
ENDBRANCH  52  69
ENDBRANCH  26  27
ENDBRANCH  19  21
ENDBRANCH  18  19
ENDBRANCH   1  18
TORSDOF 12
ENDMDL
MODEL 2
REMARK VINA RESULT:      -9.8      1.701      3.441
REMARK SMILES C/C(C(=O)OCCOC(=O)c1ccc(-c2c3nc(c(-c4c(F)cccc4F)c4ccc([nH]4)c(-c4c(F)cccc4F)c4nc(c(-c5c(F)cccc5F)c5ccc2[nH]5)C=C4)C=C3)cc1)=C(\C)c1ccc(C)c(F)c1
REMARK SMILES IDX 7 1 6 2 5 3 3 4 4 5 2 6 1 7 65 8 66 9 67 10 68 11 74 12
REMARK SMILES IDX 69 13 72 14 70 15 73 16 71 17 8 18 9 19 10 20 11 21 12 22
REMARK SMILES IDX 64 23 13 24 63 25 14 26 15 27 16 28 57 29 17 30 62 31 56 32
REMARK SMILES IDX 58 33 18 34 61 35 55 36 54 37 19 39 45 40 28 41 44 42 29 43
REMARK SMILES IDX 32 44 43 45 59 46 30 47 31 48 42 50 60 51 33 52 20 53 21 54
REMARK SMILES IDX 26 55 22 56 23 57 25 58 27 59 24 60 46 61 47 62 52 63 48 64
REMARK SMILES IDX 49 65 51 66 53 67 50 68 34 69 35 70 40 71 36 72 37 73 39 74
REMARK SMILES IDX 41 75 38 76
REMARK H PARENT 58 38 32 49
REMARK Flexibility Score: inf
ROOT
ATOM      1  C   UNL A   1      46.405  22.948  24.240  1.00  0.00     0.275 C 
ENDROOT
BRANCH   1   2
ATOM      2  C   UNL A   1      47.193  24.043  24.952  1.00  0.00     0.275 C 
BRANCH   2   3
ATOM      3  O   UNL A   1      47.099  23.849  26.382  1.00  0.00    -0.459 OA
BRANCH   3   4
ATOM      4  C   UNL A   1      47.869  24.668  27.142  1.00  0.00     0.334 C 
ATOM      5  O   UNL A   1      49.060  24.524  27.374  1.00  0.00    -0.247 OA
BRANCH   4   6
ATOM      6  C   UNL A   1      47.031  25.727  27.780  1.00  0.00     0.038 C 
ATOM      7  C   UNL A   1      46.309  25.196  28.983  1.00  0.00     0.052 C 
ATOM      8  C   UNL A   1      47.034  27.028  27.386  1.00  0.00    -0.034 C 
ATOM      9  C   UNL A   1      46.389  28.139  28.164  1.00  0.00     0.045 C 
BRANCH   8  10
ATOM     10  C   UNL A   1      47.806  27.482  26.208  1.00  0.00    -0.019 A 
ATOM     11  C   UNL A   1      49.544  27.701  26.462  1.00  0.00     0.009 A 
ATOM     12  C   UNL A   1      47.208  27.388  24.493  1.00  0.00     0.048 A 
ATOM     13  C   UNL A   1      50.730  27.782  25.148  1.00  0.00     0.007 A 
ATOM     14  C   UNL A   1      48.595  27.429  23.016  1.00  0.00     0.126 A 
ATOM     15  C   UNL A   1      50.313  27.649  23.454  1.00  0.00    -0.015 A 
ATOM     16  F   UNL A   1      48.470  27.295  21.663  1.00  0.00    -0.207 F 
ATOM     17  C   UNL A   1      51.281  27.932  22.354  1.00  0.00     0.047 C 
ENDBRANCH   8  10
ENDBRANCH   4   6
ENDBRANCH   3   4
ENDBRANCH   2   3
ENDBRANCH   1   2
BRANCH   1  18
ATOM     18  O   UNL A   1      45.359  22.516  25.125  1.00  0.00    -0.458 OA
BRANCH  18  19
ATOM     19  C   UNL A   1      44.134  22.991  24.818  1.00  0.00     0.338 C 
ATOM     20  O   UNL A   1      43.403  22.656  23.903  1.00  0.00    -0.246 OA
BRANCH  19  21
ATOM     21  C   UNL A   1      43.702  23.913  25.864  1.00  0.00     0.060 A 
ATOM     22  C   UNL A   1      42.390  23.444  26.995  1.00  0.00     0.016 A 
ATOM     23  C   UNL A   1      44.055  25.622  25.673  1.00  0.00     0.016 A 
ATOM     24  C   UNL A   1      41.380  24.916  27.944  1.00  0.00     0.010 A 
ATOM     25  C   UNL A   1      43.210  26.903  26.589  1.00  0.00     0.010 A 
ATOM     26  C   UNL A   1      41.895  26.626  27.754  1.00  0.00    -0.014 A 
BRANCH  26  27
ATOM     27  C   UNL A   1      41.598  27.647  28.884  1.00  0.00     0.031 A 
ATOM     28  C   UNL A   1      42.270  27.509  30.245  1.00  0.00     0.074 A 
ATOM     29  C   UNL A   1      40.615  28.593  28.808  1.00  0.00     0.049 A 
ATOM     30  N   UNL A   1      41.941  28.042  31.402  1.00  0.00    -0.248 NA
ATOM     31  C   UNL A   1      43.467  26.660  30.320  1.00  0.00     0.031 C 
ATOM     32  C   UNL A   1      39.863  29.013  27.633  1.00  0.00     0.029 A 
ATOM     33  N   UNL A   1      40.011  29.370  29.795  1.00  0.00    -0.354 N 
ATOM     34  C   UNL A   1      42.868  27.567  32.328  1.00  0.00     0.074 A 
ATOM     35  C   UNL A   1      43.696  26.612  31.625  1.00  0.00     0.031 C 
ATOM     36  C   UNL A   1      38.862  29.832  27.942  1.00  0.00     0.029 A 
ATOM     37  C   UNL A   1      38.891  30.061  29.361  1.00  0.00     0.049 A 
ATOM     38  H   UNL A   1      40.350  29.423  30.717  1.00  0.00     0.167 HD
ATOM     39  C   UNL A   1      43.073  27.937  33.618  1.00  0.00     0.037 A 
ATOM     40  C   UNL A   1      37.958  30.824  29.959  1.00  0.00     0.037 A 
ATOM     41  C   UNL A   1      42.317  28.950  34.314  1.00  0.00     0.049 A 
ATOM     42  C   UNL A   1      38.143  31.169  31.390  1.00  0.00     0.074 A 
ATOM     43  C   UNL A   1      42.523  29.461  35.586  1.00  0.00     0.029 A 
ATOM     44  N   UNL A   1      41.215  29.614  33.796  1.00  0.00    -0.354 N 
ATOM     45  N   UNL A   1      39.070  30.748  32.209  1.00  0.00    -0.248 NA
ATOM     46  C   UNL A   1      37.205  32.138  31.967  1.00  0.00     0.031 C 
ATOM     47  C   UNL A   1      41.519  30.397  35.856  1.00  0.00     0.029 A 
ATOM     48  C   UNL A   1      40.712  30.503  34.737  1.00  0.00     0.049 A 
ATOM     49  H   UNL A   1      40.845  29.476  32.894  1.00  0.00     0.167 HD
ATOM     50  C   UNL A   1      38.859  31.434  33.389  1.00  0.00     0.074 A 
ATOM     51  C   UNL A   1      37.720  32.305  33.176  1.00  0.00     0.031 C 
ATOM     52  C   UNL A   1      39.566  31.352  34.539  1.00  0.00     0.037 A 
BRANCH  39  53
ATOM     53  C   UNL A   1      44.206  27.269  34.357  1.00  0.00     0.057 A 
ATOM     54  C   UNL A   1      44.025  26.069  35.060  1.00  0.00     0.134 A 
ATOM     55  C   UNL A   1      45.494  27.821  34.356  1.00  0.00     0.134 A 
ATOM     56  F   UNL A   1      42.820  25.481  35.103  1.00  0.00    -0.206 F 
ATOM     57  C   UNL A   1      45.064  25.475  35.780  1.00  0.00     0.040 A 
ATOM     58  C   UNL A   1      46.550  27.217  35.045  1.00  0.00     0.040 A 
ATOM     59  F   UNL A   1      45.750  28.954  33.685  1.00  0.00    -0.206 F 
ATOM     60  C   UNL A   1      46.333  26.049  35.772  1.00  0.00     0.006 A 
ENDBRANCH  39  53
BRANCH  40  61
ATOM     61  C   UNL A   1      36.813  31.373  29.172  1.00  0.00     0.057 A 
ATOM     62  C   UNL A   1      35.678  30.601  28.894  1.00  0.00     0.134 A 
ATOM     63  C   UNL A   1      36.810  32.699  28.718  1.00  0.00     0.134 A 
ATOM     64  F   UNL A   1      35.613  29.327  29.305  1.00  0.00    -0.206 F 
ATOM     65  C   UNL A   1      34.600  31.113  28.168  1.00  0.00     0.040 A 
ATOM     66  C   UNL A   1      35.729  33.232  28.011  1.00  0.00     0.040 A 
ATOM     67  F   UNL A   1      37.849  33.507  28.978  1.00  0.00    -0.206 F 
ATOM     68  C   UNL A   1      34.622  32.435  27.726  1.00  0.00     0.006 A 
ENDBRANCH  40  61
BRANCH  52  69
ATOM     69  C   UNL A   1      39.120  32.240  35.656  1.00  0.00     0.057 A 
ATOM     70  C   UNL A   1      38.254  31.780  36.655  1.00  0.00     0.134 A 
ATOM     71  C   UNL A   1      39.554  33.568  35.728  1.00  0.00     0.134 A 
ATOM     72  F   UNL A   1      37.779  30.526  36.621  1.00  0.00    -0.206 F 
ATOM     73  C   UNL A   1      37.817  32.619  37.679  1.00  0.00     0.040 A 
ATOM     74  C   UNL A   1      39.147  34.408  36.764  1.00  0.00     0.040 A 
ATOM     75  F   UNL A   1      40.377  34.069  34.795  1.00  0.00    -0.206 F 
ATOM     76  C   UNL A   1      38.271  33.936  37.739  1.00  0.00     0.006 A 
ENDBRANCH  52  69
ENDBRANCH  26  27
ENDBRANCH  19  21
ENDBRANCH  18  19
ENDBRANCH   1  18
TORSDOF 12
ENDMDL
MODEL 3
REMARK VINA RESULT:      -9.5      7.963     12.835
REMARK SMILES C/C(C(=O)OCCOC(=O)c1ccc(-c2c3nc(c(-c4c(F)cccc4F)c4ccc([nH]4)c(-c4c(F)cccc4F)c4nc(c(-c5c(F)cccc5F)c5ccc2[nH]5)C=C4)C=C3)cc1)=C(\C)c1ccc(C)c(F)c1
REMARK SMILES IDX 7 1 6 2 5 3 3 4 4 5 2 6 1 7 65 8 66 9 67 10 68 11 74 12
REMARK SMILES IDX 69 13 72 14 70 15 73 16 71 17 8 18 9 19 10 20 11 21 12 22
REMARK SMILES IDX 64 23 13 24 63 25 14 26 15 27 16 28 57 29 17 30 62 31 56 32
REMARK SMILES IDX 58 33 18 34 61 35 55 36 54 37 19 39 45 40 28 41 44 42 29 43
REMARK SMILES IDX 32 44 43 45 59 46 30 47 31 48 42 50 60 51 33 52 20 53 21 54
REMARK SMILES IDX 26 55 22 56 23 57 25 58 27 59 24 60 46 61 47 62 52 63 48 64
REMARK SMILES IDX 49 65 51 66 53 67 50 68 34 69 35 70 40 71 36 72 37 73 39 74
REMARK SMILES IDX 41 75 38 76
REMARK H PARENT 58 38 32 49
REMARK Flexibility Score: inf
ROOT
ATOM      1  C   UNL A   1      43.584  38.664  26.873  1.00  0.00     0.275 C 
ENDROOT
BRANCH   1   2
ATOM      2  C   UNL A   1      43.198  40.137  26.972  1.00  0.00     0.275 C 
BRANCH   2   3
ATOM      3  O   UNL A   1      43.460  40.788  25.708  1.00  0.00    -0.459 OA
BRANCH   3   4
ATOM      4  C   UNL A   1      44.736  41.200  25.508  1.00  0.00     0.334 C 
ATOM      5  O   UNL A   1      45.692  40.483  25.254  1.00  0.00    -0.247 OA
BRANCH   4   6
ATOM      6  C   UNL A   1      44.858  42.666  25.768  1.00  0.00     0.038 C 
ATOM      7  C   UNL A   1      45.334  42.931  27.166  1.00  0.00     0.052 C 
ATOM      8  C   UNL A   1      44.680  43.618  24.814  1.00  0.00    -0.034 C 
ATOM      9  C   UNL A   1      45.034  45.065  25.000  1.00  0.00     0.045 C 
BRANCH   8  10
ATOM     10  C   UNL A   1      44.246  43.271  23.442  1.00  0.00    -0.019 A 
ATOM     11  C   UNL A   1      42.501  43.326  23.149  1.00  0.00     0.009 A 
ATOM     12  C   UNL A   1      45.346  43.246  21.995  1.00  0.00     0.048 A 
ATOM     13  C   UNL A   1      41.775  43.409  21.535  1.00  0.00     0.007 A 
ATOM     14  C   UNL A   1      44.486  43.397  20.165  1.00  0.00     0.126 A 
ATOM     15  C   UNL A   1      42.705  43.451  20.053  1.00  0.00    -0.015 A 
ATOM     16  F   UNL A   1      45.038  43.491  18.919  1.00  0.00    -0.207 F 
ATOM     17  C   UNL A   1      42.087  43.305  18.702  1.00  0.00     0.047 C 
ENDBRANCH   8  10
ENDBRANCH   4   6
ENDBRANCH   3   4
ENDBRANCH   2   3
ENDBRANCH   1   2
BRANCH   1  18
ATOM     18  O   UNL A   1      44.131  38.270  28.142  1.00  0.00    -0.458 OA
BRANCH  18  19
ATOM     19  C   UNL A   1      45.310  37.619  28.065  1.00  0.00     0.338 C 
ATOM     20  O   UNL A   1      46.432  38.093  28.019  1.00  0.00    -0.246 OA
BRANCH  19  21
ATOM     21  C   UNL A   1      45.075  36.184  28.198  1.00  0.00     0.060 A 
ATOM     22  C   UNL A   1      45.450  35.348  29.740  1.00  0.00     0.016 A 
ATOM     23  C   UNL A   1      44.962  35.215  26.740  1.00  0.00     0.016 A 
ATOM     24  C   UNL A   1      45.757  33.350  29.689  1.00  0.00     0.010 A 
ATOM     25  C   UNL A   1      45.148  33.438  26.730  1.00  0.00     0.010 A 
ATOM     26  C   UNL A   1      45.513  32.442  28.159  1.00  0.00    -0.014 A 
BRANCH  26  27
ATOM     27  C   UNL A   1      45.123  30.941  28.210  1.00  0.00     0.031 A 
ATOM     28  C   UNL A   1      46.072  29.878  27.669  1.00  0.00     0.074 A 
ATOM     29  C   UNL A   1      43.878  30.496  28.556  1.00  0.00     0.049 A 
ATOM     30  N   UNL A   1      45.829  28.631  27.328  1.00  0.00    -0.248 NA
ATOM     31  C   UNL A   1      47.477  30.265  27.483  1.00  0.00     0.031 C 
ATOM     32  C   UNL A   1      42.797  31.249  29.178  1.00  0.00     0.029 A 
ATOM     33  N   UNL A   1      43.263  29.259  28.374  1.00  0.00    -0.354 N 
ATOM     34  C   UNL A   1      47.036  28.111  26.866  1.00  0.00     0.074 A 
ATOM     35  C   UNL A   1      47.979  29.208  26.858  1.00  0.00     0.031 C 
ATOM     36  C   UNL A   1      41.661  30.557  29.220  1.00  0.00     0.029 A 
ATOM     37  C   UNL A   1      41.907  29.256  28.660  1.00  0.00     0.049 A 
ATOM     38  H   UNL A   1      43.748  28.459  28.069  1.00  0.00     0.167 HD
ATOM     39  C   UNL A   1      47.366  26.832  26.551  1.00  0.00     0.037 A 
ATOM     40  C   UNL A   1      40.914  28.356  28.536  1.00  0.00     0.037 A 
ATOM     41  C   UNL A   1      46.469  25.706  26.636  1.00  0.00     0.049 A 
ATOM     42  C   UNL A   1      41.264  26.975  28.121  1.00  0.00     0.074 A 
ATOM     43  C   UNL A   1      46.746  24.363  26.436  1.00  0.00     0.029 A 
ATOM     44  N   UNL A   1      45.121  25.787  26.954  1.00  0.00    -0.354 N 
ATOM     45  N   UNL A   1      42.431  26.513  27.756  1.00  0.00    -0.248 NA
ATOM     46  C   UNL A   1      40.191  25.977  28.160  1.00  0.00     0.031 C 
ATOM     47  C   UNL A   1      45.558  23.638  26.584  1.00  0.00     0.029 A 
ATOM     48  C   UNL A   1      44.549  24.522  26.921  1.00  0.00     0.049 A 
ATOM     49  H   UNL A   1      44.641  26.619  27.171  1.00  0.00     0.167 HD
ATOM     50  C   UNL A   1      42.247  25.157  27.565  1.00  0.00     0.074 A 
ATOM     51  C   UNL A   1      40.857  24.871  27.862  1.00  0.00     0.031 C 
ATOM     52  C   UNL A   1      43.163  24.237  27.190  1.00  0.00     0.037 A 
BRANCH  39  53
ATOM     53  C   UNL A   1      48.791  26.570  26.128  1.00  0.00     0.057 A 
ATOM     54  C   UNL A   1      49.225  26.795  24.813  1.00  0.00     0.134 A 
ATOM     55  C   UNL A   1      49.742  26.101  27.043  1.00  0.00     0.134 A 
ATOM     56  F   UNL A   1      48.370  27.246  23.883  1.00  0.00    -0.206 F 
ATOM     57  C   UNL A   1      50.532  26.510  24.411  1.00  0.00     0.040 A 
ATOM     58  C   UNL A   1      51.061  25.845  26.661  1.00  0.00     0.040 A 
ATOM     59  F   UNL A   1      49.408  25.886  28.324  1.00  0.00    -0.206 F 
ATOM     60  C   UNL A   1      51.456  26.034  25.339  1.00  0.00     0.006 A 
ENDBRANCH  39  53
BRANCH  40  61
ATOM     61  C   UNL A   1      39.511  28.726  28.891  1.00  0.00     0.057 A 
ATOM     62  C   UNL A   1      39.009  28.538  30.184  1.00  0.00     0.134 A 
ATOM     63  C   UNL A   1      38.655  29.319  27.953  1.00  0.00     0.134 A 
ATOM     64  F   UNL A   1      39.779  27.982  31.131  1.00  0.00    -0.206 F 
ATOM     65  C   UNL A   1      37.701  28.893  30.524  1.00  0.00     0.040 A 
ATOM     66  C   UNL A   1      37.352  29.700  28.285  1.00  0.00     0.040 A 
ATOM     67  F   UNL A   1      39.080  29.562  26.704  1.00  0.00    -0.206 F 
ATOM     68  C   UNL A   1      36.869  29.479  29.573  1.00  0.00     0.006 A 
ENDBRANCH  40  61
BRANCH  52  69
ATOM     69  C   UNL A   1      42.682  22.826  27.088  1.00  0.00     0.057 A 
ATOM     70  C   UNL A   1      42.420  22.057  28.229  1.00  0.00     0.134 A 
ATOM     71  C   UNL A   1      42.485  22.227  25.839  1.00  0.00     0.134 A 
ATOM     72  F   UNL A   1      42.621  22.567  29.454  1.00  0.00    -0.206 F 
ATOM     73  C   UNL A   1      42.000  20.731  28.131  1.00  0.00     0.040 A 
ATOM     74  C   UNL A   1      42.036  20.911  25.729  1.00  0.00     0.040 A 
ATOM     75  F   UNL A   1      42.727  22.909  24.710  1.00  0.00    -0.206 F 
ATOM     76  C   UNL A   1      41.799  20.158  26.877  1.00  0.00     0.006 A 
ENDBRANCH  52  69
ENDBRANCH  26  27
ENDBRANCH  19  21
ENDBRANCH  18  19
ENDBRANCH   1  18
TORSDOF 12
ENDMDL
