MODEL 1
REMARK VINA RESULT:     -12.1      0.000      0.000
REMARK SMILES COc1ccc(-n2ccnc2C[N@@H+]2CCn3nc(C(=O)OCCOC(=O)c4ccc(-c5c6nc(c(-c7c(F)cccc7F)c7ccc([nH]7)c(-c7c(F)cccc7F)c7nc(c(-c8c(F)cccc8F)c8ccc5[nH]8)C=C7)C=C6)cc4)cc3C2)cc1
REMARK SMILES IDX 22 1 21 2 19 3 20 4 18 5 13 6 14 7 83 8 15 10 82 11 16 12
REMARK SMILES IDX 81 13 17 14 12 15 11 16 7 17 8 18 9 19 10 20 6 21 3 22 4 23
REMARK SMILES IDX 85 24 5 25 84 26 2 27 1 28 23 29 24 30 25 31 26 32 27 33
REMARK SMILES IDX 28 34 80 35 29 36 79 37 30 38 31 39 32 40 73 41 33 42 78 43
REMARK SMILES IDX 72 44 74 45 34 46 77 47 71 48 70 49 35 51 61 52 44 53 60 54
REMARK SMILES IDX 45 55 48 56 59 57 75 58 46 59 47 60 58 62 76 63 49 64 36 65
REMARK SMILES IDX 37 66 42 67 38 68 39 69 41 70 43 71 40 72 62 73 63 74 68 75
REMARK SMILES IDX 64 76 65 77 67 78 69 79 66 80 50 81 51 82 56 83 52 84 53 85
REMARK SMILES IDX 55 86 57 87 54 88
REMARK H PARENT 13 9 74 50 48 61
REMARK Flexibility Score: inf
ROOT
ATOM      1  C   UNL A   1      33.432  30.810  27.395  1.00  0.00     0.275 C 
ENDROOT
BRANCH   1   2
ATOM      2  O   UNL A   1      32.356  29.941  26.916  1.00  0.00    -0.457 OA
BRANCH   2   3
ATOM      3  C   UNL A   1      32.501  29.309  25.697  1.00  0.00     0.358 C 
ATOM      4  O   UNL A   1      33.279  29.703  24.833  1.00  0.00    -0.244 OA
BRANCH   3   5
ATOM      5  C   UNL A   1      31.701  28.050  25.562  1.00  0.00     0.170 A 
ATOM      6  N   UNL A   1      30.677  23.694  25.315  1.00  0.00    -0.322 N 
ATOM      7  C   UNL A   1      30.618  24.052  23.882  1.00  0.00     0.286 C 
ATOM      8  C   UNL A   1      30.065  24.745  26.156  1.00  0.00     0.319 C 
ATOM      9  H   UNL A   1      30.147  22.822  25.315  1.00  0.00     0.348 HD
ATOM     10  C   UNL A   1      30.374  25.540  23.485  1.00  0.00     0.206 C 
ATOM     11  C   UNL A   1      30.694  26.063  25.866  1.00  0.00     0.094 A 
ATOM     12  N   UNL A   1      30.721  26.445  24.565  1.00  0.00    -0.257 N 
ATOM     13  C   UNL A   1      31.403  27.042  26.539  1.00  0.00     0.067 A 
ATOM     14  N   UNL A   1      31.109  27.713  24.387  1.00  0.00    -0.165 NA
BRANCH   6  15
ATOM     15  C   UNL A   1      31.983  23.321  25.907  1.00  0.00     0.339 C 
BRANCH  15  16
ATOM     16  C   UNL A   1      33.263  23.491  25.128  1.00  0.00     0.168 A 
ATOM     17  N   UNL A   1      33.805  22.499  24.323  1.00  0.00    -0.299 N 
ATOM     18  C   UNL A   1      34.832  23.048  23.605  1.00  0.00     0.113 A 
ATOM     19  C   UNL A   1      34.892  24.356  24.012  1.00  0.00     0.132 A 
ATOM     20  N   UNL A   1      33.933  24.621  24.958  1.00  0.00    -0.236 NA
BRANCH  17  21
ATOM     21  C   UNL A   1      33.408  21.162  24.254  1.00  0.00     0.047 A 
ATOM     22  C   UNL A   1      32.959  18.500  23.683  1.00  0.00     0.119 A 
ATOM     23  C   UNL A   1      33.851  18.884  24.699  1.00  0.00     0.048 A 
ATOM     24  C   UNL A   1      32.195  19.465  23.049  1.00  0.00     0.048 A 
ATOM     25  C   UNL A   1      34.127  20.214  24.959  1.00  0.00     0.030 A 
ATOM     26  C   UNL A   1      32.387  20.807  23.367  1.00  0.00     0.030 A 
BRANCH  22  27
ATOM     27  O   UNL A   1      32.901  17.169  23.417  1.00  0.00    -0.497 OA
ATOM     28  C   UNL A   1      33.657  16.211  24.157  1.00  0.00     0.278 C 
ENDBRANCH  22  27
ENDBRANCH  17  21
ENDBRANCH  15  16
ENDBRANCH   6  15
ENDBRANCH   3   5
ENDBRANCH   2   3
ENDBRANCH   1   2
BRANCH   1  29
ATOM     29  C   UNL A   1      34.661  30.041  27.962  1.00  0.00     0.275 C 
BRANCH  29  30
ATOM     30  O   UNL A   1      35.714  30.947  28.349  1.00  0.00    -0.458 OA
BRANCH  30  31
ATOM     31  C   UNL A   1      36.424  30.609  29.453  1.00  0.00     0.338 C 
ATOM     32  O   UNL A   1      36.211  30.940  30.618  1.00  0.00    -0.246 OA
BRANCH  31  33
ATOM     33  C   UNL A   1      37.471  29.651  29.071  1.00  0.00     0.060 A 
ATOM     34  C   UNL A   1      37.878  28.683  30.008  1.00  0.00     0.016 A 
ATOM     35  C   UNL A   1      38.028  29.703  27.789  1.00  0.00     0.016 A 
ATOM     36  C   UNL A   1      38.886  27.798  29.692  1.00  0.00     0.010 A 
ATOM     37  C   UNL A   1      39.091  28.874  27.494  1.00  0.00     0.010 A 
ATOM     38  C   UNL A   1      39.555  28.002  28.488  1.00  0.00    -0.014 A 
BRANCH  38  39
ATOM     39  C   UNL A   1      40.956  27.624  28.469  1.00  0.00     0.031 A 
ATOM     40  C   UNL A   1      41.300  26.338  27.831  1.00  0.00     0.074 A 
ATOM     41  C   UNL A   1      41.814  28.551  28.950  1.00  0.00     0.049 A 
ATOM     42  N   UNL A   1      41.896  25.322  28.367  1.00  0.00    -0.248 NA
ATOM     43  C   UNL A   1      40.805  26.089  26.469  1.00  0.00     0.031 C 
ATOM     44  C   UNL A   1      41.484  29.910  29.413  1.00  0.00     0.029 A 
ATOM     45  N   UNL A   1      43.172  28.538  28.995  1.00  0.00    -0.354 N 
ATOM     46  C   UNL A   1      42.041  24.394  27.340  1.00  0.00     0.074 A 
ATOM     47  C   UNL A   1      41.165  24.820  26.282  1.00  0.00     0.031 C 
ATOM     48  C   UNL A   1      42.601  30.660  29.448  1.00  0.00     0.029 A 
ATOM     49  C   UNL A   1      43.726  29.816  29.118  1.00  0.00     0.049 A 
ATOM     50  H   UNL A   1      43.710  27.714  28.946  1.00  0.00     0.167 HD
ATOM     51  C   UNL A   1      43.075  23.510  27.320  1.00  0.00     0.037 A 
ATOM     52  C   UNL A   1      45.006  30.132  28.802  1.00  0.00     0.037 A 
ATOM     53  C   UNL A   1      43.679  23.376  28.620  1.00  0.00     0.049 A 
ATOM     54  C   UNL A   1      45.772  28.853  28.835  1.00  0.00     0.074 A 
ATOM     55  C   UNL A   1      43.224  22.953  29.853  1.00  0.00     0.029 A 
ATOM     56  N   UNL A   1      44.844  24.062  28.862  1.00  0.00    -0.354 N 
ATOM     57  N   UNL A   1      45.976  28.168  29.930  1.00  0.00    -0.248 NA
ATOM     58  C   UNL A   1      45.855  28.085  27.600  1.00  0.00     0.031 C 
ATOM     59  C   UNL A   1      43.867  23.804  30.796  1.00  0.00     0.029 A 
ATOM     60  C   UNL A   1      44.731  24.648  30.098  1.00  0.00     0.049 A 
ATOM     61  H   UNL A   1      45.620  24.124  28.258  1.00  0.00     0.167 HD
ATOM     62  C   UNL A   1      45.789  26.840  29.561  1.00  0.00     0.074 A 
ATOM     63  C   UNL A   1      45.785  26.848  28.100  1.00  0.00     0.031 C 
ATOM     64  C   UNL A   1      45.350  25.905  30.458  1.00  0.00     0.037 A 
BRANCH  51  65
ATOM     65  C   UNL A   1      43.757  23.051  26.055  1.00  0.00     0.057 A 
ATOM     66  C   UNL A   1      43.793  21.681  25.747  1.00  0.00     0.134 A 
ATOM     67  C   UNL A   1      44.604  23.863  25.268  1.00  0.00     0.134 A 
ATOM     68  F   UNL A   1      43.052  20.801  26.436  1.00  0.00    -0.206 F 
ATOM     69  C   UNL A   1      44.648  21.155  24.769  1.00  0.00     0.040 A 
ATOM     70  C   UNL A   1      45.417  23.356  24.253  1.00  0.00     0.040 A 
ATOM     71  F   UNL A   1      44.771  25.169  25.502  1.00  0.00    -0.206 F 
ATOM     72  C   UNL A   1      45.465  21.993  24.020  1.00  0.00     0.006 A 
ENDBRANCH  51  65
BRANCH  52  73
ATOM     73  C   UNL A   1      45.461  31.365  28.114  1.00  0.00     0.057 A 
ATOM     74  C   UNL A   1      46.617  32.040  28.525  1.00  0.00     0.134 A 
ATOM     75  C   UNL A   1      44.909  31.796  26.889  1.00  0.00     0.134 A 
ATOM     76  F   UNL A   1      47.249  31.680  29.652  1.00  0.00    -0.206 F 
ATOM     77  C   UNL A   1      47.192  33.069  27.764  1.00  0.00     0.040 A 
ATOM     78  C   UNL A   1      45.462  32.830  26.129  1.00  0.00     0.040 A 
ATOM     79  F   UNL A   1      43.856  31.175  26.336  1.00  0.00    -0.206 F 
ATOM     80  C   UNL A   1      46.617  33.464  26.558  1.00  0.00     0.006 A 
ENDBRANCH  52  73
BRANCH  64  81
ATOM     81  C   UNL A   1      45.258  26.304  31.909  1.00  0.00     0.057 A 
ATOM     82  C   UNL A   1      44.109  26.865  32.488  1.00  0.00     0.134 A 
ATOM     83  C   UNL A   1      46.283  25.933  32.785  1.00  0.00     0.134 A 
ATOM     84  F   UNL A   1      43.030  27.144  31.749  1.00  0.00    -0.206 F 
ATOM     85  C   UNL A   1      44.003  27.088  33.864  1.00  0.00     0.040 A 
ATOM     86  C   UNL A   1      46.177  26.118  34.166  1.00  0.00     0.040 A 
ATOM     87  F   UNL A   1      47.384  25.325  32.316  1.00  0.00    -0.206 F 
ATOM     88  C   UNL A   1      45.037  26.705  34.710  1.00  0.00     0.006 A 
ENDBRANCH  64  81
ENDBRANCH  38  39
ENDBRANCH  31  33
ENDBRANCH  30  31
ENDBRANCH  29  30
ENDBRANCH   1  29
TORSDOF 15
ENDMDL
MODEL 2
REMARK VINA RESULT:     -12.0      3.949      9.127
REMARK SMILES COc1ccc(-n2ccnc2C[N@@H+]2CCn3nc(C(=O)OCCOC(=O)c4ccc(-c5c6nc(c(-c7c(F)cccc7F)c7ccc([nH]7)c(-c7c(F)cccc7F)c7nc(c(-c8c(F)cccc8F)c8ccc5[nH]8)C=C7)C=C6)cc4)cc3C2)cc1
REMARK SMILES IDX 22 1 21 2 19 3 20 4 18 5 13 6 14 7 83 8 15 10 82 11 16 12
REMARK SMILES IDX 81 13 17 14 12 15 11 16 7 17 8 18 9 19 10 20 6 21 3 22 4 23
REMARK SMILES IDX 85 24 5 25 84 26 2 27 1 28 23 29 24 30 25 31 26 32 27 33
REMARK SMILES IDX 28 34 80 35 29 36 79 37 30 38 31 39 32 40 73 41 33 42 78 43
REMARK SMILES IDX 72 44 74 45 34 46 77 47 71 48 70 49 35 51 61 52 44 53 60 54
REMARK SMILES IDX 45 55 48 56 59 57 75 58 46 59 47 60 58 62 76 63 49 64 36 65
REMARK SMILES IDX 37 66 42 67 38 68 39 69 41 70 43 71 40 72 62 73 63 74 68 75
REMARK SMILES IDX 64 76 65 77 67 78 69 79 66 80 50 81 51 82 56 83 52 84 53 85
REMARK SMILES IDX 55 86 57 87 54 88
REMARK H PARENT 13 9 74 50 48 61
REMARK Flexibility Score: inf
ROOT
ATOM      1  C   UNL A   1      39.577  21.847  26.408  1.00  0.00     0.275 C 
ENDROOT
BRANCH   1   2
ATOM      2  O   UNL A   1      38.543  22.154  25.418  1.00  0.00    -0.457 OA
BRANCH   2   3
ATOM      3  C   UNL A   1      37.588  23.104  25.724  1.00  0.00     0.358 C 
ATOM      4  O   UNL A   1      37.802  24.038  26.491  1.00  0.00    -0.244 OA
BRANCH   3   5
ATOM      5  C   UNL A   1      36.307  22.950  24.963  1.00  0.00     0.170 A 
ATOM      6  N   UNL A   1      32.506  23.979  22.823  1.00  0.00    -0.322 N 
ATOM      7  C   UNL A   1      31.956  23.525  24.118  1.00  0.00     0.286 C 
ATOM      8  C   UNL A   1      33.616  23.108  22.377  1.00  0.00     0.319 C 
ATOM      9  H   UNL A   1      31.679  23.908  22.230  1.00  0.00     0.348 HD
ATOM     10  C   UNL A   1      32.810  22.573  25.009  1.00  0.00     0.206 C 
ATOM     11  C   UNL A   1      34.652  23.016  23.443  1.00  0.00     0.094 A 
ATOM     12  N   UNL A   1      34.219  22.649  24.675  1.00  0.00    -0.257 N 
ATOM     13  C   UNL A   1      35.994  23.308  23.609  1.00  0.00     0.067 A 
ATOM     14  N   UNL A   1      35.211  22.387  25.534  1.00  0.00    -0.165 NA
BRANCH   6  15
ATOM     15  C   UNL A   1      32.932  25.391  22.680  1.00  0.00     0.339 C 
BRANCH  15  16
ATOM     16  C   UNL A   1      33.135  26.264  23.892  1.00  0.00     0.168 A 
ATOM     17  N   UNL A   1      32.236  27.245  24.288  1.00  0.00    -0.299 N 
ATOM     18  C   UNL A   1      32.612  27.693  25.524  1.00  0.00     0.113 A 
ATOM     19  C   UNL A   1      33.741  26.980  25.834  1.00  0.00     0.132 A 
ATOM     20  N   UNL A   1      34.067  26.111  24.821  1.00  0.00    -0.236 NA
BRANCH  17  21
ATOM     21  C   UNL A   1      31.145  27.726  23.561  1.00  0.00     0.047 A 
ATOM     22  C   UNL A   1      28.873  28.953  22.588  1.00  0.00     0.119 A 
ATOM     23  C   UNL A   1      30.152  29.448  22.285  1.00  0.00     0.048 A 
ATOM     24  C   UNL A   1      28.752  27.756  23.275  1.00  0.00     0.048 A 
ATOM     25  C   UNL A   1      31.296  28.876  22.810  1.00  0.00     0.030 A 
ATOM     26  C   UNL A   1      29.900  27.111  23.729  1.00  0.00     0.030 A 
BRANCH  22  27
ATOM     27  O   UNL A   1      27.827  29.699  22.147  1.00  0.00    -0.497 OA
ATOM     28  C   UNL A   1      27.958  31.087  21.844  1.00  0.00     0.278 C 
ENDBRANCH  22  27
ENDBRANCH  17  21
ENDBRANCH  15  16
ENDBRANCH   6  15
ENDBRANCH   3   5
ENDBRANCH   2   3
ENDBRANCH   1   2
BRANCH   1  29
ATOM     29  C   UNL A   1      40.922  22.594  26.169  1.00  0.00     0.275 C 
BRANCH  29  30
ATOM     30  O   UNL A   1      41.006  23.792  26.966  1.00  0.00    -0.458 OA
BRANCH  30  31
ATOM     31  C   UNL A   1      41.303  24.937  26.304  1.00  0.00     0.338 C 
ATOM     32  O   UNL A   1      41.894  25.058  25.233  1.00  0.00    -0.246 OA
BRANCH  31  33
ATOM     33  C   UNL A   1      40.692  26.069  27.015  1.00  0.00     0.060 A 
ATOM     34  C   UNL A   1      40.994  27.378  26.591  1.00  0.00     0.016 A 
ATOM     35  C   UNL A   1      39.815  25.833  28.079  1.00  0.00     0.016 A 
ATOM     36  C   UNL A   1      40.469  28.459  27.265  1.00  0.00     0.010 A 
ATOM     37  C   UNL A   1      39.350  26.909  28.807  1.00  0.00     0.010 A 
ATOM     38  C   UNL A   1      39.763  28.195  28.436  1.00  0.00    -0.014 A 
BRANCH  38  39
ATOM     39  C   UNL A   1      39.843  29.213  29.467  1.00  0.00     0.031 A 
ATOM     40  C   UNL A   1      38.681  30.110  29.623  1.00  0.00     0.074 A 
ATOM     41  C   UNL A   1      40.944  29.160  30.250  1.00  0.00     0.049 A 
ATOM     42  N   UNL A   1      38.657  31.400  29.524  1.00  0.00    -0.248 NA
ATOM     43  C   UNL A   1      37.353  29.498  29.775  1.00  0.00     0.031 C 
ATOM     44  C   UNL A   1      42.013  28.147  30.212  1.00  0.00     0.029 A 
ATOM     45  N   UNL A   1      41.273  29.906  31.337  1.00  0.00    -0.354 N 
ATOM     46  C   UNL A   1      37.348  31.770  29.818  1.00  0.00     0.074 A 
ATOM     47  C   UNL A   1      36.560  30.569  29.738  1.00  0.00     0.031 C 
ATOM     48  C   UNL A   1      42.716  28.188  31.358  1.00  0.00     0.029 A 
ATOM     49  C   UNL A   1      42.224  29.288  32.155  1.00  0.00     0.049 A 
ATOM     50  H   UNL A   1      40.884  30.791  31.529  1.00  0.00     0.167 HD
ATOM     51  C   UNL A   1      37.057  32.973  30.383  1.00  0.00     0.037 A 
ATOM     52  C   UNL A   1      42.439  29.602  33.456  1.00  0.00     0.037 A 
ATOM     53  C   UNL A   1      38.142  33.906  30.223  1.00  0.00     0.049 A 
ATOM     54  C   UNL A   1      41.906  30.982  33.646  1.00  0.00     0.074 A 
ATOM     55  C   UNL A   1      38.774  34.469  29.132  1.00  0.00     0.029 A 
ATOM     56  N   UNL A   1      38.985  34.102  31.290  1.00  0.00    -0.354 N 
ATOM     57  N   UNL A   1      42.425  32.037  33.073  1.00  0.00    -0.248 NA
ATOM     58  C   UNL A   1      40.509  31.116  34.040  1.00  0.00     0.031 C 
ATOM     59  C   UNL A   1      40.149  34.541  29.497  1.00  0.00     0.029 A 
ATOM     60  C   UNL A   1      40.271  34.089  30.812  1.00  0.00     0.049 A 
ATOM     61  H   UNL A   1      38.715  34.228  32.229  1.00  0.00     0.167 HD
ATOM     62  C   UNL A   1      41.333  32.790  32.654  1.00  0.00     0.074 A 
ATOM     63  C   UNL A   1      40.183  32.206  33.339  1.00  0.00     0.031 C 
ATOM     64  C   UNL A   1      41.411  33.614  31.565  1.00  0.00     0.037 A 
BRANCH  51  65
ATOM     65  C   UNL A   1      35.947  33.180  31.382  1.00  0.00     0.057 A 
ATOM     66  C   UNL A   1      34.938  34.118  31.111  1.00  0.00     0.134 A 
ATOM     67  C   UNL A   1      35.971  32.695  32.709  1.00  0.00     0.134 A 
ATOM     68  F   UNL A   1      34.822  34.672  29.895  1.00  0.00    -0.206 F 
ATOM     69  C   UNL A   1      34.056  34.579  32.099  1.00  0.00     0.040 A 
ATOM     70  C   UNL A   1      35.062  33.105  33.686  1.00  0.00     0.040 A 
ATOM     71  F   UNL A   1      36.931  31.882  33.162  1.00  0.00    -0.206 F 
ATOM     72  C   UNL A   1      34.119  34.074  33.392  1.00  0.00     0.006 A 
ENDBRANCH  51  65
BRANCH  52  73
ATOM     73  C   UNL A   1      42.701  28.645  34.560  1.00  0.00     0.057 A 
ATOM     74  C   UNL A   1      43.673  28.908  35.532  1.00  0.00     0.134 A 
ATOM     75  C   UNL A   1      41.853  27.551  34.828  1.00  0.00     0.134 A 
ATOM     76  F   UNL A   1      44.502  29.953  35.398  1.00  0.00    -0.206 F 
ATOM     77  C   UNL A   1      43.788  28.140  36.701  1.00  0.00     0.040 A 
ATOM     78  C   UNL A   1      41.966  26.767  35.980  1.00  0.00     0.040 A 
ATOM     79  F   UNL A   1      40.823  27.246  34.025  1.00  0.00    -0.206 F 
ATOM     80  C   UNL A   1      42.929  27.068  36.930  1.00  0.00     0.006 A 
ENDBRANCH  52  73
BRANCH  64  81
ATOM     81  C   UNL A   1      42.764  33.838  30.940  1.00  0.00     0.057 A 
ATOM     82  C   UNL A   1      43.282  33.043  29.905  1.00  0.00     0.134 A 
ATOM     83  C   UNL A   1      43.477  34.998  31.255  1.00  0.00     0.134 A 
ATOM     84  F   UNL A   1      42.613  31.978  29.452  1.00  0.00    -0.206 F 
ATOM     85  C   UNL A   1      44.474  33.363  29.248  1.00  0.00     0.040 A 
ATOM     86  C   UNL A   1      44.651  35.348  30.583  1.00  0.00     0.040 A 
ATOM     87  F   UNL A   1      43.010  35.847  32.185  1.00  0.00    -0.206 F 
ATOM     88  C   UNL A   1      45.159  34.526  29.581  1.00  0.00     0.006 A 
ENDBRANCH  64  81
ENDBRANCH  38  39
ENDBRANCH  31  33
ENDBRANCH  30  31
ENDBRANCH  29  30
ENDBRANCH   1  29
TORSDOF 15
ENDMDL
MODEL 3
REMARK VINA RESULT:     -11.9      1.527      2.226
REMARK SMILES COc1ccc(-n2ccnc2C[N@@H+]2CCn3nc(C(=O)OCCOC(=O)c4ccc(-c5c6nc(c(-c7c(F)cccc7F)c7ccc([nH]7)c(-c7c(F)cccc7F)c7nc(c(-c8c(F)cccc8F)c8ccc5[nH]8)C=C7)C=C6)cc4)cc3C2)cc1
REMARK SMILES IDX 22 1 21 2 19 3 20 4 18 5 13 6 14 7 83 8 15 10 82 11 16 12
REMARK SMILES IDX 81 13 17 14 12 15 11 16 7 17 8 18 9 19 10 20 6 21 3 22 4 23
REMARK SMILES IDX 85 24 5 25 84 26 2 27 1 28 23 29 24 30 25 31 26 32 27 33
REMARK SMILES IDX 28 34 80 35 29 36 79 37 30 38 31 39 32 40 73 41 33 42 78 43
REMARK SMILES IDX 72 44 74 45 34 46 77 47 71 48 70 49 35 51 61 52 44 53 60 54
REMARK SMILES IDX 45 55 48 56 59 57 75 58 46 59 47 60 58 62 76 63 49 64 36 65
REMARK SMILES IDX 37 66 42 67 38 68 39 69 41 70 43 71 40 72 62 73 63 74 68 75
REMARK SMILES IDX 64 76 65 77 67 78 69 79 66 80 50 81 51 82 56 83 52 84 53 85
REMARK SMILES IDX 55 86 57 87 54 88
REMARK H PARENT 13 9 74 50 48 61
REMARK Flexibility Score: inf
ROOT
ATOM      1  C   UNL A   1      34.467  30.460  27.331  1.00  0.00     0.275 C 
ENDROOT
BRANCH   1   2
ATOM      2  O   UNL A   1      33.114  29.916  27.442  1.00  0.00    -0.457 OA
BRANCH   2   3
ATOM      3  C   UNL A   1      32.191  30.215  26.458  1.00  0.00     0.358 C 
ATOM      4  O   UNL A   1      31.598  31.289  26.410  1.00  0.00    -0.244 OA
BRANCH   3   5
ATOM      5  C   UNL A   1      32.053  29.158  25.406  1.00  0.00     0.170 A 
ATOM      6  N   UNL A   1      32.637  25.328  23.154  1.00  0.00    -0.322 N 
ATOM      7  C   UNL A   1      33.467  26.236  22.335  1.00  0.00     0.286 C 
ATOM      8  C   UNL A   1      31.374  25.980  23.565  1.00  0.00     0.319 C 
ATOM      9  H   UNL A   1      32.495  24.558  22.501  1.00  0.00     0.348 HD
ATOM     10  C   UNL A   1      33.180  27.767  22.378  1.00  0.00     0.206 C 
ATOM     11  C   UNL A   1      31.664  27.270  24.250  1.00  0.00     0.094 A 
ATOM     12  N   UNL A   1      32.460  28.142  23.580  1.00  0.00    -0.257 N 
ATOM     13  C   UNL A   1      31.450  27.859  25.483  1.00  0.00     0.067 A 
ATOM     14  N   UNL A   1      32.520  29.353  24.146  1.00  0.00    -0.165 NA
BRANCH   6  15
ATOM     15  C   UNL A   1      33.241  24.684  24.345  1.00  0.00     0.339 C 
BRANCH  15  16
ATOM     16  C   UNL A   1      32.882  23.270  24.724  1.00  0.00     0.168 A 
ATOM     17  N   UNL A   1      33.808  22.343  25.182  1.00  0.00    -0.299 N 
ATOM     18  C   UNL A   1      33.125  21.246  25.632  1.00  0.00     0.113 A 
ATOM     19  C   UNL A   1      31.803  21.536  25.416  1.00  0.00     0.132 A 
ATOM     20  N   UNL A   1      31.658  22.777  24.845  1.00  0.00    -0.236 NA
BRANCH  17  21
ATOM     21  C   UNL A   1      35.198  22.470  25.175  1.00  0.00     0.047 A 
ATOM     22  C   UNL A   1      37.916  22.481  25.655  1.00  0.00     0.119 A 
ATOM     23  C   UNL A   1      37.327  21.505  24.833  1.00  0.00     0.048 A 
ATOM     24  C   UNL A   1      37.143  23.530  26.125  1.00  0.00     0.048 A 
ATOM     25  C   UNL A   1      35.961  21.455  24.628  1.00  0.00     0.030 A 
ATOM     26  C   UNL A   1      35.779  23.552  25.847  1.00  0.00     0.030 A 
BRANCH  22  27
ATOM     27  O   UNL A   1      39.241  22.323  25.908  1.00  0.00    -0.497 OA
ATOM     28  C   UNL A   1      39.766  21.135  26.498  1.00  0.00     0.278 C 
ENDBRANCH  22  27
ENDBRANCH  17  21
ENDBRANCH  15  16
ENDBRANCH   6  15
ENDBRANCH   3   5
ENDBRANCH   2   3
ENDBRANCH   1   2
BRANCH   1  29
ATOM     29  C   UNL A   1      34.814  31.519  28.418  1.00  0.00     0.275 C 
BRANCH  29  30
ATOM     30  O   UNL A   1      36.195  31.423  28.822  1.00  0.00    -0.458 OA
BRANCH  30  31
ATOM     31  C   UNL A   1      36.469  30.562  29.832  1.00  0.00     0.338 C 
ATOM     32  O   UNL A   1      35.906  30.472  30.921  1.00  0.00    -0.246 OA
BRANCH  31  33
ATOM     33  C   UNL A   1      37.507  29.621  29.386  1.00  0.00     0.060 A 
ATOM     34  C   UNL A   1      37.938  28.618  30.274  1.00  0.00     0.016 A 
ATOM     35  C   UNL A   1      38.031  29.724  28.093  1.00  0.00     0.016 A 
ATOM     36  C   UNL A   1      38.940  27.748  29.898  1.00  0.00     0.010 A 
ATOM     37  C   UNL A   1      39.087  28.909  27.739  1.00  0.00     0.010 A 
ATOM     38  C   UNL A   1      39.577  28.000  28.686  1.00  0.00    -0.014 A 
BRANCH  38  39
ATOM     39  C   UNL A   1      40.977  27.626  28.616  1.00  0.00     0.031 A 
ATOM     40  C   UNL A   1      41.302  26.344  27.959  1.00  0.00     0.074 A 
ATOM     41  C   UNL A   1      41.849  28.552  29.073  1.00  0.00     0.049 A 
ATOM     42  N   UNL A   1      41.918  25.327  28.470  1.00  0.00    -0.248 NA
ATOM     43  C   UNL A   1      40.760  26.102  26.614  1.00  0.00     0.031 C 
ATOM     44  C   UNL A   1      41.532  29.908  29.554  1.00  0.00     0.029 A 
ATOM     45  N   UNL A   1      43.208  28.542  29.070  1.00  0.00    -0.354 N 
ATOM     46  C   UNL A   1      42.030  24.404  27.433  1.00  0.00     0.074 A 
ATOM     47  C   UNL A   1      41.117  24.834  26.408  1.00  0.00     0.031 C 
ATOM     48  C   UNL A   1      42.648  30.660  29.554  1.00  0.00     0.029 A 
ATOM     49  C   UNL A   1      43.763  29.821  29.181  1.00  0.00     0.049 A 
ATOM     50  H   UNL A   1      43.746  27.720  28.998  1.00  0.00     0.167 HD
ATOM     51  C   UNL A   1      43.065  23.523  27.372  1.00  0.00     0.037 A 
ATOM     52  C   UNL A   1      45.030  30.142  28.822  1.00  0.00     0.037 A 
ATOM     53  C   UNL A   1      43.714  23.384  28.649  1.00  0.00     0.049 A 
ATOM     54  C   UNL A   1      45.800  28.866  28.822  1.00  0.00     0.074 A 
ATOM     55  C   UNL A   1      43.303  22.954  29.895  1.00  0.00     0.029 A 
ATOM     56  N   UNL A   1      44.885  24.072  28.855  1.00  0.00    -0.354 N 
ATOM     57  N   UNL A   1      46.044  28.175  29.906  1.00  0.00    -0.248 NA
ATOM     58  C   UNL A   1      45.842  28.104  27.580  1.00  0.00     0.031 C 
ATOM     59  C   UNL A   1      43.976  23.801  30.821  1.00  0.00     0.029 A 
ATOM     60  C   UNL A   1      44.814  24.651  30.097  1.00  0.00     0.049 A 
ATOM     61  H   UNL A   1      45.640  24.139  28.225  1.00  0.00     0.167 HD
ATOM     62  C   UNL A   1      45.847  26.849  29.536  1.00  0.00     0.074 A 
ATOM     63  C   UNL A   1      45.792  26.864  28.076  1.00  0.00     0.031 C 
ATOM     64  C   UNL A   1      45.442  25.908  30.442  1.00  0.00     0.037 A 
BRANCH  51  65
ATOM     65  C   UNL A   1      43.704  23.073  26.082  1.00  0.00     0.057 A 
ATOM     66  C   UNL A   1      43.704  21.709  25.750  1.00  0.00     0.134 A 
ATOM     67  C   UNL A   1      44.546  23.881  25.287  1.00  0.00     0.134 A 
ATOM     68  F   UNL A   1      42.964  20.831  26.444  1.00  0.00    -0.206 F 
ATOM     69  C   UNL A   1      44.522  21.182  24.741  1.00  0.00     0.040 A 
ATOM     70  C   UNL A   1      45.321  23.376  24.242  1.00  0.00     0.040 A 
ATOM     71  F   UNL A   1      44.746  25.180  25.537  1.00  0.00    -0.206 F 
ATOM     72  C   UNL A   1      45.336  22.017  23.985  1.00  0.00     0.006 A 
ENDBRANCH  51  65
BRANCH  52  73
ATOM     73  C   UNL A   1      45.458  31.381  28.126  1.00  0.00     0.057 A 
ATOM     74  C   UNL A   1      46.619  32.064  28.509  1.00  0.00     0.134 A 
ATOM     75  C   UNL A   1      44.871  31.810  26.917  1.00  0.00     0.134 A 
ATOM     76  F   UNL A   1      47.282  31.706  29.617  1.00  0.00    -0.206 F 
ATOM     77  C   UNL A   1      47.167  33.098  27.735  1.00  0.00     0.040 A 
ATOM     78  C   UNL A   1      45.397  32.849  26.145  1.00  0.00     0.040 A 
ATOM     79  F   UNL A   1      43.810  31.183  26.390  1.00  0.00    -0.206 F 
ATOM     80  C   UNL A   1      46.558  33.491  26.546  1.00  0.00     0.006 A 
ENDBRANCH  52  73
BRANCH  64  81
ATOM     81  C   UNL A   1      45.399  26.298  31.898  1.00  0.00     0.057 A 
ATOM     82  C   UNL A   1      44.267  26.847  32.521  1.00  0.00     0.134 A 
ATOM     83  C   UNL A   1      46.458  25.931  32.734  1.00  0.00     0.134 A 
ATOM     84  F   UNL A   1      43.161  27.122  31.823  1.00  0.00    -0.206 F 
ATOM     85  C   UNL A   1      44.210  27.063  33.901  1.00  0.00     0.040 A 
ATOM     86  C   UNL A   1      46.400  26.108  34.119  1.00  0.00     0.040 A 
ATOM     87  F   UNL A   1      47.546  25.334  32.223  1.00  0.00    -0.206 F 
ATOM     88  C   UNL A   1      45.277  26.684  34.707  1.00  0.00     0.006 A 
ENDBRANCH  64  81
ENDBRANCH  38  39
ENDBRANCH  31  33
ENDBRANCH  30  31
ENDBRANCH  29  30
ENDBRANCH   1  29
TORSDOF 15
ENDMDL
