MODEL 1
REMARK VINA RESULT:      -9.8      0.000      0.000
REMARK SMILES COc1cc([C@@H]2CC(=O)Nc3c(C(=O)OCCOC(=O)c4ccc(-c5c6nc(c(-c7c(F)cccc7F)c7ccc([nH]7)c(-c7c(F)cccc7F)c7nc(c(-c8c(F)cccc8F)c8ccc5[nH]8)C=C7)C=C6)cc4)cn(-c4ccccc4)c32)cc(OC)c1OC
REMARK SMILES IDX 16 1 15 2 13 3 14 4 12 5 6 6 7 7 83 8 8 9 11 10 76 11 9 12
REMARK SMILES IDX 10 13 75 14 5 16 3 17 4 18 88 19 85 20 84 21 2 22 1 23 89 24
REMARK SMILES IDX 90 25 86 26 87 27 77 28 78 29 82 30 79 31 81 32 80 33 17 34
REMARK SMILES IDX 18 35 19 36 20 37 21 38 22 39 74 40 23 41 73 42 24 43 25 44
REMARK SMILES IDX 26 45 67 46 27 47 72 48 66 49 68 50 28 51 71 52 65 53 64 54
REMARK SMILES IDX 29 56 55 57 38 58 54 59 39 60 42 61 53 62 69 63 40 64 41 65
REMARK SMILES IDX 52 67 70 68 43 69 30 70 31 71 36 72 32 73 33 74 35 75 37 76
REMARK SMILES IDX 34 77 56 78 57 79 62 80 58 81 59 82 61 83 63 84 60 85 44 86
REMARK SMILES IDX 45 87 50 88 46 89 47 90 49 91 51 92 48 93
REMARK H PARENT 10 15 68 55 42 66
REMARK Flexibility Score: inf
ROOT
ATOM      1  C   UNL A   1      34.956  33.916  30.357  1.00  0.00     0.275 C 
ENDROOT
BRANCH   1   2
ATOM      2  O   UNL A   1      34.912  34.458  31.689  1.00  0.00    -0.458 OA
BRANCH   2   3
ATOM      3  C   UNL A   1      34.560  33.592  32.689  1.00  0.00     0.341 C 
ATOM      4  O   UNL A   1      33.435  33.121  32.834  1.00  0.00    -0.246 OA
BRANCH   3   5
ATOM      5  C   UNL A   1      35.688  33.235  33.536  1.00  0.00     0.102 A 
ATOM      6  C   UNL A   1      38.654  31.257  34.558  1.00  0.00     0.078 C 
ATOM      7  C   UNL A   1      38.161  29.874  34.080  1.00  0.00     0.115 C 
ATOM      8  C   UNL A   1      37.532  32.238  34.395  1.00  0.00     0.055 A 
ATOM      9  C   UNL A   1      37.289  29.910  32.826  1.00  0.00     0.225 C 
ATOM     10  C   UNL A   1      36.513  32.092  33.486  1.00  0.00     0.078 A 
ATOM     11  N   UNL A   1      37.287  33.379  35.128  1.00  0.00    -0.317 N 
ATOM     12  O   UNL A   1      37.248  28.967  32.037  1.00  0.00    -0.275 OA
ATOM     13  N   UNL A   1      36.453  30.988  32.669  1.00  0.00    -0.324 N 
ATOM     14  C   UNL A   1      36.139  33.964  34.633  1.00  0.00     0.109 A 
ATOM     15  H   UNL A   1      35.787  30.969  31.946  1.00  0.00     0.170 HD
BRANCH   6  16
ATOM     16  C   UNL A   1      39.917  31.658  33.799  1.00  0.00    -0.031 A 
ATOM     17  C   UNL A   1      41.017  32.828  31.957  1.00  0.00     0.164 A 
ATOM     18  C   UNL A   1      39.847  32.418  32.625  1.00  0.00     0.055 A 
ATOM     19  C   UNL A   1      42.293  32.534  32.476  1.00  0.00     0.203 A 
ATOM     20  C   UNL A   1      42.360  31.753  33.646  1.00  0.00     0.164 A 
ATOM     21  C   UNL A   1      41.187  31.318  34.274  1.00  0.00     0.055 A 
BRANCH  17  22
ATOM     22  O   UNL A   1      40.833  33.624  30.853  1.00  0.00    -0.493 OA
ATOM     23  C   UNL A   1      39.676  34.452  30.980  1.00  0.00     0.278 C 
ENDBRANCH  17  22
BRANCH  19  24
ATOM     24  O   UNL A   1      43.492  32.952  31.976  1.00  0.00    -0.490 OA
ATOM     25  C   UNL A   1      44.098  34.156  32.398  1.00  0.00     0.278 C 
ENDBRANCH  19  24
BRANCH  20  26
ATOM     26  O   UNL A   1      43.472  31.300  34.314  1.00  0.00    -0.493 OA
ATOM     27  C   UNL A   1      43.861  31.943  35.515  1.00  0.00     0.278 C 
ENDBRANCH  20  26
ENDBRANCH   6  16
BRANCH  11  28
ATOM     28  C   UNL A   1      38.065  33.881  36.191  1.00  0.00     0.045 A 
ATOM     29  C   UNL A   1      37.768  33.486  37.498  1.00  0.00     0.026 A 
ATOM     30  C   UNL A   1      39.090  34.796  35.935  1.00  0.00     0.026 A 
ATOM     31  C   UNL A   1      38.463  34.048  38.565  1.00  0.00     0.002 A 
ATOM     32  C   UNL A   1      39.771  35.367  37.014  1.00  0.00     0.002 A 
ATOM     33  C   UNL A   1      39.451  35.001  38.324  1.00  0.00     0.000 A 
ENDBRANCH  11  28
ENDBRANCH   3   5
ENDBRANCH   2   3
ENDBRANCH   1   2
BRANCH   1  34
ATOM     34  C   UNL A   1      36.380  33.576  29.934  1.00  0.00     0.275 C 
BRANCH  34  35
ATOM     35  O   UNL A   1      36.386  32.673  28.831  1.00  0.00    -0.458 OA
BRANCH  35  36
ATOM     36  C   UNL A   1      36.324  31.363  29.160  1.00  0.00     0.338 C 
ATOM     37  O   UNL A   1      35.455  30.805  29.808  1.00  0.00    -0.246 OA
BRANCH  36  38
ATOM     38  C   UNL A   1      37.585  30.718  28.791  1.00  0.00     0.060 A 
ATOM     39  C   UNL A   1      37.505  29.462  28.180  1.00  0.00     0.016 A 
ATOM     40  C   UNL A   1      38.784  31.211  29.327  1.00  0.00     0.016 A 
ATOM     41  C   UNL A   1      38.585  28.615  28.287  1.00  0.00     0.010 A 
ATOM     42  C   UNL A   1      39.853  30.359  29.447  1.00  0.00     0.010 A 
ATOM     43  C   UNL A   1      39.706  29.049  29.000  1.00  0.00    -0.014 A 
BRANCH  43  44
ATOM     44  C   UNL A   1      40.782  28.109  29.218  1.00  0.00     0.031 A 
ATOM     45  C   UNL A   1      41.263  28.081  30.616  1.00  0.00     0.074 A 
ATOM     46  C   UNL A   1      41.185  27.259  28.255  1.00  0.00     0.049 A 
ATOM     47  N   UNL A   1      42.435  28.394  31.053  1.00  0.00    -0.248 NA
ATOM     48  C   UNL A   1      40.272  27.826  31.676  1.00  0.00     0.031 C 
ATOM     49  C   UNL A   1      40.582  27.016  26.942  1.00  0.00     0.029 A 
ATOM     50  N   UNL A   1      42.178  26.335  28.309  1.00  0.00    -0.354 N 
ATOM     51  C   UNL A   1      42.389  28.192  32.427  1.00  0.00     0.074 A 
ATOM     52  C   UNL A   1      41.003  28.017  32.773  1.00  0.00     0.031 C 
ATOM     53  C   UNL A   1      41.068  25.856  26.441  1.00  0.00     0.029 A 
ATOM     54  C   UNL A   1      42.093  25.348  27.336  1.00  0.00     0.049 A 
ATOM     55  H   UNL A   1      42.897  26.362  28.980  1.00  0.00     0.167 HD
ATOM     56  C   UNL A   1      43.521  27.949  33.141  1.00  0.00     0.037 A 
ATOM     57  C   UNL A   1      42.754  24.164  27.360  1.00  0.00     0.037 A 
ATOM     58  C   UNL A   1      44.697  28.337  32.406  1.00  0.00     0.049 A 
ATOM     59  C   UNL A   1      43.892  24.311  28.310  1.00  0.00     0.074 A 
ATOM     60  C   UNL A   1      45.155  29.529  31.876  1.00  0.00     0.029 A 
ATOM     61  N   UNL A   1      45.421  27.348  31.785  1.00  0.00    -0.354 N 
ATOM     62  N   UNL A   1      44.930  25.067  28.084  1.00  0.00    -0.248 NA
ATOM     63  C   UNL A   1      43.648  23.995  29.712  1.00  0.00     0.031 C 
ATOM     64  C   UNL A   1      45.758  29.172  30.636  1.00  0.00     0.029 A 
ATOM     65  C   UNL A   1      45.692  27.784  30.514  1.00  0.00     0.049 A 
ATOM     66  H   UNL A   1      45.695  26.489  32.180  1.00  0.00     0.167 HD
ATOM     67  C   UNL A   1      45.202  25.672  29.304  1.00  0.00     0.074 A 
ATOM     68  C   UNL A   1      44.430  24.913  30.286  1.00  0.00     0.031 C 
ATOM     69  C   UNL A   1      45.783  26.906  29.371  1.00  0.00     0.037 A 
BRANCH  56  70
ATOM     70  C   UNL A   1      43.580  27.026  34.328  1.00  0.00     0.057 A 
ATOM     71  C   UNL A   1      43.523  25.638  34.115  1.00  0.00     0.134 A 
ATOM     72  C   UNL A   1      43.389  27.439  35.662  1.00  0.00     0.134 A 
ATOM     73  F   UNL A   1      43.677  25.123  32.885  1.00  0.00    -0.206 F 
ATOM     74  C   UNL A   1      43.219  24.737  35.141  1.00  0.00     0.040 A 
ATOM     75  C   UNL A   1      43.139  26.543  36.703  1.00  0.00     0.040 A 
ATOM     76  F   UNL A   1      43.327  28.728  36.016  1.00  0.00    -0.206 F 
ATOM     77  C   UNL A   1      43.018  25.189  36.439  1.00  0.00     0.006 A 
ENDBRANCH  56  70
BRANCH  57  78
ATOM     78  C   UNL A   1      42.262  22.836  26.916  1.00  0.00     0.057 A 
ATOM     79  C   UNL A   1      43.082  21.978  26.167  1.00  0.00     0.134 A 
ATOM     80  C   UNL A   1      41.089  22.259  27.438  1.00  0.00     0.134 A 
ATOM     81  F   UNL A   1      44.241  22.418  25.658  1.00  0.00    -0.206 F 
ATOM     82  C   UNL A   1      42.770  20.624  25.977  1.00  0.00     0.040 A 
ATOM     83  C   UNL A   1      40.761  20.913  27.247  1.00  0.00     0.040 A 
ATOM     84  F   UNL A   1      40.261  22.955  28.230  1.00  0.00    -0.206 F 
ATOM     85  C   UNL A   1      41.612  20.085  26.529  1.00  0.00     0.006 A 
ENDBRANCH  57  78
BRANCH  69  86
ATOM     86  C   UNL A   1      46.334  27.500  28.104  1.00  0.00     0.057 A 
ATOM     87  C   UNL A   1      45.581  28.266  27.201  1.00  0.00     0.134 A 
ATOM     88  C   UNL A   1      47.712  27.426  27.871  1.00  0.00     0.134 A 
ATOM     89  F   UNL A   1      44.276  28.487  27.399  1.00  0.00    -0.206 F 
ATOM     90  C   UNL A   1      46.163  28.884  26.091  1.00  0.00     0.040 A 
ATOM     91  C   UNL A   1      48.312  28.070  26.787  1.00  0.00     0.040 A 
ATOM     92  F   UNL A   1      48.507  26.765  28.726  1.00  0.00    -0.206 F 
ATOM     93  C   UNL A   1      47.536  28.793  25.885  1.00  0.00     0.006 A 
ENDBRANCH  69  86
ENDBRANCH  43  44
ENDBRANCH  36  38
ENDBRANCH  35  36
ENDBRANCH  34  35
ENDBRANCH   1  34
TORSDOF 16
ENDMDL
MODEL 2
REMARK VINA RESULT:      -9.4      2.251      6.641
REMARK SMILES COc1cc([C@@H]2CC(=O)Nc3c(C(=O)OCCOC(=O)c4ccc(-c5c6nc(c(-c7c(F)cccc7F)c7ccc([nH]7)c(-c7c(F)cccc7F)c7nc(c(-c8c(F)cccc8F)c8ccc5[nH]8)C=C7)C=C6)cc4)cn(-c4ccccc4)c32)cc(OC)c1OC
REMARK SMILES IDX 16 1 15 2 13 3 14 4 12 5 6 6 7 7 83 8 8 9 11 10 76 11 9 12
REMARK SMILES IDX 10 13 75 14 5 16 3 17 4 18 88 19 85 20 84 21 2 22 1 23 89 24
REMARK SMILES IDX 90 25 86 26 87 27 77 28 78 29 82 30 79 31 81 32 80 33 17 34
REMARK SMILES IDX 18 35 19 36 20 37 21 38 22 39 74 40 23 41 73 42 24 43 25 44
REMARK SMILES IDX 26 45 67 46 27 47 72 48 66 49 68 50 28 51 71 52 65 53 64 54
REMARK SMILES IDX 29 56 55 57 38 58 54 59 39 60 42 61 53 62 69 63 40 64 41 65
REMARK SMILES IDX 52 67 70 68 43 69 30 70 31 71 36 72 32 73 33 74 35 75 37 76
REMARK SMILES IDX 34 77 56 78 57 79 62 80 58 81 59 82 61 83 63 84 60 85 44 86
REMARK SMILES IDX 45 87 50 88 46 89 47 90 49 91 51 92 48 93
REMARK H PARENT 10 15 68 55 42 66
REMARK Flexibility Score: inf
ROOT
ATOM      1  C   UNL A   1      34.055  31.727  27.715  1.00  0.00     0.275 C 
ENDROOT
BRANCH   1   2
ATOM      2  O   UNL A   1      35.072  32.657  28.129  1.00  0.00    -0.458 OA
BRANCH   2   3
ATOM      3  C   UNL A   1      34.944  33.183  29.387  1.00  0.00     0.341 C 
ATOM      4  O   UNL A   1      33.874  33.327  29.972  1.00  0.00    -0.246 OA
BRANCH   3   5
ATOM      5  C   UNL A   1      36.230  33.498  29.990  1.00  0.00     0.102 A 
ATOM      6  C   UNL A   1      38.660  33.873  32.766  1.00  0.00     0.078 C 
ATOM      7  C   UNL A   1      37.671  34.353  33.850  1.00  0.00     0.115 C 
ATOM      8  C   UNL A   1      37.927  33.798  31.460  1.00  0.00     0.055 A 
ATOM      9  C   UNL A   1      36.270  33.754  33.739  1.00  0.00     0.225 C 
ATOM     10  C   UNL A   1      36.569  33.615  31.354  1.00  0.00     0.078 A 
ATOM     11  N   UNL A   1      38.436  33.953  30.189  1.00  0.00    -0.317 N 
ATOM     12  O   UNL A   1      35.553  33.593  34.726  1.00  0.00    -0.275 OA
ATOM     13  N   UNL A   1      35.785  33.513  32.477  1.00  0.00    -0.324 N 
ATOM     14  C   UNL A   1      37.394  33.813  29.294  1.00  0.00     0.109 A 
ATOM     15  H   UNL A   1      34.840  33.259  32.373  1.00  0.00     0.170 HD
BRANCH   6  16
ATOM     16  C   UNL A   1      39.291  32.544  33.177  1.00  0.00    -0.031 A 
ATOM     17  C   UNL A   1      41.205  31.245  33.965  1.00  0.00     0.164 A 
ATOM     18  C   UNL A   1      40.641  32.463  33.539  1.00  0.00     0.055 A 
ATOM     19  C   UNL A   1      40.419  30.084  34.093  1.00  0.00     0.203 A 
ATOM     20  C   UNL A   1      39.066  30.163  33.711  1.00  0.00     0.164 A 
ATOM     21  C   UNL A   1      38.532  31.373  33.248  1.00  0.00     0.055 A 
BRANCH  17  22
ATOM     22  O   UNL A   1      42.520  31.295  34.359  1.00  0.00    -0.493 OA
ATOM     23  C   UNL A   1      42.796  32.452  35.151  1.00  0.00     0.278 C 
ENDBRANCH  17  22
BRANCH  19  24
ATOM     24  O   UNL A   1      40.823  28.875  34.581  1.00  0.00    -0.490 OA
ATOM     25  C   UNL A   1      41.313  28.728  35.898  1.00  0.00     0.278 C 
ENDBRANCH  19  24
BRANCH  20  26
ATOM     26  O   UNL A   1      38.116  29.171  33.699  1.00  0.00    -0.493 OA
ATOM     27  C   UNL A   1      38.089  28.259  32.615  1.00  0.00     0.278 C 
ENDBRANCH  20  26
ENDBRANCH   6  16
BRANCH  11  28
ATOM     28  C   UNL A   1      39.780  34.200  29.844  1.00  0.00     0.045 A 
ATOM     29  C   UNL A   1      40.778  33.363  30.349  1.00  0.00     0.026 A 
ATOM     30  C   UNL A   1      40.105  35.296  29.040  1.00  0.00     0.026 A 
ATOM     31  C   UNL A   1      42.116  33.652  30.097  1.00  0.00     0.002 A 
ATOM     32  C   UNL A   1      41.451  35.587  28.806  1.00  0.00     0.002 A 
ATOM     33  C   UNL A   1      42.453  34.773  29.341  1.00  0.00     0.000 A 
ENDBRANCH  11  28
ENDBRANCH   3   5
ENDBRANCH   2   3
ENDBRANCH   1   2
BRANCH   1  34
ATOM     34  C   UNL A   1      34.547  30.287  27.785  1.00  0.00     0.275 C 
BRANCH  34  35
ATOM     35  O   UNL A   1      35.968  30.225  27.683  1.00  0.00    -0.458 OA
BRANCH  35  36
ATOM     36  C   UNL A   1      36.601  29.733  28.771  1.00  0.00     0.338 C 
ATOM     37  O   UNL A   1      36.359  29.978  29.940  1.00  0.00    -0.246 OA
BRANCH  36  38
ATOM     38  C   UNL A   1      37.787  28.991  28.338  1.00  0.00     0.060 A 
ATOM     39  C   UNL A   1      38.172  27.894  29.115  1.00  0.00     0.016 A 
ATOM     40  C   UNL A   1      38.643  29.570  27.390  1.00  0.00     0.016 A 
ATOM     41  C   UNL A   1      39.492  27.502  29.082  1.00  0.00     0.010 A 
ATOM     42  C   UNL A   1      39.961  29.190  27.371  1.00  0.00     0.010 A 
ATOM     43  C   UNL A   1      40.381  28.220  28.276  1.00  0.00    -0.014 A 
BRANCH  43  44
ATOM     44  C   UNL A   1      41.786  27.887  28.345  1.00  0.00     0.031 A 
ATOM     45  C   UNL A   1      42.128  26.637  27.632  1.00  0.00     0.074 A 
ATOM     46  C   UNL A   1      42.686  28.726  28.890  1.00  0.00     0.049 A 
ATOM     47  N   UNL A   1      42.601  25.547  28.135  1.00  0.00    -0.248 NA
ATOM     48  C   UNL A   1      41.749  26.532  26.213  1.00  0.00     0.031 C 
ATOM     49  C   UNL A   1      42.486  30.100  29.358  1.00  0.00     0.029 A 
ATOM     50  N   UNL A   1      44.024  28.549  29.032  1.00  0.00    -0.354 N 
ATOM     51  C   UNL A   1      42.761  24.678  27.062  1.00  0.00     0.074 A 
ATOM     52  C   UNL A   1      42.064  25.265  25.948  1.00  0.00     0.031 C 
ATOM     53  C   UNL A   1      43.692  30.699  29.496  1.00  0.00     0.029 A 
ATOM     54  C   UNL A   1      44.736  29.721  29.245  1.00  0.00     0.049 A 
ATOM     55  H   UNL A   1      44.454  27.664  28.989  1.00  0.00     0.167 HD
ATOM     56  C   UNL A   1      43.656  23.656  27.113  1.00  0.00     0.037 A 
ATOM     57  C   UNL A   1      46.079  29.860  29.107  1.00  0.00     0.037 A 
ATOM     58  C   UNL A   1      44.049  23.370  28.468  1.00  0.00     0.049 A 
ATOM     59  C   UNL A   1      46.673  28.495  29.162  1.00  0.00     0.074 A 
ATOM     60  C   UNL A   1      43.371  22.978  29.607  1.00  0.00     0.029 A 
ATOM     61  N   UNL A   1      45.262  23.849  28.900  1.00  0.00    -0.354 N 
ATOM     62  N   UNL A   1      46.700  27.759  30.239  1.00  0.00    -0.248 NA
ATOM     63  C   UNL A   1      46.804  27.764  27.907  1.00  0.00     0.031 C 
ATOM     64  C   UNL A   1      43.996  23.691  30.671  1.00  0.00     0.029 A 
ATOM     65  C   UNL A   1      45.055  24.420  30.129  1.00  0.00     0.049 A 
ATOM     66  H   UNL A   1      46.118  23.793  28.417  1.00  0.00     0.167 HD
ATOM     67  C   UNL A   1      46.409  26.474  29.798  1.00  0.00     0.074 A 
ATOM     68  C   UNL A   1      46.562  26.525  28.345  1.00  0.00     0.031 C 
ATOM     69  C   UNL A   1      45.784  25.570  30.609  1.00  0.00     0.037 A 
BRANCH  56  70
ATOM     70  C   UNL A   1      44.449  23.179  25.925  1.00  0.00     0.057 A 
ATOM     71  C   UNL A   1      44.440  21.810  25.606  1.00  0.00     0.134 A 
ATOM     72  C   UNL A   1      45.441  23.942  25.278  1.00  0.00     0.134 A 
ATOM     73  F   UNL A   1      43.551  20.978  26.168  1.00  0.00    -0.206 F 
ATOM     74  C   UNL A   1      45.399  21.234  24.765  1.00  0.00     0.040 A 
ATOM     75  C   UNL A   1      46.369  23.386  24.396  1.00  0.00     0.040 A 
ATOM     76  F   UNL A   1      45.637  25.240  25.539  1.00  0.00    -0.206 F 
ATOM     77  C   UNL A   1      46.373  22.021  24.164  1.00  0.00     0.006 A 
ENDBRANCH  56  70
BRANCH  57  78
ATOM     78  C   UNL A   1      46.824  31.026  28.572  1.00  0.00     0.057 A 
ATOM     79  C   UNL A   1      47.962  31.518  29.230  1.00  0.00     0.134 A 
ATOM     80  C   UNL A   1      46.613  31.515  27.270  1.00  0.00     0.134 A 
ATOM     81  F   UNL A   1      48.275  31.086  30.460  1.00  0.00    -0.206 F 
ATOM     82  C   UNL A   1      48.849  32.415  28.620  1.00  0.00     0.040 A 
ATOM     83  C   UNL A   1      47.485  32.419  26.653  1.00  0.00     0.040 A 
ATOM     84  F   UNL A   1      45.604  31.068  26.510  1.00  0.00    -0.206 F 
ATOM     85  C   UNL A   1      48.619  32.859  27.322  1.00  0.00     0.006 A 
ENDBRANCH  57  78
BRANCH  69  86
ATOM     86  C   UNL A   1      45.623  25.915  32.063  1.00  0.00     0.057 A 
ATOM     87  C   UNL A   1      44.466  26.490  32.612  1.00  0.00     0.134 A 
ATOM     88  C   UNL A   1      46.612  25.508  32.965  1.00  0.00     0.134 A 
ATOM     89  F   UNL A   1      43.419  26.812  31.844  1.00  0.00    -0.206 F 
ATOM     90  C   UNL A   1      44.324  26.696  33.988  1.00  0.00     0.040 A 
ATOM     91  C   UNL A   1      46.467  25.673  34.344  1.00  0.00     0.040 A 
ATOM     92  F   UNL A   1      47.719  24.892  32.521  1.00  0.00    -0.206 F 
ATOM     93  C   UNL A   1      45.325  26.280  34.860  1.00  0.00     0.006 A 
ENDBRANCH  69  86
ENDBRANCH  43  44
ENDBRANCH  36  38
ENDBRANCH  35  36
ENDBRANCH  34  35
ENDBRANCH   1  34
TORSDOF 16
ENDMDL
MODEL 3
REMARK VINA RESULT:      -9.3      2.166      3.890
REMARK SMILES COc1cc([C@@H]2CC(=O)Nc3c(C(=O)OCCOC(=O)c4ccc(-c5c6nc(c(-c7c(F)cccc7F)c7ccc([nH]7)c(-c7c(F)cccc7F)c7nc(c(-c8c(F)cccc8F)c8ccc5[nH]8)C=C7)C=C6)cc4)cn(-c4ccccc4)c32)cc(OC)c1OC
REMARK SMILES IDX 16 1 15 2 13 3 14 4 12 5 6 6 7 7 83 8 8 9 11 10 76 11 9 12
REMARK SMILES IDX 10 13 75 14 5 16 3 17 4 18 88 19 85 20 84 21 2 22 1 23 89 24
REMARK SMILES IDX 90 25 86 26 87 27 77 28 78 29 82 30 79 31 81 32 80 33 17 34
REMARK SMILES IDX 18 35 19 36 20 37 21 38 22 39 74 40 23 41 73 42 24 43 25 44
REMARK SMILES IDX 26 45 67 46 27 47 72 48 66 49 68 50 28 51 71 52 65 53 64 54
REMARK SMILES IDX 29 56 55 57 38 58 54 59 39 60 42 61 53 62 69 63 40 64 41 65
REMARK SMILES IDX 52 67 70 68 43 69 30 70 31 71 36 72 32 73 33 74 35 75 37 76
REMARK SMILES IDX 34 77 56 78 57 79 62 80 58 81 59 82 61 83 63 84 60 85 44 86
REMARK SMILES IDX 45 87 50 88 46 89 47 90 49 91 51 92 48 93
REMARK H PARENT 10 15 68 55 42 66
REMARK Flexibility Score: inf
ROOT
ATOM      1  C   UNL A   1      35.196  33.178  33.440  1.00  0.00     0.275 C 
ENDROOT
BRANCH   1   2
ATOM      2  O   UNL A   1      36.279  32.260  33.676  1.00  0.00    -0.458 OA
BRANCH   2   3
ATOM      3  C   UNL A   1      37.194  32.627  34.626  1.00  0.00     0.341 C 
ATOM      4  O   UNL A   1      37.098  32.359  35.820  1.00  0.00    -0.246 OA
BRANCH   3   5
ATOM      5  C   UNL A   1      38.337  33.322  34.055  1.00  0.00     0.102 A 
ATOM      6  C   UNL A   1      41.371  35.455  34.114  1.00  0.00     0.078 C 
ATOM      7  C   UNL A   1      40.920  36.433  35.221  1.00  0.00     0.115 C 
ATOM      8  C   UNL A   1      40.217  34.558  33.782  1.00  0.00     0.055 A 
ATOM      9  C   UNL A   1      40.042  35.805  36.302  1.00  0.00     0.225 C 
ATOM     10  C   UNL A   1      39.198  34.264  34.656  1.00  0.00     0.078 A 
ATOM     11  N   UNL A   1      39.939  33.939  32.582  1.00  0.00    -0.317 N 
ATOM     12  O   UNL A   1      40.027  36.233  37.456  1.00  0.00    -0.275 OA
ATOM     13  N   UNL A   1      39.171  34.818  35.913  1.00  0.00    -0.324 N 
ATOM     14  C   UNL A   1      38.769  33.220  32.736  1.00  0.00     0.109 A 
ATOM     15  H   UNL A   1      38.502  34.496  36.558  1.00  0.00     0.170 HD
BRANCH   6  16
ATOM     16  C   UNL A   1      42.616  34.692  34.559  1.00  0.00    -0.031 A 
ATOM     17  C   UNL A   1      45.033  34.332  34.496  1.00  0.00     0.164 A 
ATOM     18  C   UNL A   1      43.881  35.005  34.045  1.00  0.00     0.055 A 
ATOM     19  C   UNL A   1      44.958  33.362  35.514  1.00  0.00     0.203 A 
ATOM     20  C   UNL A   1      43.683  33.035  36.015  1.00  0.00     0.164 A 
ATOM     21  C   UNL A   1      42.543  33.684  35.525  1.00  0.00     0.055 A 
BRANCH  17  22
ATOM     22  O   UNL A   1      46.226  34.764  33.973  1.00  0.00    -0.493 OA
ATOM     23  C   UNL A   1      46.454  36.150  34.239  1.00  0.00     0.278 C 
ENDBRANCH  17  22
BRANCH  19  24
ATOM     24  O   UNL A   1      46.005  32.710  36.098  1.00  0.00    -0.490 OA
ATOM     25  C   UNL A   1      46.618  31.590  35.494  1.00  0.00     0.278 C 
ENDBRANCH  19  24
BRANCH  20  26
ATOM     26  O   UNL A   1      43.346  32.102  36.965  1.00  0.00    -0.493 OA
ATOM     27  C   UNL A   1      42.044  31.543  36.948  1.00  0.00     0.278 C 
ENDBRANCH  20  26
ENDBRANCH   6  16
BRANCH  11  28
ATOM     28  C   UNL A   1      40.705  34.007  31.401  1.00  0.00     0.045 A 
ATOM     29  C   UNL A   1      41.899  33.287  31.322  1.00  0.00     0.026 A 
ATOM     30  C   UNL A   1      40.289  34.822  30.345  1.00  0.00     0.026 A 
ATOM     31  C   UNL A   1      42.715  33.421  30.202  1.00  0.00     0.002 A 
ATOM     32  C   UNL A   1      41.123  34.963  29.232  1.00  0.00     0.002 A 
ATOM     33  C   UNL A   1      42.336  34.273  29.165  1.00  0.00     0.000 A 
ENDBRANCH  11  28
ENDBRANCH   3   5
ENDBRANCH   2   3
ENDBRANCH   1   2
BRANCH   1  34
ATOM     34  C   UNL A   1      34.554  32.952  32.076  1.00  0.00     0.275 C 
BRANCH  34  35
ATOM     35  O   UNL A   1      35.216  31.910  31.364  1.00  0.00    -0.458 OA
BRANCH  35  36
ATOM     36  C   UNL A   1      35.247  32.061  30.022  1.00  0.00     0.338 C 
ATOM     37  O   UNL A   1      34.372  32.523  29.309  1.00  0.00    -0.246 OA
BRANCH  36  38
ATOM     38  C   UNL A   1      36.436  31.390  29.493  1.00  0.00     0.060 A 
ATOM     39  C   UNL A   1      36.386  29.997  29.379  1.00  0.00     0.016 A 
ATOM     40  C   UNL A   1      37.644  32.100  29.424  1.00  0.00     0.016 A 
ATOM     41  C   UNL A   1      37.572  29.297  29.397  1.00  0.00     0.010 A 
ATOM     42  C   UNL A   1      38.824  31.400  29.460  1.00  0.00     0.010 A 
ATOM     43  C   UNL A   1      38.766  30.012  29.530  1.00  0.00    -0.014 A 
BRANCH  43  44
ATOM     44  C   UNL A   1      39.995  29.265  29.678  1.00  0.00     0.031 A 
ATOM     45  C   UNL A   1      40.292  28.897  31.079  1.00  0.00     0.074 A 
ATOM     46  C   UNL A   1      40.699  28.842  28.612  1.00  0.00     0.049 A 
ATOM     47  N   UNL A   1      41.297  29.271  31.796  1.00  0.00    -0.248 NA
ATOM     48  C   UNL A   1      39.264  28.150  31.824  1.00  0.00     0.031 C 
ATOM     49  C   UNL A   1      40.336  28.908  27.194  1.00  0.00     0.029 A 
ATOM     50  N   UNL A   1      41.864  28.146  28.594  1.00  0.00    -0.354 N 
ATOM     51  C   UNL A   1      41.130  28.651  33.029  1.00  0.00     0.074 A 
ATOM     52  C   UNL A   1      39.790  28.126  33.048  1.00  0.00     0.031 C 
ATOM     53  C   UNL A   1      41.134  28.069  26.494  1.00  0.00     0.029 A 
ATOM     54  C   UNL A   1      42.131  27.508  27.391  1.00  0.00     0.049 A 
ATOM     55  H   UNL A   1      42.469  28.097  29.369  1.00  0.00     0.167 HD
ATOM     56  C   UNL A   1      42.190  28.414  33.846  1.00  0.00     0.037 A 
ATOM     57  C   UNL A   1      43.039  26.517  27.212  1.00  0.00     0.037 A 
ATOM     58  C   UNL A   1      43.326  29.218  33.478  1.00  0.00     0.049 A 
ATOM     59  C   UNL A   1      43.986  26.572  28.360  1.00  0.00     0.074 A 
ATOM     60  C   UNL A   1      43.558  30.578  33.391  1.00  0.00     0.029 A 
ATOM     61  N   UNL A   1      44.330  28.619  32.757  1.00  0.00    -0.354 N 
ATOM     62  N   UNL A   1      44.841  27.539  28.548  1.00  0.00    -0.248 NA
ATOM     63  C   UNL A   1      43.650  25.800  29.550  1.00  0.00     0.031 C 
ATOM     64  C   UNL A   1      44.376  30.738  32.235  1.00  0.00     0.029 A 
ATOM     65  C   UNL A   1      44.648  29.467  31.727  1.00  0.00     0.049 A 
ATOM     66  H   UNL A   1      44.744  27.746  32.945  1.00  0.00     0.167 HD
ATOM     67  C   UNL A   1      44.813  27.777  29.916  1.00  0.00     0.074 A 
ATOM     68  C   UNL A   1      44.122  26.625  30.490  1.00  0.00     0.031 C 
ATOM     69  C   UNL A   1      45.080  29.016  30.426  1.00  0.00     0.037 A 
BRANCH  56  70
ATOM     70  C   UNL A   1      42.314  27.197  34.724  1.00  0.00     0.057 A 
ATOM     71  C   UNL A   1      41.961  27.296  36.080  1.00  0.00     0.134 A 
ATOM     72  C   UNL A   1      43.035  26.038  34.372  1.00  0.00     0.134 A 
ATOM     73  F   UNL A   1      41.283  28.359  36.539  1.00  0.00    -0.206 F 
ATOM     74  C   UNL A   1      42.366  26.350  37.028  1.00  0.00     0.040 A 
ATOM     75  C   UNL A   1      43.398  25.062  35.301  1.00  0.00     0.040 A 
ATOM     76  F   UNL A   1      43.519  25.836  33.141  1.00  0.00    -0.206 F 
ATOM     77  C   UNL A   1      43.094  25.233  36.641  1.00  0.00     0.006 A 
ENDBRANCH  56  70
BRANCH  57  78
ATOM     78  C   UNL A   1      42.926  25.323  26.337  1.00  0.00     0.057 A 
ATOM     79  C   UNL A   1      43.871  25.077  25.329  1.00  0.00     0.134 A 
ATOM     80  C   UNL A   1      42.059  24.256  26.635  1.00  0.00     0.134 A 
ATOM     81  F   UNL A   1      44.768  26.015  24.995  1.00  0.00    -0.206 F 
ATOM     82  C   UNL A   1      43.967  23.838  24.681  1.00  0.00     0.040 A 
ATOM     83  C   UNL A   1      42.138  23.018  25.990  1.00  0.00     0.040 A 
ATOM     84  F   UNL A   1      41.162  24.341  27.627  1.00  0.00    -0.206 F 
ATOM     85  C   UNL A   1      43.106  22.798  25.020  1.00  0.00     0.006 A 
ENDBRANCH  57  78
BRANCH  69  86
ATOM     86  C   UNL A   1      45.631  30.062  29.496  1.00  0.00     0.057 A 
ATOM     87  C   UNL A   1      44.842  30.868  28.661  1.00  0.00     0.134 A 
ATOM     88  C   UNL A   1      46.994  30.371  29.564  1.00  0.00     0.134 A 
ATOM     89  F   UNL A   1      43.512  30.722  28.611  1.00  0.00    -0.206 F 
ATOM     90  C   UNL A   1      45.392  31.898  27.892  1.00  0.00     0.040 A 
ATOM     91  C   UNL A   1      47.550  31.421  28.831  1.00  0.00     0.040 A 
ATOM     92  F   UNL A   1      47.802  29.686  30.389  1.00  0.00    -0.206 F 
ATOM     93  C   UNL A   1      46.751  32.181  27.981  1.00  0.00     0.006 A 
ENDBRANCH  69  86
ENDBRANCH  43  44
ENDBRANCH  36  38
ENDBRANCH  35  36
ENDBRANCH  34  35
ENDBRANCH   1  34
TORSDOF 16
ENDMDL
