MODEL 1
REMARK VINA RESULT:     -11.4      0.000      0.000
REMARK SMILES CC[C@](C)(NC(=O)c1cccc2ncccc12)C(=O)OCCOC(=O)c1ccc(-c2c3nc(c(-c4c(F)cccc4F)c4ccc([nH]4)c(-c4c(F)cccc4F)c4nc(c(-c5c(F)cccc5F)c5ccc2[nH]5)C=C4)C=C3)cc1
REMARK SMILES IDX 21 1 20 2 18 3 19 4 3 5 4 6 2 7 1 8 5 9 6 10 7 12 8 13 9 14
REMARK SMILES IDX 17 15 10 16 12 17 16 18 11 19 13 20 15 21 14 22 22 23 23 24
REMARK SMILES IDX 24 25 25 26 26 27 27 28 79 29 28 30 78 31 29 32 30 33 31 34
REMARK SMILES IDX 72 35 32 36 77 37 71 38 73 39 33 40 76 41 70 42 69 43 34 45
REMARK SMILES IDX 60 46 43 47 59 48 44 49 47 50 58 51 74 52 45 53 46 54 57 56
REMARK SMILES IDX 75 57 48 58 35 59 36 60 41 61 37 62 38 63 40 64 42 65 39 66
REMARK SMILES IDX 61 67 62 68 67 69 63 70 64 71 66 72 68 73 65 74 49 75 50 76
REMARK SMILES IDX 55 77 51 78 52 79 54 80 56 81 53 82
REMARK H PARENT 5 11 73 44 47 55
REMARK Flexibility Score: inf
ROOT
ATOM      1  C   UNL A   1      31.402  29.203  24.270  1.00  0.00     0.274 C 
ENDROOT
BRANCH   1   2
ATOM      2  O   UNL A   1      30.672  27.959  24.195  1.00  0.00    -0.460 OA
BRANCH   2   3
ATOM      3  C   UNL A   1      30.989  27.129  23.176  1.00  0.00     0.331 C 
ATOM      4  O   UNL A   1      30.722  27.375  22.001  1.00  0.00    -0.249 OA
BRANCH   3   5
ATOM      5  C   UNL A   1      31.662  25.790  23.614  1.00  0.00     0.135 C 
ATOM      6  C   UNL A   1      30.946  25.335  24.903  1.00  0.00     0.047 C 
BRANCH   5   7
ATOM      7  C   UNL A   1      33.149  26.202  23.900  1.00  0.00     0.037 C 
ATOM      8  C   UNL A   1      33.580  26.178  25.363  1.00  0.00     0.007 C 
ENDBRANCH   5   7
BRANCH   5   9
ATOM      9  N   UNL A   1      31.710  24.634  22.666  1.00  0.00    -0.336 N 
ATOM     10  C   UNL A   1      32.851  23.912  22.364  1.00  0.00     0.252 C 
ATOM     11  H   UNL A   1      30.871  24.368  22.224  1.00  0.00     0.165 HD
ATOM     12  O   UNL A   1      33.445  24.157  21.318  1.00  0.00    -0.269 OA
BRANCH  10  13
ATOM     13  C   UNL A   1      33.187  22.717  23.190  1.00  0.00     0.049 A 
ATOM     14  C   UNL A   1      32.221  21.703  23.276  1.00  0.00     0.014 A 
ATOM     15  C   UNL A   1      34.454  22.560  23.828  1.00  0.00     0.013 A 
ATOM     16  C   UNL A   1      32.459  20.576  24.050  1.00  0.00     0.003 A 
ATOM     17  C   UNL A   1      34.670  21.412  24.627  1.00  0.00     0.071 A 
ATOM     18  C   UNL A   1      35.528  23.483  23.777  1.00  0.00     0.013 A 
ATOM     19  C   UNL A   1      33.672  20.454  24.723  1.00  0.00     0.029 A 
ATOM     20  N   UNL A   1      35.800  21.192  25.322  1.00  0.00    -0.256 NA
ATOM     21  C   UNL A   1      36.700  23.260  24.492  1.00  0.00     0.021 A 
ATOM     22  C   UNL A   1      36.783  22.113  25.247  1.00  0.00     0.112 A 
ENDBRANCH  10  13
ENDBRANCH   5   9
ENDBRANCH   3   5
ENDBRANCH   2   3
ENDBRANCH   1   2
BRANCH   1  23
ATOM     23  C   UNL A   1      31.742  29.600  25.710  1.00  0.00     0.275 C 
BRANCH  23  24
ATOM     24  O   UNL A   1      33.081  30.116  25.836  1.00  0.00    -0.458 OA
BRANCH  24  25
ATOM     25  C   UNL A   1      33.226  31.059  26.789  1.00  0.00     0.338 C 
ATOM     26  O   UNL A   1      32.436  31.927  27.106  1.00  0.00    -0.246 OA
BRANCH  25  27
ATOM     27  C   UNL A   1      34.452  30.847  27.548  1.00  0.00     0.060 A 
ATOM     28  C   UNL A   1      34.702  29.557  28.011  1.00  0.00     0.016 A 
ATOM     29  C   UNL A   1      35.262  31.919  27.921  1.00  0.00     0.016 A 
ATOM     30  C   UNL A   1      35.765  29.323  28.863  1.00  0.00     0.010 A 
ATOM     31  C   UNL A   1      36.377  31.671  28.722  1.00  0.00     0.010 A 
ATOM     32  C   UNL A   1      36.637  30.370  29.183  1.00  0.00    -0.014 A 
BRANCH  32  33
ATOM     33  C   UNL A   1      37.880  30.052  29.912  1.00  0.00     0.031 A 
ATOM     34  C   UNL A   1      38.962  29.246  29.272  1.00  0.00     0.074 A 
ATOM     35  C   UNL A   1      38.013  30.536  31.161  1.00  0.00     0.049 A 
ATOM     36  N   UNL A   1      40.067  28.793  29.801  1.00  0.00    -0.248 NA
ATOM     37  C   UNL A   1      38.779  28.896  27.854  1.00  0.00     0.031 C 
ATOM     38  C   UNL A   1      37.020  31.367  31.851  1.00  0.00     0.029 A 
ATOM     39  N   UNL A   1      39.034  30.422  32.063  1.00  0.00    -0.354 N 
ATOM     40  C   UNL A   1      40.697  28.072  28.796  1.00  0.00     0.074 A 
ATOM     41  C   UNL A   1      39.854  28.154  27.623  1.00  0.00     0.031 C 
ATOM     42  C   UNL A   1      37.501  31.723  33.050  1.00  0.00     0.029 A 
ATOM     43  C   UNL A   1      38.797  31.085  33.242  1.00  0.00     0.049 A 
ATOM     44  H   UNL A   1      39.858  29.913  31.887  1.00  0.00     0.167 HD
ATOM     45  C   UNL A   1      41.869  27.397  28.867  1.00  0.00     0.037 A 
ATOM     46  C   UNL A   1      39.532  31.147  34.365  1.00  0.00     0.037 A 
ATOM     47  C   UNL A   1      42.694  27.344  30.045  1.00  0.00     0.049 A 
ATOM     48  C   UNL A   1      40.818  30.383  34.415  1.00  0.00     0.074 A 
ATOM     49  C   UNL A   1      43.884  26.666  30.241  1.00  0.00     0.029 A 
ATOM     50  N   UNL A   1      42.416  28.012  31.230  1.00  0.00    -0.354 N 
ATOM     51  N   UNL A   1      41.375  29.651  33.481  1.00  0.00    -0.248 NA
ATOM     52  C   UNL A   1      41.567  30.432  35.677  1.00  0.00     0.031 C 
ATOM     53  C   UNL A   1      44.314  26.906  31.552  1.00  0.00     0.029 A 
ATOM     54  C   UNL A   1      43.407  27.760  32.162  1.00  0.00     0.049 A 
ATOM     55  H   UNL A   1      41.627  28.582  31.384  1.00  0.00     0.167 HD
ATOM     56  C   UNL A   1      42.539  29.145  34.039  1.00  0.00     0.074 A 
ATOM     57  C   UNL A   1      42.619  29.679  35.386  1.00  0.00     0.031 C 
ATOM     58  C   UNL A   1      43.451  28.305  33.496  1.00  0.00     0.037 A 
BRANCH  45  59
ATOM     59  C   UNL A   1      42.293  26.630  27.651  1.00  0.00     0.057 A 
ATOM     60  C   UNL A   1      43.100  27.200  26.658  1.00  0.00     0.134 A 
ATOM     61  C   UNL A   1      41.895  25.299  27.476  1.00  0.00     0.134 A 
ATOM     62  F   UNL A   1      43.499  28.476  26.757  1.00  0.00    -0.206 F 
ATOM     63  C   UNL A   1      43.482  26.477  25.526  1.00  0.00     0.040 A 
ATOM     64  C   UNL A   1      42.286  24.560  26.358  1.00  0.00     0.040 A 
ATOM     65  F   UNL A   1      41.120  24.694  28.389  1.00  0.00    -0.206 F 
ATOM     66  C   UNL A   1      43.078  25.150  25.376  1.00  0.00     0.006 A 
ENDBRANCH  45  59
BRANCH  46  67
ATOM     67  C   UNL A   1      39.045  31.941  35.518  1.00  0.00     0.057 A 
ATOM     68  C   UNL A   1      39.352  33.301  35.636  1.00  0.00     0.134 A 
ATOM     69  C   UNL A   1      38.223  31.375  36.500  1.00  0.00     0.134 A 
ATOM     70  F   UNL A   1      40.146  33.895  34.733  1.00  0.00    -0.206 F 
ATOM     71  C   UNL A   1      38.858  34.070  36.691  1.00  0.00     0.040 A 
ATOM     72  C   UNL A   1      37.703  32.138  37.546  1.00  0.00     0.040 A 
ATOM     73  F   UNL A   1      37.885  30.079  36.435  1.00  0.00    -0.206 F 
ATOM     74  C   UNL A   1      38.023  33.490  37.644  1.00  0.00     0.006 A 
ENDBRANCH  46  67
BRANCH  58  75
ATOM     75  C   UNL A   1      44.608  27.930  34.366  1.00  0.00     0.057 A 
ATOM     76  C   UNL A   1      45.775  28.702  34.401  1.00  0.00     0.134 A 
ATOM     77  C   UNL A   1      44.548  26.796  35.183  1.00  0.00     0.134 A 
ATOM     78  F   UNL A   1      45.893  29.789  33.624  1.00  0.00    -0.206 F 
ATOM     79  C   UNL A   1      46.854  28.348  35.210  1.00  0.00     0.040 A 
ATOM     80  C   UNL A   1      45.614  26.441  36.009  1.00  0.00     0.040 A 
ATOM     81  F   UNL A   1      43.455  26.019  35.191  1.00  0.00    -0.206 F 
ATOM     82  C   UNL A   1      46.773  27.217  36.020  1.00  0.00     0.006 A 
ENDBRANCH  58  75
ENDBRANCH  32  33
ENDBRANCH  25  27
ENDBRANCH  24  25
ENDBRANCH  23  24
ENDBRANCH   1  23
TORSDOF 14
ENDMDL
MODEL 2
REMARK VINA RESULT:     -11.3      3.839      8.486
REMARK SMILES CC[C@](C)(NC(=O)c1cccc2ncccc12)C(=O)OCCOC(=O)c1ccc(-c2c3nc(c(-c4c(F)cccc4F)c4ccc([nH]4)c(-c4c(F)cccc4F)c4nc(c(-c5c(F)cccc5F)c5ccc2[nH]5)C=C4)C=C3)cc1
REMARK SMILES IDX 21 1 20 2 18 3 19 4 3 5 4 6 2 7 1 8 5 9 6 10 7 12 8 13 9 14
REMARK SMILES IDX 17 15 10 16 12 17 16 18 11 19 13 20 15 21 14 22 22 23 23 24
REMARK SMILES IDX 24 25 25 26 26 27 27 28 79 29 28 30 78 31 29 32 30 33 31 34
REMARK SMILES IDX 72 35 32 36 77 37 71 38 73 39 33 40 76 41 70 42 69 43 34 45
REMARK SMILES IDX 60 46 43 47 59 48 44 49 47 50 58 51 74 52 45 53 46 54 57 56
REMARK SMILES IDX 75 57 48 58 35 59 36 60 41 61 37 62 38 63 40 64 42 65 39 66
REMARK SMILES IDX 61 67 62 68 67 69 63 70 64 71 66 72 68 73 65 74 49 75 50 76
REMARK SMILES IDX 55 77 51 78 52 79 54 80 56 81 53 82
REMARK H PARENT 5 11 73 44 47 55
REMARK Flexibility Score: inf
ROOT
ATOM      1  C   UNL A   1      38.433  20.647  25.553  1.00  0.00     0.274 C 
ENDROOT
BRANCH   1   2
ATOM      2  O   UNL A   1      37.514  20.857  24.459  1.00  0.00    -0.460 OA
BRANCH   2   3
ATOM      3  C   UNL A   1      36.225  21.101  24.787  1.00  0.00     0.331 C 
ATOM      4  O   UNL A   1      35.473  20.241  25.242  1.00  0.00    -0.249 OA
BRANCH   3   5
ATOM      5  C   UNL A   1      35.739  22.552  24.474  1.00  0.00     0.135 C 
ATOM      6  C   UNL A   1      36.645  23.090  23.348  1.00  0.00     0.047 C 
BRANCH   5   7
ATOM      7  C   UNL A   1      35.981  23.319  25.822  1.00  0.00     0.037 C 
ATOM      8  C   UNL A   1      37.314  24.051  25.943  1.00  0.00     0.007 C 
ENDBRANCH   5   7
BRANCH   5   9
ATOM      9  N   UNL A   1      34.313  22.795  24.092  1.00  0.00    -0.336 N 
ATOM     10  C   UNL A   1      33.525  23.812  24.599  1.00  0.00     0.252 C 
ATOM     11  H   UNL A   1      33.906  22.187  23.432  1.00  0.00     0.165 HD
ATOM     12  O   UNL A   1      32.724  23.549  25.491  1.00  0.00    -0.269 OA
BRANCH  10  13
ATOM     13  C   UNL A   1      33.506  25.127  23.898  1.00  0.00     0.049 A 
ATOM     14  C   UNL A   1      33.397  25.108  22.499  1.00  0.00     0.014 A 
ATOM     15  C   UNL A   1      33.539  26.370  24.600  1.00  0.00     0.013 A 
ATOM     16  C   UNL A   1      33.401  26.296  21.782  1.00  0.00     0.003 A 
ATOM     17  C   UNL A   1      33.560  27.569  23.849  1.00  0.00     0.071 A 
ATOM     18  C   UNL A   1      33.598  26.525  26.006  1.00  0.00     0.013 A 
ATOM     19  C   UNL A   1      33.495  27.506  22.465  1.00  0.00     0.029 A 
ATOM     20  N   UNL A   1      33.651  28.791  24.403  1.00  0.00    -0.256 NA
ATOM     21  C   UNL A   1      33.691  27.786  26.586  1.00  0.00     0.021 A 
ATOM     22  C   UNL A   1      33.720  28.878  25.748  1.00  0.00     0.112 A 
ENDBRANCH  10  13
ENDBRANCH   5   9
ENDBRANCH   3   5
ENDBRANCH   2   3
ENDBRANCH   1   2
BRANCH   1  23
ATOM     23  C   UNL A   1      39.409  19.496  25.289  1.00  0.00     0.275 C 
BRANCH  23  24
ATOM     24  O   UNL A   1      40.395  19.362  26.331  1.00  0.00    -0.458 OA
BRANCH  24  25
ATOM     25  C   UNL A   1      41.635  19.758  25.977  1.00  0.00     0.338 C 
ATOM     26  O   UNL A   1      42.412  19.196  25.230  1.00  0.00    -0.246 OA
BRANCH  25  27
ATOM     27  C   UNL A   1      41.930  21.082  26.509  1.00  0.00     0.060 A 
ATOM     28  C   UNL A   1      41.756  21.274  27.878  1.00  0.00     0.016 A 
ATOM     29  C   UNL A   1      42.229  22.147  25.661  1.00  0.00     0.016 A 
ATOM     30  C   UNL A   1      41.872  22.542  28.417  1.00  0.00     0.010 A 
ATOM     31  C   UNL A   1      42.417  23.414  26.215  1.00  0.00     0.010 A 
ATOM     32  C   UNL A   1      42.251  23.610  27.597  1.00  0.00    -0.014 A 
BRANCH  32  33
ATOM     33  C   UNL A   1      42.579  24.901  28.230  1.00  0.00     0.031 A 
ATOM     34  C   UNL A   1      41.522  25.928  28.475  1.00  0.00     0.074 A 
ATOM     35  C   UNL A   1      43.856  25.109  28.601  1.00  0.00     0.049 A 
ATOM     36  N   UNL A   1      41.654  27.147  28.926  1.00  0.00    -0.248 NA
ATOM     37  C   UNL A   1      40.136  25.540  28.170  1.00  0.00     0.031 C 
ATOM     38  C   UNL A   1      44.947  24.143  28.435  1.00  0.00     0.029 A 
ATOM     39  N   UNL A   1      44.451  26.180  29.208  1.00  0.00    -0.354 N 
ATOM     40  C   UNL A   1      40.377  27.689  28.923  1.00  0.00     0.074 A 
ATOM     41  C   UNL A   1      39.481  26.663  28.434  1.00  0.00     0.031 C 
ATOM     42  C   UNL A   1      46.068  24.649  28.968  1.00  0.00     0.029 A 
ATOM     43  C   UNL A   1      45.791  25.998  29.443  1.00  0.00     0.049 A 
ATOM     44  H   UNL A   1      43.967  27.001  29.453  1.00  0.00     0.167 HD
ATOM     45  C   UNL A   1      40.002  28.938  29.289  1.00  0.00     0.037 A 
ATOM     46  C   UNL A   1      46.704  26.840  29.957  1.00  0.00     0.037 A 
ATOM     47  C   UNL A   1      40.914  29.935  29.786  1.00  0.00     0.049 A 
ATOM     48  C   UNL A   1      46.261  28.217  30.344  1.00  0.00     0.074 A 
ATOM     49  C   UNL A   1      40.653  31.243  30.156  1.00  0.00     0.029 A 
ATOM     50  N   UNL A   1      42.271  29.725  29.993  1.00  0.00    -0.354 N 
ATOM     51  N   UNL A   1      45.062  28.743  30.279  1.00  0.00    -0.248 NA
ATOM     52  C   UNL A   1      47.296  29.125  30.853  1.00  0.00     0.031 C 
ATOM     53  C   UNL A   1      41.856  31.829  30.567  1.00  0.00     0.029 A 
ATOM     54  C   UNL A   1      42.861  30.877  30.482  1.00  0.00     0.049 A 
ATOM     55  H   UNL A   1      42.744  28.879  29.818  1.00  0.00     0.167 HD
ATOM     56  C   UNL A   1      45.194  30.046  30.732  1.00  0.00     0.074 A 
ATOM     57  C   UNL A   1      46.588  30.219  31.096  1.00  0.00     0.031 C 
ATOM     58  C   UNL A   1      44.253  31.016  30.828  1.00  0.00     0.037 A 
BRANCH  45  59
ATOM     59  C   UNL A   1      38.557  29.299  29.118  1.00  0.00     0.057 A 
ATOM     60  C   UNL A   1      37.660  29.295  30.193  1.00  0.00     0.134 A 
ATOM     61  C   UNL A   1      38.061  29.665  27.861  1.00  0.00     0.134 A 
ATOM     62  F   UNL A   1      38.068  28.936  31.418  1.00  0.00    -0.206 F 
ATOM     63  C   UNL A   1      36.314  29.626  30.019  1.00  0.00     0.040 A 
ATOM     64  C   UNL A   1      36.722  30.016  27.679  1.00  0.00     0.040 A 
ATOM     65  F   UNL A   1      38.868  29.688  26.790  1.00  0.00    -0.206 F 
ATOM     66  C   UNL A   1      35.843  29.993  28.759  1.00  0.00     0.006 A 
ENDBRANCH  45  59
BRANCH  46  67
ATOM     67  C   UNL A   1      48.110  26.398  30.105  1.00  0.00     0.057 A 
ATOM     68  C   UNL A   1      48.540  25.742  31.264  1.00  0.00     0.134 A 
ATOM     69  C   UNL A   1      49.044  26.573  29.077  1.00  0.00     0.134 A 
ATOM     70  F   UNL A   1      47.695  25.557  32.288  1.00  0.00    -0.206 F 
ATOM     71  C   UNL A   1      49.850  25.276  31.394  1.00  0.00     0.040 A 
ATOM     72  C   UNL A   1      50.349  26.092  29.183  1.00  0.00     0.040 A 
ATOM     73  F   UNL A   1      48.688  27.185  27.937  1.00  0.00    -0.206 F 
ATOM     74  C   UNL A   1      50.755  25.443  30.348  1.00  0.00     0.006 A 
ENDBRANCH  46  67
BRANCH  58  75
ATOM     75  C   UNL A   1      44.715  32.337  31.352  1.00  0.00     0.057 A 
ATOM     76  C   UNL A   1      45.175  33.343  30.494  1.00  0.00     0.134 A 
ATOM     77  C   UNL A   1      44.686  32.610  32.725  1.00  0.00     0.134 A 
ATOM     78  F   UNL A   1      45.242  33.129  29.171  1.00  0.00    -0.206 F 
ATOM     79  C   UNL A   1      45.609  34.573  30.986  1.00  0.00     0.040 A 
ATOM     80  C   UNL A   1      45.101  33.843  33.227  1.00  0.00     0.040 A 
ATOM     81  F   UNL A   1      44.254  31.685  33.594  1.00  0.00    -0.206 F 
ATOM     82  C   UNL A   1      45.569  34.827  32.356  1.00  0.00     0.006 A 
ENDBRANCH  58  75
ENDBRANCH  32  33
ENDBRANCH  25  27
ENDBRANCH  24  25
ENDBRANCH  23  24
ENDBRANCH   1  23
TORSDOF 14
ENDMDL
MODEL 3
REMARK VINA RESULT:     -11.2      3.825      8.696
REMARK SMILES CC[C@](C)(NC(=O)c1cccc2ncccc12)C(=O)OCCOC(=O)c1ccc(-c2c3nc(c(-c4c(F)cccc4F)c4ccc([nH]4)c(-c4c(F)cccc4F)c4nc(c(-c5c(F)cccc5F)c5ccc2[nH]5)C=C4)C=C3)cc1
REMARK SMILES IDX 21 1 20 2 18 3 19 4 3 5 4 6 2 7 1 8 5 9 6 10 7 12 8 13 9 14
REMARK SMILES IDX 17 15 10 16 12 17 16 18 11 19 13 20 15 21 14 22 22 23 23 24
REMARK SMILES IDX 24 25 25 26 26 27 27 28 79 29 28 30 78 31 29 32 30 33 31 34
REMARK SMILES IDX 72 35 32 36 77 37 71 38 73 39 33 40 76 41 70 42 69 43 34 45
REMARK SMILES IDX 60 46 43 47 59 48 44 49 47 50 58 51 74 52 45 53 46 54 57 56
REMARK SMILES IDX 75 57 48 58 35 59 36 60 41 61 37 62 38 63 40 64 42 65 39 66
REMARK SMILES IDX 61 67 62 68 67 69 63 70 64 71 66 72 68 73 65 74 49 75 50 76
REMARK SMILES IDX 55 77 51 78 52 79 54 80 56 81 53 82
REMARK H PARENT 5 11 73 44 47 55
REMARK Flexibility Score: inf
ROOT
ATOM      1  C   UNL A   1      35.391  20.290  25.018  1.00  0.00     0.274 C 
ENDROOT
BRANCH   1   2
ATOM      2  O   UNL A   1      34.404  21.199  25.553  1.00  0.00    -0.460 OA
BRANCH   2   3
ATOM      3  C   UNL A   1      33.417  21.586  24.714  1.00  0.00     0.331 C 
ATOM      4  O   UNL A   1      32.894  20.830  23.897  1.00  0.00    -0.249 OA
BRANCH   3   5
ATOM      5  C   UNL A   1      33.037  23.097  24.811  1.00  0.00     0.135 C 
ATOM      6  C   UNL A   1      33.287  23.708  23.417  1.00  0.00     0.047 C 
BRANCH   5   7
ATOM      7  C   UNL A   1      34.044  23.662  25.874  1.00  0.00     0.037 C 
ATOM      8  C   UNL A   1      35.188  24.508  25.327  1.00  0.00     0.007 C 
ENDBRANCH   5   7
BRANCH   5   9
ATOM      9  N   UNL A   1      31.667  23.495  25.263  1.00  0.00    -0.336 N 
ATOM     10  C   UNL A   1      31.386  24.602  26.043  1.00  0.00     0.252 C 
ATOM     11  H   UNL A   1      30.911  22.927  24.987  1.00  0.00     0.165 HD
ATOM     12  O   UNL A   1      31.200  24.445  27.245  1.00  0.00    -0.269 OA
BRANCH  10  13
ATOM     13  C   UNL A   1      31.092  25.900  25.371  1.00  0.00     0.049 A 
ATOM     14  C   UNL A   1      29.974  25.947  24.525  1.00  0.00     0.014 A 
ATOM     15  C   UNL A   1      31.866  27.077  25.607  1.00  0.00     0.013 A 
ATOM     16  C   UNL A   1      29.660  27.117  23.848  1.00  0.00     0.003 A 
ATOM     17  C   UNL A   1      31.540  28.254  24.893  1.00  0.00     0.071 A 
ATOM     18  C   UNL A   1      32.983  27.173  26.473  1.00  0.00     0.013 A 
ATOM     19  C   UNL A   1      30.453  28.247  24.032  1.00  0.00     0.029 A 
ATOM     20  N   UNL A   1      32.237  29.400  24.991  1.00  0.00    -0.256 NA
ATOM     21  C   UNL A   1      33.708  28.356  26.580  1.00  0.00     0.021 A 
ATOM     22  C   UNL A   1      33.301  29.429  25.820  1.00  0.00     0.112 A 
ENDBRANCH  10  13
ENDBRANCH   5   9
ENDBRANCH   3   5
ENDBRANCH   2   3
ENDBRANCH   1   2
BRANCH   1  23
ATOM     23  C   UNL A   1      36.738  20.972  24.753  1.00  0.00     0.275 C 
BRANCH  23  24
ATOM     24  O   UNL A   1      37.309  21.540  25.948  1.00  0.00    -0.458 OA
BRANCH  24  25
ATOM     25  C   UNL A   1      38.644  21.382  26.054  1.00  0.00     0.338 C 
ATOM     26  O   UNL A   1      39.303  20.398  25.783  1.00  0.00    -0.246 OA
BRANCH  25  27
ATOM     27  C   UNL A   1      39.287  22.635  26.429  1.00  0.00     0.060 A 
ATOM     28  C   UNL A   1      40.396  22.558  27.270  1.00  0.00     0.016 A 
ATOM     29  C   UNL A   1      38.727  23.864  26.082  1.00  0.00     0.016 A 
ATOM     30  C   UNL A   1      40.955  23.713  27.782  1.00  0.00     0.010 A 
ATOM     31  C   UNL A   1      39.334  25.032  26.541  1.00  0.00     0.010 A 
ATOM     32  C   UNL A   1      40.458  24.959  27.382  1.00  0.00    -0.014 A 
BRANCH  32  33
ATOM     33  C   UNL A   1      41.205  26.171  27.767  1.00  0.00     0.031 A 
ATOM     34  C   UNL A   1      40.584  27.210  28.643  1.00  0.00     0.074 A 
ATOM     35  C   UNL A   1      42.469  26.294  27.325  1.00  0.00     0.049 A 
ATOM     36  N   UNL A   1      41.060  28.375  28.993  1.00  0.00    -0.248 NA
ATOM     37  C   UNL A   1      39.254  26.906  29.193  1.00  0.00     0.031 C 
ATOM     38  C   UNL A   1      43.170  25.306  26.495  1.00  0.00     0.029 A 
ATOM     39  N   UNL A   1      43.397  27.279  27.520  1.00  0.00    -0.354 N 
ATOM     40  C   UNL A   1      40.075  28.964  29.774  1.00  0.00     0.074 A 
ATOM     41  C   UNL A   1      38.977  28.024  29.852  1.00  0.00     0.031 C 
ATOM     42  C   UNL A   1      44.429  25.716  26.291  1.00  0.00     0.029 A 
ATOM     43  C   UNL A   1      44.600  27.024  26.909  1.00  0.00     0.049 A 
ATOM     44  H   UNL A   1      43.221  28.092  28.047  1.00  0.00     0.167 HD
ATOM     45  C   UNL A   1      40.095  30.187  30.356  1.00  0.00     0.037 A 
ATOM     46  C   UNL A   1      45.709  27.778  26.830  1.00  0.00     0.037 A 
ATOM     47  C   UNL A   1      41.207  31.097  30.271  1.00  0.00     0.049 A 
ATOM     48  C   UNL A   1      45.698  29.129  27.476  1.00  0.00     0.074 A 
ATOM     49  C   UNL A   1      41.326  32.372  30.794  1.00  0.00     0.029 A 
ATOM     50  N   UNL A   1      42.405  30.815  29.627  1.00  0.00    -0.354 N 
ATOM     51  N   UNL A   1      44.738  29.704  28.159  1.00  0.00    -0.248 NA
ATOM     52  C   UNL A   1      46.909  29.944  27.324  1.00  0.00     0.031 C 
ATOM     53  C   UNL A   1      42.587  32.871  30.447  1.00  0.00     0.029 A 
ATOM     54  C   UNL A   1      43.267  31.893  29.735  1.00  0.00     0.049 A 
ATOM     55  H   UNL A   1      42.610  29.972  29.162  1.00  0.00     0.167 HD
ATOM     56  C   UNL A   1      45.222  30.952  28.516  1.00  0.00     0.074 A 
ATOM     57  C   UNL A   1      46.574  31.037  27.996  1.00  0.00     0.031 C 
ATOM     58  C   UNL A   1      44.603  31.945  29.199  1.00  0.00     0.037 A 
BRANCH  45  59
ATOM     59  C   UNL A   1      38.860  30.617  31.089  1.00  0.00     0.057 A 
ATOM     60  C   UNL A   1      38.687  30.371  32.457  1.00  0.00     0.134 A 
ATOM     61  C   UNL A   1      37.836  31.297  30.419  1.00  0.00     0.134 A 
ATOM     62  F   UNL A   1      39.621  29.708  33.152  1.00  0.00    -0.206 F 
ATOM     63  C   UNL A   1      37.528  30.771  33.127  1.00  0.00     0.040 A 
ATOM     64  C   UNL A   1      36.683  31.719  31.082  1.00  0.00     0.040 A 
ATOM     65  F   UNL A   1      37.940  31.564  29.108  1.00  0.00    -0.206 F 
ATOM     66  C   UNL A   1      36.524  31.452  32.440  1.00  0.00     0.006 A 
ENDBRANCH  45  59
BRANCH  46  67
ATOM     67  C   UNL A   1      46.892  27.270  26.096  1.00  0.00     0.057 A 
ATOM     68  C   UNL A   1      47.900  26.560  26.758  1.00  0.00     0.134 A 
ATOM     69  C   UNL A   1      47.021  27.437  24.712  1.00  0.00     0.134 A 
ATOM     70  F   UNL A   1      47.838  26.380  28.085  1.00  0.00    -0.206 F 
ATOM     71  C   UNL A   1      48.993  26.033  26.069  1.00  0.00     0.040 A 
ATOM     72  C   UNL A   1      48.096  26.895  24.007  1.00  0.00     0.040 A 
ATOM     73  F   UNL A   1      46.082  28.099  24.020  1.00  0.00    -0.206 F 
ATOM     74  C   UNL A   1      49.088  26.192  24.688  1.00  0.00     0.006 A 
ENDBRANCH  46  67
BRANCH  58  75
ATOM     75  C   UNL A   1      45.397  33.192  29.420  1.00  0.00     0.057 A 
ATOM     76  C   UNL A   1      45.349  34.258  28.513  1.00  0.00     0.134 A 
ATOM     77  C   UNL A   1      46.204  33.333  30.555  1.00  0.00     0.134 A 
ATOM     78  F   UNL A   1      44.606  34.169  27.400  1.00  0.00    -0.206 F 
ATOM     79  C   UNL A   1      46.093  35.418  28.720  1.00  0.00     0.040 A 
ATOM     80  C   UNL A   1      46.939  34.497  30.781  1.00  0.00     0.040 A 
ATOM     81  F   UNL A   1      46.288  32.346  31.458  1.00  0.00    -0.206 F 
ATOM     82  C   UNL A   1      46.888  35.542  29.858  1.00  0.00     0.006 A 
ENDBRANCH  58  75
ENDBRANCH  32  33
ENDBRANCH  25  27
ENDBRANCH  24  25
ENDBRANCH  23  24
ENDBRANCH   1  23
TORSDOF 14
ENDMDL
