MODEL 1
REMARK VINA RESULT:     -12.4      0.000      0.000
REMARK SMILES NS(=O)(=O)c1ccc(-n2nc(C(=O)OCCOC(=O)c3ccc(-c4c5nc(c(-c6c(F)cccc6F)c6ccc([nH]6)c(-c6c(F)cccc6F)c6nc(c(-c7c(F)cccc7F)c7ccc4[nH]7)C=C6)C=C5)cc3)cc2-c2cc3ccccc3s2)cc1
REMARK SMILES IDX 15 1 14 2 12 3 13 4 11 5 9 6 10 7 75 8 74 9 8 10 5 11 6 12
REMARK SMILES IDX 86 13 7 14 85 15 2 16 3 17 4 18 1 19 76 22 77 23 84 24 78 25
REMARK SMILES IDX 83 26 79 27 82 28 80 29 81 30 16 31 17 32 18 33 19 34 20 35
REMARK SMILES IDX 21 36 73 37 22 38 72 39 23 40 24 41 25 42 66 43 26 44 71 45
REMARK SMILES IDX 65 46 67 47 27 48 70 49 64 50 63 51 28 53 54 54 37 55 53 56
REMARK SMILES IDX 38 57 41 58 52 59 68 60 39 61 40 62 51 64 69 65 42 66 29 67
REMARK SMILES IDX 30 68 35 69 31 70 32 71 34 72 36 73 33 74 55 75 56 76 61 77
REMARK SMILES IDX 57 78 58 79 60 80 62 81 59 82 43 83 44 84 49 85 45 86 46 87
REMARK SMILES IDX 48 88 50 89 47 90
REMARK H PARENT 1 20 1 21 67 52 41 63
REMARK Flexibility Score: inf
ROOT
ATOM      1  C   UNL A   1      40.489  19.985  26.609  1.00  0.00     0.275 C 
ENDROOT
BRANCH   1   2
ATOM      2  O   UNL A   1      39.556  20.657  25.745  1.00  0.00    -0.457 OA
BRANCH   2   3
ATOM      3  C   UNL A   1      39.109  21.907  26.116  1.00  0.00     0.358 C 
ATOM      4  O   UNL A   1      39.755  22.687  26.805  1.00  0.00    -0.244 OA
BRANCH   3   5
ATOM      5  C   UNL A   1      37.781  22.180  25.542  1.00  0.00     0.171 A 
ATOM      6  N   UNL A   1      35.926  23.161  25.171  1.00  0.00    -0.231 N 
ATOM      7  N   UNL A   1      37.268  23.395  25.254  1.00  0.00    -0.160 NA
ATOM      8  C   UNL A   1      35.631  21.842  25.420  1.00  0.00     0.085 A 
ATOM      9  C   UNL A   1      36.831  21.183  25.243  1.00  0.00     0.068 A 
BRANCH   6  10
ATOM     10  C   UNL A   1      35.036  24.149  24.713  1.00  0.00     0.065 A 
ATOM     11  C   UNL A   1      33.386  26.192  23.824  1.00  0.00     0.082 A 
ATOM     12  C   UNL A   1      33.838  25.217  22.923  1.00  0.00     0.024 A 
ATOM     13  C   UNL A   1      33.763  26.153  25.171  1.00  0.00     0.024 A 
ATOM     14  C   UNL A   1      34.683  24.199  23.364  1.00  0.00     0.030 A 
ATOM     15  C   UNL A   1      34.575  25.111  25.623  1.00  0.00     0.030 A 
BRANCH  11  16
ATOM     16  S   UNL A   1      32.331  27.466  23.199  1.00  0.00     0.238 S 
ATOM     17  O   UNL A   1      33.145  28.607  22.869  1.00  0.00    -0.207 OA
ATOM     18  O   UNL A   1      31.168  27.552  24.057  1.00  0.00    -0.207 OA
BRANCH  16  19
ATOM     19  N   UNL A   1      31.750  26.876  21.736  1.00  0.00    -0.225 NA
ATOM     20  H   UNL A   1      32.471  26.974  21.020  1.00  0.00     0.137 HD
ATOM     21  H   UNL A   1      30.923  27.404  21.461  1.00  0.00     0.137 HD
ENDBRANCH  16  19
ENDBRANCH  11  16
ENDBRANCH   6  10
BRANCH   8  22
ATOM     22  C   UNL A   1      34.465  21.241  26.017  1.00  0.00     0.054 A 
ATOM     23  C   UNL A   1      33.344  21.919  26.488  1.00  0.00     0.031 A 
ATOM     24  S   UNL A   1      33.774  19.916  25.087  1.00  0.00    -0.134 S 
ATOM     25  C   UNL A   1      32.463  22.085  25.338  1.00  0.00    -0.007 A 
ATOM     26  C   UNL A   1      32.739  21.116  24.360  1.00  0.00     0.035 A 
ATOM     27  C   UNL A   1      31.559  23.120  25.010  1.00  0.00     0.009 A 
ATOM     28  C   UNL A   1      32.272  21.218  23.041  1.00  0.00     0.019 A 
ATOM     29  C   UNL A   1      31.120  23.254  23.687  1.00  0.00     0.001 A 
ATOM     30  C   UNL A   1      31.505  22.338  22.711  1.00  0.00     0.001 A 
ENDBRANCH   8  22
ENDBRANCH   3   5
ENDBRANCH   2   3
ENDBRANCH   1   2
BRANCH   1  31
ATOM     31  C   UNL A   1      41.826  19.777  25.906  1.00  0.00     0.275 C 
BRANCH  31  32
ATOM     32  O   UNL A   1      42.664  20.898  26.154  1.00  0.00    -0.458 OA
BRANCH  32  33
ATOM     33  C   UNL A   1      43.812  20.928  25.443  1.00  0.00     0.338 C 
ATOM     34  O   UNL A   1      44.436  19.968  25.018  1.00  0.00    -0.246 OA
BRANCH  33  35
ATOM     35  C   UNL A   1      44.288  22.310  25.362  1.00  0.00     0.060 A 
ATOM     36  C   UNL A   1      45.263  22.667  26.296  1.00  0.00     0.016 A 
ATOM     37  C   UNL A   1      43.455  23.248  24.739  1.00  0.00     0.016 A 
ATOM     38  C   UNL A   1      45.155  23.907  26.872  1.00  0.00     0.010 A 
ATOM     39  C   UNL A   1      43.331  24.473  25.331  1.00  0.00     0.010 A 
ATOM     40  C   UNL A   1      44.100  24.727  26.462  1.00  0.00    -0.014 A 
BRANCH  40  41
ATOM     41  C   UNL A   1      43.826  25.915  27.227  1.00  0.00     0.031 A 
ATOM     42  C   UNL A   1      44.814  26.979  26.971  1.00  0.00     0.074 A 
ATOM     43  C   UNL A   1      42.709  26.033  27.966  1.00  0.00     0.049 A 
ATOM     44  N   UNL A   1      45.694  27.454  27.785  1.00  0.00    -0.248 NA
ATOM     45  C   UNL A   1      44.977  27.417  25.574  1.00  0.00     0.031 C 
ATOM     46  C   UNL A   1      41.556  25.131  28.044  1.00  0.00     0.029 A 
ATOM     47  N   UNL A   1      42.328  27.081  28.738  1.00  0.00    -0.354 N 
ATOM     48  C   UNL A   1      46.378  28.415  27.053  1.00  0.00     0.074 A 
ATOM     49  C   UNL A   1      46.057  28.190  25.670  1.00  0.00     0.031 C 
ATOM     50  C   UNL A   1      40.521  25.781  28.626  1.00  0.00     0.029 A 
ATOM     51  C   UNL A   1      40.979  27.085  29.069  1.00  0.00     0.049 A 
ATOM     52  H   UNL A   1      42.954  27.780  29.038  1.00  0.00     0.167 HD
ATOM     53  C   UNL A   1      46.917  29.504  27.659  1.00  0.00     0.037 A 
ATOM     54  C   UNL A   1      40.310  28.160  29.556  1.00  0.00     0.037 A 
ATOM     55  C   UNL A   1      47.086  29.291  29.073  1.00  0.00     0.049 A 
ATOM     56  C   UNL A   1      41.335  29.095  30.107  1.00  0.00     0.074 A 
ATOM     57  C   UNL A   1      47.793  28.377  29.832  1.00  0.00     0.029 A 
ATOM     58  N   UNL A   1      46.152  29.835  29.922  1.00  0.00    -0.354 N 
ATOM     59  N   UNL A   1      42.070  28.821  31.152  1.00  0.00    -0.248 NA
ATOM     60  C   UNL A   1      41.890  30.091  29.198  1.00  0.00     0.031 C 
ATOM     61  C   UNL A   1      46.937  28.068  30.929  1.00  0.00     0.029 A 
ATOM     62  C   UNL A   1      45.791  28.855  30.812  1.00  0.00     0.049 A 
ATOM     63  H   UNL A   1      45.806  30.757  29.897  1.00  0.00     0.167 HD
ATOM     64  C   UNL A   1      43.340  29.284  30.828  1.00  0.00     0.074 A 
ATOM     65  C   UNL A   1      43.155  30.103  29.631  1.00  0.00     0.031 C 
ATOM     66  C   UNL A   1      44.465  28.727  31.371  1.00  0.00     0.037 A 
BRANCH  53  67
ATOM     67  C   UNL A   1      46.906  30.872  27.032  1.00  0.00     0.057 A 
ATOM     68  C   UNL A   1      48.092  31.621  27.012  1.00  0.00     0.134 A 
ATOM     69  C   UNL A   1      45.734  31.590  26.707  1.00  0.00     0.134 A 
ATOM     70  F   UNL A   1      49.268  31.056  27.326  1.00  0.00    -0.206 F 
ATOM     71  C   UNL A   1      48.101  32.995  26.750  1.00  0.00     0.040 A 
ATOM     72  C   UNL A   1      45.740  32.947  26.386  1.00  0.00     0.040 A 
ATOM     73  F   UNL A   1      44.511  31.052  26.780  1.00  0.00    -0.206 F 
ATOM     74  C   UNL A   1      46.922  33.664  26.441  1.00  0.00     0.006 A 
ENDBRANCH  53  67
BRANCH  54  75
ATOM     75  C   UNL A   1      38.940  28.595  29.192  1.00  0.00     0.057 A 
ATOM     76  C   UNL A   1      37.932  28.716  30.158  1.00  0.00     0.134 A 
ATOM     77  C   UNL A   1      38.653  29.153  27.932  1.00  0.00     0.134 A 
ATOM     78  F   UNL A   1      38.128  28.264  31.405  1.00  0.00    -0.206 F 
ATOM     79  C   UNL A   1      36.714  29.359  29.888  1.00  0.00     0.040 A 
ATOM     80  C   UNL A   1      37.441  29.790  27.648  1.00  0.00     0.040 A 
ATOM     81  F   UNL A   1      39.573  29.178  26.956  1.00  0.00    -0.206 F 
ATOM     82  C   UNL A   1      36.469  29.905  28.631  1.00  0.00     0.006 A 
ENDBRANCH  54  75
BRANCH  66  83
ATOM     83  C   UNL A   1      44.293  27.716  32.473  1.00  0.00     0.057 A 
ATOM     84  C   UNL A   1      44.185  26.333  32.254  1.00  0.00     0.134 A 
ATOM     85  C   UNL A   1      44.424  28.132  33.801  1.00  0.00     0.134 A 
ATOM     86  F   UNL A   1      44.161  25.830  31.014  1.00  0.00    -0.206 F 
ATOM     87  C   UNL A   1      44.170  25.413  33.307  1.00  0.00     0.040 A 
ATOM     88  C   UNL A   1      44.442  27.222  34.862  1.00  0.00     0.040 A 
ATOM     89  F   UNL A   1      44.594  29.432  34.087  1.00  0.00    -0.206 F 
ATOM     90  C   UNL A   1      44.307  25.858  34.618  1.00  0.00     0.006 A 
ENDBRANCH  66  83
ENDBRANCH  40  41
ENDBRANCH  33  35
ENDBRANCH  32  33
ENDBRANCH  31  32
ENDBRANCH   1  31
TORSDOF 15
ENDMDL
MODEL 2
REMARK VINA RESULT:     -12.0      3.134      6.935
REMARK SMILES NS(=O)(=O)c1ccc(-n2nc(C(=O)OCCOC(=O)c3ccc(-c4c5nc(c(-c6c(F)cccc6F)c6ccc([nH]6)c(-c6c(F)cccc6F)c6nc(c(-c7c(F)cccc7F)c7ccc4[nH]7)C=C6)C=C5)cc3)cc2-c2cc3ccccc3s2)cc1
REMARK SMILES IDX 15 1 14 2 12 3 13 4 11 5 9 6 10 7 75 8 74 9 8 10 5 11 6 12
REMARK SMILES IDX 86 13 7 14 85 15 2 16 3 17 4 18 1 19 76 22 77 23 84 24 78 25
REMARK SMILES IDX 83 26 79 27 82 28 80 29 81 30 16 31 17 32 18 33 19 34 20 35
REMARK SMILES IDX 21 36 73 37 22 38 72 39 23 40 24 41 25 42 66 43 26 44 71 45
REMARK SMILES IDX 65 46 67 47 27 48 70 49 64 50 63 51 28 53 54 54 37 55 53 56
REMARK SMILES IDX 38 57 41 58 52 59 68 60 39 61 40 62 51 64 69 65 42 66 29 67
REMARK SMILES IDX 30 68 35 69 31 70 32 71 34 72 36 73 33 74 55 75 56 76 61 77
REMARK SMILES IDX 57 78 58 79 60 80 62 81 59 82 43 83 44 84 49 85 45 86 46 87
REMARK SMILES IDX 48 88 50 89 47 90
REMARK H PARENT 1 20 1 21 67 52 41 63
REMARK Flexibility Score: inf
ROOT
ATOM      1  C   UNL A   1      41.039  22.343  26.980  1.00  0.00     0.275 C 
ENDROOT
BRANCH   1   2
ATOM      2  O   UNL A   1      39.629  22.384  26.698  1.00  0.00    -0.457 OA
BRANCH   2   3
ATOM      3  C   UNL A   1      39.088  21.370  25.938  1.00  0.00     0.358 C 
ATOM      4  O   UNL A   1      39.630  20.286  25.760  1.00  0.00    -0.244 OA
BRANCH   3   5
ATOM      5  C   UNL A   1      37.768  21.757  25.411  1.00  0.00     0.171 A 
ATOM      6  N   UNL A   1      35.971  22.869  25.139  1.00  0.00    -0.231 N 
ATOM      7  N   UNL A   1      37.327  23.015  25.203  1.00  0.00    -0.160 NA
ATOM      8  C   UNL A   1      35.599  21.560  25.323  1.00  0.00     0.085 A 
ATOM      9  C   UNL A   1      36.751  20.838  25.082  1.00  0.00     0.068 A 
BRANCH   6  10
ATOM     10  C   UNL A   1      35.136  23.934  24.756  1.00  0.00     0.065 A 
ATOM     11  C   UNL A   1      33.600  26.121  24.021  1.00  0.00     0.082 A 
ATOM     12  C   UNL A   1      33.986  25.183  23.054  1.00  0.00     0.024 A 
ATOM     13  C   UNL A   1      33.987  25.975  25.357  1.00  0.00     0.024 A 
ATOM     14  C   UNL A   1      34.775  24.091  23.418  1.00  0.00     0.030 A 
ATOM     15  C   UNL A   1      34.740  24.860  25.732  1.00  0.00     0.030 A 
BRANCH  11  16
ATOM     16  S   UNL A   1      32.615  27.491  23.492  1.00  0.00     0.238 S 
ATOM     17  O   UNL A   1      33.480  28.628  23.311  1.00  0.00    -0.207 OA
ATOM     18  O   UNL A   1      31.422  27.534  24.311  1.00  0.00    -0.207 OA
BRANCH  16  19
ATOM     19  N   UNL A   1      32.074  27.075  21.956  1.00  0.00    -0.225 NA
ATOM     20  H   UNL A   1      31.486  27.824  21.588  1.00  0.00     0.137 HD
ATOM     21  H   UNL A   1      31.533  26.212  22.008  1.00  0.00     0.137 HD
ENDBRANCH  16  19
ENDBRANCH  11  16
ENDBRANCH   6  10
BRANCH   8  22
ATOM     22  C   UNL A   1      34.410  21.000  25.915  1.00  0.00     0.054 A 
ATOM     23  C   UNL A   1      33.341  21.719  26.443  1.00  0.00     0.031 A 
ATOM     24  S   UNL A   1      33.623  19.767  24.936  1.00  0.00    -0.134 S 
ATOM     25  C   UNL A   1      32.450  21.995  25.322  1.00  0.00    -0.007 A 
ATOM     26  C   UNL A   1      32.649  21.062  24.291  1.00  0.00     0.035 A 
ATOM     27  C   UNL A   1      31.605  23.097  25.065  1.00  0.00     0.009 A 
ATOM     28  C   UNL A   1      32.164  21.258  22.990  1.00  0.00     0.019 A 
ATOM     29  C   UNL A   1      31.150  23.323  23.760  1.00  0.00     0.001 A 
ATOM     30  C   UNL A   1      31.461  22.437  22.732  1.00  0.00     0.001 A 
ENDBRANCH   8  22
ENDBRANCH   3   5
ENDBRANCH   2   3
ENDBRANCH   1   2
BRANCH   1  31
ATOM     31  C   UNL A   1      41.782  23.409  26.183  1.00  0.00     0.275 C 
BRANCH  31  32
ATOM     32  O   UNL A   1      41.630  24.667  26.829  1.00  0.00    -0.458 OA
BRANCH  32  33
ATOM     33  C   UNL A   1      41.491  25.727  26.002  1.00  0.00     0.338 C 
ATOM     34  O   UNL A   1      42.118  25.943  24.977  1.00  0.00    -0.246 OA
BRANCH  33  35
ATOM     35  C   UNL A   1      40.546  26.674  26.596  1.00  0.00     0.060 A 
ATOM     36  C   UNL A   1      40.774  28.019  26.297  1.00  0.00     0.016 A 
ATOM     37  C   UNL A   1      39.835  26.259  27.729  1.00  0.00     0.016 A 
ATOM     38  C   UNL A   1      40.610  28.924  27.315  1.00  0.00     0.010 A 
ATOM     39  C   UNL A   1      39.696  27.155  28.750  1.00  0.00     0.010 A 
ATOM     40  C   UNL A   1      40.201  28.438  28.559  1.00  0.00    -0.014 A 
BRANCH  40  41
ATOM     41  C   UNL A   1      40.266  29.325  29.691  1.00  0.00     0.031 A 
ATOM     42  C   UNL A   1      39.055  30.156  29.814  1.00  0.00     0.074 A 
ATOM     43  C   UNL A   1      41.276  29.262  30.576  1.00  0.00     0.049 A 
ATOM     44  N   UNL A   1      38.951  31.433  29.655  1.00  0.00    -0.248 NA
ATOM     45  C   UNL A   1      37.767  29.449  29.919  1.00  0.00     0.031 C 
ATOM     46  C   UNL A   1      42.360  28.280  30.669  1.00  0.00     0.029 A 
ATOM     47  N   UNL A   1      41.471  30.035  31.674  1.00  0.00    -0.354 N 
ATOM     48  C   UNL A   1      37.607  31.712  29.862  1.00  0.00     0.074 A 
ATOM     49  C   UNL A   1      36.907  30.458  29.793  1.00  0.00     0.031 C 
ATOM     50  C   UNL A   1      42.947  28.378  31.885  1.00  0.00     0.029 A 
ATOM     51  C   UNL A   1      42.366  29.503  32.594  1.00  0.00     0.049 A 
ATOM     52  H   UNL A   1      41.016  30.898  31.808  1.00  0.00     0.167 HD
ATOM     53  C   UNL A   1      37.211  32.907  30.370  1.00  0.00     0.037 A 
ATOM     54  C   UNL A   1      42.488  29.923  33.878  1.00  0.00     0.037 A 
ATOM     55  C   UNL A   1      38.233  33.910  30.215  1.00  0.00     0.049 A 
ATOM     56  C   UNL A   1      41.893  31.290  33.946  1.00  0.00     0.074 A 
ATOM     57  C   UNL A   1      38.886  34.460  29.128  1.00  0.00     0.029 A 
ATOM     58  N   UNL A   1      39.011  34.209  31.307  1.00  0.00    -0.354 N 
ATOM     59  N   UNL A   1      42.407  32.329  33.342  1.00  0.00    -0.248 NA
ATOM     60  C   UNL A   1      40.470  31.386  34.249  1.00  0.00     0.031 C 
ATOM     61  C   UNL A   1      40.239  34.616  29.551  1.00  0.00     0.029 A 
ATOM     62  C   UNL A   1      40.318  34.216  30.886  1.00  0.00     0.049 A 
ATOM     63  H   UNL A   1      38.692  34.386  32.222  1.00  0.00     0.167 HD
ATOM     64  C   UNL A   1      41.317  33.018  32.824  1.00  0.00     0.074 A 
ATOM     65  C   UNL A   1      40.146  32.415  33.460  1.00  0.00     0.031 C 
ATOM     66  C   UNL A   1      41.430  33.804  31.711  1.00  0.00     0.037 A 
BRANCH  53  67
ATOM     67  C   UNL A   1      36.075  33.039  31.348  1.00  0.00     0.057 A 
ATOM     68  C   UNL A   1      35.014  33.904  31.046  1.00  0.00     0.134 A 
ATOM     69  C   UNL A   1      36.115  32.575  32.682  1.00  0.00     0.134 A 
ATOM     70  F   UNL A   1      34.882  34.428  29.818  1.00  0.00    -0.206 F 
ATOM     71  C   UNL A   1      34.098  34.327  32.015  1.00  0.00     0.040 A 
ATOM     72  C   UNL A   1      35.173  32.945  33.642  1.00  0.00     0.040 A 
ATOM     73  F   UNL A   1      37.117  31.829  33.161  1.00  0.00    -0.206 F 
ATOM     74  C   UNL A   1      34.178  33.851  33.319  1.00  0.00     0.006 A 
ENDBRANCH  53  67
BRANCH  54  75
ATOM     75  C   UNL A   1      42.684  29.073  35.077  1.00  0.00     0.057 A 
ATOM     76  C   UNL A   1      41.926  27.912  35.281  1.00  0.00     0.134 A 
ATOM     77  C   UNL A   1      43.798  29.235  35.922  1.00  0.00     0.134 A 
ATOM     78  F   UNL A   1      40.876  27.638  34.493  1.00  0.00    -0.206 F 
ATOM     79  C   UNL A   1      42.261  26.966  36.263  1.00  0.00     0.040 A 
ATOM     80  C   UNL A   1      44.139  28.304  36.908  1.00  0.00     0.040 A 
ATOM     81  F   UNL A   1      44.648  30.260  35.763  1.00  0.00    -0.206 F 
ATOM     82  C   UNL A   1      43.375  27.158  37.076  1.00  0.00     0.006 A 
ENDBRANCH  54  75
BRANCH  66  83
ATOM     83  C   UNL A   1      42.808  34.055  31.159  1.00  0.00     0.057 A 
ATOM     84  C   UNL A   1      43.405  33.266  30.161  1.00  0.00     0.134 A 
ATOM     85  C   UNL A   1      43.475  35.231  31.512  1.00  0.00     0.134 A 
ATOM     86  F   UNL A   1      42.791  32.178  29.682  1.00  0.00    -0.206 F 
ATOM     87  C   UNL A   1      44.625  33.613  29.573  1.00  0.00     0.040 A 
ATOM     88  C   UNL A   1      44.679  35.607  30.909  1.00  0.00     0.040 A 
ATOM     89  F   UNL A   1      42.936  36.068  32.412  1.00  0.00    -0.206 F 
ATOM     90  C   UNL A   1      45.263  34.792  29.942  1.00  0.00     0.006 A 
ENDBRANCH  66  83
ENDBRANCH  40  41
ENDBRANCH  33  35
ENDBRANCH  32  33
ENDBRANCH  31  32
ENDBRANCH   1  31
TORSDOF 15
ENDMDL
MODEL 3
REMARK VINA RESULT:     -11.8      3.176      7.654
REMARK SMILES NS(=O)(=O)c1ccc(-n2nc(C(=O)OCCOC(=O)c3ccc(-c4c5nc(c(-c6c(F)cccc6F)c6ccc([nH]6)c(-c6c(F)cccc6F)c6nc(c(-c7c(F)cccc7F)c7ccc4[nH]7)C=C6)C=C5)cc3)cc2-c2cc3ccccc3s2)cc1
REMARK SMILES IDX 15 1 14 2 12 3 13 4 11 5 9 6 10 7 75 8 74 9 8 10 5 11 6 12
REMARK SMILES IDX 86 13 7 14 85 15 2 16 3 17 4 18 1 19 76 22 77 23 84 24 78 25
REMARK SMILES IDX 83 26 79 27 82 28 80 29 81 30 16 31 17 32 18 33 19 34 20 35
REMARK SMILES IDX 21 36 73 37 22 38 72 39 23 40 24 41 25 42 66 43 26 44 71 45
REMARK SMILES IDX 65 46 67 47 27 48 70 49 64 50 63 51 28 53 54 54 37 55 53 56
REMARK SMILES IDX 38 57 41 58 52 59 68 60 39 61 40 62 51 64 69 65 42 66 29 67
REMARK SMILES IDX 30 68 35 69 31 70 32 71 34 72 36 73 33 74 55 75 56 76 61 77
REMARK SMILES IDX 57 78 58 79 60 80 62 81 59 82 43 83 44 84 49 85 45 86 46 87
REMARK SMILES IDX 48 88 50 89 47 90
REMARK H PARENT 1 20 1 21 67 52 41 63
REMARK Flexibility Score: inf
ROOT
ATOM      1  C   UNL A   1      35.153  31.541  27.789  1.00  0.00     0.275 C 
ENDROOT
BRANCH   1   2
ATOM      2  O   UNL A   1      34.406  30.337  27.542  1.00  0.00    -0.457 OA
BRANCH   2   3
ATOM      3  C   UNL A   1      33.107  30.456  27.098  1.00  0.00     0.358 C 
ATOM      4  O   UNL A   1      32.476  31.507  27.106  1.00  0.00    -0.244 OA
BRANCH   3   5
ATOM      5  C   UNL A   1      32.607  29.170  26.586  1.00  0.00     0.171 A 
ATOM      6  N   UNL A   1      32.619  27.177  25.832  1.00  0.00    -0.231 N 
ATOM      7  N   UNL A   1      33.134  27.951  26.831  1.00  0.00    -0.160 NA
ATOM      8  C   UNL A   1      31.816  27.910  24.992  1.00  0.00     0.085 A 
ATOM      9  C   UNL A   1      31.503  29.042  25.718  1.00  0.00     0.068 A 
BRANCH   6  10
ATOM     10  C   UNL A   1      32.788  25.780  25.825  1.00  0.00     0.065 A 
ATOM     11  C   UNL A   1      33.221  23.044  25.912  1.00  0.00     0.082 A 
ATOM     12  C   UNL A   1      32.031  23.579  26.424  1.00  0.00     0.024 A 
ATOM     13  C   UNL A   1      34.203  23.875  25.361  1.00  0.00     0.024 A 
ATOM     14  C   UNL A   1      31.818  24.957  26.398  1.00  0.00     0.030 A 
ATOM     15  C   UNL A   1      33.974  25.252  25.296  1.00  0.00     0.030 A 
BRANCH  11  16
ATOM     16  S   UNL A   1      33.437  21.291  25.989  1.00  0.00     0.238 S 
ATOM     17  O   UNL A   1      33.730  20.930  27.352  1.00  0.00    -0.207 OA
ATOM     18  O   UNL A   1      34.267  20.887  24.874  1.00  0.00    -0.207 OA
BRANCH  16  19
ATOM     19  N   UNL A   1      31.919  20.647  25.659  1.00  0.00    -0.225 NA
ATOM     20  H   UNL A   1      31.988  20.001  24.873  1.00  0.00     0.137 HD
ATOM     21  H   UNL A   1      31.274  21.402  25.423  1.00  0.00     0.137 HD
ENDBRANCH  16  19
ENDBRANCH  11  16
ENDBRANCH   6  10
BRANCH   8  22
ATOM     22  C   UNL A   1      31.556  27.764  23.582  1.00  0.00     0.054 A 
ATOM     23  C   UNL A   1      30.436  27.165  23.013  1.00  0.00     0.031 A 
ATOM     24  S   UNL A   1      31.736  29.249  22.653  1.00  0.00    -0.134 S 
ATOM     25  C   UNL A   1      29.425  28.212  22.920  1.00  0.00    -0.007 A 
ATOM     26  C   UNL A   1      30.026  29.481  22.907  1.00  0.00     0.035 A 
ATOM     27  C   UNL A   1      28.017  28.147  23.019  1.00  0.00     0.009 A 
ATOM     28  C   UNL A   1      29.305  30.662  23.133  1.00  0.00     0.019 A 
ATOM     29  C   UNL A   1      27.293  29.315  23.285  1.00  0.00     0.001 A 
ATOM     30  C   UNL A   1      27.935  30.547  23.381  1.00  0.00     0.001 A 
ENDBRANCH   8  22
ENDBRANCH   3   5
ENDBRANCH   2   3
ENDBRANCH   1   2
BRANCH   1  31
ATOM     31  C   UNL A   1      35.421  31.715  29.280  1.00  0.00     0.275 C 
BRANCH  31  32
ATOM     32  O   UNL A   1      36.687  31.150  29.597  1.00  0.00    -0.458 OA
BRANCH  32  33
ATOM     33  C   UNL A   1      36.650  30.079  30.420  1.00  0.00     0.338 C 
ATOM     34  O   UNL A   1      36.169  30.033  31.541  1.00  0.00    -0.246 OA
BRANCH  33  35
ATOM     35  C   UNL A   1      37.407  28.983  29.812  1.00  0.00     0.060 A 
ATOM     36  C   UNL A   1      38.044  28.122  30.708  1.00  0.00     0.016 A 
ATOM     37  C   UNL A   1      37.825  29.141  28.485  1.00  0.00     0.016 A 
ATOM     38  C   UNL A   1      39.308  27.701  30.382  1.00  0.00     0.010 A 
ATOM     39  C   UNL A   1      39.093  28.744  28.171  1.00  0.00     0.010 A 
ATOM     40  C   UNL A   1      39.850  28.141  29.172  1.00  0.00    -0.014 A 
BRANCH  40  41
ATOM     41  C   UNL A   1      41.252  27.918  28.933  1.00  0.00     0.031 A 
ATOM     42  C   UNL A   1      41.502  26.628  28.265  1.00  0.00     0.074 A 
ATOM     43  C   UNL A   1      42.167  28.870  29.186  1.00  0.00     0.049 A 
ATOM     44  N   UNL A   1      42.094  25.588  28.748  1.00  0.00    -0.248 NA
ATOM     45  C   UNL A   1      40.824  26.400  26.977  1.00  0.00     0.031 C 
ATOM     46  C   UNL A   1      41.960  30.265  29.585  1.00  0.00     0.029 A 
ATOM     47  N   UNL A   1      43.512  28.797  29.021  1.00  0.00    -0.354 N 
ATOM     48  C   UNL A   1      42.052  24.647  27.728  1.00  0.00     0.074 A 
ATOM     49  C   UNL A   1      41.081  25.109  26.774  1.00  0.00     0.031 C 
ATOM     50  C   UNL A   1      43.109  30.957  29.399  1.00  0.00     0.029 A 
ATOM     51  C   UNL A   1      44.150  30.030  28.994  1.00  0.00     0.049 A 
ATOM     52  H   UNL A   1      43.994  27.943  28.927  1.00  0.00     0.167 HD
ATOM     53  C   UNL A   1      43.031  23.714  27.598  1.00  0.00     0.037 A 
ATOM     54  C   UNL A   1      45.413  30.232  28.541  1.00  0.00     0.037 A 
ATOM     55  C   UNL A   1      43.770  23.550  28.823  1.00  0.00     0.049 A 
ATOM     56  C   UNL A   1      46.100  28.907  28.565  1.00  0.00     0.074 A 
ATOM     57  C   UNL A   1      43.431  23.180  30.110  1.00  0.00     0.029 A 
ATOM     58  N   UNL A   1      44.992  24.170  28.923  1.00  0.00    -0.354 N 
ATOM     59  N   UNL A   1      46.378  28.260  29.666  1.00  0.00    -0.248 NA
ATOM     60  C   UNL A   1      46.004  28.082  27.366  1.00  0.00     0.031 C 
ATOM     61  C   UNL A   1      44.212  24.024  30.954  1.00  0.00     0.029 A 
ATOM     62  C   UNL A   1      45.026  24.810  30.137  1.00  0.00     0.049 A 
ATOM     63  H   UNL A   1      45.711  24.158  28.250  1.00  0.00     0.167 HD
ATOM     64  C   UNL A   1      46.086  26.931  29.386  1.00  0.00     0.074 A 
ATOM     65  C   UNL A   1      45.909  26.876  27.936  1.00  0.00     0.031 C 
ATOM     66  C   UNL A   1      45.719  26.056  30.369  1.00  0.00     0.037 A 
BRANCH  53  67
ATOM     67  C   UNL A   1      43.551  23.264  26.260  1.00  0.00     0.057 A 
ATOM     68  C   UNL A   1      43.584  21.892  25.969  1.00  0.00     0.134 A 
ATOM     69  C   UNL A   1      44.275  24.087  25.369  1.00  0.00     0.134 A 
ATOM     70  F   UNL A   1      42.953  21.007  26.756  1.00  0.00    -0.206 F 
ATOM     71  C   UNL A   1      44.333  21.374  24.907  1.00  0.00     0.040 A 
ATOM     72  C   UNL A   1      44.977  23.585  24.273  1.00  0.00     0.040 A 
ATOM     73  F   UNL A   1      44.432  25.402  25.562  1.00  0.00    -0.206 F 
ATOM     74  C   UNL A   1      45.036  22.220  24.058  1.00  0.00     0.006 A 
ENDBRANCH  53  67
BRANCH  54  75
ATOM     75  C   UNL A   1      45.892  31.369  27.719  1.00  0.00     0.057 A 
ATOM     76  C   UNL A   1      45.104  31.915  26.697  1.00  0.00     0.134 A 
ATOM     77  C   UNL A   1      47.027  32.117  28.085  1.00  0.00     0.134 A 
ATOM     78  F   UNL A   1      43.973  31.305  26.312  1.00  0.00    -0.206 F 
ATOM     79  C   UNL A   1      45.423  33.135  26.081  1.00  0.00     0.040 A 
ATOM     80  C   UNL A   1      47.359  33.331  27.475  1.00  0.00     0.040 A 
ATOM     81  F   UNL A   1      47.808  31.741  29.109  1.00  0.00    -0.206 F 
ATOM     82  C   UNL A   1      46.550  33.851  26.475  1.00  0.00     0.006 A 
ENDBRANCH  54  75
BRANCH  66  83
ATOM     83  C   UNL A   1      45.813  26.518  31.799  1.00  0.00     0.057 A 
ATOM     84  C   UNL A   1      44.757  27.133  32.492  1.00  0.00     0.134 A 
ATOM     85  C   UNL A   1      46.938  26.167  32.552  1.00  0.00     0.134 A 
ATOM     86  F   UNL A   1      43.600  27.411  31.881  1.00  0.00    -0.206 F 
ATOM     87  C   UNL A   1      44.833  27.418  33.859  1.00  0.00     0.040 A 
ATOM     88  C   UNL A   1      47.014  26.417  33.925  1.00  0.00     0.040 A 
ATOM     89  F   UNL A   1      47.961  25.520  31.974  1.00  0.00    -0.206 F 
ATOM     90  C   UNL A   1      45.963  27.053  34.582  1.00  0.00     0.006 A 
ENDBRANCH  66  83
ENDBRANCH  40  41
ENDBRANCH  33  35
ENDBRANCH  32  33
ENDBRANCH  31  32
ENDBRANCH   1  31
TORSDOF 15
ENDMDL
