MODEL 1
REMARK VINA RESULT:     -11.5      0.000      0.000
REMARK SMILES O=C(CC1(NC(=O)c2csc(-c3ccsc3)n2)CCC1)OCCOC(=O)c1ccc(-c2c3nc(c(-c4c(F)cccc4F)c4ccc([nH]4)c(-c4c(F)cccc4F)c4nc(c(-c5c(F)cccc5F)c5ccc2[nH]5)C=C4)C=C3)cc1
REMARK SMILES IDX 22 1 21 2 2 3 1 4 3 5 4 6 18 7 20 8 19 9 5 10 6 11 7 13 8 14
REMARK SMILES IDX 9 15 17 16 10 17 11 18 12 19 13 20 16 21 14 22 15 23 23 24
REMARK SMILES IDX 24 25 25 26 26 27 27 28 28 29 80 30 29 31 79 32 30 33 31 34
REMARK SMILES IDX 32 35 73 36 33 37 78 38 72 39 74 40 34 41 77 42 71 43 70 44
REMARK SMILES IDX 35 46 61 47 44 48 60 49 45 50 48 51 59 52 75 53 46 54 47 55
REMARK SMILES IDX 58 57 76 58 49 59 36 60 37 61 42 62 38 63 39 64 41 65 43 66
REMARK SMILES IDX 40 67 62 68 63 69 68 70 64 71 65 72 67 73 69 74 66 75 50 76
REMARK SMILES IDX 51 77 56 78 52 79 53 80 55 81 57 82 54 83
REMARK H PARENT 5 12 74 45 48 56
REMARK Flexibility Score: inf
ROOT
ATOM      1  C   UNL A   1      31.654  27.640  26.393  1.00  0.00     0.274 C 
ENDROOT
BRANCH   1   2
ATOM      2  O   UNL A   1      32.945  26.989  26.523  1.00  0.00    -0.462 OA
BRANCH   2   3
ATOM      3  C   UNL A   1      33.647  26.524  25.450  1.00  0.00     0.308 C 
ATOM      4  O   UNL A   1      34.091  27.292  24.605  1.00  0.00    -0.252 OA
BRANCH   3   5
ATOM      5  C   UNL A   1      33.718  25.031  25.335  1.00  0.00     0.151 C 
BRANCH   5   6
ATOM      6  C   UNL A   1      34.179  24.397  24.028  1.00  0.00     0.051 C 
ATOM      7  C   UNL A   1      35.583  23.693  24.094  1.00  0.00     0.029 C 
ATOM      8  C   UNL A   1      33.600  22.932  23.905  1.00  0.00     0.029 C 
ATOM      9  C   UNL A   1      34.882  22.418  24.592  1.00  0.00     0.005 C 
BRANCH   6  10
ATOM     10  N   UNL A   1      34.003  25.124  22.733  1.00  0.00    -0.345 N 
ATOM     11  C   UNL A   1      32.933  25.542  21.968  1.00  0.00     0.271 C 
ATOM     12  H   UNL A   1      34.866  25.364  22.324  1.00  0.00     0.164 HD
ATOM     13  O   UNL A   1      33.091  25.528  20.746  1.00  0.00    -0.267 OA
BRANCH  11  14
ATOM     14  C   UNL A   1      31.668  25.982  22.548  1.00  0.00     0.139 A 
ATOM     15  C   UNL A   1      30.782  25.117  23.172  1.00  0.00     0.101 A 
ATOM     16  N   UNL A   1      31.187  27.279  22.431  1.00  0.00    -0.231 NA
ATOM     17  S   UNL A   1      29.459  25.987  23.826  1.00  0.00    -0.122 S 
ATOM     18  C   UNL A   1      30.054  27.417  23.087  1.00  0.00     0.125 A 
BRANCH  18  19
ATOM     19  C   UNL A   1      29.379  28.752  23.165  1.00  0.00     0.021 A 
ATOM     20  C   UNL A   1      30.006  29.924  23.687  1.00  0.00     0.023 A 
ATOM     21  C   UNL A   1      28.083  29.000  22.764  1.00  0.00     0.076 A 
ATOM     22  C   UNL A   1      29.180  31.024  23.636  1.00  0.00     0.065 A 
ATOM     23  S   UNL A   1      27.634  30.635  23.017  1.00  0.00    -0.152 S 
ENDBRANCH  18  19
ENDBRANCH  11  14
ENDBRANCH   6  10
ENDBRANCH   5   6
ENDBRANCH   3   5
ENDBRANCH   2   3
ENDBRANCH   1   2
BRANCH   1  24
ATOM     24  C   UNL A   1      31.652  29.077  26.929  1.00  0.00     0.275 C 
BRANCH  24  25
ATOM     25  O   UNL A   1      32.631  29.900  26.261  1.00  0.00    -0.458 OA
BRANCH  25  26
ATOM     26  C   UNL A   1      33.081  30.941  27.003  1.00  0.00     0.338 C 
ATOM     27  O   UNL A   1      32.441  31.947  27.289  1.00  0.00    -0.246 OA
BRANCH  26  28
ATOM     28  C   UNL A   1      34.488  30.748  27.432  1.00  0.00     0.060 A 
ATOM     29  C   UNL A   1      35.035  29.479  27.608  1.00  0.00     0.016 A 
ATOM     30  C   UNL A   1      35.246  31.860  27.795  1.00  0.00     0.016 A 
ATOM     31  C   UNL A   1      36.276  29.303  28.221  1.00  0.00     0.010 A 
ATOM     32  C   UNL A   1      36.520  31.691  28.352  1.00  0.00     0.010 A 
ATOM     33  C   UNL A   1      37.030  30.406  28.619  1.00  0.00    -0.014 A 
BRANCH  33  34
ATOM     34  C   UNL A   1      38.266  30.251  29.436  1.00  0.00     0.031 A 
ATOM     35  C   UNL A   1      39.404  29.446  28.871  1.00  0.00     0.074 A 
ATOM     36  C   UNL A   1      38.427  30.825  30.644  1.00  0.00     0.049 A 
ATOM     37  N   UNL A   1      40.385  28.842  29.488  1.00  0.00    -0.248 NA
ATOM     38  C   UNL A   1      39.424  29.292  27.407  1.00  0.00     0.031 C 
ATOM     39  C   UNL A   1      37.505  31.763  31.280  1.00  0.00     0.029 A 
ATOM     40  N   UNL A   1      39.443  30.684  31.560  1.00  0.00    -0.354 N 
ATOM     41  C   UNL A   1      41.075  28.148  28.503  1.00  0.00     0.074 A 
ATOM     42  C   UNL A   1      40.430  28.443  27.241  1.00  0.00     0.031 C 
ATOM     43  C   UNL A   1      38.005  32.129  32.472  1.00  0.00     0.029 A 
ATOM     44  C   UNL A   1      39.216  31.357  32.734  1.00  0.00     0.049 A 
ATOM     45  H   UNL A   1      40.255  30.153  31.389  1.00  0.00     0.167 HD
ATOM     46  C   UNL A   1      42.132  27.314  28.651  1.00  0.00     0.037 A 
ATOM     47  C   UNL A   1      39.857  31.297  33.918  1.00  0.00     0.037 A 
ATOM     48  C   UNL A   1      42.812  27.097  29.899  1.00  0.00     0.049 A 
ATOM     49  C   UNL A   1      41.001  30.338  34.091  1.00  0.00     0.074 A 
ATOM     50  C   UNL A   1      43.867  26.245  30.177  1.00  0.00     0.029 A 
ATOM     51  N   UNL A   1      42.521  27.772  31.075  1.00  0.00    -0.354 N 
ATOM     52  N   UNL A   1      41.540  29.530  33.211  1.00  0.00    -0.248 NA
ATOM     53  C   UNL A   1      41.597  30.249  35.432  1.00  0.00     0.031 C 
ATOM     54  C   UNL A   1      44.202  26.393  31.529  1.00  0.00     0.029 A 
ATOM     55  C   UNL A   1      43.376  27.359  32.082  1.00  0.00     0.049 A 
ATOM     56  H   UNL A   1      41.810  28.445  31.180  1.00  0.00     0.167 HD
ATOM     57  C   UNL A   1      42.536  28.838  33.889  1.00  0.00     0.074 A 
ATOM     58  C   UNL A   1      42.538  29.333  35.250  1.00  0.00     0.031 C 
ATOM     59  C   UNL A   1      43.366  27.871  33.427  1.00  0.00     0.037 A 
BRANCH  46  60
ATOM     60  C   UNL A   1      42.552  26.521  27.452  1.00  0.00     0.057 A 
ATOM     61  C   UNL A   1      43.532  26.963  26.557  1.00  0.00     0.134 A 
ATOM     62  C   UNL A   1      41.948  25.283  27.191  1.00  0.00     0.134 A 
ATOM     63  F   UNL A   1      44.130  28.150  26.736  1.00  0.00    -0.206 F 
ATOM     64  C   UNL A   1      43.879  26.213  25.430  1.00  0.00     0.040 A 
ATOM     65  C   UNL A   1      42.303  24.514  26.083  1.00  0.00     0.040 A 
ATOM     66  F   UNL A   1      41.000  24.802  28.011  1.00  0.00    -0.206 F 
ATOM     67  C   UNL A   1      43.267  24.983  25.194  1.00  0.00     0.006 A 
ENDBRANCH  46  60
BRANCH  47  68
ATOM     68  C   UNL A   1      39.361  32.107  35.061  1.00  0.00     0.057 A 
ATOM     69  C   UNL A   1      38.438  31.585  35.974  1.00  0.00     0.134 A 
ATOM     70  C   UNL A   1      39.819  33.412  35.281  1.00  0.00     0.134 A 
ATOM     71  F   UNL A   1      37.940  30.353  35.799  1.00  0.00    -0.206 F 
ATOM     72  C   UNL A   1      37.996  32.329  37.069  1.00  0.00     0.040 A 
ATOM     73  C   UNL A   1      39.406  34.158  36.386  1.00  0.00     0.040 A 
ATOM     74  F   UNL A   1      40.701  33.972  34.439  1.00  0.00    -0.206 F 
ATOM     75  C   UNL A   1      38.490  33.615  37.284  1.00  0.00     0.006 A 
ENDBRANCH  47  68
BRANCH  59  76
ATOM     76  C   UNL A   1      44.364  27.307  34.392  1.00  0.00     0.057 A 
ATOM     77  C   UNL A   1      44.100  26.145  35.126  1.00  0.00     0.134 A 
ATOM     78  C   UNL A   1      45.621  27.904  34.544  1.00  0.00     0.134 A 
ATOM     79  F   UNL A   1      42.910  25.535  35.029  1.00  0.00    -0.206 F 
ATOM     80  C   UNL A   1      45.052  25.600  35.990  1.00  0.00     0.040 A 
ATOM     81  C   UNL A   1      46.586  27.359  35.392  1.00  0.00     0.040 A 
ATOM     82  F   UNL A   1      45.935  29.015  33.863  1.00  0.00    -0.206 F 
ATOM     83  C   UNL A   1      46.302  26.205  36.119  1.00  0.00     0.006 A 
ENDBRANCH  59  76
ENDBRANCH  33  34
ENDBRANCH  26  28
ENDBRANCH  25  26
ENDBRANCH  24  25
ENDBRANCH   1  24
TORSDOF 15
ENDMDL
MODEL 2
REMARK VINA RESULT:     -11.4      4.116      8.923
REMARK SMILES O=C(CC1(NC(=O)c2csc(-c3ccsc3)n2)CCC1)OCCOC(=O)c1ccc(-c2c3nc(c(-c4c(F)cccc4F)c4ccc([nH]4)c(-c4c(F)cccc4F)c4nc(c(-c5c(F)cccc5F)c5ccc2[nH]5)C=C4)C=C3)cc1
REMARK SMILES IDX 22 1 21 2 2 3 1 4 3 5 4 6 18 7 20 8 19 9 5 10 6 11 7 13 8 14
REMARK SMILES IDX 9 15 17 16 10 17 11 18 12 19 13 20 16 21 14 22 15 23 23 24
REMARK SMILES IDX 24 25 25 26 26 27 27 28 28 29 80 30 29 31 79 32 30 33 31 34
REMARK SMILES IDX 32 35 73 36 33 37 78 38 72 39 74 40 34 41 77 42 71 43 70 44
REMARK SMILES IDX 35 46 61 47 44 48 60 49 45 50 48 51 59 52 75 53 46 54 47 55
REMARK SMILES IDX 58 57 76 58 49 59 36 60 37 61 42 62 38 63 39 64 41 65 43 66
REMARK SMILES IDX 40 67 62 68 63 69 68 70 64 71 65 72 67 73 69 74 66 75 50 76
REMARK SMILES IDX 51 77 56 78 52 79 53 80 55 81 57 82 54 83
REMARK H PARENT 5 12 74 45 48 56
REMARK Flexibility Score: inf
ROOT
ATOM      1  C   UNL A   1      35.330  22.905  23.865  1.00  0.00     0.274 C 
ENDROOT
BRANCH   1   2
ATOM      2  O   UNL A   1      35.328  24.242  24.431  1.00  0.00    -0.462 OA
BRANCH   2   3
ATOM      3  C   UNL A   1      34.490  24.613  25.441  1.00  0.00     0.308 C 
ATOM      4  O   UNL A   1      34.484  24.014  26.510  1.00  0.00    -0.252 OA
BRANCH   3   5
ATOM      5  C   UNL A   1      33.520  25.703  25.095  1.00  0.00     0.151 C 
BRANCH   5   6
ATOM      6  C   UNL A   1      32.313  25.950  25.992  1.00  0.00     0.051 C 
ATOM      7  C   UNL A   1      32.386  27.264  26.851  1.00  0.00     0.029 C 
ATOM      8  C   UNL A   1      31.184  26.702  25.181  1.00  0.00     0.029 C 
ATOM      9  C   UNL A   1      31.796  28.035  25.659  1.00  0.00     0.005 C 
BRANCH   6  10
ATOM     10  N   UNL A   1      31.713  24.828  26.777  1.00  0.00    -0.345 N 
ATOM     11  C   UNL A   1      31.088  23.633  26.480  1.00  0.00     0.271 C 
ATOM     12  H   UNL A   1      31.781  24.978  27.747  1.00  0.00     0.164 HD
ATOM     13  O   UNL A   1      30.197  23.272  27.251  1.00  0.00    -0.267 OA
BRANCH  11  14
ATOM     14  C   UNL A   1      31.443  22.819  25.322  1.00  0.00     0.139 A 
ATOM     15  C   UNL A   1      31.182  23.208  24.018  1.00  0.00     0.101 A 
ATOM     16  N   UNL A   1      31.969  21.538  25.423  1.00  0.00    -0.231 NA
ATOM     17  S   UNL A   1      31.826  22.067  22.914  1.00  0.00    -0.122 S 
ATOM     18  C   UNL A   1      32.244  21.052  24.231  1.00  0.00     0.125 A 
BRANCH  18  19
ATOM     19  C   UNL A   1      32.889  19.706  24.091  1.00  0.00     0.021 A 
ATOM     20  C   UNL A   1      34.142  19.367  24.685  1.00  0.00     0.023 A 
ATOM     21  C   UNL A   1      32.365  18.658  23.365  1.00  0.00     0.076 A 
ATOM     22  C   UNL A   1      34.511  18.067  24.418  1.00  0.00     0.065 A 
ATOM     23  S   UNL A   1      33.381  17.278  23.406  1.00  0.00    -0.152 S 
ENDBRANCH  18  19
ENDBRANCH  11  14
ENDBRANCH   6  10
ENDBRANCH   5   6
ENDBRANCH   3   5
ENDBRANCH   2   3
ENDBRANCH   1   2
BRANCH   1  24
ATOM     24  C   UNL A   1      36.670  22.183  24.042  1.00  0.00     0.275 C 
BRANCH  24  25
ATOM     25  O   UNL A   1      36.939  21.883  25.427  1.00  0.00    -0.458 OA
BRANCH  25  26
ATOM     26  C   UNL A   1      38.243  21.632  25.698  1.00  0.00     0.338 C 
ATOM     27  O   UNL A   1      38.855  20.613  25.394  1.00  0.00    -0.246 OA
BRANCH  26  28
ATOM     28  C   UNL A   1      38.878  22.742  26.449  1.00  0.00     0.060 A 
ATOM     29  C   UNL A   1      38.423  24.054  26.346  1.00  0.00     0.016 A 
ATOM     30  C   UNL A   1      40.040  22.491  27.178  1.00  0.00     0.016 A 
ATOM     31  C   UNL A   1      39.154  25.119  26.874  1.00  0.00     0.010 A 
ATOM     32  C   UNL A   1      40.743  23.552  27.765  1.00  0.00     0.010 A 
ATOM     33  C   UNL A   1      40.335  24.886  27.576  1.00  0.00    -0.014 A 
BRANCH  33  34
ATOM     34  C   UNL A   1      41.228  26.003  27.990  1.00  0.00     0.031 A 
ATOM     35  C   UNL A   1      40.674  27.068  28.897  1.00  0.00     0.074 A 
ATOM     36  C   UNL A   1      42.520  26.090  27.618  1.00  0.00     0.049 A 
ATOM     37  N   UNL A   1      41.076  28.297  29.082  1.00  0.00    -0.248 NA
ATOM     38  C   UNL A   1      39.492  26.691  29.691  1.00  0.00     0.031 C 
ATOM     39  C   UNL A   1      43.271  25.079  26.878  1.00  0.00     0.029 A 
ATOM     40  N   UNL A   1      43.430  27.103  27.816  1.00  0.00    -0.354 N 
ATOM     41  C   UNL A   1      40.137  28.873  29.928  1.00  0.00     0.074 A 
ATOM     42  C   UNL A   1      39.172  27.846  30.257  1.00  0.00     0.031 C 
ATOM     43  C   UNL A   1      44.531  25.512  26.701  1.00  0.00     0.029 A 
ATOM     44  C   UNL A   1      44.638  26.877  27.204  1.00  0.00     0.049 A 
ATOM     45  H   UNL A   1      43.234  27.910  28.346  1.00  0.00     0.167 HD
ATOM     46  C   UNL A   1      40.075  30.156  30.359  1.00  0.00     0.037 A 
ATOM     47  C   UNL A   1      45.683  27.702  26.995  1.00  0.00     0.037 A 
ATOM     48  C   UNL A   1      41.087  31.142  30.090  1.00  0.00     0.049 A 
ATOM     49  C   UNL A   1      45.592  29.136  27.436  1.00  0.00     0.074 A 
ATOM     50  C   UNL A   1      41.111  32.480  30.441  1.00  0.00     0.029 A 
ATOM     51  N   UNL A   1      42.278  30.878  29.431  1.00  0.00    -0.354 N 
ATOM     52  N   UNL A   1      44.618  29.744  28.070  1.00  0.00    -0.248 NA
ATOM     53  C   UNL A   1      46.723  30.010  27.094  1.00  0.00     0.031 C 
ATOM     54  C   UNL A   1      42.312  33.031  29.975  1.00  0.00     0.029 A 
ATOM     55  C   UNL A   1      43.047  32.027  29.364  1.00  0.00     0.049 A 
ATOM     56  H   UNL A   1      42.539  30.003  29.062  1.00  0.00     0.167 HD
ATOM     57  C   UNL A   1      45.018  31.068  28.202  1.00  0.00     0.074 A 
ATOM     58  C   UNL A   1      46.330  31.171  27.598  1.00  0.00     0.031 C 
ATOM     59  C   UNL A   1      44.353  32.106  28.765  1.00  0.00     0.037 A 
BRANCH  46  60
ATOM     60  C   UNL A   1      38.836  30.574  31.090  1.00  0.00     0.057 A 
ATOM     61  C   UNL A   1      38.718  30.506  32.482  1.00  0.00     0.134 A 
ATOM     62  C   UNL A   1      37.732  31.051  30.369  1.00  0.00     0.134 A 
ATOM     63  F   UNL A   1      39.729  30.035  33.227  1.00  0.00    -0.206 F 
ATOM     64  C   UNL A   1      37.537  30.874  33.131  1.00  0.00     0.040 A 
ATOM     65  C   UNL A   1      36.556  31.445  31.007  1.00  0.00     0.040 A 
ATOM     66  F   UNL A   1      37.780  31.141  29.031  1.00  0.00    -0.206 F 
ATOM     67  C   UNL A   1      36.454  31.350  32.393  1.00  0.00     0.006 A 
ENDBRANCH  46  60
BRANCH  47  68
ATOM     68  C   UNL A   1      46.866  27.209  26.245  1.00  0.00     0.057 A 
ATOM     69  C   UNL A   1      46.947  27.331  24.854  1.00  0.00     0.134 A 
ATOM     70  C   UNL A   1      47.955  26.627  26.906  1.00  0.00     0.134 A 
ATOM     71  F   UNL A   1      45.923  27.852  24.162  1.00  0.00    -0.206 F 
ATOM     72  C   UNL A   1      48.072  26.902  24.148  1.00  0.00     0.040 A 
ATOM     73  C   UNL A   1      49.098  26.217  26.216  1.00  0.00     0.040 A 
ATOM     74  F   UNL A   1      47.938  26.476  28.238  1.00  0.00    -0.206 F 
ATOM     75  C   UNL A   1      49.157  26.354  24.832  1.00  0.00     0.006 A 
ENDBRANCH  47  68
BRANCH  59  76
ATOM     76  C   UNL A   1      45.044  33.435  28.780  1.00  0.00     0.057 A 
ATOM     77  C   UNL A   1      44.838  34.381  27.769  1.00  0.00     0.134 A 
ATOM     78  C   UNL A   1      45.879  33.791  29.845  1.00  0.00     0.134 A 
ATOM     79  F   UNL A   1      44.057  34.093  26.717  1.00  0.00    -0.206 F 
ATOM     80  C   UNL A   1      45.451  35.635  27.811  1.00  0.00     0.040 A 
ATOM     81  C   UNL A   1      46.483  35.047  29.907  1.00  0.00     0.040 A 
ATOM     82  F   UNL A   1      46.109  32.929  30.847  1.00  0.00    -0.206 F 
ATOM     83  C   UNL A   1      46.271  35.972  28.888  1.00  0.00     0.006 A 
ENDBRANCH  59  76
ENDBRANCH  33  34
ENDBRANCH  26  28
ENDBRANCH  25  26
ENDBRANCH  24  25
ENDBRANCH   1  24
TORSDOF 15
ENDMDL
MODEL 3
REMARK VINA RESULT:     -11.4      3.889      8.400
REMARK SMILES O=C(CC1(NC(=O)c2csc(-c3ccsc3)n2)CCC1)OCCOC(=O)c1ccc(-c2c3nc(c(-c4c(F)cccc4F)c4ccc([nH]4)c(-c4c(F)cccc4F)c4nc(c(-c5c(F)cccc5F)c5ccc2[nH]5)C=C4)C=C3)cc1
REMARK SMILES IDX 22 1 21 2 2 3 1 4 3 5 4 6 18 7 20 8 19 9 5 10 6 11 7 13 8 14
REMARK SMILES IDX 9 15 17 16 10 17 11 18 12 19 13 20 16 21 14 22 15 23 23 24
REMARK SMILES IDX 24 25 25 26 26 27 27 28 28 29 80 30 29 31 79 32 30 33 31 34
REMARK SMILES IDX 32 35 73 36 33 37 78 38 72 39 74 40 34 41 77 42 71 43 70 44
REMARK SMILES IDX 35 46 61 47 44 48 60 49 45 50 48 51 59 52 75 53 46 54 47 55
REMARK SMILES IDX 58 57 76 58 49 59 36 60 37 61 42 62 38 63 39 64 41 65 43 66
REMARK SMILES IDX 40 67 62 68 63 69 68 70 64 71 65 72 67 73 69 74 66 75 50 76
REMARK SMILES IDX 51 77 56 78 52 79 53 80 55 81 57 82 54 83
REMARK H PARENT 5 12 74 45 48 56
REMARK Flexibility Score: inf
ROOT
ATOM      1  C   UNL A   1      35.196  21.336  26.177  1.00  0.00     0.274 C 
ENDROOT
BRANCH   1   2
ATOM      2  O   UNL A   1      34.985  22.747  26.445  1.00  0.00    -0.462 OA
BRANCH   2   3
ATOM      3  C   UNL A   1      33.749  23.322  26.434  1.00  0.00     0.308 C 
ATOM      4  O   UNL A   1      33.057  23.350  27.445  1.00  0.00    -0.252 OA
BRANCH   3   5
ATOM      5  C   UNL A   1      33.275  23.789  25.091  1.00  0.00     0.151 C 
BRANCH   5   6
ATOM      6  C   UNL A   1      31.900  23.366  24.587  1.00  0.00     0.051 C 
ATOM      7  C   UNL A   1      31.740  23.362  23.024  1.00  0.00     0.029 C 
ATOM      8  C   UNL A   1      31.831  21.792  24.466  1.00  0.00     0.029 C 
ATOM      9  C   UNL A   1      32.307  21.933  23.005  1.00  0.00     0.005 C 
BRANCH   6  10
ATOM     10  N   UNL A   1      30.663  23.879  25.252  1.00  0.00    -0.345 N 
ATOM     11  C   UNL A   1      30.305  25.028  25.930  1.00  0.00     0.271 C 
ATOM     12  H   UNL A   1      29.918  23.238  25.192  1.00  0.00     0.164 HD
ATOM     13  O   UNL A   1      29.494  24.894  26.849  1.00  0.00    -0.267 OA
BRANCH  11  14
ATOM     14  C   UNL A   1      30.839  26.344  25.596  1.00  0.00     0.139 A 
ATOM     15  C   UNL A   1      30.505  27.022  24.434  1.00  0.00     0.101 A 
ATOM     16  N   UNL A   1      31.812  26.985  26.351  1.00  0.00    -0.231 NA
ATOM     17  S   UNL A   1      31.229  28.574  24.420  1.00  0.00    -0.122 S 
ATOM     18  C   UNL A   1      32.076  28.176  25.857  1.00  0.00     0.125 A 
BRANCH  18  19
ATOM     19  C   UNL A   1      33.045  29.087  26.548  1.00  0.00     0.021 A 
ATOM     20  C   UNL A   1      34.374  28.702  26.903  1.00  0.00     0.023 A 
ATOM     21  C   UNL A   1      32.766  30.381  26.933  1.00  0.00     0.076 A 
ATOM     22  C   UNL A   1      35.065  29.722  27.516  1.00  0.00     0.065 A 
ATOM     23  S   UNL A   1      34.100  31.120  27.715  1.00  0.00    -0.152 S 
ENDBRANCH  18  19
ENDBRANCH  11  14
ENDBRANCH   6  10
ENDBRANCH   5   6
ENDBRANCH   3   5
ENDBRANCH   2   3
ENDBRANCH   1   2
BRANCH   1  24
ATOM     24  C   UNL A   1      35.867  21.078  24.823  1.00  0.00     0.275 C 
BRANCH  24  25
ATOM     25  O   UNL A   1      37.059  21.873  24.655  1.00  0.00    -0.458 OA
BRANCH  25  26
ATOM     26  C   UNL A   1      38.128  21.428  25.361  1.00  0.00     0.338 C 
ATOM     27  O   UNL A   1      38.543  20.274  25.383  1.00  0.00    -0.246 OA
BRANCH  26  28
ATOM     28  C   UNL A   1      38.756  22.511  26.156  1.00  0.00     0.060 A 
ATOM     29  C   UNL A   1      38.313  23.829  26.082  1.00  0.00     0.016 A 
ATOM     30  C   UNL A   1      39.903  22.230  26.899  1.00  0.00     0.016 A 
ATOM     31  C   UNL A   1      39.042  24.873  26.655  1.00  0.00     0.010 A 
ATOM     32  C   UNL A   1      40.603  23.267  27.529  1.00  0.00     0.010 A 
ATOM     33  C   UNL A   1      40.208  24.609  27.371  1.00  0.00    -0.014 A 
BRANCH  33  34
ATOM     34  C   UNL A   1      41.102  25.707  27.834  1.00  0.00     0.031 A 
ATOM     35  C   UNL A   1      40.532  26.762  28.743  1.00  0.00     0.074 A 
ATOM     36  C   UNL A   1      42.406  25.784  27.505  1.00  0.00     0.049 A 
ATOM     37  N   UNL A   1      40.944  27.982  28.964  1.00  0.00    -0.248 NA
ATOM     38  C   UNL A   1      39.321  26.387  29.492  1.00  0.00     0.031 C 
ATOM     39  C   UNL A   1      43.168  24.776  26.771  1.00  0.00     0.029 A 
ATOM     40  N   UNL A   1      43.322  26.780  27.751  1.00  0.00    -0.354 N 
ATOM     41  C   UNL A   1      39.986  28.556  29.790  1.00  0.00     0.074 A 
ATOM     42  C   UNL A   1      38.998  27.536  30.069  1.00  0.00     0.031 C 
ATOM     43  C   UNL A   1      44.437  25.195  26.643  1.00  0.00     0.029 A 
ATOM     44  C   UNL A   1      44.546  26.550  27.174  1.00  0.00     0.049 A 
ATOM     45  H   UNL A   1      43.119  27.580  28.289  1.00  0.00     0.167 HD
ATOM     46  C   UNL A   1      39.927  29.831  30.243  1.00  0.00     0.037 A 
ATOM     47  C   UNL A   1      45.607  27.364  27.013  1.00  0.00     0.037 A 
ATOM     48  C   UNL A   1      40.959  30.808  30.025  1.00  0.00     0.049 A 
ATOM     49  C   UNL A   1      45.521  28.791  27.478  1.00  0.00     0.074 A 
ATOM     50  C   UNL A   1      40.989  32.139  30.401  1.00  0.00     0.029 A 
ATOM     51  N   UNL A   1      42.167  30.541  29.399  1.00  0.00    -0.354 N 
ATOM     52  N   UNL A   1      44.535  29.400  28.092  1.00  0.00    -0.248 NA
ATOM     53  C   UNL A   1      46.674  29.655  27.188  1.00  0.00     0.031 C 
ATOM     54  C   UNL A   1      42.211  32.682  29.984  1.00  0.00     0.029 A 
ATOM     55  C   UNL A   1      42.952  31.680  29.378  1.00  0.00     0.049 A 
ATOM     56  H   UNL A   1      42.429  29.669  29.022  1.00  0.00     0.167 HD
ATOM     57  C   UNL A   1      44.947  30.716  28.262  1.00  0.00     0.074 A 
ATOM     58  C   UNL A   1      46.280  30.813  27.702  1.00  0.00     0.031 C 
ATOM     59  C   UNL A   1      44.278  31.753  28.822  1.00  0.00     0.037 A 
BRANCH  46  60
ATOM     60  C   UNL A   1      38.670  30.252  30.942  1.00  0.00     0.057 A 
ATOM     61  C   UNL A   1      37.584  30.820  30.270  1.00  0.00     0.134 A 
ATOM     62  C   UNL A   1      38.558  30.087  32.330  1.00  0.00     0.134 A 
ATOM     63  F   UNL A   1      37.637  31.028  28.945  1.00  0.00    -0.206 F 
ATOM     64  C   UNL A   1      36.438  31.232  30.956  1.00  0.00     0.040 A 
ATOM     65  C   UNL A   1      37.411  30.471  33.023  1.00  0.00     0.040 A 
ATOM     66  F   UNL A   1      39.566  29.549  33.035  1.00  0.00    -0.206 F 
ATOM     67  C   UNL A   1      36.348  31.053  32.335  1.00  0.00     0.006 A 
ENDBRANCH  46  60
BRANCH  47  68
ATOM     68  C   UNL A   1      46.808  26.869  26.292  1.00  0.00     0.057 A 
ATOM     69  C   UNL A   1      46.940  27.026  24.909  1.00  0.00     0.134 A 
ATOM     70  C   UNL A   1      47.862  26.249  26.975  1.00  0.00     0.134 A 
ATOM     71  F   UNL A   1      45.951  27.584  24.196  1.00  0.00    -0.206 F 
ATOM     72  C   UNL A   1      48.082  26.595  24.231  1.00  0.00     0.040 A 
ATOM     73  C   UNL A   1      49.021  25.836  26.315  1.00  0.00     0.040 A 
ATOM     74  F   UNL A   1      47.795  26.063  28.301  1.00  0.00    -0.206 F 
ATOM     75  C   UNL A   1      49.132  26.009  24.938  1.00  0.00     0.006 A 
ENDBRANCH  47  68
BRANCH  59  76
ATOM     76  C   UNL A   1      44.985  33.072  28.884  1.00  0.00     0.057 A 
ATOM     77  C   UNL A   1      45.839  33.398  29.944  1.00  0.00     0.134 A 
ATOM     78  C   UNL A   1      44.851  34.000  27.845  1.00  0.00     0.134 A 
ATOM     79  F   UNL A   1      45.999  32.552  30.973  1.00  0.00    -0.206 F 
ATOM     80  C   UNL A   1      46.529  34.611  29.974  1.00  0.00     0.040 A 
ATOM     81  C   UNL A   1      45.549  35.208  27.856  1.00  0.00     0.040 A 
ATOM     82  F   UNL A   1      44.053  33.741  26.799  1.00  0.00    -0.206 F 
ATOM     83  C   UNL A   1      46.390  35.517  28.923  1.00  0.00     0.006 A 
ENDBRANCH  59  76
ENDBRANCH  33  34
ENDBRANCH  26  28
ENDBRANCH  25  26
ENDBRANCH  24  25
ENDBRANCH   1  24
TORSDOF 15
ENDMDL
