MODEL 1
REMARK VINA RESULT:     -10.5      0.000      0.000
REMARK SMILES CC(C)[C@@H](CCNC(=O)N1C[C@@H](C)[C@H](C)C1)CCC(=O)OCCOC(=O)c1ccc(-c2c3nc(c(-c4c(F)cccc4F)c4ccc([nH]4)c(-c4c(F)cccc4F)c4nc(c(-c5c(F)cccc5F)c5ccc2[nH]5)C=C4)C=C3)cc1
REMARK SMILES IDX 21 1 19 2 20 3 18 4 17 5 4 6 2 7 1 8 3 9 5 10 6 11 7 12 8 13
REMARK SMILES IDX 9 15 10 16 11 17 16 18 12 19 14 20 13 21 15 22 22 23 23 24
REMARK SMILES IDX 24 25 25 26 26 27 27 28 28 29 80 30 29 31 79 32 30 33 31 34
REMARK SMILES IDX 32 35 73 36 33 37 78 38 72 39 74 40 34 41 77 42 71 43 70 44
REMARK SMILES IDX 35 46 61 47 44 48 60 49 45 50 48 51 59 52 75 53 46 54 47 55
REMARK SMILES IDX 58 57 76 58 49 59 36 60 37 61 42 62 38 63 39 64 41 65 43 66
REMARK SMILES IDX 40 67 62 68 63 69 68 70 64 71 65 72 67 73 69 74 66 75 50 76
REMARK SMILES IDX 51 77 56 78 52 79 53 80 55 81 57 82 54 83
REMARK H PARENT 7 14 74 45 48 56
REMARK Flexibility Score: inf
ROOT
ATOM      1  O   UNL A   1      32.187  30.306  27.261  1.00  0.00    -0.462 OA
ENDROOT
BRANCH   1   2
ATOM      2  C   UNL A   1      33.163  29.549  26.711  1.00  0.00     0.305 C 
ATOM      3  O   UNL A   1      34.023  28.948  27.346  1.00  0.00    -0.252 OA
BRANCH   2   4
ATOM      4  C   UNL A   1      33.107  29.476  25.199  1.00  0.00     0.123 C 
BRANCH   4   5
ATOM      5  C   UNL A   1      32.585  28.215  24.513  1.00  0.00     0.015 C 
BRANCH   5   6
ATOM      6  C   UNL A   1      31.069  27.904  24.475  1.00  0.00    -0.006 C 
BRANCH   6   7
ATOM      7  C   UNL A   1      30.415  27.765  23.061  1.00  0.00    -0.014 C 
ATOM      8  C   UNL A   1      30.272  29.137  22.383  1.00  0.00     0.007 C 
ATOM      9  C   UNL A   1      31.181  26.862  22.089  1.00  0.00     0.007 C 
ENDBRANCH   6   7
BRANCH   6  10
ATOM     10  C   UNL A   1      30.787  26.670  25.398  1.00  0.00     0.025 C 
BRANCH  10  11
ATOM     11  C   UNL A   1      31.990  26.021  26.105  1.00  0.00     0.118 C 
BRANCH  11  12
ATOM     12  N   UNL A   1      31.600  24.967  27.023  1.00  0.00    -0.338 N 
ATOM     13  C   UNL A   1      31.322  23.665  26.773  1.00  0.00     0.317 C 
ATOM     14  H   UNL A   1      31.528  25.237  27.967  1.00  0.00     0.165 HD
ATOM     15  O   UNL A   1      30.461  23.129  27.472  1.00  0.00    -0.249 OA
ATOM     16  N   UNL A   1      32.004  22.998  25.799  1.00  0.00    -0.324 N 
ATOM     17  C   UNL A   1      31.568  21.688  25.359  1.00  0.00     0.125 C 
ATOM     18  C   UNL A   1      33.389  23.230  25.414  1.00  0.00     0.125 C 
ATOM     19  C   UNL A   1      32.845  20.857  25.326  1.00  0.00     0.010 C 
ATOM     20  C   UNL A   1      33.927  21.876  24.929  1.00  0.00     0.010 C 
ATOM     21  C   UNL A   1      32.747  19.690  24.352  1.00  0.00     0.010 C 
ATOM     22  C   UNL A   1      35.287  21.541  25.533  1.00  0.00     0.010 C 
ENDBRANCH  11  12
ENDBRANCH  10  11
ENDBRANCH   6  10
ENDBRANCH   5   6
ENDBRANCH   4   5
ENDBRANCH   2   4
ENDBRANCH   1   2
BRANCH   1  23
ATOM     23  C   UNL A   1      31.467  31.188  26.378  1.00  0.00     0.274 C 
BRANCH  23  24
ATOM     24  C   UNL A   1      31.504  32.619  26.910  1.00  0.00     0.275 C 
BRANCH  24  25
ATOM     25  O   UNL A   1      32.864  33.081  26.988  1.00  0.00    -0.458 OA
BRANCH  25  26
ATOM     26  C   UNL A   1      33.157  33.834  28.071  1.00  0.00     0.338 C 
ATOM     27  O   UNL A   1      32.492  34.735  28.565  1.00  0.00    -0.246 OA
BRANCH  26  28
ATOM     28  C   UNL A   1      34.386  33.316  28.676  1.00  0.00     0.060 A 
ATOM     29  C   UNL A   1      34.329  32.082  29.322  1.00  0.00     0.016 A 
ATOM     30  C   UNL A   1      35.567  34.054  28.661  1.00  0.00     0.016 A 
ATOM     31  C   UNL A   1      35.448  31.573  29.966  1.00  0.00     0.010 A 
ATOM     32  C   UNL A   1      36.706  33.525  29.275  1.00  0.00     0.010 A 
ATOM     33  C   UNL A   1      36.655  32.281  29.930  1.00  0.00    -0.014 A 
BRANCH  33  34
ATOM     34  C   UNL A   1      37.862  31.715  30.578  1.00  0.00     0.031 A 
ATOM     35  C   UNL A   1      38.708  30.717  29.847  1.00  0.00     0.074 A 
ATOM     36  C   UNL A   1      38.197  32.105  31.822  1.00  0.00     0.049 A 
ATOM     37  N   UNL A   1      39.687  29.975  30.299  1.00  0.00    -0.248 NA
ATOM     38  C   UNL A   1      38.412  30.523  28.420  1.00  0.00     0.031 C 
ATOM     39  C   UNL A   1      37.490  33.115  32.611  1.00  0.00     0.029 A 
ATOM     40  N   UNL A   1      39.216  31.694  32.644  1.00  0.00    -0.354 N 
ATOM     41  C   UNL A   1      40.097  29.197  29.224  1.00  0.00     0.074 A 
ATOM     42  C   UNL A   1      39.262  29.557  28.097  1.00  0.00     0.031 C 
ATOM     43  C   UNL A   1      38.105  33.257  33.795  1.00  0.00     0.029 A 
ATOM     44  C   UNL A   1      39.196  32.294  33.879  1.00  0.00     0.049 A 
ATOM     45  H   UNL A   1      39.894  31.033  32.374  1.00  0.00     0.167 HD
ATOM     46  C   UNL A   1      41.079  28.266  29.189  1.00  0.00     0.037 A 
ATOM     47  C   UNL A   1      39.941  32.057  34.975  1.00  0.00     0.037 A 
ATOM     48  C   UNL A   1      41.927  27.942  30.306  1.00  0.00     0.049 A 
ATOM     49  C   UNL A   1      40.971  30.966  34.935  1.00  0.00     0.074 A 
ATOM     50  C   UNL A   1      42.967  27.032  30.368  1.00  0.00     0.029 A 
ATOM     51  N   UNL A   1      41.832  28.528  31.561  1.00  0.00    -0.354 N 
ATOM     52  N   UNL A   1      41.319  30.199  33.931  1.00  0.00    -0.248 NA
ATOM     53  C   UNL A   1      41.686  30.686  36.188  1.00  0.00     0.031 C 
ATOM     54  C   UNL A   1      43.478  27.041  31.671  1.00  0.00     0.029 A 
ATOM     55  C   UNL A   1      42.777  27.980  32.412  1.00  0.00     0.049 A 
ATOM     56  H   UNL A   1      41.188  29.230  31.809  1.00  0.00     0.167 HD
ATOM     57  C   UNL A   1      42.290  29.341  34.429  1.00  0.00     0.074 A 
ATOM     58  C   UNL A   1      42.493  29.699  35.819  1.00  0.00     0.031 C 
ATOM     59  C   UNL A   1      42.948  28.340  33.795  1.00  0.00     0.037 A 
BRANCH  46  60
ATOM     60  C   UNL A   1      41.260  27.503  27.912  1.00  0.00     0.057 A 
ATOM     61  C   UNL A   1      42.078  27.969  26.876  1.00  0.00     0.134 A 
ATOM     62  C   UNL A   1      40.619  26.271  27.727  1.00  0.00     0.134 A 
ATOM     63  F   UNL A   1      42.709  29.147  26.986  1.00  0.00    -0.206 F 
ATOM     64  C   UNL A   1      42.237  27.245  25.692  1.00  0.00     0.040 A 
ATOM     65  C   UNL A   1      40.785  25.529  26.557  1.00  0.00     0.040 A 
ATOM     66  F   UNL A   1      39.823  25.768  28.683  1.00  0.00    -0.206 F 
ATOM     67  C   UNL A   1      41.592  26.019  25.533  1.00  0.00     0.006 A 
ENDBRANCH  46  60
BRANCH  47  68
ATOM     68  C   UNL A   1      39.690  32.829  36.217  1.00  0.00     0.057 A 
ATOM     69  C   UNL A   1      38.717  32.425  37.136  1.00  0.00     0.134 A 
ATOM     70  C   UNL A   1      40.431  33.978  36.523  1.00  0.00     0.134 A 
ATOM     71  F   UNL A   1      37.959  31.347  36.886  1.00  0.00    -0.206 F 
ATOM     72  C   UNL A   1      38.490  33.134  38.317  1.00  0.00     0.040 A 
ATOM     73  C   UNL A   1      40.231  34.683  37.710  1.00  0.00     0.040 A 
ATOM     74  F   UNL A   1      41.378  34.417  35.680  1.00  0.00    -0.206 F 
ATOM     75  C   UNL A   1      39.255  34.262  38.611  1.00  0.00     0.006 A 
ENDBRANCH  47  68
BRANCH  59  76
ATOM     76  C   UNL A   1      43.939  27.564  34.606  1.00  0.00     0.057 A 
ATOM     77  C   UNL A   1      43.583  26.367  35.239  1.00  0.00     0.134 A 
ATOM     78  C   UNL A   1      45.263  27.997  34.730  1.00  0.00     0.134 A 
ATOM     79  F   UNL A   1      42.323  25.908  35.169  1.00  0.00    -0.206 F 
ATOM     80  C   UNL A   1      44.509  25.632  35.980  1.00  0.00     0.040 A 
ATOM     81  C   UNL A   1      46.203  27.264  35.452  1.00  0.00     0.040 A 
ATOM     82  F   UNL A   1      45.665  29.135  34.144  1.00  0.00    -0.206 F 
ATOM     83  C   UNL A   1      45.827  26.078  36.082  1.00  0.00     0.006 A 
ENDBRANCH  59  76
ENDBRANCH  33  34
ENDBRANCH  26  28
ENDBRANCH  25  26
ENDBRANCH  24  25
ENDBRANCH  23  24
ENDBRANCH   1  23
TORSDOF 17
ENDMDL
MODEL 2
REMARK VINA RESULT:     -10.3      1.487      2.197
REMARK SMILES CC(C)[C@@H](CCNC(=O)N1C[C@@H](C)[C@H](C)C1)CCC(=O)OCCOC(=O)c1ccc(-c2c3nc(c(-c4c(F)cccc4F)c4ccc([nH]4)c(-c4c(F)cccc4F)c4nc(c(-c5c(F)cccc5F)c5ccc2[nH]5)C=C4)C=C3)cc1
REMARK SMILES IDX 21 1 19 2 20 3 18 4 17 5 4 6 2 7 1 8 3 9 5 10 6 11 7 12 8 13
REMARK SMILES IDX 9 15 10 16 11 17 16 18 12 19 14 20 13 21 15 22 22 23 23 24
REMARK SMILES IDX 24 25 25 26 26 27 27 28 28 29 80 30 29 31 79 32 30 33 31 34
REMARK SMILES IDX 32 35 73 36 33 37 78 38 72 39 74 40 34 41 77 42 71 43 70 44
REMARK SMILES IDX 35 46 61 47 44 48 60 49 45 50 48 51 59 52 75 53 46 54 47 55
REMARK SMILES IDX 58 57 76 58 49 59 36 60 37 61 42 62 38 63 39 64 41 65 43 66
REMARK SMILES IDX 40 67 62 68 63 69 68 70 64 71 65 72 67 73 69 74 66 75 50 76
REMARK SMILES IDX 51 77 56 78 52 79 53 80 55 81 57 82 54 83
REMARK H PARENT 7 14 74 45 48 56
REMARK Flexibility Score: inf
ROOT
ATOM      1  O   UNL A   1      30.258  28.664  24.177  1.00  0.00    -0.462 OA
ENDROOT
BRANCH   1   2
ATOM      2  C   UNL A   1      30.180  27.730  23.203  1.00  0.00     0.305 C 
ATOM      3  O   UNL A   1      30.231  27.968  22.001  1.00  0.00    -0.252 OA
BRANCH   2   4
ATOM      4  C   UNL A   1      30.038  26.313  23.719  1.00  0.00     0.123 C 
BRANCH   4   5
ATOM      5  C   UNL A   1      30.893  25.194  23.126  1.00  0.00     0.015 C 
BRANCH   5   6
ATOM      6  C   UNL A   1      32.431  25.194  23.305  1.00  0.00    -0.006 C 
BRANCH   6   7
ATOM      7  C   UNL A   1      33.277  25.747  22.111  1.00  0.00    -0.014 C 
ATOM      8  C   UNL A   1      32.527  25.577  20.779  1.00  0.00     0.007 C 
ATOM      9  C   UNL A   1      33.654  27.228  22.227  1.00  0.00     0.007 C 
ENDBRANCH   6   7
BRANCH   6  10
ATOM     10  C   UNL A   1      32.777  25.887  24.666  1.00  0.00     0.025 C 
BRANCH  10  11
ATOM     11  C   UNL A   1      33.898  25.263  25.517  1.00  0.00     0.118 C 
BRANCH  11  12
ATOM     12  N   UNL A   1      33.390  24.439  26.597  1.00  0.00    -0.338 N 
ATOM     13  C   UNL A   1      32.717  23.264  26.542  1.00  0.00     0.317 C 
ATOM     14  H   UNL A   1      33.559  24.782  27.504  1.00  0.00     0.165 HD
ATOM     15  O   UNL A   1      31.873  23.057  27.414  1.00  0.00    -0.249 OA
ATOM     16  N   UNL A   1      33.007  22.359  25.564  1.00  0.00    -0.324 N 
ATOM     17  C   UNL A   1      32.152  21.210  25.346  1.00  0.00     0.125 C 
ATOM     18  C   UNL A   1      34.315  22.143  24.961  1.00  0.00     0.125 C 
ATOM     19  C   UNL A   1      33.117  20.037  25.227  1.00  0.00     0.010 C 
ATOM     20  C   UNL A   1      34.359  20.660  24.564  1.00  0.00     0.010 C 
ATOM     21  C   UNL A   1      32.531  18.888  24.419  1.00  0.00     0.010 C 
ATOM     22  C   UNL A   1      35.652  19.978  25.001  1.00  0.00     0.010 C 
ENDBRANCH  11  12
ENDBRANCH  10  11
ENDBRANCH   6  10
ENDBRANCH   5   6
ENDBRANCH   4   5
ENDBRANCH   2   4
ENDBRANCH   1   2
BRANCH   1  23
ATOM     23  C   UNL A   1      31.524  29.332  24.343  1.00  0.00     0.274 C 
BRANCH  23  24
ATOM     24  C   UNL A   1      31.403  30.452  25.375  1.00  0.00     0.275 C 
BRANCH  24  25
ATOM     25  O   UNL A   1      32.452  30.338  26.353  1.00  0.00    -0.458 OA
BRANCH  25  26
ATOM     26  C   UNL A   1      32.830  31.499  26.931  1.00  0.00     0.338 C 
ATOM     27  O   UNL A   1      32.215  32.556  26.972  1.00  0.00    -0.246 OA
BRANCH  26  28
ATOM     28  C   UNL A   1      34.090  31.273  27.643  1.00  0.00     0.060 A 
ATOM     29  C   UNL A   1      34.412  29.967  28.007  1.00  0.00     0.016 A 
ATOM     30  C   UNL A   1      34.919  32.334  28.000  1.00  0.00     0.016 A 
ATOM     31  C   UNL A   1      35.563  29.704  28.737  1.00  0.00     0.010 A 
ATOM     32  C   UNL A   1      36.099  32.067  28.702  1.00  0.00     0.010 A 
ATOM     33  C   UNL A   1      36.429  30.750  29.074  1.00  0.00    -0.014 A 
BRANCH  33  34
ATOM     34  C   UNL A   1      37.681  30.463  29.813  1.00  0.00     0.031 A 
ATOM     35  C   UNL A   1      38.751  29.626  29.180  1.00  0.00     0.074 A 
ATOM     36  C   UNL A   1      37.854  30.960  31.052  1.00  0.00     0.049 A 
ATOM     37  N   UNL A   1      39.828  29.114  29.721  1.00  0.00    -0.248 NA
ATOM     38  C   UNL A   1      38.589  29.320  27.750  1.00  0.00     0.031 C 
ATOM     39  C   UNL A   1      36.914  31.840  31.749  1.00  0.00     0.029 A 
ATOM     40  N   UNL A   1      38.881  30.794  31.946  1.00  0.00    -0.354 N 
ATOM     41  C   UNL A   1      40.448  28.391  28.710  1.00  0.00     0.074 A 
ATOM     42  C   UNL A   1      39.631  28.532  27.524  1.00  0.00     0.031 C 
ATOM     43  C   UNL A   1      37.414  32.148  32.955  1.00  0.00     0.029 A 
ATOM     44  C   UNL A   1      38.667  31.426  33.146  1.00  0.00     0.049 A 
ATOM     45  H   UNL A   1      39.692  30.272  31.747  1.00  0.00     0.167 HD
ATOM     46  C   UNL A   1      41.595  27.674  28.776  1.00  0.00     0.037 A 
ATOM     47  C   UNL A   1      39.373  31.387  34.291  1.00  0.00     0.037 A 
ATOM     48  C   UNL A   1      42.419  27.571  29.951  1.00  0.00     0.049 A 
ATOM     49  C   UNL A   1      40.599  30.523  34.362  1.00  0.00     0.074 A 
ATOM     50  C   UNL A   1      43.612  26.890  30.115  1.00  0.00     0.029 A 
ATOM     51  N   UNL A   1      42.132  28.175  31.167  1.00  0.00    -0.354 N 
ATOM     52  N   UNL A   1      41.153  29.801  33.419  1.00  0.00    -0.248 NA
ATOM     53  C   UNL A   1      41.276  30.441  35.664  1.00  0.00     0.031 C 
ATOM     54  C   UNL A   1      44.029  27.052  31.441  1.00  0.00     0.029 A 
ATOM     55  C   UNL A   1      43.112  27.860  32.094  1.00  0.00     0.049 A 
ATOM     56  H   UNL A   1      41.349  28.744  31.345  1.00  0.00     0.167 HD
ATOM     57  C   UNL A   1      42.241  29.175  34.011  1.00  0.00     0.074 A 
ATOM     58  C   UNL A   1      42.283  29.622  35.389  1.00  0.00     0.031 C 
ATOM     59  C   UNL A   1      43.122  28.302  33.464  1.00  0.00     0.037 A 
BRANCH  46  60
ATOM     60  C   UNL A   1      42.002  26.913  27.550  1.00  0.00     0.057 A 
ATOM     61  C   UNL A   1      41.654  25.571  27.358  1.00  0.00     0.134 A 
ATOM     62  C   UNL A   1      42.736  27.544  26.537  1.00  0.00     0.134 A 
ATOM     63  F   UNL A   1      40.963  24.907  28.296  1.00  0.00    -0.206 F 
ATOM     64  C   UNL A   1      42.040  24.876  26.209  1.00  0.00     0.040 A 
ATOM     65  C   UNL A   1      43.111  26.866  25.376  1.00  0.00     0.040 A 
ATOM     66  F   UNL A   1      43.099  28.829  26.659  1.00  0.00    -0.206 F 
ATOM     67  C   UNL A   1      42.767  25.526  25.213  1.00  0.00     0.006 A 
ENDBRANCH  46  60
BRANCH  47  68
ATOM     68  C   UNL A   1      38.898  32.141  35.477  1.00  0.00     0.057 A 
ATOM     69  C   UNL A   1      38.153  31.516  36.481  1.00  0.00     0.134 A 
ATOM     70  C   UNL A   1      39.195  33.501  35.642  1.00  0.00     0.134 A 
ATOM     71  F   UNL A   1      37.817  30.223  36.367  1.00  0.00    -0.206 F 
ATOM     72  C   UNL A   1      37.721  32.214  37.610  1.00  0.00     0.040 A 
ATOM     73  C   UNL A   1      38.790  34.205  36.776  1.00  0.00     0.040 A 
ATOM     74  F   UNL A   1      39.905  34.157  34.712  1.00  0.00    -0.206 F 
ATOM     75  C   UNL A   1      38.047  33.561  37.764  1.00  0.00     0.006 A 
ENDBRANCH  47  68
BRANCH  59  76
ATOM     76  C   UNL A   1      44.194  27.772  34.365  1.00  0.00     0.057 A 
ATOM     77  C   UNL A   1      44.039  26.557  35.045  1.00  0.00     0.134 A 
ATOM     78  C   UNL A   1      45.399  28.462  34.531  1.00  0.00     0.134 A 
ATOM     79  F   UNL A   1      42.898  25.858  34.938  1.00  0.00    -0.206 F 
ATOM     80  C   UNL A   1      45.044  26.053  35.870  1.00  0.00     0.040 A 
ATOM     81  C   UNL A   1      46.419  27.960  35.339  1.00  0.00     0.040 A 
ATOM     82  F   UNL A   1      45.608  29.629  33.904  1.00  0.00    -0.206 F 
ATOM     83  C   UNL A   1      46.242  26.752  36.014  1.00  0.00     0.006 A 
ENDBRANCH  59  76
ENDBRANCH  33  34
ENDBRANCH  26  28
ENDBRANCH  25  26
ENDBRANCH  24  25
ENDBRANCH  23  24
ENDBRANCH   1  23
TORSDOF 17
ENDMDL
MODEL 3
REMARK VINA RESULT:     -10.3      4.392      7.269
REMARK SMILES CC(C)[C@@H](CCNC(=O)N1C[C@@H](C)[C@H](C)C1)CCC(=O)OCCOC(=O)c1ccc(-c2c3nc(c(-c4c(F)cccc4F)c4ccc([nH]4)c(-c4c(F)cccc4F)c4nc(c(-c5c(F)cccc5F)c5ccc2[nH]5)C=C4)C=C3)cc1
REMARK SMILES IDX 21 1 19 2 20 3 18 4 17 5 4 6 2 7 1 8 3 9 5 10 6 11 7 12 8 13
REMARK SMILES IDX 9 15 10 16 11 17 16 18 12 19 14 20 13 21 15 22 22 23 23 24
REMARK SMILES IDX 24 25 25 26 26 27 27 28 28 29 80 30 29 31 79 32 30 33 31 34
REMARK SMILES IDX 32 35 73 36 33 37 78 38 72 39 74 40 34 41 77 42 71 43 70 44
REMARK SMILES IDX 35 46 61 47 44 48 60 49 45 50 48 51 59 52 75 53 46 54 47 55
REMARK SMILES IDX 58 57 76 58 49 59 36 60 37 61 42 62 38 63 39 64 41 65 43 66
REMARK SMILES IDX 40 67 62 68 63 69 68 70 64 71 65 72 67 73 69 74 66 75 50 76
REMARK SMILES IDX 51 77 56 78 52 79 53 80 55 81 57 82 54 83
REMARK H PARENT 7 14 74 45 48 56
REMARK Flexibility Score: inf
ROOT
ATOM      1  O   UNL A   1      34.709  33.486  30.906  1.00  0.00    -0.462 OA
ENDROOT
BRANCH   1   2
ATOM      2  C   UNL A   1      34.432  34.267  29.837  1.00  0.00     0.305 C 
ATOM      3  O   UNL A   1      33.813  35.324  29.886  1.00  0.00    -0.252 OA
BRANCH   2   4
ATOM      4  C   UNL A   1      34.976  33.733  28.528  1.00  0.00     0.123 C 
BRANCH   4   5
ATOM      5  C   UNL A   1      35.916  32.529  28.526  1.00  0.00     0.015 C 
BRANCH   5   6
ATOM      6  C   UNL A   1      35.608  31.285  27.657  1.00  0.00    -0.006 C 
BRANCH   6   7
ATOM      7  C   UNL A   1      36.237  29.930  28.121  1.00  0.00    -0.014 C 
ATOM      8  C   UNL A   1      37.689  29.801  27.632  1.00  0.00     0.007 C 
ATOM      9  C   UNL A   1      36.254  29.719  29.638  1.00  0.00     0.007 C 
ENDBRANCH   6   7
BRANCH   6  10
ATOM     10  C   UNL A   1      34.059  31.194  27.445  1.00  0.00     0.025 C 
BRANCH  10  11
ATOM     11  C   UNL A   1      33.513  29.954  26.714  1.00  0.00     0.118 C 
BRANCH  11  12
ATOM     12  N   UNL A   1      32.772  29.066  27.591  1.00  0.00    -0.338 N 
ATOM     13  C   UNL A   1      31.997  27.999  27.282  1.00  0.00     0.317 C 
ATOM     14  H   UNL A   1      32.842  29.269  28.552  1.00  0.00     0.165 HD
ATOM     15  O   UNL A   1      31.019  27.786  27.999  1.00  0.00    -0.249 OA
ATOM     16  N   UNL A   1      32.331  27.197  26.231  1.00  0.00    -0.324 N 
ATOM     17  C   UNL A   1      31.402  26.198  25.742  1.00  0.00     0.125 C 
ATOM     18  C   UNL A   1      33.683  26.902  25.777  1.00  0.00     0.125 C 
ATOM     19  C   UNL A   1      32.249  24.941  25.582  1.00  0.00     0.010 C 
ATOM     20  C   UNL A   1      33.631  25.487  25.181  1.00  0.00     0.010 C 
ATOM     21  C   UNL A   1      31.670  23.984  24.549  1.00  0.00     0.010 C 
ATOM     22  C   UNL A   1      34.770  24.604  25.680  1.00  0.00     0.010 C 
ENDBRANCH  11  12
ENDBRANCH  10  11
ENDBRANCH   6  10
ENDBRANCH   5   6
ENDBRANCH   4   5
ENDBRANCH   2   4
ENDBRANCH   1   2
BRANCH   1  23
ATOM     23  C   UNL A   1      34.432  34.037  32.208  1.00  0.00     0.274 C 
BRANCH  23  24
ATOM     24  C   UNL A   1      34.969  33.114  33.300  1.00  0.00     0.275 C 
BRANCH  24  25
ATOM     25  O   UNL A   1      35.855  32.135  32.728  1.00  0.00    -0.458 OA
BRANCH  25  26
ATOM     26  C   UNL A   1      37.006  31.932  33.406  1.00  0.00     0.338 C 
ATOM     27  O   UNL A   1      37.181  31.957  34.617  1.00  0.00    -0.246 OA
BRANCH  26  28
ATOM     28  C   UNL A   1      38.043  31.538  32.451  1.00  0.00     0.060 A 
ATOM     29  C   UNL A   1      38.967  30.572  32.848  1.00  0.00     0.016 A 
ATOM     30  C   UNL A   1      38.145  32.146  31.202  1.00  0.00     0.016 A 
ATOM     31  C   UNL A   1      40.007  30.207  32.005  1.00  0.00     0.010 A 
ATOM     32  C   UNL A   1      39.169  31.750  30.336  1.00  0.00     0.010 A 
ATOM     33  C   UNL A   1      40.106  30.778  30.731  1.00  0.00    -0.014 A 
BRANCH  33  34
ATOM     34  C   UNL A   1      41.190  30.353  29.814  1.00  0.00     0.031 A 
ATOM     35  C   UNL A   1      41.173  28.978  29.217  1.00  0.00     0.074 A 
ATOM     36  C   UNL A   1      42.186  31.208  29.516  1.00  0.00     0.049 A 
ATOM     37  N   UNL A   1      42.109  28.357  28.547  1.00  0.00    -0.248 NA
ATOM     38  C   UNL A   1      39.942  28.195  29.403  1.00  0.00     0.031 C 
ATOM     39  C   UNL A   1      42.279  32.593  29.982  1.00  0.00     0.029 A 
ATOM     40  N   UNL A   1      43.312  31.037  28.751  1.00  0.00    -0.354 N 
ATOM     41  C   UNL A   1      41.598  27.096  28.266  1.00  0.00     0.074 A 
ATOM     42  C   UNL A   1      40.269  27.041  28.837  1.00  0.00     0.031 C 
ATOM     43  C   UNL A   1      43.393  33.150  29.481  1.00  0.00     0.029 A 
ATOM     44  C   UNL A   1      44.129  32.141  28.729  1.00  0.00     0.049 A 
ATOM     45  H   UNL A   1      43.515  30.204  28.267  1.00  0.00     0.167 HD
ATOM     46  C   UNL A   1      42.191  26.081  27.595  1.00  0.00     0.037 A 
ATOM     47  C   UNL A   1      45.358  32.306  28.205  1.00  0.00     0.037 A 
ATOM     48  C   UNL A   1      43.500  26.160  27.000  1.00  0.00     0.049 A 
ATOM     49  C   UNL A   1      46.026  31.142  27.534  1.00  0.00     0.074 A 
ATOM     50  C   UNL A   1      44.181  25.197  26.278  1.00  0.00     0.029 A 
ATOM     51  N   UNL A   1      44.322  27.277  27.056  1.00  0.00    -0.354 N 
ATOM     52  N   UNL A   1      45.558  29.937  27.316  1.00  0.00    -0.248 NA
ATOM     53  C   UNL A   1      47.404  31.350  27.067  1.00  0.00     0.031 C 
ATOM     54  C   UNL A   1      45.432  25.718  25.928  1.00  0.00     0.029 A 
ATOM     55  C   UNL A   1      45.517  27.017  26.404  1.00  0.00     0.049 A 
ATOM     56  H   UNL A   1      44.091  28.128  27.493  1.00  0.00     0.167 HD
ATOM     57  C   UNL A   1      46.583  29.240  26.691  1.00  0.00     0.074 A 
ATOM     58  C   UNL A   1      47.689  30.164  26.543  1.00  0.00     0.031 C 
ATOM     59  C   UNL A   1      46.609  27.947  26.285  1.00  0.00     0.037 A 
BRANCH  46  60
ATOM     60  C   UNL A   1      41.444  24.785  27.506  1.00  0.00     0.057 A 
ATOM     61  C   UNL A   1      40.409  24.584  26.585  1.00  0.00     0.134 A 
ATOM     62  C   UNL A   1      41.783  23.715  28.345  1.00  0.00     0.134 A 
ATOM     63  F   UNL A   1      40.029  25.573  25.764  1.00  0.00    -0.206 F 
ATOM     64  C   UNL A   1      39.724  23.368  26.515  1.00  0.00     0.040 A 
ATOM     65  C   UNL A   1      41.119  22.490  28.270  1.00  0.00     0.040 A 
ATOM     66  F   UNL A   1      42.767  23.842  29.247  1.00  0.00    -0.206 F 
ATOM     67  C   UNL A   1      40.082  22.316  27.356  1.00  0.00     0.006 A 
ENDBRANCH  46  60
BRANCH  47  68
ATOM     68  C   UNL A   1      46.054  33.607  28.354  1.00  0.00     0.057 A 
ATOM     69  C   UNL A   1      46.827  33.889  29.485  1.00  0.00     0.134 A 
ATOM     70  C   UNL A   1      45.978  34.592  27.360  1.00  0.00     0.134 A 
ATOM     71  F   UNL A   1      46.917  32.996  30.481  1.00  0.00    -0.206 F 
ATOM     72  C   UNL A   1      47.502  35.103  29.622  1.00  0.00     0.040 A 
ATOM     73  C   UNL A   1      46.666  35.800  27.473  1.00  0.00     0.040 A 
ATOM     74  F   UNL A   1      45.251  34.382  26.252  1.00  0.00    -0.206 F 
ATOM     75  C   UNL A   1      47.430  36.060  28.610  1.00  0.00     0.006 A 
ENDBRANCH  47  68
BRANCH  59  76
ATOM     76  C   UNL A   1      47.876  27.464  25.652  1.00  0.00     0.057 A 
ATOM     77  C   UNL A   1      48.928  26.955  26.423  1.00  0.00     0.134 A 
ATOM     78  C   UNL A   1      48.036  27.478  24.262  1.00  0.00     0.134 A 
ATOM     79  F   UNL A   1      48.840  26.930  27.763  1.00  0.00    -0.206 F 
ATOM     80  C   UNL A   1      50.102  26.487  25.834  1.00  0.00     0.040 A 
ATOM     81  C   UNL A   1      49.198  26.997  23.659  1.00  0.00     0.040 A 
ATOM     82  F   UNL A   1      47.063  27.952  23.469  1.00  0.00    -0.206 F 
ATOM     83  C   UNL A   1      50.237  26.502  24.446  1.00  0.00     0.006 A 
ENDBRANCH  59  76
ENDBRANCH  33  34
ENDBRANCH  26  28
ENDBRANCH  25  26
ENDBRANCH  24  25
ENDBRANCH  23  24
ENDBRANCH   1  23
TORSDOF 17
ENDMDL
