MODEL 1
REMARK VINA RESULT:     -10.7      0.000      0.000
REMARK SMILES C[N@@H+]1CCC[C@@H](NC(=O)N(CC(=O)OCCOC(=O)c2ccc(-c3c4nc(c(-c5c(F)cccc5F)c5ccc([nH]5)c(-c5c(F)cccc5F)c5nc(c(-c6c(F)cccc6F)c6ccc3[nH]6)C=C5)C=C4)cc2)C(C)(C)C)C1
REMARK SMILES IDX 15 1 14 2 12 3 13 4 11 5 10 6 8 7 7 8 9 10 6 11 1 12 2 13
REMARK SMILES IDX 3 14 78 15 4 17 5 18 74 19 75 20 76 21 77 22 16 23 17 24
REMARK SMILES IDX 18 25 19 26 20 27 21 28 73 29 22 30 72 31 23 32 24 33 25 34
REMARK SMILES IDX 66 35 26 36 71 37 65 38 67 39 27 40 70 41 64 42 63 43 28 45
REMARK SMILES IDX 54 46 37 47 53 48 38 49 41 50 52 51 68 52 39 53 40 54 51 56
REMARK SMILES IDX 69 57 42 58 29 59 30 60 35 61 31 62 32 63 34 64 36 65 33 66
REMARK SMILES IDX 55 67 56 68 61 69 57 70 58 71 60 72 62 73 59 74 43 75 44 76
REMARK SMILES IDX 49 77 45 78 46 79 48 80 50 81 47 82
REMARK H PARENT 7 9 2 16 67 44 41 55
REMARK Flexibility Score: inf
ROOT
ATOM      1  C   UNL A   1      31.741  31.394  26.612  1.00  0.00     0.274 C 
ENDROOT
BRANCH   1   2
ATOM      2  O   UNL A   1      33.044  30.800  26.768  1.00  0.00    -0.461 OA
BRANCH   2   3
ATOM      3  C   UNL A   1      33.131  29.502  26.371  1.00  0.00     0.325 C 
ATOM      4  O   UNL A   1      34.183  28.871  26.287  1.00  0.00    -0.250 OA
BRANCH   3   5
ATOM      5  C   UNL A   1      31.779  28.826  26.134  1.00  0.00     0.244 C 
BRANCH   5   6
ATOM      6  N   UNL A   1      31.576  28.198  24.833  1.00  0.00    -0.309 N 
BRANCH   6   7
ATOM      7  C   UNL A   1      31.630  28.921  23.660  1.00  0.00     0.318 C 
ATOM      8  N   UNL A   1      30.615  29.667  23.186  1.00  0.00    -0.330 N 
ATOM      9  H   UNL A   1      30.894  30.107  22.351  1.00  0.00     0.165 HD
ATOM     10  O   UNL A   1      32.636  28.947  22.946  1.00  0.00    -0.249 OA
BRANCH   8  11
ATOM     11  C   UNL A   1      29.229  30.045  23.500  1.00  0.00     0.139 C 
ATOM     12  C   UNL A   1      29.147  33.828  23.127  1.00  0.00     0.332 C 
ATOM     13  N   UNL A   1      29.275  32.431  22.707  1.00  0.00    -0.336 N 
ATOM     14  C   UNL A   1      28.282  32.120  21.668  1.00  0.00     0.262 C 
ATOM     15  C   UNL A   1      29.119  31.540  23.870  1.00  0.00     0.287 C 
ATOM     16  H   UNL A   1      30.203  32.283  22.311  1.00  0.00     0.347 HD
ATOM     17  C   UNL A   1      28.432  30.680  21.181  1.00  0.00     0.064 C 
ATOM     18  C   UNL A   1      28.303  29.689  22.332  1.00  0.00     0.037 C 
ENDBRANCH   8  11
ENDBRANCH   6   7
BRANCH   6  19
ATOM     19  C   UNL A   1      31.340  26.698  24.764  1.00  0.00     0.037 C 
ATOM     20  C   UNL A   1      32.630  25.960  24.346  1.00  0.00     0.034 C 
ATOM     21  C   UNL A   1      30.840  26.165  26.129  1.00  0.00     0.034 C 
ATOM     22  C   UNL A   1      30.256  26.261  23.742  1.00  0.00     0.034 C 
ENDBRANCH   6  19
ENDBRANCH   5   6
ENDBRANCH   3   5
ENDBRANCH   2   3
ENDBRANCH   1   2
BRANCH   1  23
ATOM     23  C   UNL A   1      31.761  32.874  26.992  1.00  0.00     0.275 C 
BRANCH  23  24
ATOM     24  O   UNL A   1      33.111  33.306  27.246  1.00  0.00    -0.458 OA
BRANCH  24  25
ATOM     25  C   UNL A   1      33.274  34.130  28.305  1.00  0.00     0.338 C 
ATOM     26  O   UNL A   1      32.528  35.041  28.647  1.00  0.00    -0.246 OA
BRANCH  25  27
ATOM     27  C   UNL A   1      34.495  33.789  29.065  1.00  0.00     0.060 A 
ATOM     28  C   UNL A   1      35.724  34.402  28.806  1.00  0.00     0.016 A 
ATOM     29  C   UNL A   1      34.429  32.742  29.985  1.00  0.00     0.016 A 
ATOM     30  C   UNL A   1      36.893  33.920  29.396  1.00  0.00     0.010 A 
ATOM     31  C   UNL A   1      35.583  32.327  30.651  1.00  0.00     0.010 A 
ATOM     32  C   UNL A   1      36.833  32.893  30.346  1.00  0.00    -0.014 A 
BRANCH  32  33
ATOM     33  C   UNL A   1      38.049  32.400  31.045  1.00  0.00     0.031 A 
ATOM     34  C   UNL A   1      38.810  31.224  30.496  1.00  0.00     0.074 A 
ATOM     35  C   UNL A   1      38.437  32.956  32.209  1.00  0.00     0.049 A 
ATOM     36  N   UNL A   1      39.696  30.464  31.085  1.00  0.00    -0.248 NA
ATOM     37  C   UNL A   1      38.516  30.842  29.106  1.00  0.00     0.031 C 
ATOM     38  C   UNL A   1      37.830  34.128  32.840  1.00  0.00     0.029 A 
ATOM     39  N   UNL A   1      39.430  32.587  33.084  1.00  0.00    -0.354 N 
ATOM     40  C   UNL A   1      40.020  29.476  30.163  1.00  0.00     0.074 A 
ATOM     41  C   UNL A   1      39.244  29.742  28.970  1.00  0.00     0.031 C 
ATOM     42  C   UNL A   1      38.467  34.389  33.990  1.00  0.00     0.029 A 
ATOM     43  C   UNL A   1      39.466  33.353  34.222  1.00  0.00     0.049 A 
ATOM     44  H   UNL A   1      40.054  31.845  32.911  1.00  0.00     0.167 HD
ATOM     45  C   UNL A   1      40.877  28.438  30.306  1.00  0.00     0.037 A 
ATOM     46  C   UNL A   1      40.179  33.210  35.355  1.00  0.00     0.037 A 
ATOM     47  C   UNL A   1      41.688  28.207  31.474  1.00  0.00     0.049 A 
ATOM     48  C   UNL A   1      41.095  32.034  35.508  1.00  0.00     0.074 A 
ATOM     49  C   UNL A   1      42.611  27.201  31.700  1.00  0.00     0.029 A 
ATOM     50  N   UNL A   1      41.681  29.005  32.608  1.00  0.00    -0.354 N 
ATOM     51  N   UNL A   1      41.349  31.070  34.657  1.00  0.00    -0.248 NA
ATOM     52  C   UNL A   1      41.803  31.910  36.790  1.00  0.00     0.031 C 
ATOM     53  C   UNL A   1      43.144  27.375  32.982  1.00  0.00     0.029 A 
ATOM     54  C   UNL A   1      42.575  28.508  33.541  1.00  0.00     0.049 A 
ATOM     55  H   UNL A   1      41.122  29.806  32.731  1.00  0.00     0.167 HD
ATOM     56  C   UNL A   1      42.255  30.233  35.292  1.00  0.00     0.074 A 
ATOM     57  C   UNL A   1      42.513  30.806  36.597  1.00  0.00     0.031 C 
ATOM     58  C   UNL A   1      42.823  29.092  34.833  1.00  0.00     0.037 A 
BRANCH  45  59
ATOM     59  C   UNL A   1      40.957  27.447  29.184  1.00  0.00     0.057 A 
ATOM     60  C   UNL A   1      39.997  26.445  29.005  1.00  0.00     0.134 A 
ATOM     61  C   UNL A   1      41.996  27.524  28.246  1.00  0.00     0.134 A 
ATOM     62  F   UNL A   1      38.986  26.309  29.876  1.00  0.00    -0.206 F 
ATOM     63  C   UNL A   1      40.076  25.542  27.943  1.00  0.00     0.040 A 
ATOM     64  C   UNL A   1      42.074  26.641  27.169  1.00  0.00     0.040 A 
ATOM     65  F   UNL A   1      42.945  28.465  28.360  1.00  0.00    -0.206 F 
ATOM     66  C   UNL A   1      41.115  25.643  27.017  1.00  0.00     0.006 A 
ENDBRANCH  45  59
BRANCH  46  67
ATOM     67  C   UNL A   1      40.016  34.197  36.448  1.00  0.00     0.057 A 
ATOM     68  C   UNL A   1      40.749  35.388  36.453  1.00  0.00     0.134 A 
ATOM     69  C   UNL A   1      39.102  33.992  37.489  1.00  0.00     0.134 A 
ATOM     70  F   UNL A   1      41.653  35.626  35.492  1.00  0.00    -0.206 F 
ATOM     71  C   UNL A   1      40.577  36.344  37.454  1.00  0.00     0.040 A 
ATOM     72  C   UNL A   1      38.904  34.950  38.484  1.00  0.00     0.040 A 
ATOM     73  F   UNL A   1      38.367  32.872  37.534  1.00  0.00    -0.206 F 
ATOM     74  C   UNL A   1      39.645  36.130  38.468  1.00  0.00     0.006 A 
ENDBRANCH  46  67
BRANCH  58  75
ATOM     75  C   UNL A   1      43.806  28.412  35.735  1.00  0.00     0.057 A 
ATOM     76  C   UNL A   1      43.405  27.439  36.658  1.00  0.00     0.134 A 
ATOM     77  C   UNL A   1      45.170  28.716  35.658  1.00  0.00     0.134 A 
ATOM     78  F   UNL A   1      42.110  27.117  36.787  1.00  0.00    -0.206 F 
ATOM     79  C   UNL A   1      44.330  26.800  37.486  1.00  0.00     0.040 A 
ATOM     80  C   UNL A   1      46.106  28.073  36.468  1.00  0.00     0.040 A 
ATOM     81  F   UNL A   1      45.615  29.638  34.790  1.00  0.00    -0.206 F 
ATOM     82  C   UNL A   1      45.685  27.114  37.389  1.00  0.00     0.006 A 
ENDBRANCH  58  75
ENDBRANCH  32  33
ENDBRANCH  25  27
ENDBRANCH  24  25
ENDBRANCH  23  24
ENDBRANCH   1  23
TORSDOF 15
ENDMDL
MODEL 2
REMARK VINA RESULT:     -10.7      6.272     11.296
REMARK SMILES C[N@@H+]1CCC[C@@H](NC(=O)N(CC(=O)OCCOC(=O)c2ccc(-c3c4nc(c(-c5c(F)cccc5F)c5ccc([nH]5)c(-c5c(F)cccc5F)c5nc(c(-c6c(F)cccc6F)c6ccc3[nH]6)C=C5)C=C4)cc2)C(C)(C)C)C1
REMARK SMILES IDX 15 1 14 2 12 3 13 4 11 5 10 6 8 7 7 8 9 10 6 11 1 12 2 13
REMARK SMILES IDX 3 14 78 15 4 17 5 18 74 19 75 20 76 21 77 22 16 23 17 24
REMARK SMILES IDX 18 25 19 26 20 27 21 28 73 29 22 30 72 31 23 32 24 33 25 34
REMARK SMILES IDX 66 35 26 36 71 37 65 38 67 39 27 40 70 41 64 42 63 43 28 45
REMARK SMILES IDX 54 46 37 47 53 48 38 49 41 50 52 51 68 52 39 53 40 54 51 56
REMARK SMILES IDX 69 57 42 58 29 59 30 60 35 61 31 62 32 63 34 64 36 65 33 66
REMARK SMILES IDX 55 67 56 68 61 69 57 70 58 71 60 72 62 73 59 74 43 75 44 76
REMARK SMILES IDX 49 77 45 78 46 79 48 80 50 81 47 82
REMARK H PARENT 7 9 2 16 67 44 41 55
REMARK Flexibility Score: inf
ROOT
ATOM      1  C   UNL A   1      38.012  21.220  25.288  1.00  0.00     0.274 C 
ENDROOT
BRANCH   1   2
ATOM      2  O   UNL A   1      37.009  21.204  24.255  1.00  0.00    -0.461 OA
BRANCH   2   3
ATOM      3  C   UNL A   1      36.490  22.421  23.943  1.00  0.00     0.325 C 
ATOM      4  O   UNL A   1      36.612  22.968  22.849  1.00  0.00    -0.250 OA
BRANCH   3   5
ATOM      5  C   UNL A   1      35.625  23.035  25.046  1.00  0.00     0.244 C 
BRANCH   5   6
ATOM      6  N   UNL A   1      34.355  22.377  25.330  1.00  0.00    -0.309 N 
BRANCH   6   7
ATOM      7  C   UNL A   1      34.275  21.279  26.160  1.00  0.00     0.318 C 
ATOM      8  N   UNL A   1      34.193  20.008  25.724  1.00  0.00    -0.330 N 
ATOM      9  H   UNL A   1      34.170  19.398  26.496  1.00  0.00     0.165 HD
ATOM     10  O   UNL A   1      34.281  21.379  27.390  1.00  0.00    -0.249 OA
BRANCH   8  11
ATOM     11  C   UNL A   1      34.127  19.228  24.480  1.00  0.00     0.139 C 
ATOM     12  C   UNL A   1      35.554  15.824  25.394  1.00  0.00     0.332 C 
ATOM     13  N   UNL A   1      34.610  16.943  25.415  1.00  0.00    -0.336 N 
ATOM     14  C   UNL A   1      33.269  16.485  25.024  1.00  0.00     0.262 C 
ATOM     15  C   UNL A   1      35.082  18.015  24.520  1.00  0.00     0.287 C 
ATOM     16  H   UNL A   1      34.553  17.317  26.362  1.00  0.00     0.347 HD
ATOM     17  C   UNL A   1      32.259  17.628  25.086  1.00  0.00     0.064 C 
ATOM     18  C   UNL A   1      32.685  18.793  24.200  1.00  0.00     0.037 C 
ENDBRANCH   8  11
ENDBRANCH   6   7
BRANCH   6  19
ATOM     19  C   UNL A   1      33.078  22.942  24.729  1.00  0.00     0.037 C 
ATOM     20  C   UNL A   1      33.091  24.485  24.767  1.00  0.00     0.034 C 
ATOM     21  C   UNL A   1      32.901  22.446  23.273  1.00  0.00     0.034 C 
ATOM     22  C   UNL A   1      31.776  22.515  25.459  1.00  0.00     0.034 C 
ENDBRANCH   6  19
ENDBRANCH   5   6
ENDBRANCH   3   5
ENDBRANCH   2   3
ENDBRANCH   1   2
BRANCH   1  23
ATOM     23  C   UNL A   1      38.800  19.910  25.314  1.00  0.00     0.275 C 
BRANCH  23  24
ATOM     24  O   UNL A   1      39.666  19.870  26.463  1.00  0.00    -0.458 OA
BRANCH  24  25
ATOM     25  C   UNL A   1      40.986  19.756  26.199  1.00  0.00     0.338 C 
ATOM     26  O   UNL A   1      41.548  18.806  25.667  1.00  0.00    -0.246 OA
BRANCH  25  27
ATOM     27  C   UNL A   1      41.721  20.968  26.617  1.00  0.00     0.060 A 
ATOM     28  C   UNL A   1      42.139  21.163  27.936  1.00  0.00     0.016 A 
ATOM     29  C   UNL A   1      41.896  21.990  25.682  1.00  0.00     0.016 A 
ATOM     30  C   UNL A   1      42.649  22.398  28.341  1.00  0.00     0.010 A 
ATOM     31  C   UNL A   1      42.499  23.189  26.066  1.00  0.00     0.010 A 
ATOM     32  C   UNL A   1      42.860  23.417  27.404  1.00  0.00    -0.014 A 
BRANCH  32  33
ATOM     33  C   UNL A   1      43.464  24.720  27.788  1.00  0.00     0.031 A 
ATOM     34  C   UNL A   1      42.587  25.849  28.259  1.00  0.00     0.074 A 
ATOM     35  C   UNL A   1      44.788  24.924  27.648  1.00  0.00     0.049 A 
ATOM     36  N   UNL A   1      42.860  27.124  28.356  1.00  0.00    -0.248 NA
ATOM     37  C   UNL A   1      41.215  25.493  28.654  1.00  0.00     0.031 C 
ATOM     38  C   UNL A   1      45.769  23.916  27.248  1.00  0.00     0.029 A 
ATOM     39  N   UNL A   1      45.534  26.066  27.808  1.00  0.00    -0.354 N 
ATOM     40  C   UNL A   1      41.679  27.734  28.760  1.00  0.00     0.074 A 
ATOM     41  C   UNL A   1      40.690  26.686  28.903  1.00  0.00     0.031 C 
ATOM     42  C   UNL A   1      46.986  24.476  27.205  1.00  0.00     0.029 A 
ATOM     43  C   UNL A   1      46.859  25.901  27.486  1.00  0.00     0.049 A 
ATOM     44  H   UNL A   1      45.156  26.919  28.123  1.00  0.00     0.167 HD
ATOM     45  C   UNL A   1      41.441  29.049  28.979  1.00  0.00     0.037 A 
ATOM     46  C   UNL A   1      47.853  26.802  27.370  1.00  0.00     0.037 A 
ATOM     47  C   UNL A   1      42.440  30.082  28.889  1.00  0.00     0.049 A 
ATOM     48  C   UNL A   1      47.560  28.257  27.581  1.00  0.00     0.074 A 
ATOM     49  C   UNL A   1      42.303  31.439  29.125  1.00  0.00     0.029 A 
ATOM     50  N   UNL A   1      43.766  29.867  28.547  1.00  0.00    -0.354 N 
ATOM     51  N   UNL A   1      46.428  28.832  27.901  1.00  0.00    -0.248 NA
ATOM     52  C   UNL A   1      48.679  29.190  27.387  1.00  0.00     0.031 C 
ATOM     53  C   UNL A   1      43.542  32.050  28.900  1.00  0.00     0.029 A 
ATOM     54  C   UNL A   1      44.457  31.068  28.555  1.00  0.00     0.049 A 
ATOM     55  H   UNL A   1      44.159  28.992  28.330  1.00  0.00     0.167 HD
ATOM     56  C   UNL A   1      46.698  30.192  27.961  1.00  0.00     0.074 A 
ATOM     57  C   UNL A   1      48.104  30.355  27.652  1.00  0.00     0.031 C 
ATOM     58  C   UNL A   1      45.855  31.213  28.249  1.00  0.00     0.037 A 
BRANCH  45  59
ATOM     59  C   UNL A   1      40.034  29.453  29.303  1.00  0.00     0.057 A 
ATOM     60  C   UNL A   1      39.610  29.690  30.615  1.00  0.00     0.134 A 
ATOM     61  C   UNL A   1      39.100  29.645  28.276  1.00  0.00     0.134 A 
ATOM     62  F   UNL A   1      40.453  29.511  31.644  1.00  0.00    -0.206 F 
ATOM     63  C   UNL A   1      38.301  30.086  30.898  1.00  0.00     0.040 A 
ATOM     64  C   UNL A   1      37.795  30.059  28.544  1.00  0.00     0.040 A 
ATOM     65  F   UNL A   1      39.445  29.438  26.996  1.00  0.00    -0.206 F 
ATOM     66  C   UNL A   1      37.391  30.277  29.859  1.00  0.00     0.006 A 
ENDBRANCH  45  59
BRANCH  46  67
ATOM     67  C   UNL A   1      49.211  26.342  26.996  1.00  0.00     0.057 A 
ATOM     68  C   UNL A   1      49.623  26.339  25.660  1.00  0.00     0.134 A 
ATOM     69  C   UNL A   1      50.137  25.931  27.962  1.00  0.00     0.134 A 
ATOM     70  F   UNL A   1      48.771  26.703  24.691  1.00  0.00    -0.206 F 
ATOM     71  C   UNL A   1      50.912  25.946  25.296  1.00  0.00     0.040 A 
ATOM     72  C   UNL A   1      51.435  25.557  27.616  1.00  0.00     0.040 A 
ATOM     73  F   UNL A   1      49.800  25.918  29.260  1.00  0.00    -0.206 F 
ATOM     74  C   UNL A   1      51.824  25.563  26.277  1.00  0.00     0.006 A 
ENDBRANCH  46  67
BRANCH  58  75
ATOM     75  C   UNL A   1      46.442  32.590  28.278  1.00  0.00     0.057 A 
ATOM     76  C   UNL A   1      47.076  33.096  29.418  1.00  0.00     0.134 A 
ATOM     77  C   UNL A   1      46.396  33.406  27.141  1.00  0.00     0.134 A 
ATOM     78  F   UNL A   1      47.138  32.366  30.541  1.00  0.00    -0.206 F 
ATOM     79  C   UNL A   1      47.632  34.376  29.432  1.00  0.00     0.040 A 
ATOM     80  C   UNL A   1      46.962  34.681  27.137  1.00  0.00     0.040 A 
ATOM     81  F   UNL A   1      45.804  32.975  26.016  1.00  0.00    -0.206 F 
ATOM     82  C   UNL A   1      47.580  35.171  28.287  1.00  0.00     0.006 A 
ENDBRANCH  58  75
ENDBRANCH  32  33
ENDBRANCH  25  27
ENDBRANCH  24  25
ENDBRANCH  23  24
ENDBRANCH   1  23
TORSDOF 15
ENDMDL
MODEL 3
REMARK VINA RESULT:     -10.6      2.730      5.151
REMARK SMILES C[N@@H+]1CCC[C@@H](NC(=O)N(CC(=O)OCCOC(=O)c2ccc(-c3c4nc(c(-c5c(F)cccc5F)c5ccc([nH]5)c(-c5c(F)cccc5F)c5nc(c(-c6c(F)cccc6F)c6ccc3[nH]6)C=C5)C=C4)cc2)C(C)(C)C)C1
REMARK SMILES IDX 15 1 14 2 12 3 13 4 11 5 10 6 8 7 7 8 9 10 6 11 1 12 2 13
REMARK SMILES IDX 3 14 78 15 4 17 5 18 74 19 75 20 76 21 77 22 16 23 17 24
REMARK SMILES IDX 18 25 19 26 20 27 21 28 73 29 22 30 72 31 23 32 24 33 25 34
REMARK SMILES IDX 66 35 26 36 71 37 65 38 67 39 27 40 70 41 64 42 63 43 28 45
REMARK SMILES IDX 54 46 37 47 53 48 38 49 41 50 52 51 68 52 39 53 40 54 51 56
REMARK SMILES IDX 69 57 42 58 29 59 30 60 35 61 31 62 32 63 34 64 36 65 33 66
REMARK SMILES IDX 55 67 56 68 61 69 57 70 58 71 60 72 62 73 59 74 43 75 44 76
REMARK SMILES IDX 49 77 45 78 46 79 48 80 50 81 47 82
REMARK H PARENT 7 9 2 16 67 44 41 55
REMARK Flexibility Score: inf
ROOT
ATOM      1  C   UNL A   1      31.782  28.112  24.894  1.00  0.00     0.274 C 
ENDROOT
BRANCH   1   2
ATOM      2  O   UNL A   1      32.412  27.470  26.019  1.00  0.00    -0.461 OA
BRANCH   2   3
ATOM      3  C   UNL A   1      32.093  26.158  26.179  1.00  0.00     0.325 C 
ATOM      4  O   UNL A   1      31.223  25.743  26.943  1.00  0.00    -0.250 OA
BRANCH   3   5
ATOM      5  C   UNL A   1      32.837  25.211  25.236  1.00  0.00     0.244 C 
BRANCH   5   6
ATOM      6  N   UNL A   1      32.895  23.806  25.623  1.00  0.00    -0.309 N 
BRANCH   6   7
ATOM      7  C   UNL A   1      33.820  23.340  26.534  1.00  0.00     0.318 C 
ATOM      8  N   UNL A   1      35.142  23.264  26.294  1.00  0.00    -0.330 N 
ATOM      9  H   UNL A   1      35.602  22.925  27.095  1.00  0.00     0.165 HD
ATOM     10  O   UNL A   1      33.502  22.959  27.663  1.00  0.00    -0.249 OA
BRANCH   8  11
ATOM     11  C   UNL A   1      36.129  23.519  25.234  1.00  0.00     0.139 C 
ATOM     12  C   UNL A   1      39.488  22.714  26.822  1.00  0.00     0.332 C 
ATOM     13  N   UNL A   1      38.145  22.458  26.300  1.00  0.00    -0.336 N 
ATOM     14  C   UNL A   1      38.199  21.452  25.229  1.00  0.00     0.262 C 
ATOM     15  C   UNL A   1      37.547  23.714  25.813  1.00  0.00     0.287 C 
ATOM     16  H   UNL A   1      37.558  22.091  27.049  1.00  0.00     0.347 HD
ATOM     17  C   UNL A   1      36.801  21.134  24.703  1.00  0.00     0.064 C 
ATOM     18  C   UNL A   1      36.101  22.390  24.197  1.00  0.00     0.037 C 
ENDBRANCH   8  11
ENDBRANCH   6   7
BRANCH   6  19
ATOM     19  C   UNL A   1      31.881  22.834  25.041  1.00  0.00     0.037 C 
ATOM     20  C   UNL A   1      31.206  23.434  23.788  1.00  0.00     0.034 C 
ATOM     21  C   UNL A   1      32.562  21.490  24.686  1.00  0.00     0.034 C 
ATOM     22  C   UNL A   1      30.722  22.456  26.001  1.00  0.00     0.034 C 
ENDBRANCH   6  19
ENDBRANCH   5   6
ENDBRANCH   3   5
ENDBRANCH   2   3
ENDBRANCH   1   2
BRANCH   1  23
ATOM     23  C   UNL A   1      31.843  29.634  25.023  1.00  0.00     0.275 C 
BRANCH  23  24
ATOM     24  O   UNL A   1      33.084  30.034  25.635  1.00  0.00    -0.458 OA
BRANCH  24  25
ATOM     25  C   UNL A   1      32.973  30.846  26.708  1.00  0.00     0.338 C 
ATOM     26  O   UNL A   1      31.998  31.521  27.020  1.00  0.00    -0.246 OA
BRANCH  25  27
ATOM     27  C   UNL A   1      34.203  30.821  27.527  1.00  0.00     0.060 A 
ATOM     28  C   UNL A   1      34.980  31.964  27.734  1.00  0.00     0.016 A 
ATOM     29  C   UNL A   1      34.652  29.589  28.006  1.00  0.00     0.016 A 
ATOM     30  C   UNL A   1      36.234  31.868  28.338  1.00  0.00     0.010 A 
ATOM     31  C   UNL A   1      35.861  29.511  28.701  1.00  0.00     0.010 A 
ATOM     32  C   UNL A   1      36.678  30.644  28.853  1.00  0.00    -0.014 A 
BRANCH  32  33
ATOM     33  C   UNL A   1      37.978  30.518  29.563  1.00  0.00     0.031 A 
ATOM     34  C   UNL A   1      39.100  29.725  28.949  1.00  0.00     0.074 A 
ATOM     35  C   UNL A   1      38.137  31.050  30.790  1.00  0.00     0.049 A 
ATOM     36  N   UNL A   1      40.181  29.250  29.509  1.00  0.00    -0.248 NA
ATOM     37  C   UNL A   1      38.974  29.411  27.516  1.00  0.00     0.031 C 
ATOM     38  C   UNL A   1      37.160  31.881  31.494  1.00  0.00     0.029 A 
ATOM     39  N   UNL A   1      39.183  30.948  31.676  1.00  0.00    -0.354 N 
ATOM     40  C   UNL A   1      40.834  28.527  28.519  1.00  0.00     0.074 A 
ATOM     41  C   UNL A   1      40.032  28.637  27.318  1.00  0.00     0.031 C 
ATOM     42  C   UNL A   1      37.653  32.222  32.692  1.00  0.00     0.029 A 
ATOM     43  C   UNL A   1      38.940  31.563  32.879  1.00  0.00     0.049 A 
ATOM     44  H   UNL A   1      40.023  30.479  31.467  1.00  0.00     0.167 HD
ATOM     45  C   UNL A   1      41.989  27.826  28.609  1.00  0.00     0.037 A 
ATOM     46  C   UNL A   1      39.641  31.552  34.028  1.00  0.00     0.037 A 
ATOM     47  C   UNL A   1      42.811  27.762  29.790  1.00  0.00     0.049 A 
ATOM     48  C   UNL A   1      40.898  30.740  34.118  1.00  0.00     0.074 A 
ATOM     49  C   UNL A   1      44.016  27.106  29.969  1.00  0.00     0.029 A 
ATOM     50  N   UNL A   1      42.517  28.393  30.990  1.00  0.00    -0.354 N 
ATOM     51  N   UNL A   1      41.476  30.009  33.197  1.00  0.00    -0.248 NA
ATOM     52  C   UNL A   1      41.586  30.731  35.417  1.00  0.00     0.031 C 
ATOM     53  C   UNL A   1      44.439  27.317  31.287  1.00  0.00     0.029 A 
ATOM     54  C   UNL A   1      43.513  28.131  31.917  1.00  0.00     0.049 A 
ATOM     55  H   UNL A   1      41.720  28.944  31.157  1.00  0.00     0.167 HD
ATOM     56  C   UNL A   1      42.601  29.463  33.799  1.00  0.00     0.074 A 
ATOM     57  C   UNL A   1      42.630  29.954  35.161  1.00  0.00     0.031 C 
ATOM     58  C   UNL A   1      43.528  28.631  33.267  1.00  0.00     0.037 A 
BRANCH  45  59
ATOM     59  C   UNL A   1      42.416  27.037  27.408  1.00  0.00     0.057 A 
ATOM     60  C   UNL A   1      43.163  27.606  26.371  1.00  0.00     0.134 A 
ATOM     61  C   UNL A   1      42.105  25.674  27.311  1.00  0.00     0.134 A 
ATOM     62  F   UNL A   1      43.482  28.909  26.399  1.00  0.00    -0.206 F 
ATOM     63  C   UNL A   1      43.571  26.852  25.269  1.00  0.00     0.040 A 
ATOM     64  C   UNL A   1      42.523  24.905  26.224  1.00  0.00     0.040 A 
ATOM     65  F   UNL A   1      41.395  25.069  28.274  1.00  0.00    -0.206 F 
ATOM     66  C   UNL A   1      43.255  25.495  25.196  1.00  0.00     0.006 A 
ENDBRANCH  45  59
BRANCH  46  67
ATOM     67  C   UNL A   1      39.137  32.311  35.196  1.00  0.00     0.057 A 
ATOM     68  C   UNL A   1      38.386  31.679  36.191  1.00  0.00     0.134 A 
ATOM     69  C   UNL A   1      39.422  33.672  35.363  1.00  0.00     0.134 A 
ATOM     70  F   UNL A   1      38.067  30.382  36.072  1.00  0.00    -0.206 F 
ATOM     71  C   UNL A   1      37.937  32.371  37.316  1.00  0.00     0.040 A 
ATOM     72  C   UNL A   1      38.998  34.372  36.493  1.00  0.00     0.040 A 
ATOM     73  F   UNL A   1      40.142  34.331  34.443  1.00  0.00    -0.206 F 
ATOM     74  C   UNL A   1      38.252  33.720  37.473  1.00  0.00     0.006 A 
ENDBRANCH  46  67
BRANCH  58  75
ATOM     75  C   UNL A   1      44.668  28.230  34.151  1.00  0.00     0.057 A 
ATOM     76  C   UNL A   1      45.831  29.003  34.248  1.00  0.00     0.134 A 
ATOM     77  C   UNL A   1      44.587  27.072  34.934  1.00  0.00     0.134 A 
ATOM     78  F   UNL A   1      45.972  30.114  33.511  1.00  0.00    -0.206 F 
ATOM     79  C   UNL A   1      46.883  28.629  35.085  1.00  0.00     0.040 A 
ATOM     80  C   UNL A   1      45.625  26.696  35.787  1.00  0.00     0.040 A 
ATOM     81  F   UNL A   1      43.496  26.292  34.886  1.00  0.00    -0.206 F 
ATOM     82  C   UNL A   1      46.780  27.475  35.861  1.00  0.00     0.006 A 
ENDBRANCH  58  75
ENDBRANCH  32  33
ENDBRANCH  25  27
ENDBRANCH  24  25
ENDBRANCH  23  24
ENDBRANCH   1  23
TORSDOF 15
ENDMDL
