MODEL 1
REMARK VINA RESULT:     -10.7      0.000      0.000
REMARK SMILES C[C@H](C(=O)OCCOC(=O)c1ccc(-c2c3nc(c(-c4c(F)cccc4F)c4ccc([nH]4)c(-c4c(F)cccc4F)c4nc(c(-c5c(F)cccc5F)c5ccc2[nH]5)C=C4)C=C3)cc1)c1ccc(C[C@H]2CCC[C@@H]2O)cc1
REMARK SMILES IDX 6 1 5 2 3 3 4 4 2 5 1 6 65 7 66 8 77 9 67 10 76 11 68 12
REMARK SMILES IDX 69 13 70 14 71 15 74 16 72 17 73 18 75 19 7 21 8 22 9 23
REMARK SMILES IDX 10 24 11 25 12 26 64 27 13 28 63 29 14 30 15 31 16 32 57 33
REMARK SMILES IDX 17 34 62 35 56 36 58 37 18 38 61 39 55 40 54 41 19 43 45 44
REMARK SMILES IDX 28 45 44 46 29 47 32 48 43 49 59 50 30 51 31 52 42 54 60 55
REMARK SMILES IDX 33 56 20 57 21 58 26 59 22 60 23 61 25 62 27 63 24 64 46 65
REMARK SMILES IDX 47 66 52 67 48 68 49 69 51 70 53 71 50 72 34 73 35 74 40 75
REMARK SMILES IDX 36 76 37 77 39 78 41 79 38 80
REMARK H PARENT 75 20 58 42 32 53
REMARK Flexibility Score: inf
ROOT
ATOM      1  C   UNL A   1      33.716  35.609  28.947  1.00  0.00     0.274 C 
ENDROOT
BRANCH   1   2
ATOM      2  O   UNL A   1      33.200  34.270  28.803  1.00  0.00    -0.462 OA
BRANCH   2   3
ATOM      3  C   UNL A   1      34.028  33.250  29.145  1.00  0.00     0.313 C 
ATOM      4  O   UNL A   1      34.183  32.846  30.294  1.00  0.00    -0.252 OA
BRANCH   3   5
ATOM      5  C   UNL A   1      34.770  32.631  27.966  1.00  0.00     0.126 C 
ATOM      6  C   UNL A   1      36.285  32.796  28.132  1.00  0.00     0.025 C 
BRANCH   5   7
ATOM      7  C   UNL A   1      34.475  31.180  27.630  1.00  0.00    -0.034 A 
ATOM      8  C   UNL A   1      35.484  30.208  27.564  1.00  0.00     0.005 A 
ATOM      9  C   UNL A   1      33.174  30.823  27.252  1.00  0.00     0.005 A 
ATOM     10  C   UNL A   1      35.201  28.921  27.104  1.00  0.00     0.004 A 
ATOM     11  C   UNL A   1      32.899  29.546  26.769  1.00  0.00     0.004 A 
ATOM     12  C   UNL A   1      33.919  28.593  26.655  1.00  0.00    -0.048 A 
BRANCH  12  13
ATOM     13  C   UNL A   1      33.634  27.264  25.998  1.00  0.00     0.041 C 
BRANCH  13  14
ATOM     14  C   UNL A   1      33.230  27.326  24.514  1.00  0.00     0.022 C 
ATOM     15  C   UNL A   1      33.835  28.476  23.688  1.00  0.00     0.007 C 
ATOM     16  C   UNL A   1      33.532  26.073  23.687  1.00  0.00     0.117 C 
ATOM     17  C   UNL A   1      34.023  27.926  22.270  1.00  0.00     0.003 C 
ATOM     18  C   UNL A   1      33.342  26.567  22.261  1.00  0.00     0.032 C 
BRANCH  16  19
ATOM     19  O   UNL A   1      32.634  25.019  23.971  1.00  0.00    -0.393 OA
ATOM     20  H   UNL A   1      31.740  25.378  24.086  1.00  0.00     0.210 HD
ENDBRANCH  16  19
ENDBRANCH  13  14
ENDBRANCH  12  13
ENDBRANCH   5   7
ENDBRANCH   3   5
ENDBRANCH   2   3
ENDBRANCH   1   2
BRANCH   1  21
ATOM     21  C   UNL A   1      32.837  36.418  29.896  1.00  0.00     0.275 C 
BRANCH  21  22
ATOM     22  O   UNL A   1      32.380  35.566  30.961  1.00  0.00    -0.458 OA
BRANCH  22  23
ATOM     23  C   UNL A   1      32.656  35.979  32.217  1.00  0.00     0.338 C 
ATOM     24  O   UNL A   1      32.078  36.828  32.870  1.00  0.00    -0.246 OA
BRANCH  23  25
ATOM     25  C   UNL A   1      33.810  35.218  32.726  1.00  0.00     0.060 A 
ATOM     26  C   UNL A   1      35.095  35.743  32.589  1.00  0.00     0.016 A 
ATOM     27  C   UNL A   1      33.627  33.939  33.248  1.00  0.00     0.016 A 
ATOM     28  C   UNL A   1      36.206  34.966  32.899  1.00  0.00     0.010 A 
ATOM     29  C   UNL A   1      34.742  33.192  33.644  1.00  0.00     0.010 A 
ATOM     30  C   UNL A   1      36.044  33.686  33.445  1.00  0.00    -0.014 A 
BRANCH  30  31
ATOM     31  C   UNL A   1      37.231  32.851  33.774  1.00  0.00     0.031 A 
ATOM     32  C   UNL A   1      37.945  33.038  35.084  1.00  0.00     0.074 A 
ATOM     33  C   UNL A   1      37.670  31.918  32.906  1.00  0.00     0.049 A 
ATOM     34  N   UNL A   1      39.095  32.552  35.477  1.00  0.00    -0.248 NA
ATOM     35  C   UNL A   1      37.283  33.896  36.080  1.00  0.00     0.031 C 
ATOM     36  C   UNL A   1      37.051  31.595  31.619  1.00  0.00     0.029 A 
ATOM     37  N   UNL A   1      38.744  31.066  32.979  1.00  0.00    -0.354 N 
ATOM     38  C   UNL A   1      39.320  33.086  36.740  1.00  0.00     0.074 A 
ATOM     39  C   UNL A   1      38.186  33.931  37.049  1.00  0.00     0.031 C 
ATOM     40  C   UNL A   1      37.735  30.598  31.039  1.00  0.00     0.029 A 
ATOM     41  C   UNL A   1      38.883  30.263  31.874  1.00  0.00     0.049 A 
ATOM     42  H   UNL A   1      39.355  31.033  33.750  1.00  0.00     0.167 HD
ATOM     43  C   UNL A   1      40.380  32.895  37.561  1.00  0.00     0.037 A 
ATOM     44  C   UNL A   1      39.849  29.382  31.547  1.00  0.00     0.037 A 
ATOM     45  C   UNL A   1      41.482  32.015  37.276  1.00  0.00     0.049 A 
ATOM     46  C   UNL A   1      41.016  29.191  32.469  1.00  0.00     0.074 A 
ATOM     47  C   UNL A   1      42.604  31.757  38.045  1.00  0.00     0.029 A 
ATOM     48  N   UNL A   1      41.588  31.230  36.138  1.00  0.00    -0.354 N 
ATOM     49  N   UNL A   1      41.258  29.763  33.623  1.00  0.00    -0.248 NA
ATOM     50  C   UNL A   1      42.058  28.251  32.034  1.00  0.00     0.031 C 
ATOM     51  C   UNL A   1      43.398  30.827  37.364  1.00  0.00     0.029 A 
ATOM     52  C   UNL A   1      42.756  30.486  36.184  1.00  0.00     0.049 A 
ATOM     53  H   UNL A   1      40.931  31.204  35.407  1.00  0.00     0.167 HD
ATOM     54  C   UNL A   1      42.476  29.256  34.051  1.00  0.00     0.074 A 
ATOM     55  C   UNL A   1      42.914  28.310  33.044  1.00  0.00     0.031 C 
ATOM     56  C   UNL A   1      43.175  29.554  35.172  1.00  0.00     0.037 A 
BRANCH  43  57
ATOM     57  C   UNL A   1      40.412  33.679  38.838  1.00  0.00     0.057 A 
ATOM     58  C   UNL A   1      41.153  34.860  38.965  1.00  0.00     0.134 A 
ATOM     59  C   UNL A   1      39.665  33.258  39.945  1.00  0.00     0.134 A 
ATOM     60  F   UNL A   1      41.901  35.306  37.946  1.00  0.00    -0.206 F 
ATOM     61  C   UNL A   1      41.161  35.587  40.157  1.00  0.00     0.040 A 
ATOM     62  C   UNL A   1      39.651  33.987  41.135  1.00  0.00     0.040 A 
ATOM     63  F   UNL A   1      38.932  32.136  39.885  1.00  0.00    -0.206 F 
ATOM     64  C   UNL A   1      40.404  35.153  41.245  1.00  0.00     0.006 A 
ENDBRANCH  43  57
BRANCH  44  65
ATOM     65  C   UNL A   1      39.767  28.648  30.261  1.00  0.00     0.057 A 
ATOM     66  C   UNL A   1      40.355  29.158  29.100  1.00  0.00     0.134 A 
ATOM     67  C   UNL A   1      39.114  27.413  30.170  1.00  0.00     0.134 A 
ATOM     68  F   UNL A   1      40.973  30.348  29.123  1.00  0.00    -0.206 F 
ATOM     69  C   UNL A   1      40.295  28.467  27.889  1.00  0.00     0.040 A 
ATOM     70  C   UNL A   1      39.065  26.701  28.971  1.00  0.00     0.040 A 
ATOM     71  F   UNL A   1      38.533  26.872  31.250  1.00  0.00    -0.206 F 
ATOM     72  C   UNL A   1      39.655  27.230  27.825  1.00  0.00     0.006 A 
ENDBRANCH  44  65
BRANCH  56  73
ATOM     73  C   UNL A   1      44.477  28.842  35.368  1.00  0.00     0.057 A 
ATOM     74  C   UNL A   1      44.544  27.614  36.039  1.00  0.00     0.134 A 
ATOM     75  C   UNL A   1      45.668  29.374  34.860  1.00  0.00     0.134 A 
ATOM     76  F   UNL A   1      43.438  27.062  36.559  1.00  0.00    -0.206 F 
ATOM     77  C   UNL A   1      45.757  26.947  36.211  1.00  0.00     0.040 A 
ATOM     78  C   UNL A   1      46.884  28.708  35.014  1.00  0.00     0.040 A 
ATOM     79  F   UNL A   1      45.665  30.545  34.207  1.00  0.00    -0.206 F 
ATOM     80  C   UNL A   1      46.932  27.493  35.694  1.00  0.00     0.006 A 
ENDBRANCH  56  73
ENDBRANCH  30  31
ENDBRANCH  23  25
ENDBRANCH  22  23
ENDBRANCH  21  22
ENDBRANCH   1  21
TORSDOF 15
ENDMDL
MODEL 2
REMARK VINA RESULT:     -10.7      4.093     10.109
REMARK SMILES C[C@H](C(=O)OCCOC(=O)c1ccc(-c2c3nc(c(-c4c(F)cccc4F)c4ccc([nH]4)c(-c4c(F)cccc4F)c4nc(c(-c5c(F)cccc5F)c5ccc2[nH]5)C=C4)C=C3)cc1)c1ccc(C[C@H]2CCC[C@@H]2O)cc1
REMARK SMILES IDX 6 1 5 2 3 3 4 4 2 5 1 6 65 7 66 8 77 9 67 10 76 11 68 12
REMARK SMILES IDX 69 13 70 14 71 15 74 16 72 17 73 18 75 19 7 21 8 22 9 23
REMARK SMILES IDX 10 24 11 25 12 26 64 27 13 28 63 29 14 30 15 31 16 32 57 33
REMARK SMILES IDX 17 34 62 35 56 36 58 37 18 38 61 39 55 40 54 41 19 43 45 44
REMARK SMILES IDX 28 45 44 46 29 47 32 48 43 49 59 50 30 51 31 52 42 54 60 55
REMARK SMILES IDX 33 56 20 57 21 58 26 59 22 60 23 61 25 62 27 63 24 64 46 65
REMARK SMILES IDX 47 66 52 67 48 68 49 69 51 70 53 71 50 72 34 73 35 74 40 75
REMARK SMILES IDX 36 76 37 77 39 78 41 79 38 80
REMARK H PARENT 75 20 58 42 32 53
REMARK Flexibility Score: inf
ROOT
ATOM      1  C   UNL A   1      44.347  21.865  24.993  1.00  0.00     0.274 C 
ENDROOT
BRANCH   1   2
ATOM      2  O   UNL A   1      43.333  22.006  26.009  1.00  0.00    -0.462 OA
BRANCH   2   3
ATOM      3  C   UNL A   1      42.450  20.985  26.145  1.00  0.00     0.313 C 
ATOM      4  O   UNL A   1      42.489  19.949  25.485  1.00  0.00    -0.252 OA
BRANCH   3   5
ATOM      5  C   UNL A   1      41.377  21.228  27.200  1.00  0.00     0.126 C 
ATOM      6  C   UNL A   1      41.912  22.124  28.322  1.00  0.00     0.025 C 
BRANCH   5   7
ATOM      7  C   UNL A   1      40.041  21.781  26.734  1.00  0.00    -0.034 A 
ATOM      8  C   UNL A   1      39.184  21.056  25.893  1.00  0.00     0.005 A 
ATOM      9  C   UNL A   1      39.708  23.104  27.052  1.00  0.00     0.005 A 
ATOM     10  C   UNL A   1      38.040  21.651  25.362  1.00  0.00     0.004 A 
ATOM     11  C   UNL A   1      38.578  23.705  26.501  1.00  0.00     0.004 A 
ATOM     12  C   UNL A   1      37.753  22.996  25.620  1.00  0.00    -0.048 A 
BRANCH  12  13
ATOM     13  C   UNL A   1      36.617  23.703  24.922  1.00  0.00     0.041 C 
BRANCH  13  14
ATOM     14  C   UNL A   1      35.405  24.052  25.805  1.00  0.00     0.022 C 
ATOM     15  C   UNL A   1      34.446  25.124  25.257  1.00  0.00     0.007 C 
ATOM     16  C   UNL A   1      34.488  22.882  26.172  1.00  0.00     0.117 C 
ATOM     17  C   UNL A   1      33.049  24.735  25.752  1.00  0.00     0.003 C 
ATOM     18  C   UNL A   1      33.260  23.589  26.727  1.00  0.00     0.032 C 
BRANCH  16  19
ATOM     19  O   UNL A   1      35.063  22.042  27.153  1.00  0.00    -0.393 OA
ATOM     20  H   UNL A   1      36.030  22.107  27.108  1.00  0.00     0.210 HD
ENDBRANCH  16  19
ENDBRANCH  13  14
ENDBRANCH  12  13
ENDBRANCH   5   7
ENDBRANCH   3   5
ENDBRANCH   2   3
ENDBRANCH   1   2
BRANCH   1  21
ATOM     21  C   UNL A   1      44.317  23.058  24.043  1.00  0.00     0.275 C 
BRANCH  21  22
ATOM     22  O   UNL A   1      43.603  24.141  24.665  1.00  0.00    -0.458 OA
BRANCH  22  23
ATOM     23  C   UNL A   1      44.347  25.197  25.062  1.00  0.00     0.338 C 
ATOM     24  O   UNL A   1      45.424  25.560  24.626  1.00  0.00    -0.246 OA
BRANCH  23  25
ATOM     25  C   UNL A   1      43.641  25.896  26.149  1.00  0.00     0.060 A 
ATOM     26  C   UNL A   1      43.979  27.214  26.453  1.00  0.00     0.016 A 
ATOM     27  C   UNL A   1      42.712  25.211  26.931  1.00  0.00     0.016 A 
ATOM     28  C   UNL A   1      43.453  27.829  27.585  1.00  0.00     0.010 A 
ATOM     29  C   UNL A   1      42.115  25.862  28.016  1.00  0.00     0.010 A 
ATOM     30  C   UNL A   1      42.502  27.166  28.373  1.00  0.00    -0.014 A 
BRANCH  30  31
ATOM     31  C   UNL A   1      41.940  27.820  29.585  1.00  0.00     0.031 A 
ATOM     32  C   UNL A   1      40.672  28.622  29.490  1.00  0.00     0.074 A 
ATOM     33  C   UNL A   1      42.557  27.693  30.776  1.00  0.00     0.049 A 
ATOM     34  N   UNL A   1      40.126  29.417  30.375  1.00  0.00    -0.248 NA
ATOM     35  C   UNL A   1      39.924  28.527  28.226  1.00  0.00     0.031 C 
ATOM     36  C   UNL A   1      43.768  26.910  31.027  1.00  0.00     0.029 A 
ATOM     37  N   UNL A   1      42.246  28.223  32.004  1.00  0.00    -0.354 N 
ATOM     38  C   UNL A   1      39.004  29.957  29.759  1.00  0.00     0.074 A 
ATOM     39  C   UNL A   1      38.944  29.397  28.426  1.00  0.00     0.031 C 
ATOM     40  C   UNL A   1      44.079  26.985  32.330  1.00  0.00     0.029 A 
ATOM     41  C   UNL A   1      43.138  27.881  32.991  1.00  0.00     0.049 A 
ATOM     42  H   UNL A   1      41.459  28.793  32.162  1.00  0.00     0.167 HD
ATOM     43  C   UNL A   1      38.112  30.845  30.259  1.00  0.00     0.037 A 
ATOM     44  C   UNL A   1      43.215  28.276  34.276  1.00  0.00     0.037 A 
ATOM     45  C   UNL A   1      38.141  31.361  31.601  1.00  0.00     0.049 A 
ATOM     46  C   UNL A   1      42.219  29.264  34.806  1.00  0.00     0.074 A 
ATOM     47  C   UNL A   1      37.282  32.268  32.198  1.00  0.00     0.029 A 
ATOM     48  N   UNL A   1      39.070  30.997  32.564  1.00  0.00    -0.354 N 
ATOM     49  N   UNL A   1      41.210  29.829  34.189  1.00  0.00    -0.248 NA
ATOM     50  C   UNL A   1      42.385  29.689  36.203  1.00  0.00     0.031 C 
ATOM     51  C   UNL A   1      37.701  32.465  33.519  1.00  0.00     0.029 A 
ATOM     52  C   UNL A   1      38.805  31.660  33.751  1.00  0.00     0.049 A 
ATOM     53  H   UNL A   1      39.808  30.361  32.425  1.00  0.00     0.167 HD
ATOM     54  C   UNL A   1      40.623  30.676  35.119  1.00  0.00     0.074 A 
ATOM     55  C   UNL A   1      41.373  30.533  36.350  1.00  0.00     0.031 C 
ATOM     56  C   UNL A   1      39.564  31.506  34.964  1.00  0.00     0.037 A 
BRANCH  43  57
ATOM     57  C   UNL A   1      37.040  31.339  29.334  1.00  0.00     0.057 A 
ATOM     58  C   UNL A   1      35.922  30.561  29.011  1.00  0.00     0.134 A 
ATOM     59  C   UNL A   1      37.120  32.623  28.782  1.00  0.00     0.134 A 
ATOM     60  F   UNL A   1      35.797  29.317  29.495  1.00  0.00    -0.206 F 
ATOM     61  C   UNL A   1      34.925  31.041  28.159  1.00  0.00     0.040 A 
ATOM     62  C   UNL A   1      36.120  33.120  27.944  1.00  0.00     0.040 A 
ATOM     63  F   UNL A   1      38.166  33.418  29.054  1.00  0.00    -0.206 F 
ATOM     64  C   UNL A   1      35.021  32.326  27.627  1.00  0.00     0.006 A 
ENDBRANCH  43  57
BRANCH  44  65
ATOM     65  C   UNL A   1      44.308  27.762  35.137  1.00  0.00     0.057 A 
ATOM     66  C   UNL A   1      44.156  26.581  35.869  1.00  0.00     0.134 A 
ATOM     67  C   UNL A   1      45.533  28.433  35.234  1.00  0.00     0.134 A 
ATOM     68  F   UNL A   1      42.995  25.910  35.834  1.00  0.00    -0.206 F 
ATOM     69  C   UNL A   1      45.184  26.083  36.671  1.00  0.00     0.040 A 
ATOM     70  C   UNL A   1      46.577  27.935  36.015  1.00  0.00     0.040 A 
ATOM     71  F   UNL A   1      45.739  29.570  34.554  1.00  0.00    -0.206 F 
ATOM     72  C   UNL A   1      46.402  26.757  36.738  1.00  0.00     0.006 A 
ENDBRANCH  44  65
BRANCH  56  73
ATOM     73  C   UNL A   1      39.153  32.310  36.157  1.00  0.00     0.057 A 
ATOM     74  C   UNL A   1      39.633  33.610  36.362  1.00  0.00     0.134 A 
ATOM     75  C   UNL A   1      38.252  31.793  37.094  1.00  0.00     0.134 A 
ATOM     76  F   UNL A   1      40.510  34.154  35.505  1.00  0.00    -0.206 F 
ATOM     77  C   UNL A   1      39.241  34.362  37.469  1.00  0.00     0.040 A 
ATOM     78  C   UNL A   1      37.841  32.541  38.197  1.00  0.00     0.040 A 
ATOM     79  F   UNL A   1      37.756  30.555  36.948  1.00  0.00    -0.206 F 
ATOM     80  C   UNL A   1      38.338  33.828  38.389  1.00  0.00     0.006 A 
ENDBRANCH  56  73
ENDBRANCH  30  31
ENDBRANCH  23  25
ENDBRANCH  22  23
ENDBRANCH  21  22
ENDBRANCH   1  21
TORSDOF 15
ENDMDL
MODEL 3
REMARK VINA RESULT:     -10.5      5.677     10.041
REMARK SMILES C[C@H](C(=O)OCCOC(=O)c1ccc(-c2c3nc(c(-c4c(F)cccc4F)c4ccc([nH]4)c(-c4c(F)cccc4F)c4nc(c(-c5c(F)cccc5F)c5ccc2[nH]5)C=C4)C=C3)cc1)c1ccc(C[C@H]2CCC[C@@H]2O)cc1
REMARK SMILES IDX 6 1 5 2 3 3 4 4 2 5 1 6 65 7 66 8 77 9 67 10 76 11 68 12
REMARK SMILES IDX 69 13 70 14 71 15 74 16 72 17 73 18 75 19 7 21 8 22 9 23
REMARK SMILES IDX 10 24 11 25 12 26 64 27 13 28 63 29 14 30 15 31 16 32 57 33
REMARK SMILES IDX 17 34 62 35 56 36 58 37 18 38 61 39 55 40 54 41 19 43 45 44
REMARK SMILES IDX 28 45 44 46 29 47 32 48 43 49 59 50 30 51 31 52 42 54 60 55
REMARK SMILES IDX 33 56 20 57 21 58 26 59 22 60 23 61 25 62 27 63 24 64 46 65
REMARK SMILES IDX 47 66 52 67 48 68 49 69 51 70 53 71 50 72 34 73 35 74 40 75
REMARK SMILES IDX 36 76 37 77 39 78 41 79 38 80
REMARK H PARENT 75 20 58 42 32 53
REMARK Flexibility Score: inf
ROOT
ATOM      1  C   UNL A   1      35.876  19.862  24.985  1.00  0.00     0.274 C 
ENDROOT
BRANCH   1   2
ATOM      2  O   UNL A   1      35.431  21.101  25.573  1.00  0.00    -0.462 OA
BRANCH   2   3
ATOM      3  C   UNL A   1      34.682  21.921  24.792  1.00  0.00     0.313 C 
ATOM      4  O   UNL A   1      33.573  21.628  24.353  1.00  0.00    -0.252 OA
BRANCH   3   5
ATOM      5  C   UNL A   1      35.339  23.262  24.490  1.00  0.00     0.126 C 
ATOM      6  C   UNL A   1      36.423  23.107  23.418  1.00  0.00     0.025 C 
BRANCH   5   7
ATOM      7  C   UNL A   1      34.435  24.419  24.100  1.00  0.00    -0.034 A 
ATOM      8  C   UNL A   1      34.017  24.628  22.779  1.00  0.00     0.005 A 
ATOM      9  C   UNL A   1      34.109  25.379  25.068  1.00  0.00     0.005 A 
ATOM     10  C   UNL A   1      33.315  25.782  22.430  1.00  0.00     0.004 A 
ATOM     11  C   UNL A   1      33.430  26.543  24.713  1.00  0.00     0.004 A 
ATOM     12  C   UNL A   1      33.060  26.774  23.383  1.00  0.00    -0.048 A 
BRANCH  12  13
ATOM     13  C   UNL A   1      32.454  28.100  22.992  1.00  0.00     0.041 C 
BRANCH  13  14
ATOM     14  C   UNL A   1      30.975  28.058  22.567  1.00  0.00     0.022 C 
ATOM     15  C   UNL A   1      30.036  27.206  23.440  1.00  0.00     0.007 C 
ATOM     16  C   UNL A   1      30.269  29.414  22.475  1.00  0.00     0.117 C 
ATOM     17  C   UNL A   1      28.676  27.911  23.414  1.00  0.00     0.003 C 
ATOM     18  C   UNL A   1      28.804  29.016  22.379  1.00  0.00     0.032 C 
BRANCH  16  19
ATOM     19  O   UNL A   1      30.662  30.141  21.327  1.00  0.00    -0.393 OA
ATOM     20  H   UNL A   1      30.568  29.581  20.541  1.00  0.00     0.210 HD
ENDBRANCH  16  19
ENDBRANCH  13  14
ENDBRANCH  12  13
ENDBRANCH   5   7
ENDBRANCH   3   5
ENDBRANCH   2   3
ENDBRANCH   1   2
BRANCH   1  21
ATOM     21  C   UNL A   1      37.393  19.866  24.824  1.00  0.00     0.275 C 
BRANCH  21  22
ATOM     22  O   UNL A   1      37.962  20.842  25.715  1.00  0.00    -0.458 OA
BRANCH  22  23
ATOM     23  C   UNL A   1      39.255  20.654  26.060  1.00  0.00     0.338 C 
ATOM     24  O   UNL A   1      39.912  19.632  25.975  1.00  0.00    -0.246 OA
BRANCH  23  25
ATOM     25  C   UNL A   1      39.800  21.922  26.575  1.00  0.00     0.060 A 
ATOM     26  C   UNL A   1      39.266  23.130  26.129  1.00  0.00     0.016 A 
ATOM     27  C   UNL A   1      40.905  21.913  27.423  1.00  0.00     0.016 A 
ATOM     28  C   UNL A   1      39.881  24.333  26.464  1.00  0.00     0.010 A 
ATOM     29  C   UNL A   1      41.468  23.127  27.832  1.00  0.00     0.010 A 
ATOM     30  C   UNL A   1      40.981  24.348  27.332  1.00  0.00    -0.014 A 
BRANCH  30  31
ATOM     31  C   UNL A   1      41.642  25.632  27.689  1.00  0.00     0.031 A 
ATOM     32  C   UNL A   1      40.911  26.652  28.517  1.00  0.00     0.074 A 
ATOM     33  C   UNL A   1      42.901  25.887  27.281  1.00  0.00     0.049 A 
ATOM     34  N   UNL A   1      41.232  27.895  28.775  1.00  0.00    -0.248 NA
ATOM     35  C   UNL A   1      39.643  26.221  29.127  1.00  0.00     0.031 C 
ATOM     36  C   UNL A   1      43.747  24.973  26.511  1.00  0.00     0.029 A 
ATOM     37  N   UNL A   1      43.690  26.996  27.460  1.00  0.00    -0.354 N 
ATOM     38  C   UNL A   1      40.185  28.409  29.528  1.00  0.00     0.074 A 
ATOM     39  C   UNL A   1      39.219  27.343  29.690  1.00  0.00     0.031 C 
ATOM     40  C   UNL A   1      44.944  25.545  26.311  1.00  0.00     0.029 A 
ATOM     41  C   UNL A   1      44.925  26.892  26.870  1.00  0.00     0.049 A 
ATOM     42  H   UNL A   1      43.398  27.790  27.964  1.00  0.00     0.167 HD
ATOM     43  C   UNL A   1      40.040  29.658  30.031  1.00  0.00     0.037 A 
ATOM     44  C   UNL A   1      45.919  27.793  26.754  1.00  0.00     0.037 A 
ATOM     45  C   UNL A   1      41.023  30.701  29.915  1.00  0.00     0.049 A 
ATOM     46  C   UNL A   1      45.734  29.172  27.313  1.00  0.00     0.074 A 
ATOM     47  C   UNL A   1      40.966  32.001  30.388  1.00  0.00     0.029 A 
ATOM     48  N   UNL A   1      42.256  30.556  29.297  1.00  0.00    -0.354 N 
ATOM     49  N   UNL A   1      44.705  29.671  27.953  1.00  0.00    -0.248 NA
ATOM     50  C   UNL A   1      46.837  30.122  27.114  1.00  0.00     0.031 C 
ATOM     51  C   UNL A   1      42.158  32.648  30.042  1.00  0.00     0.029 A 
ATOM     52  C   UNL A   1      42.968  31.741  29.377  1.00  0.00     0.049 A 
ATOM     53  H   UNL A   1      42.578  29.732  28.865  1.00  0.00     0.167 HD
ATOM     54  C   UNL A   1      45.034  30.991  28.231  1.00  0.00     0.074 A 
ATOM     55  C   UNL A   1      46.369  31.209  27.712  1.00  0.00     0.031 C 
ATOM     56  C   UNL A   1      44.293  31.939  28.852  1.00  0.00     0.037 A 
BRANCH  43  57
ATOM     57  C   UNL A   1      38.752  29.974  30.730  1.00  0.00     0.057 A 
ATOM     58  C   UNL A   1      38.577  29.751  32.100  1.00  0.00     0.134 A 
ATOM     59  C   UNL A   1      37.683  30.536  30.022  1.00  0.00     0.134 A 
ATOM     60  F   UNL A   1      39.559  29.200  32.829  1.00  0.00    -0.206 F 
ATOM     61  C   UNL A   1      37.376  30.063  32.740  1.00  0.00     0.040 A 
ATOM     62  C   UNL A   1      36.484  30.870  30.654  1.00  0.00     0.040 A 
ATOM     63  F   UNL A   1      37.788  30.776  28.706  1.00  0.00    -0.206 F 
ATOM     64  C   UNL A   1      36.327  30.629  32.016  1.00  0.00     0.006 A 
ENDBRANCH  43  57
BRANCH  44  65
ATOM     65  C   UNL A   1      47.164  27.424  26.037  1.00  0.00     0.057 A 
ATOM     66  C   UNL A   1      48.274  26.929  26.727  1.00  0.00     0.134 A 
ATOM     67  C   UNL A   1      47.265  27.544  24.646  1.00  0.00     0.134 A 
ATOM     68  F   UNL A   1      48.243  26.816  28.063  1.00  0.00    -0.206 F 
ATOM     69  C   UNL A   1      49.445  26.567  26.059  1.00  0.00     0.040 A 
ATOM     70  C   UNL A   1      48.421  27.165  23.963  1.00  0.00     0.040 A 
ATOM     71  F   UNL A   1      46.232  28.011  23.929  1.00  0.00    -0.206 F 
ATOM     72  C   UNL A   1      49.517  26.676  24.672  1.00  0.00     0.006 A 
ENDBRANCH  44  65
BRANCH  56  73
ATOM     73  C   UNL A   1      44.917  33.290  29.009  1.00  0.00     0.057 A 
ATOM     74  C   UNL A   1      45.722  33.600  30.112  1.00  0.00     0.134 A 
ATOM     75  C   UNL A   1      44.732  34.282  28.038  1.00  0.00     0.134 A 
ATOM     76  F   UNL A   1      45.924  32.694  31.081  1.00  0.00    -0.206 F 
ATOM     77  C   UNL A   1      46.311  34.856  30.252  1.00  0.00     0.040 A 
ATOM     78  C   UNL A   1      45.328  35.537  28.160  1.00  0.00     0.040 A 
ATOM     79  F   UNL A   1      43.973  34.043  26.958  1.00  0.00    -0.206 F 
ATOM     80  C   UNL A   1      46.117  35.828  29.270  1.00  0.00     0.006 A 
ENDBRANCH  56  73
ENDBRANCH  30  31
ENDBRANCH  23  25
ENDBRANCH  22  23
ENDBRANCH  21  22
ENDBRANCH   1  21
TORSDOF 15
ENDMDL
