MODEL 1
REMARK VINA RESULT:     -14.2      0.000      0.000
REMARK SMILES Cc1ccc(NC(=O)[C@H]2CC(Cl)=CC[C@@H]2C(=O)OCCOC(=O)c2ccc(-c3c4nc(c(-c5c(F)cccc5F)c5ccc([nH]5)c(-c5c(F)cccc5F)c5nc(c(-c6c(F)cccc6F)c6ccc3[nH]6)C=C5)C=C4)cc2)cc1[N+](=O)[O-]
REMARK SMILES IDX 19 1 18 2 16 3 17 4 15 5 9 6 10 7 11 8 14 9 12 10 13 11 7 12
REMARK SMILES IDX 6 13 8 15 5 16 1 17 2 18 3 19 79 20 4 21 78 22 80 23 81 24
REMARK SMILES IDX 82 25 20 26 21 27 22 28 23 29 24 30 25 31 77 32 26 33 76 34
REMARK SMILES IDX 27 35 28 36 29 37 70 38 30 39 75 40 69 41 71 42 31 43 74 44
REMARK SMILES IDX 68 45 67 46 32 48 58 49 41 50 57 51 42 52 45 53 56 54 72 55
REMARK SMILES IDX 43 56 44 57 55 59 73 60 46 61 33 62 34 63 39 64 35 65 36 66
REMARK SMILES IDX 38 67 40 68 37 69 59 70 60 71 65 72 61 73 62 74 64 75 66 76
REMARK SMILES IDX 63 77 47 78 48 79 53 80 49 81 50 82 52 83 54 84 51 85
REMARK H PARENT 6 14 71 47 45 58
REMARK Flexibility Score: inf
ROOT
ATOM      1  C   UNL A   1      38.090  23.539  25.940  1.00  0.00     0.274 C 
ENDROOT
BRANCH   1   2
ATOM      2  O   UNL A   1      36.855  23.572  24.633  1.00  0.00    -0.462 OA
BRANCH   2   3
ATOM      3  C   UNL A   1      35.963  23.078  23.723  1.00  0.00     0.310 C 
ATOM      4  O   UNL A   1      36.389  22.953  22.566  1.00  0.00    -0.252 OA
BRANCH   3   5
ATOM      5  C   UNL A   1      34.437  22.658  23.874  1.00  0.00     0.116 C 
ATOM      6  C   UNL A   1      33.206  23.552  23.606  1.00  0.00     0.098 C 
ATOM      7  C   UNL A   1      31.844  22.913  23.913  1.00  0.00     0.062 C 
ATOM      8  C   UNL A   1      31.824  22.403  25.315  1.00  0.00     0.015 C 
ATOM      9  C   UNL A   1      34.202  21.702  25.100  1.00  0.00     0.044 C 
ATOM     10  Cl  UNL A   1      30.361  22.583  26.203  1.00  0.00    -0.089 Cl
ATOM     11  C   UNL A   1      32.908  21.846  25.860  1.00  0.00    -0.010 C 
BRANCH   6  12
ATOM     12  C   UNL A   1      33.282  23.924  22.164  1.00  0.00     0.228 C 
ATOM     13  N   UNL A   1      33.076  25.226  21.860  1.00  0.00    -0.326 N 
ATOM     14  H   UNL A   1      33.133  25.448  20.903  1.00  0.00     0.169 HD
ATOM     15  O   UNL A   1      33.582  23.130  21.278  1.00  0.00    -0.274 OA
BRANCH  13  16
ATOM     16  C   UNL A   1      32.796  26.294  22.701  1.00  0.00     0.048 A 
ATOM     17  C   UNL A   1      31.222  30.349  25.377  1.00  0.00     0.052 C 
ATOM     18  C   UNL A   1      31.703  29.346  24.346  1.00  0.00     0.027 A 
ATOM     19  C   UNL A   1      33.257  28.654  24.727  1.00  0.00     0.012 A 
ATOM     20  C   UNL A   1      30.729  28.541  23.200  1.00  0.00     0.274 A 
ATOM     21  C   UNL A   1      33.901  27.097  23.915  1.00  0.00     0.027 A 
ATOM     22  C   UNL A   1      31.210  27.045  22.408  1.00  0.00     0.112 A 
BRANCH  20  23
ATOM     23  N   UNL A   1      29.640  29.311  22.606  1.00  0.00     0.063 N 
ATOM     24  O   UNL A   1      28.518  29.134  23.087  1.00  0.00    -0.258 OA
ATOM     25  O   UNL A   1      29.902  30.025  21.634  1.00  0.00    -0.258 OA
ENDBRANCH  20  23
ENDBRANCH  13  16
ENDBRANCH   6  12
ENDBRANCH   3   5
ENDBRANCH   2   3
ENDBRANCH   1   2
BRANCH   1  26
ATOM     26  C   UNL A   1      39.365  21.789  26.368  1.00  0.00     0.275 C 
BRANCH  26  27
ATOM     27  O   UNL A   1      41.178  21.842  25.974  1.00  0.00    -0.458 OA
BRANCH  27  28
ATOM     28  C   UNL A   1      42.299  22.695  25.532  1.00  0.00     0.338 C 
ATOM     29  O   UNL A   1      43.061  22.275  24.664  1.00  0.00    -0.246 OA
BRANCH  28  30
ATOM     30  C   UNL A   1      42.642  24.152  26.088  1.00  0.00     0.060 A 
ATOM     31  C   UNL A   1      42.500  25.402  25.448  1.00  0.00     0.016 A 
ATOM     32  C   UNL A   1      42.870  24.275  27.424  1.00  0.00     0.016 A 
ATOM     33  C   UNL A   1      42.165  26.601  26.196  1.00  0.00     0.010 A 
ATOM     34  C   UNL A   1      42.072  25.226  28.041  1.00  0.00     0.010 A 
ATOM     35  C   UNL A   1      41.794  26.479  27.525  1.00  0.00    -0.014 A 
BRANCH  35  36
ATOM     36  C   UNL A   1      41.373  27.438  28.601  1.00  0.00     0.031 A 
ATOM     37  C   UNL A   1      40.225  28.393  28.519  1.00  0.00     0.074 A 
ATOM     38  C   UNL A   1      42.140  27.341  29.731  1.00  0.00     0.049 A 
ATOM     39  N   UNL A   1      40.309  29.683  28.605  1.00  0.00    -0.248 NA
ATOM     40  C   UNL A   1      38.832  27.948  28.386  1.00  0.00     0.031 C 
ATOM     41  C   UNL A   1      42.162  27.996  31.024  1.00  0.00     0.029 A 
ATOM     42  N   UNL A   1      43.301  26.530  29.830  1.00  0.00    -0.354 N 
ATOM     43  C   UNL A   1      39.015  30.149  28.853  1.00  0.00     0.074 A 
ATOM     44  C   UNL A   1      38.133  29.093  28.437  1.00  0.00     0.031 C 
ATOM     45  C   UNL A   1      43.432  27.904  31.506  1.00  0.00     0.029 A 
ATOM     46  C   UNL A   1      44.267  27.240  30.500  1.00  0.00     0.049 A 
ATOM     47  H   UNL A   1      43.398  25.615  29.480  1.00  0.00     0.167 HD
ATOM     48  C   UNL A   1      38.779  31.155  29.753  1.00  0.00     0.037 A 
ATOM     49  C   UNL A   1      45.279  27.710  29.714  1.00  0.00     0.037 A 
ATOM     50  C   UNL A   1      39.994  31.387  30.513  1.00  0.00     0.049 A 
ATOM     51  C   UNL A   1      45.202  29.206  29.620  1.00  0.00     0.074 A 
ATOM     52  C   UNL A   1      40.421  30.933  31.748  1.00  0.00     0.029 A 
ATOM     53  N   UNL A   1      41.105  31.865  29.869  1.00  0.00    -0.354 N 
ATOM     54  N   UNL A   1      44.156  29.899  29.969  1.00  0.00    -0.248 NA
ATOM     55  C   UNL A   1      46.263  30.026  29.056  1.00  0.00     0.031 C 
ATOM     56  C   UNL A   1      41.822  31.162  31.833  1.00  0.00     0.029 A 
ATOM     57  C   UNL A   1      42.231  31.750  30.650  1.00  0.00     0.049 A 
ATOM     58  H   UNL A   1      41.098  32.242  28.959  1.00  0.00     0.167 HD
ATOM     59  C   UNL A   1      44.385  31.217  29.731  1.00  0.00     0.074 A 
ATOM     60  C   UNL A   1      45.692  31.240  29.096  1.00  0.00     0.031 C 
ATOM     61  C   UNL A   1      43.487  32.184  30.076  1.00  0.00     0.037 A 
BRANCH  48  62
ATOM     62  C   UNL A   1      37.440  31.711  30.223  1.00  0.00     0.057 A 
ATOM     63  C   UNL A   1      36.756  31.127  31.316  1.00  0.00     0.134 A 
ATOM     64  C   UNL A   1      36.819  32.866  29.714  1.00  0.00     0.134 A 
ATOM     65  F   UNL A   1      37.253  30.079  31.986  1.00  0.00    -0.206 F 
ATOM     66  C   UNL A   1      35.528  31.593  31.806  1.00  0.00     0.040 A 
ATOM     67  C   UNL A   1      35.579  33.340  30.191  1.00  0.00     0.040 A 
ATOM     68  F   UNL A   1      37.405  33.608  28.764  1.00  0.00    -0.206 F 
ATOM     69  C   UNL A   1      34.923  32.697  31.235  1.00  0.00     0.006 A 
ENDBRANCH  48  62
BRANCH  49  70
ATOM     70  C   UNL A   1      45.686  26.817  28.551  1.00  0.00     0.057 A 
ATOM     71  C   UNL A   1      45.410  27.199  27.218  1.00  0.00     0.134 A 
ATOM     72  C   UNL A   1      46.547  25.717  28.692  1.00  0.00     0.134 A 
ATOM     73  F   UNL A   1      44.651  28.278  26.966  1.00  0.00    -0.206 F 
ATOM     74  C   UNL A   1      45.989  26.563  26.106  1.00  0.00     0.040 A 
ATOM     75  C   UNL A   1      47.126  25.065  27.587  1.00  0.00     0.040 A 
ATOM     76  F   UNL A   1      46.922  25.288  29.905  1.00  0.00    -0.206 F 
ATOM     77  C   UNL A   1      46.865  25.497  26.289  1.00  0.00     0.006 A 
ENDBRANCH  49  70
BRANCH  61  78
ATOM     78  C   UNL A   1      43.733  33.643  29.851  1.00  0.00     0.057 A 
ATOM     79  C   UNL A   1      43.689  34.210  28.574  1.00  0.00     0.134 A 
ATOM     80  C   UNL A   1      44.099  34.520  30.893  1.00  0.00     0.134 A 
ATOM     81  F   UNL A   1      43.525  33.449  27.481  1.00  0.00    -0.206 F 
ATOM     82  C   UNL A   1      43.840  35.580  28.366  1.00  0.00     0.040 A 
ATOM     83  C   UNL A   1      44.319  35.879  30.689  1.00  0.00     0.040 A 
ATOM     84  F   UNL A   1      44.248  34.120  32.162  1.00  0.00    -0.206 F 
ATOM     85  C   UNL A   1      44.149  36.421  29.428  1.00  0.00     0.006 A 
ENDBRANCH  61  78
ENDBRANCH  35  36
ENDBRANCH  28  30
ENDBRANCH  27  28
ENDBRANCH  26  27
ENDBRANCH   1  26
TORSDOF 14
ENDMDL
MODEL 2
REMARK VINA RESULT:     -14.0      1.933      3.149
REMARK SMILES Cc1ccc(NC(=O)[C@H]2CC(Cl)=CC[C@@H]2C(=O)OCCOC(=O)c2ccc(-c3c4nc(c(-c5c(F)cccc5F)c5ccc([nH]5)c(-c5c(F)cccc5F)c5nc(c(-c6c(F)cccc6F)c6ccc3[nH]6)C=C5)C=C4)cc2)cc1[N+](=O)[O-]
REMARK SMILES IDX 19 1 18 2 16 3 17 4 15 5 9 6 10 7 11 8 14 9 12 10 13 11 7 12
REMARK SMILES IDX 6 13 8 15 5 16 1 17 2 18 3 19 79 20 4 21 78 22 80 23 81 24
REMARK SMILES IDX 82 25 20 26 21 27 22 28 23 29 24 30 25 31 77 32 26 33 76 34
REMARK SMILES IDX 27 35 28 36 29 37 70 38 30 39 75 40 69 41 71 42 31 43 74 44
REMARK SMILES IDX 68 45 67 46 32 48 58 49 41 50 57 51 42 52 45 53 56 54 72 55
REMARK SMILES IDX 43 56 44 57 55 59 73 60 46 61 33 62 34 63 39 64 35 65 36 66
REMARK SMILES IDX 38 67 40 68 37 69 59 70 60 71 65 72 61 73 62 74 64 75 66 76
REMARK SMILES IDX 63 77 47 78 48 79 53 80 49 81 50 82 52 83 54 84 51 85
REMARK H PARENT 6 14 71 47 45 58
REMARK Flexibility Score: inf
ROOT
ATOM      1  C   UNL A   1      38.284  21.464  25.713  1.00  0.00     0.274 C 
ENDROOT
BRANCH   1   2
ATOM      2  O   UNL A   1      37.120  22.537  24.859  1.00  0.00    -0.462 OA
BRANCH   2   3
ATOM      3  C   UNL A   1      36.058  22.877  24.069  1.00  0.00     0.310 C 
ATOM      4  O   UNL A   1      36.318  23.613  23.106  1.00  0.00    -0.252 OA
BRANCH   3   5
ATOM      5  C   UNL A   1      34.513  22.521  24.182  1.00  0.00     0.116 C 
ATOM      6  C   UNL A   1      33.327  23.467  23.889  1.00  0.00     0.098 C 
ATOM      7  C   UNL A   1      31.933  22.884  24.160  1.00  0.00     0.062 C 
ATOM      8  C   UNL A   1      31.857  22.370  25.558  1.00  0.00     0.015 C 
ATOM      9  C   UNL A   1      34.208  21.570  25.396  1.00  0.00     0.044 C 
ATOM     10  Cl  UNL A   1      30.382  22.607  26.413  1.00  0.00    -0.089 Cl
ATOM     11  C   UNL A   1      32.904  21.766  26.126  1.00  0.00    -0.010 C 
BRANCH   6  12
ATOM     12  C   UNL A   1      33.453  23.842  22.451  1.00  0.00     0.228 C 
ATOM     13  N   UNL A   1      33.280  25.148  22.145  1.00  0.00    -0.326 N 
ATOM     14  H   UNL A   1      33.370  25.371  21.191  1.00  0.00     0.169 HD
ATOM     15  O   UNL A   1      33.766  23.046  21.571  1.00  0.00    -0.274 OA
BRANCH  13  16
ATOM     16  C   UNL A   1      32.993  26.219  22.981  1.00  0.00     0.048 A 
ATOM     17  C   UNL A   1      31.435  30.314  25.603  1.00  0.00     0.052 C 
ATOM     18  C   UNL A   1      31.938  29.302  24.593  1.00  0.00     0.027 A 
ATOM     19  C   UNL A   1      33.425  28.528  25.072  1.00  0.00     0.012 A 
ATOM     20  C   UNL A   1      31.010  28.560  23.369  1.00  0.00     0.274 A 
ATOM     21  C   UNL A   1      34.048  26.950  24.282  1.00  0.00     0.027 A 
ATOM     22  C   UNL A   1      31.472  27.052  22.589  1.00  0.00     0.112 A 
BRANCH  20  23
ATOM     23  N   UNL A   1      30.005  29.391  22.712  1.00  0.00     0.063 N 
ATOM     24  O   UNL A   1      30.235  29.708  21.542  1.00  0.00    -0.258 OA
ATOM     25  O   UNL A   1      29.040  29.769  23.383  1.00  0.00    -0.258 OA
ENDBRANCH  20  23
ENDBRANCH  13  16
ENDBRANCH   6  12
ENDBRANCH   3   5
ENDBRANCH   2   3
ENDBRANCH   1   2
BRANCH   1  26
ATOM     26  C   UNL A   1      40.228  22.156  26.496  1.00  0.00     0.275 C 
BRANCH  26  27
ATOM     27  O   UNL A   1      40.809  23.883  26.147  1.00  0.00    -0.458 OA
BRANCH  27  28
ATOM     28  C   UNL A   1      40.549  25.320  26.371  1.00  0.00     0.338 C 
ATOM     29  O   UNL A   1      41.116  26.146  25.659  1.00  0.00    -0.246 OA
BRANCH  28  30
ATOM     30  C   UNL A   1      39.582  25.933  27.483  1.00  0.00     0.060 A 
ATOM     31  C   UNL A   1      39.526  25.650  28.865  1.00  0.00     0.016 A 
ATOM     32  C   UNL A   1      38.872  27.046  27.151  1.00  0.00     0.016 A 
ATOM     33  C   UNL A   1      39.170  26.673  29.833  1.00  0.00     0.010 A 
ATOM     34  C   UNL A   1      39.049  28.103  28.031  1.00  0.00     0.010 A 
ATOM     35  C   UNL A   1      39.069  27.988  29.409  1.00  0.00    -0.014 A 
BRANCH  35  36
ATOM     36  C   UNL A   1      38.751  29.295  30.077  1.00  0.00     0.031 A 
ATOM     37  C   UNL A   1      37.744  30.295  29.604  1.00  0.00     0.074 A 
ATOM     38  C   UNL A   1      39.464  29.493  31.229  1.00  0.00     0.049 A 
ATOM     39  N   UNL A   1      37.998  31.521  29.267  1.00  0.00    -0.248 NA
ATOM     40  C   UNL A   1      36.308  29.997  29.524  1.00  0.00     0.031 C 
ATOM     41  C   UNL A   1      39.537  30.535  32.233  1.00  0.00     0.029 A 
ATOM     42  N   UNL A   1      40.502  28.632  31.673  1.00  0.00    -0.354 N 
ATOM     43  C   UNL A   1      36.773  32.190  29.253  1.00  0.00     0.074 A 
ATOM     44  C   UNL A   1      35.769  31.167  29.145  1.00  0.00     0.031 C 
ATOM     45  C   UNL A   1      40.767  30.463  32.809  1.00  0.00     0.029 A 
ATOM     46  C   UNL A   1      41.534  29.407  32.140  1.00  0.00     0.049 A 
ATOM     47  H   UNL A   1      40.485  27.648  31.650  1.00  0.00     0.167 HD
ATOM     48  C   UNL A   1      36.647  33.460  29.754  1.00  0.00     0.037 A 
ATOM     49  C   UNL A   1      42.623  29.465  31.319  1.00  0.00     0.037 A 
ATOM     50  C   UNL A   1      37.860  33.790  30.482  1.00  0.00     0.049 A 
ATOM     51  C   UNL A   1      42.751  30.841  30.734  1.00  0.00     0.074 A 
ATOM     52  C   UNL A   1      38.186  33.728  31.825  1.00  0.00     0.029 A 
ATOM     53  N   UNL A   1      39.044  33.890  29.798  1.00  0.00    -0.354 N 
ATOM     54  N   UNL A   1      41.798  31.728  30.759  1.00  0.00    -0.248 NA
ATOM     55  C   UNL A   1      43.929  31.295  30.009  1.00  0.00     0.031 C 
ATOM     56  C   UNL A   1      39.601  33.807  31.931  1.00  0.00     0.029 A 
ATOM     57  C   UNL A   1      40.121  33.912  30.653  1.00  0.00     0.049 A 
ATOM     58  H   UNL A   1      39.114  33.939  28.817  1.00  0.00     0.167 HD
ATOM     59  C   UNL A   1      42.209  32.854  30.118  1.00  0.00     0.074 A 
ATOM     60  C   UNL A   1      43.525  32.510  29.607  1.00  0.00     0.031 C 
ATOM     61  C   UNL A   1      41.440  33.978  30.061  1.00  0.00     0.037 A 
BRANCH  48  62
ATOM     62  C   UNL A   1      35.382  34.294  29.917  1.00  0.00     0.057 A 
ATOM     63  C   UNL A   1      34.691  34.791  28.785  1.00  0.00     0.134 A 
ATOM     64  C   UNL A   1      34.741  34.563  31.139  1.00  0.00     0.134 A 
ATOM     65  F   UNL A   1      35.104  34.544  27.536  1.00  0.00    -0.206 F 
ATOM     66  C   UNL A   1      33.517  35.555  28.863  1.00  0.00     0.040 A 
ATOM     67  C   UNL A   1      33.566  35.338  31.232  1.00  0.00     0.040 A 
ATOM     68  F   UNL A   1      35.200  34.051  32.291  1.00  0.00    -0.206 F 
ATOM     69  C   UNL A   1      32.955  35.847  30.091  1.00  0.00     0.006 A 
ENDBRANCH  48  62
BRANCH  49  70
ATOM     70  C   UNL A   1      42.940  28.193  30.546  1.00  0.00     0.057 A 
ATOM     71  C   UNL A   1      42.681  28.108  29.159  1.00  0.00     0.134 A 
ATOM     72  C   UNL A   1      43.708  27.144  31.076  1.00  0.00     0.134 A 
ATOM     73  F   UNL A   1      42.010  29.090  28.534  1.00  0.00    -0.206 F 
ATOM     74  C   UNL A   1      43.191  27.079  28.348  1.00  0.00     0.040 A 
ATOM     75  C   UNL A   1      44.218  26.103  30.276  1.00  0.00     0.040 A 
ATOM     76  F   UNL A   1      44.062  27.135  32.368  1.00  0.00    -0.206 F 
ATOM     77  C   UNL A   1      43.977  26.076  28.905  1.00  0.00     0.006 A 
ENDBRANCH  49  70
BRANCH  61  78
ATOM     78  C   UNL A   1      41.886  35.238  29.388  1.00  0.00     0.057 A 
ATOM     79  C   UNL A   1      42.864  36.067  29.947  1.00  0.00     0.134 A 
ATOM     80  C   UNL A   1      41.298  35.711  28.196  1.00  0.00     0.134 A 
ATOM     81  F   UNL A   1      43.373  35.820  31.164  1.00  0.00    -0.206 F 
ATOM     82  C   UNL A   1      43.338  37.201  29.289  1.00  0.00     0.040 A 
ATOM     83  C   UNL A   1      41.716  36.878  27.563  1.00  0.00     0.040 A 
ATOM     84  F   UNL A   1      40.304  35.067  27.571  1.00  0.00    -0.206 F 
ATOM     85  C   UNL A   1      42.768  37.606  28.088  1.00  0.00     0.006 A 
ENDBRANCH  61  78
ENDBRANCH  35  36
ENDBRANCH  28  30
ENDBRANCH  27  28
ENDBRANCH  26  27
ENDBRANCH   1  26
TORSDOF 14
ENDMDL
MODEL 3
REMARK VINA RESULT:     -13.9      4.932      8.480
REMARK SMILES Cc1ccc(NC(=O)[C@H]2CC(Cl)=CC[C@@H]2C(=O)OCCOC(=O)c2ccc(-c3c4nc(c(-c5c(F)cccc5F)c5ccc([nH]5)c(-c5c(F)cccc5F)c5nc(c(-c6c(F)cccc6F)c6ccc3[nH]6)C=C5)C=C4)cc2)cc1[N+](=O)[O-]
REMARK SMILES IDX 19 1 18 2 16 3 17 4 15 5 9 6 10 7 11 8 14 9 12 10 13 11 7 12
REMARK SMILES IDX 6 13 8 15 5 16 1 17 2 18 3 19 79 20 4 21 78 22 80 23 81 24
REMARK SMILES IDX 82 25 20 26 21 27 22 28 23 29 24 30 25 31 77 32 26 33 76 34
REMARK SMILES IDX 27 35 28 36 29 37 70 38 30 39 75 40 69 41 71 42 31 43 74 44
REMARK SMILES IDX 68 45 67 46 32 48 58 49 41 50 57 51 42 52 45 53 56 54 72 55
REMARK SMILES IDX 43 56 44 57 55 59 73 60 46 61 33 62 34 63 39 64 35 65 36 66
REMARK SMILES IDX 38 67 40 68 37 69 59 70 60 71 65 72 61 73 62 74 64 75 66 76
REMARK SMILES IDX 63 77 47 78 48 79 53 80 49 81 50 82 52 83 54 84 51 85
REMARK H PARENT 6 14 71 47 45 58
REMARK Flexibility Score: inf
ROOT
ATOM      1  C   UNL A   1      34.568  29.324  27.562  1.00  0.00     0.274 C 
ENDROOT
BRANCH   1   2
ATOM      2  O   UNL A   1      33.174  28.204  27.366  1.00  0.00    -0.462 OA
BRANCH   2   3
ATOM      3  C   UNL A   1      31.915  27.800  27.022  1.00  0.00     0.310 C 
ATOM      4  O   UNL A   1      31.091  27.760  27.949  1.00  0.00    -0.252 OA
BRANCH   3   5
ATOM      5  C   UNL A   1      31.309  27.331  25.629  1.00  0.00     0.116 C 
ATOM      6  C   UNL A   1      31.206  25.878  25.114  1.00  0.00     0.098 C 
ATOM      7  C   UNL A   1      30.651  25.718  23.692  1.00  0.00     0.062 C 
ATOM      8  C   UNL A   1      31.437  26.555  22.740  1.00  0.00     0.015 C 
ATOM      9  C   UNL A   1      31.643  28.334  24.467  1.00  0.00     0.044 C 
ATOM     10  Cl  UNL A   1      31.751  25.900  21.179  1.00  0.00    -0.089 Cl
ATOM     11  C   UNL A   1      31.893  27.758  23.096  1.00  0.00    -0.010 C 
BRANCH   6  12
ATOM     12  C   UNL A   1      30.330  25.164  26.087  1.00  0.00     0.228 C 
ATOM     13  N   UNL A   1      30.775  23.972  26.546  1.00  0.00    -0.326 N 
ATOM     14  H   UNL A   1      30.182  23.521  27.189  1.00  0.00     0.169 HD
ATOM     15  O   UNL A   1      29.285  25.634  26.525  1.00  0.00    -0.274 OA
BRANCH  13  16
ATOM     16  C   UNL A   1      31.947  23.293  26.243  1.00  0.00     0.048 A 
ATOM     17  C   UNL A   1      35.848  20.265  24.940  1.00  0.00     0.052 C 
ATOM     18  C   UNL A   1      34.616  20.932  25.520  1.00  0.00     0.027 A 
ATOM     19  C   UNL A   1      34.966  22.420  26.359  1.00  0.00     0.012 A 
ATOM     20  C   UNL A   1      33.003  20.641  25.050  1.00  0.00     0.274 A 
ATOM     21  C   UNL A   1      33.650  23.679  26.785  1.00  0.00     0.027 A 
ATOM     22  C   UNL A   1      31.691  21.775  25.353  1.00  0.00     0.112 A 
BRANCH  20  23
ATOM     23  N   UNL A   1      32.654  19.263  24.716  1.00  0.00     0.063 N 
ATOM     24  O   UNL A   1      32.360  18.527  25.662  1.00  0.00    -0.258 OA
ATOM     25  O   UNL A   1      32.741  18.917  23.534  1.00  0.00    -0.258 OA
ENDBRANCH  20  23
ENDBRANCH  13  16
ENDBRANCH   6  12
ENDBRANCH   3   5
ENDBRANCH   2   3
ENDBRANCH   1   2
BRANCH   1  26
ATOM     26  C   UNL A   1      34.370  31.522  27.579  1.00  0.00     0.275 C 
BRANCH  26  27
ATOM     27  O   UNL A   1      34.099  32.418  29.181  1.00  0.00    -0.458 OA
BRANCH  27  28
ATOM     28  C   UNL A   1      34.751  33.133  30.297  1.00  0.00     0.338 C 
ATOM     29  O   UNL A   1      34.897  34.351  30.221  1.00  0.00    -0.246 OA
BRANCH  28  30
ATOM     30  C   UNL A   1      35.311  32.465  31.636  1.00  0.00     0.060 A 
ATOM     31  C   UNL A   1      35.841  31.172  31.827  1.00  0.00     0.016 A 
ATOM     32  C   UNL A   1      35.554  33.289  32.692  1.00  0.00     0.016 A 
ATOM     33  C   UNL A   1      36.899  30.923  32.791  1.00  0.00     0.010 A 
ATOM     34  C   UNL A   1      36.844  33.190  33.190  1.00  0.00     0.010 A 
ATOM     35  C   UNL A   1      37.524  32.003  33.392  1.00  0.00    -0.014 A 
BRANCH  35  36
ATOM     36  C   UNL A   1      38.632  32.164  34.393  1.00  0.00     0.031 A 
ATOM     37  C   UNL A   1      38.588  33.028  35.612  1.00  0.00     0.074 A 
ATOM     38  C   UNL A   1      39.726  31.392  34.105  1.00  0.00     0.049 A 
ATOM     39  N   UNL A   1      39.385  34.018  35.865  1.00  0.00    -0.248 NA
ATOM     40  C   UNL A   1      37.641  32.800  36.712  1.00  0.00     0.031 C 
ATOM     41  C   UNL A   1      41.018  31.162  34.720  1.00  0.00     0.029 A 
ATOM     42  N   UNL A   1      39.866  30.633  32.914  1.00  0.00    -0.354 N 
ATOM     43  C   UNL A   1      39.249  34.300  37.227  1.00  0.00     0.074 A 
ATOM     44  C   UNL A   1      37.993  33.724  37.621  1.00  0.00     0.031 C 
ATOM     45  C   UNL A   1      41.870  30.756  33.740  1.00  0.00     0.029 A 
ATOM     46  C   UNL A   1      41.154  30.777  32.460  1.00  0.00     0.049 A 
ATOM     47  H   UNL A   1      39.161  30.095  32.486  1.00  0.00     0.167 HD
ATOM     48  C   UNL A   1      40.336  34.594  38.007  1.00  0.00     0.037 A 
ATOM     49  C   UNL A   1      41.287  31.579  31.364  1.00  0.00     0.037 A 
ATOM     50  C   UNL A   1      41.540  34.289  37.254  1.00  0.00     0.049 A 
ATOM     51  C   UNL A   1      41.997  32.847  31.741  1.00  0.00     0.074 A 
ATOM     52  C   UNL A   1      42.366  33.180  37.229  1.00  0.00     0.029 A 
ATOM     53  N   UNL A   1      41.822  35.010  36.124  1.00  0.00    -0.354 N 
ATOM     54  N   UNL A   1      42.165  33.244  32.970  1.00  0.00    -0.248 NA
ATOM     55  C   UNL A   1      42.501  33.801  30.764  1.00  0.00     0.031 C 
ATOM     56  C   UNL A   1      43.165  33.261  36.056  1.00  0.00     0.029 A 
ATOM     57  C   UNL A   1      42.814  34.415  35.379  1.00  0.00     0.049 A 
ATOM     58  H   UNL A   1      41.371  35.849  35.875  1.00  0.00     0.167 HD
ATOM     59  C   UNL A   1      42.808  34.441  32.977  1.00  0.00     0.074 A 
ATOM     60  C   UNL A   1      42.937  34.781  31.570  1.00  0.00     0.031 C 
ATOM     61  C   UNL A   1      43.187  35.054  34.135  1.00  0.00     0.037 A 
BRANCH  48  62
ATOM     62  C   UNL A   1      40.388  34.820  39.513  1.00  0.00     0.057 A 
ATOM     63  C   UNL A   1      40.087  36.088  40.067  1.00  0.00     0.134 A 
ATOM     64  C   UNL A   1      40.631  33.822  40.474  1.00  0.00     0.134 A 
ATOM     65  F   UNL A   1      39.734  37.130  39.304  1.00  0.00    -0.206 F 
ATOM     66  C   UNL A   1      40.105  36.362  41.442  1.00  0.00     0.040 A 
ATOM     67  C   UNL A   1      40.663  34.086  41.859  1.00  0.00     0.040 A 
ATOM     68  F   UNL A   1      40.805  32.542  40.116  1.00  0.00    -0.206 F 
ATOM     69  C   UNL A   1      40.410  35.363  42.348  1.00  0.00     0.006 A 
ENDBRANCH  48  62
BRANCH  49  70
ATOM     70  C   UNL A   1      40.148  31.524  30.358  1.00  0.00     0.057 A 
ATOM     71  C   UNL A   1      39.867  30.332  29.652  1.00  0.00     0.134 A 
ATOM     72  C   UNL A   1      39.178  32.532  30.239  1.00  0.00     0.134 A 
ATOM     73  F   UNL A   1      40.695  29.278  29.745  1.00  0.00    -0.206 F 
ATOM     74  C   UNL A   1      38.681  30.139  28.921  1.00  0.00     0.040 A 
ATOM     75  C   UNL A   1      37.991  32.355  29.504  1.00  0.00     0.040 A 
ATOM     76  F   UNL A   1      39.306  33.691  30.900  1.00  0.00    -0.206 F 
ATOM     77  C   UNL A   1      37.729  31.150  28.857  1.00  0.00     0.006 A 
ENDBRANCH  49  70
BRANCH  61  78
ATOM     78  C   UNL A   1      43.923  36.356  34.165  1.00  0.00     0.057 A 
ATOM     79  C   UNL A   1      45.311  36.423  34.014  1.00  0.00     0.134 A 
ATOM     80  C   UNL A   1      43.281  37.585  34.424  1.00  0.00     0.134 A 
ATOM     81  F   UNL A   1      46.057  35.309  33.938  1.00  0.00    -0.206 F 
ATOM     82  C   UNL A   1      45.994  37.637  33.964  1.00  0.00     0.040 A 
ATOM     83  C   UNL A   1      43.961  38.799  34.443  1.00  0.00     0.040 A 
ATOM     84  F   UNL A   1      41.965  37.684  34.654  1.00  0.00    -0.206 F 
ATOM     85  C   UNL A   1      45.317  38.833  34.172  1.00  0.00     0.006 A 
ENDBRANCH  61  78
ENDBRANCH  35  36
ENDBRANCH  28  30
ENDBRANCH  27  28
ENDBRANCH  26  27
ENDBRANCH   1  26
TORSDOF 14
ENDMDL
