MODEL 1
REMARK VINA RESULT:     -10.7      0.000      0.000
REMARK SMILES CCC(CC)(NC(=O)c1c(C)noc1C)C(=O)OCCOC(=O)c1ccc(-c2c3nc(c(-c4c(F)cccc4F)c4ccc([nH]4)c(-c4c(F)cccc4F)c4nc(c(-c5c(F)cccc5F)c5ccc2[nH]5)C=C4)C=C3)cc1
REMARK SMILES IDX 19 1 18 2 16 3 17 4 3 5 2 6 1 7 4 8 5 9 6 10 7 11 8 13 9 14
REMARK SMILES IDX 10 15 14 16 11 17 12 18 13 19 15 20 20 21 21 22 22 23 23 24
REMARK SMILES IDX 24 25 25 26 77 27 26 28 76 29 27 30 28 31 29 32 70 33 30 34
REMARK SMILES IDX 75 35 69 36 71 37 31 38 74 39 68 40 67 41 32 43 58 44 41 45
REMARK SMILES IDX 57 46 42 47 45 48 56 49 72 50 43 51 44 52 55 54 73 55 46 56
REMARK SMILES IDX 33 57 34 58 39 59 35 60 36 61 38 62 40 63 37 64 59 65 60 66
REMARK SMILES IDX 65 67 61 68 62 69 64 70 66 71 63 72 47 73 48 74 53 75 49 76
REMARK SMILES IDX 50 77 52 78 54 79 51 80
REMARK H PARENT 6 12 71 42 45 53
REMARK Flexibility Score: inf
ROOT
ATOM      1  C   UNL A   1      36.684  22.577  23.655  1.00  0.00     0.274 C 
ENDROOT
BRANCH   1   2
ATOM      2  O   UNL A   1      35.731  23.503  24.231  1.00  0.00    -0.460 OA
BRANCH   2   3
ATOM      3  C   UNL A   1      34.695  23.832  23.418  1.00  0.00     0.331 C 
ATOM      4  O   UNL A   1      34.591  23.414  22.267  1.00  0.00    -0.249 OA
BRANCH   3   5
ATOM      5  C   UNL A   1      33.629  24.760  24.083  1.00  0.00     0.137 C 
BRANCH   5   6
ATOM      6  C   UNL A   1      33.244  25.856  23.025  1.00  0.00     0.037 C 
ATOM      7  C   UNL A   1      31.866  25.778  22.380  1.00  0.00     0.007 C 
ENDBRANCH   5   6
BRANCH   5   8
ATOM      8  C   UNL A   1      34.287  25.406  25.337  1.00  0.00     0.037 C 
ATOM      9  C   UNL A   1      33.707  26.742  25.792  1.00  0.00     0.007 C 
ENDBRANCH   5   8
BRANCH   5  10
ATOM     10  N   UNL A   1      32.306  24.172  24.463  1.00  0.00    -0.336 N 
ATOM     11  C   UNL A   1      31.813  23.022  25.013  1.00  0.00     0.257 C 
ATOM     12  H   UNL A   1      31.575  24.797  24.254  1.00  0.00     0.165 HD
ATOM     13  O   UNL A   1      30.713  23.125  25.559  1.00  0.00    -0.269 OA
BRANCH  11  14
ATOM     14  C   UNL A   1      32.399  21.723  24.810  1.00  0.00     0.105 A 
ATOM     15  C   UNL A   1      33.250  21.053  25.746  1.00  0.00     0.093 A 
ATOM     16  C   UNL A   1      32.448  20.906  23.700  1.00  0.00     0.146 A 
ATOM     17  C   UNL A   1      33.662  21.492  27.104  1.00  0.00     0.071 C 
ATOM     18  N   UNL A   1      33.705  19.894  25.258  1.00  0.00    -0.084 NA
ATOM     19  O   UNL A   1      33.197  19.805  23.983  1.00  0.00    -0.361 OA
ATOM     20  C   UNL A   1      31.939  20.954  22.321  1.00  0.00     0.092 C 
ENDBRANCH  11  14
ENDBRANCH   5  10
ENDBRANCH   3   5
ENDBRANCH   2   3
ENDBRANCH   1   2
BRANCH   1  21
ATOM     21  C   UNL A   1      36.825  21.346  24.544  1.00  0.00     0.275 C 
BRANCH  21  22
ATOM     22  O   UNL A   1      37.388  21.784  25.790  1.00  0.00    -0.458 OA
BRANCH  22  23
ATOM     23  C   UNL A   1      38.688  21.477  25.987  1.00  0.00     0.338 C 
ATOM     24  O   UNL A   1      39.300  20.475  25.663  1.00  0.00    -0.246 OA
BRANCH  23  25
ATOM     25  C   UNL A   1      39.325  22.679  26.523  1.00  0.00     0.060 A 
ATOM     26  C   UNL A   1      40.365  22.504  27.435  1.00  0.00     0.016 A 
ATOM     27  C   UNL A   1      38.903  23.950  26.152  1.00  0.00     0.016 A 
ATOM     28  C   UNL A   1      40.991  23.602  28.003  1.00  0.00     0.010 A 
ATOM     29  C   UNL A   1      39.584  25.055  26.663  1.00  0.00     0.010 A 
ATOM     30  C   UNL A   1      40.638  24.887  27.582  1.00  0.00    -0.014 A 
BRANCH  30  31
ATOM     31  C   UNL A   1      41.414  26.062  28.041  1.00  0.00     0.031 A 
ATOM     32  C   UNL A   1      40.746  27.130  28.848  1.00  0.00     0.074 A 
ATOM     33  C   UNL A   1      42.704  26.184  27.672  1.00  0.00     0.049 A 
ATOM     34  N   UNL A   1      41.147  28.349  29.092  1.00  0.00    -0.248 NA
ATOM     35  C   UNL A   1      39.449  26.784  29.451  1.00  0.00     0.031 C 
ATOM     36  C   UNL A   1      43.476  25.180  26.933  1.00  0.00     0.029 A 
ATOM     37  N   UNL A   1      43.589  27.218  27.845  1.00  0.00    -0.354 N 
ATOM     38  C   UNL A   1      40.130  28.937  29.830  1.00  0.00     0.074 A 
ATOM     39  C   UNL A   1      39.101  27.935  30.013  1.00  0.00     0.031 C 
ATOM     40  C   UNL A   1      44.712  25.649  26.713  1.00  0.00     0.029 A 
ATOM     41  C   UNL A   1      44.790  27.015  27.209  1.00  0.00     0.049 A 
ATOM     42  H   UNL A   1      43.384  28.024  28.372  1.00  0.00     0.167 HD
ATOM     43  C   UNL A   1      40.064  30.208  30.293  1.00  0.00     0.037 A 
ATOM     44  C   UNL A   1      45.811  27.862  26.982  1.00  0.00     0.037 A 
ATOM     45  C   UNL A   1      41.113  31.177  30.124  1.00  0.00     0.049 A 
ATOM     46  C   UNL A   1      45.689  29.281  27.454  1.00  0.00     0.074 A 
ATOM     47  C   UNL A   1      41.161  32.487  30.568  1.00  0.00     0.029 A 
ATOM     48  N   UNL A   1      42.307  30.936  29.458  1.00  0.00    -0.354 N 
ATOM     49  N   UNL A   1      44.704  29.849  28.107  1.00  0.00    -0.248 NA
ATOM     50  C   UNL A   1      46.801  30.183  27.129  1.00  0.00     0.031 C 
ATOM     51  C   UNL A   1      42.369  33.048  30.141  1.00  0.00     0.029 A 
ATOM     52  C   UNL A   1      43.088  32.078  29.460  1.00  0.00     0.049 A 
ATOM     53  H   UNL A   1      42.560  30.078  29.046  1.00  0.00     0.167 HD
ATOM     54  C   UNL A   1      45.073  31.177  28.266  1.00  0.00     0.074 A 
ATOM     55  C   UNL A   1      46.384  31.321  27.666  1.00  0.00     0.031 C 
ATOM     56  C   UNL A   1      44.385  32.190  28.845  1.00  0.00     0.037 A 
BRANCH  43  57
ATOM     57  C   UNL A   1      38.805  30.633  30.980  1.00  0.00     0.057 A 
ATOM     58  C   UNL A   1      37.732  31.204  30.285  1.00  0.00     0.134 A 
ATOM     59  C   UNL A   1      38.647  30.425  32.357  1.00  0.00     0.134 A 
ATOM     60  F   UNL A   1      37.828  31.444  28.968  1.00  0.00    -0.206 F 
ATOM     61  C   UNL A   1      36.551  31.562  30.937  1.00  0.00     0.040 A 
ATOM     62  C   UNL A   1      37.464  30.763  33.016  1.00  0.00     0.040 A 
ATOM     63  F   UNL A   1      39.638  29.882  33.081  1.00  0.00    -0.206 F 
ATOM     64  C   UNL A   1      36.412  31.334  32.305  1.00  0.00     0.006 A 
ENDBRANCH  43  57
BRANCH  44  65
ATOM     65  C   UNL A   1      46.988  27.413  26.198  1.00  0.00     0.057 A 
ATOM     66  C   UNL A   1      47.013  27.515  24.804  1.00  0.00     0.134 A 
ATOM     67  C   UNL A   1      48.120  26.875  26.826  1.00  0.00     0.134 A 
ATOM     68  F   UNL A   1      45.951  27.999  24.144  1.00  0.00    -0.206 F 
ATOM     69  C   UNL A   1      48.117  27.092  24.061  1.00  0.00     0.040 A 
ATOM     70  C   UNL A   1      49.240  26.474  26.098  1.00  0.00     0.040 A 
ATOM     71  F   UNL A   1      48.160  26.753  28.162  1.00  0.00    -0.206 F 
ATOM     72  C   UNL A   1      49.238  26.578  24.709  1.00  0.00     0.006 A 
ENDBRANCH  44  65
BRANCH  56  73
ATOM     73  C   UNL A   1      45.047  33.531  28.852  1.00  0.00     0.057 A 
ATOM     74  C   UNL A   1      44.804  34.468  27.840  1.00  0.00     0.134 A 
ATOM     75  C   UNL A   1      45.913  33.898  29.888  1.00  0.00     0.134 A 
ATOM     76  F   UNL A   1      43.999  34.165  26.812  1.00  0.00    -0.206 F 
ATOM     77  C   UNL A   1      45.414  35.723  27.852  1.00  0.00     0.040 A 
ATOM     78  C   UNL A   1      46.513  35.156  29.921  1.00  0.00     0.040 A 
ATOM     79  F   UNL A   1      46.179  33.043  30.887  1.00  0.00    -0.206 F 
ATOM     80  C   UNL A   1      46.267  36.070  28.898  1.00  0.00     0.006 A 
ENDBRANCH  56  73
ENDBRANCH  30  31
ENDBRANCH  23  25
ENDBRANCH  22  23
ENDBRANCH  21  22
ENDBRANCH   1  21
TORSDOF 15
ENDMDL
MODEL 2
REMARK VINA RESULT:     -10.5      4.044      8.558
REMARK SMILES CCC(CC)(NC(=O)c1c(C)noc1C)C(=O)OCCOC(=O)c1ccc(-c2c3nc(c(-c4c(F)cccc4F)c4ccc([nH]4)c(-c4c(F)cccc4F)c4nc(c(-c5c(F)cccc5F)c5ccc2[nH]5)C=C4)C=C3)cc1
REMARK SMILES IDX 19 1 18 2 16 3 17 4 3 5 2 6 1 7 4 8 5 9 6 10 7 11 8 13 9 14
REMARK SMILES IDX 10 15 14 16 11 17 12 18 13 19 15 20 20 21 21 22 22 23 23 24
REMARK SMILES IDX 24 25 25 26 77 27 26 28 76 29 27 30 28 31 29 32 70 33 30 34
REMARK SMILES IDX 75 35 69 36 71 37 31 38 74 39 68 40 67 41 32 43 58 44 41 45
REMARK SMILES IDX 57 46 42 47 45 48 56 49 72 50 43 51 44 52 55 54 73 55 46 56
REMARK SMILES IDX 33 57 34 58 39 59 35 60 36 61 38 62 40 63 37 64 59 65 60 66
REMARK SMILES IDX 65 67 61 68 62 69 64 70 66 71 63 72 47 73 48 74 53 75 49 76
REMARK SMILES IDX 50 77 52 78 54 79 51 80
REMARK H PARENT 6 12 71 42 45 53
REMARK Flexibility Score: inf
ROOT
ATOM      1  C   UNL A   1      31.785  28.528  27.324  1.00  0.00     0.274 C 
ENDROOT
BRANCH   1   2
ATOM      2  O   UNL A   1      32.226  27.632  26.275  1.00  0.00    -0.460 OA
BRANCH   2   3
ATOM      3  C   UNL A   1      31.250  26.852  25.747  1.00  0.00     0.331 C 
ATOM      4  O   UNL A   1      30.327  26.392  26.416  1.00  0.00    -0.249 OA
BRANCH   3   5
ATOM      5  C   UNL A   1      31.382  26.615  24.209  1.00  0.00     0.137 C 
BRANCH   5   6
ATOM      6  C   UNL A   1      32.768  27.207  23.765  1.00  0.00     0.037 C 
ATOM      7  C   UNL A   1      33.377  26.709  22.460  1.00  0.00     0.007 C 
ENDBRANCH   5   6
BRANCH   5   8
ATOM      8  C   UNL A   1      30.209  27.370  23.516  1.00  0.00     0.037 C 
ATOM      9  C   UNL A   1      30.276  28.894  23.544  1.00  0.00     0.007 C 
ENDBRANCH   5   8
BRANCH   5  10
ATOM     10  N   UNL A   1      31.434  25.207  23.703  1.00  0.00    -0.336 N 
ATOM     11  C   UNL A   1      31.489  23.938  24.205  1.00  0.00     0.257 C 
ATOM     12  H   UNL A   1      31.427  25.191  22.719  1.00  0.00     0.165 HD
ATOM     13  O   UNL A   1      31.071  23.052  23.456  1.00  0.00    -0.269 OA
BRANCH  11  14
ATOM     14  C   UNL A   1      32.170  23.588  25.425  1.00  0.00     0.105 A 
ATOM     15  C   UNL A   1      31.528  23.126  26.617  1.00  0.00     0.093 A 
ATOM     16  C   UNL A   1      33.483  23.745  25.814  1.00  0.00     0.146 A 
ATOM     17  C   UNL A   1      30.086  22.856  26.849  1.00  0.00     0.071 C 
ATOM     18  N   UNL A   1      32.404  22.951  27.613  1.00  0.00    -0.084 NA
ATOM     19  O   UNL A   1      33.623  23.333  27.104  1.00  0.00    -0.361 OA
ATOM     20  C   UNL A   1      34.717  24.269  25.209  1.00  0.00     0.092 C 
ENDBRANCH  11  14
ENDBRANCH   5  10
ENDBRANCH   3   5
ENDBRANCH   2   3
ENDBRANCH   1   2
BRANCH   1  21
ATOM     21  C   UNL A   1      31.740  29.962  26.807  1.00  0.00     0.275 C 
BRANCH  21  22
ATOM     22  O   UNL A   1      33.094  30.360  26.539  1.00  0.00    -0.458 OA
BRANCH  22  23
ATOM     23  C   UNL A   1      33.526  31.455  27.201  1.00  0.00     0.338 C 
ATOM     24  O   UNL A   1      32.937  32.495  27.435  1.00  0.00    -0.246 OA
BRANCH  23  25
ATOM     25  C   UNL A   1      34.823  31.108  27.780  1.00  0.00     0.060 A 
ATOM     26  C   UNL A   1      35.735  32.144  27.980  1.00  0.00     0.016 A 
ATOM     27  C   UNL A   1      35.144  29.796  28.106  1.00  0.00     0.016 A 
ATOM     28  C   UNL A   1      36.994  31.878  28.497  1.00  0.00     0.010 A 
ATOM     29  C   UNL A   1      36.381  29.540  28.699  1.00  0.00     0.010 A 
ATOM     30  C   UNL A   1      37.307  30.580  28.908  1.00  0.00    -0.014 A 
BRANCH  30  31
ATOM     31  C   UNL A   1      38.574  30.310  29.626  1.00  0.00     0.031 A 
ATOM     32  C   UNL A   1      39.597  29.402  29.020  1.00  0.00     0.074 A 
ATOM     33  C   UNL A   1      38.763  30.840  30.850  1.00  0.00     0.049 A 
ATOM     34  N   UNL A   1      40.612  28.810  29.590  1.00  0.00    -0.248 NA
ATOM     35  C   UNL A   1      39.452  29.112  27.585  1.00  0.00     0.031 C 
ATOM     36  C   UNL A   1      37.860  31.783  31.517  1.00  0.00     0.029 A 
ATOM     37  N   UNL A   1      39.766  30.641  31.764  1.00  0.00    -0.354 N 
ATOM     38  C   UNL A   1      41.197  28.034  28.600  1.00  0.00     0.074 A 
ATOM     39  C   UNL A   1      40.437  28.245  27.386  1.00  0.00     0.031 C 
ATOM     40  C   UNL A   1      38.346  32.076  32.732  1.00  0.00     0.029 A 
ATOM     41  C   UNL A   1      39.539  31.272  32.964  1.00  0.00     0.049 A 
ATOM     42  H   UNL A   1      40.568  30.102  31.579  1.00  0.00     0.167 HD
ATOM     43  C   UNL A   1      42.264  27.208  28.711  1.00  0.00     0.037 A 
ATOM     44  C   UNL A   1      40.173  31.156  34.145  1.00  0.00     0.037 A 
ATOM     45  C   UNL A   1      43.022  27.037  29.922  1.00  0.00     0.049 A 
ATOM     46  C   UNL A   1      41.315  30.190  34.257  1.00  0.00     0.074 A 
ATOM     47  C   UNL A   1      44.132  26.240  30.142  1.00  0.00     0.029 A 
ATOM     48  N   UNL A   1      42.747  27.681  31.119  1.00  0.00    -0.354 N 
ATOM     49  N   UNL A   1      41.834  29.419  33.333  1.00  0.00    -0.248 NA
ATOM     50  C   UNL A   1      41.936  30.052  35.581  1.00  0.00     0.031 C 
ATOM     51  C   UNL A   1      44.508  26.378  31.483  1.00  0.00     0.029 A 
ATOM     52  C   UNL A   1      43.652  27.284  32.088  1.00  0.00     0.049 A 
ATOM     53  H   UNL A   1      42.016  28.326  31.258  1.00  0.00     0.167 HD
ATOM     54  C   UNL A   1      42.840  28.699  33.963  1.00  0.00     0.074 A 
ATOM     55  C   UNL A   1      42.874  29.147  35.341  1.00  0.00     0.031 C 
ATOM     56  C   UNL A   1      43.652  27.743  33.453  1.00  0.00     0.037 A 
BRANCH  43  57
ATOM     57  C   UNL A   1      42.642  26.395  27.512  1.00  0.00     0.057 A 
ATOM     58  C   UNL A   1      43.556  26.856  26.558  1.00  0.00     0.134 A 
ATOM     59  C   UNL A   1      42.113  25.110  27.335  1.00  0.00     0.134 A 
ATOM     60  F   UNL A   1      44.085  28.085  26.662  1.00  0.00    -0.206 F 
ATOM     61  C   UNL A   1      43.925  26.070  25.464  1.00  0.00     0.040 A 
ATOM     62  C   UNL A   1      42.487  24.309  26.256  1.00  0.00     0.040 A 
ATOM     63  F   UNL A   1      41.231  24.610  28.215  1.00  0.00    -0.206 F 
ATOM     64  C   UNL A   1      43.395  24.789  25.316  1.00  0.00     0.006 A 
ENDBRANCH  43  57
BRANCH  44  65
ATOM     65  C   UNL A   1      39.682  31.906  35.328  1.00  0.00     0.057 A 
ATOM     66  C   UNL A   1      38.672  31.391  36.145  1.00  0.00     0.134 A 
ATOM     67  C   UNL A   1      40.219  33.154  35.672  1.00  0.00     0.134 A 
ATOM     68  F   UNL A   1      38.103  30.213  35.854  1.00  0.00    -0.206 F 
ATOM     69  C   UNL A   1      38.205  32.093  37.259  1.00  0.00     0.040 A 
ATOM     70  C   UNL A   1      39.781  33.854  36.798  1.00  0.00     0.040 A 
ATOM     71  F   UNL A   1      41.193  33.702  34.931  1.00  0.00    -0.206 F 
ATOM     72  C   UNL A   1      38.766  33.325  37.592  1.00  0.00     0.006 A 
ENDBRANCH  44  65
BRANCH  56  73
ATOM     73  C   UNL A   1      44.641  27.132  34.395  1.00  0.00     0.057 A 
ATOM     74  C   UNL A   1      44.346  25.955  35.095  1.00  0.00     0.134 A 
ATOM     75  C   UNL A   1      45.902  27.707  34.584  1.00  0.00     0.134 A 
ATOM     76  F   UNL A   1      43.147  25.370  34.967  1.00  0.00    -0.206 F 
ATOM     77  C   UNL A   1      45.271  25.379  35.966  1.00  0.00     0.040 A 
ATOM     78  C   UNL A   1      46.842  27.130  35.437  1.00  0.00     0.040 A 
ATOM     79  F   UNL A   1      46.241  28.832  33.936  1.00  0.00    -0.206 F 
ATOM     80  C   UNL A   1      46.525  25.965  36.134  1.00  0.00     0.006 A 
ENDBRANCH  56  73
ENDBRANCH  30  31
ENDBRANCH  23  25
ENDBRANCH  22  23
ENDBRANCH  21  22
ENDBRANCH   1  21
TORSDOF 15
ENDMDL
MODEL 3
REMARK VINA RESULT:     -10.4      2.669      6.598
REMARK SMILES CCC(CC)(NC(=O)c1c(C)noc1C)C(=O)OCCOC(=O)c1ccc(-c2c3nc(c(-c4c(F)cccc4F)c4ccc([nH]4)c(-c4c(F)cccc4F)c4nc(c(-c5c(F)cccc5F)c5ccc2[nH]5)C=C4)C=C3)cc1
REMARK SMILES IDX 19 1 18 2 16 3 17 4 3 5 2 6 1 7 4 8 5 9 6 10 7 11 8 13 9 14
REMARK SMILES IDX 10 15 14 16 11 17 12 18 13 19 15 20 20 21 21 22 22 23 23 24
REMARK SMILES IDX 24 25 25 26 77 27 26 28 76 29 27 30 28 31 29 32 70 33 30 34
REMARK SMILES IDX 75 35 69 36 71 37 31 38 74 39 68 40 67 41 32 43 58 44 41 45
REMARK SMILES IDX 57 46 42 47 45 48 56 49 72 50 43 51 44 52 55 54 73 55 46 56
REMARK SMILES IDX 33 57 34 58 39 59 35 60 36 61 38 62 40 63 37 64 59 65 60 66
REMARK SMILES IDX 65 67 61 68 62 69 64 70 66 71 63 72 47 73 48 74 53 75 49 76
REMARK SMILES IDX 50 77 52 78 54 79 51 80
REMARK H PARENT 6 12 71 42 45 53
REMARK Flexibility Score: inf
ROOT
ATOM      1  C   UNL A   1      33.231  29.335  25.996  1.00  0.00     0.274 C 
ENDROOT
BRANCH   1   2
ATOM      2  O   UNL A   1      31.850  28.902  26.039  1.00  0.00    -0.460 OA
BRANCH   2   3
ATOM      3  C   UNL A   1      31.622  27.803  26.801  1.00  0.00     0.331 C 
ATOM      4  O   UNL A   1      31.362  27.865  28.001  1.00  0.00    -0.249 OA
BRANCH   3   5
ATOM      5  C   UNL A   1      31.686  26.454  26.016  1.00  0.00     0.137 C 
BRANCH   5   6
ATOM      6  C   UNL A   1      33.142  25.887  26.185  1.00  0.00     0.037 C 
ATOM      7  C   UNL A   1      34.034  25.822  24.952  1.00  0.00     0.007 C 
ENDBRANCH   5   6
BRANCH   5   8
ATOM      8  C   UNL A   1      31.382  26.767  24.522  1.00  0.00     0.037 C 
ATOM      9  C   UNL A   1      29.911  26.934  24.152  1.00  0.00     0.007 C 
ENDBRANCH   5   8
BRANCH   5  10
ATOM     10  N   UNL A   1      30.823  25.320  26.472  1.00  0.00    -0.336 N 
ATOM     11  C   UNL A   1      30.888  23.960  26.581  1.00  0.00     0.257 C 
ATOM     12  H   UNL A   1      29.950  25.651  26.787  1.00  0.00     0.165 HD
ATOM     13  O   UNL A   1      30.131  23.457  27.415  1.00  0.00    -0.269 OA
BRANCH  11  14
ATOM     14  C   UNL A   1      31.613  23.117  25.666  1.00  0.00     0.105 A 
ATOM     15  C   UNL A   1      32.762  22.336  26.007  1.00  0.00     0.093 A 
ATOM     16  C   UNL A   1      31.526  22.969  24.297  1.00  0.00     0.146 A 
ATOM     17  C   UNL A   1      33.410  22.170  27.333  1.00  0.00     0.071 C 
ATOM     18  N   UNL A   1      33.270  21.712  24.938  1.00  0.00    -0.084 NA
ATOM     19  O   UNL A   1      32.491  22.107  23.875  1.00  0.00    -0.361 OA
ATOM     20  C   UNL A   1      30.699  23.528  23.217  1.00  0.00     0.092 C 
ENDBRANCH  11  14
ENDBRANCH   5  10
ENDBRANCH   3   5
ENDBRANCH   2   3
ENDBRANCH   1   2
BRANCH   1  21
ATOM     21  C   UNL A   1      33.552  30.192  27.216  1.00  0.00     0.275 C 
BRANCH  21  22
ATOM     22  O   UNL A   1      34.722  29.629  27.833  1.00  0.00    -0.458 OA
BRANCH  22  23
ATOM     23  C   UNL A   1      35.484  30.491  28.538  1.00  0.00     0.338 C 
ATOM     24  O   UNL A   1      35.155  31.500  29.137  1.00  0.00    -0.246 OA
BRANCH  23  25
ATOM     25  C   UNL A   1      36.817  29.894  28.626  1.00  0.00     0.060 A 
ATOM     26  C   UNL A   1      37.608  29.917  27.478  1.00  0.00     0.016 A 
ATOM     27  C   UNL A   1      37.274  29.312  29.801  1.00  0.00     0.016 A 
ATOM     28  C   UNL A   1      38.869  29.342  27.485  1.00  0.00     0.010 A 
ATOM     29  C   UNL A   1      38.573  28.802  29.832  1.00  0.00     0.010 A 
ATOM     30  C   UNL A   1      39.381  28.825  28.678  1.00  0.00    -0.014 A 
BRANCH  30  31
ATOM     31  C   UNL A   1      40.788  28.370  28.751  1.00  0.00     0.031 A 
ATOM     32  C   UNL A   1      41.880  29.359  29.015  1.00  0.00     0.074 A 
ATOM     33  C   UNL A   1      41.075  27.075  28.519  1.00  0.00     0.049 A 
ATOM     34  N   UNL A   1      43.166  29.232  28.831  1.00  0.00    -0.248 NA
ATOM     35  C   UNL A   1      41.467  30.668  29.545  1.00  0.00     0.031 C 
ATOM     36  C   UNL A   1      40.089  26.010  28.306  1.00  0.00     0.029 A 
ATOM     37  N   UNL A   1      42.282  26.435  28.396  1.00  0.00    -0.354 N 
ATOM     38  C   UNL A   1      43.716  30.460  29.169  1.00  0.00     0.074 A 
ATOM     39  C   UNL A   1      42.626  31.315  29.591  1.00  0.00     0.031 C 
ATOM     40  C   UNL A   1      40.730  24.856  28.074  1.00  0.00     0.029 A 
ATOM     41  C   UNL A   1      42.162  25.116  28.029  1.00  0.00     0.049 A 
ATOM     42  H   UNL A   1      43.147  26.876  28.555  1.00  0.00     0.167 HD
ATOM     43  C   UNL A   1      45.016  30.836  29.111  1.00  0.00     0.037 A 
ATOM     44  C   UNL A   1      43.094  24.234  27.623  1.00  0.00     0.037 A 
ATOM     45  C   UNL A   1      46.086  29.959  28.717  1.00  0.00     0.049 A 
ATOM     46  C   UNL A   1      44.518  24.692  27.512  1.00  0.00     0.074 A 
ATOM     47  C   UNL A   1      47.441  30.229  28.641  1.00  0.00     0.029 A 
ATOM     48  N   UNL A   1      45.918  28.635  28.336  1.00  0.00    -0.354 N 
ATOM     49  N   UNL A   1      45.028  25.869  27.783  1.00  0.00    -0.248 NA
ATOM     50  C   UNL A   1      45.488  23.713  27.006  1.00  0.00     0.031 C 
ATOM     51  C   UNL A   1      48.089  29.077  28.181  1.00  0.00     0.029 A 
ATOM     52  C   UNL A   1      47.141  28.081  28.002  1.00  0.00     0.049 A 
ATOM     53  H   UNL A   1      45.056  28.161  28.308  1.00  0.00     0.167 HD
ATOM     54  C   UNL A   1      46.378  25.776  27.476  1.00  0.00     0.074 A 
ATOM     55  C   UNL A   1      46.611  24.418  27.025  1.00  0.00     0.031 C 
ATOM     56  C   UNL A   1      47.337  26.729  27.548  1.00  0.00     0.037 A 
BRANCH  43  57
ATOM     57  C   UNL A   1      45.343  32.260  29.436  1.00  0.00     0.057 A 
ATOM     58  C   UNL A   1      45.302  33.272  28.470  1.00  0.00     0.134 A 
ATOM     59  C   UNL A   1      45.662  32.629  30.749  1.00  0.00     0.134 A 
ATOM     60  F   UNL A   1      45.020  32.979  27.192  1.00  0.00    -0.206 F 
ATOM     61  C   UNL A   1      45.576  34.601  28.798  1.00  0.00     0.040 A 
ATOM     62  C   UNL A   1      45.920  33.957  31.092  1.00  0.00     0.040 A 
ATOM     63  F   UNL A   1      45.718  31.706  31.721  1.00  0.00    -0.206 F 
ATOM     64  C   UNL A   1      45.878  34.947  30.114  1.00  0.00     0.006 A 
ENDBRANCH  43  57
BRANCH  44  65
ATOM     65  C   UNL A   1      42.692  22.867  27.209  1.00  0.00     0.057 A 
ATOM     66  C   UNL A   1      42.655  22.499  25.861  1.00  0.00     0.134 A 
ATOM     67  C   UNL A   1      42.341  21.893  28.155  1.00  0.00     0.134 A 
ATOM     68  F   UNL A   1      42.957  23.393  24.909  1.00  0.00    -0.206 F 
ATOM     69  C   UNL A   1      42.276  21.214  25.466  1.00  0.00     0.040 A 
ATOM     70  C   UNL A   1      41.987  20.598  27.775  1.00  0.00     0.040 A 
ATOM     71  F   UNL A   1      42.359  22.183  29.465  1.00  0.00    -0.206 F 
ATOM     72  C   UNL A   1      41.949  20.257  26.425  1.00  0.00     0.006 A 
ENDBRANCH  44  65
BRANCH  56  73
ATOM     73  C   UNL A   1      48.716  26.325  27.131  1.00  0.00     0.057 A 
ATOM     74  C   UNL A   1      49.163  26.515  25.818  1.00  0.00     0.134 A 
ATOM     75  C   UNL A   1      49.609  25.767  28.052  1.00  0.00     0.134 A 
ATOM     76  F   UNL A   1      48.345  27.029  24.888  1.00  0.00    -0.206 F 
ATOM     77  C   UNL A   1      50.452  26.148  25.431  1.00  0.00     0.040 A 
ATOM     78  C   UNL A   1      50.905  25.413  27.682  1.00  0.00     0.040 A 
ATOM     79  F   UNL A   1      49.236  25.565  29.325  1.00  0.00    -0.206 F 
ATOM     80  C   UNL A   1      51.328  25.600  26.367  1.00  0.00     0.006 A 
ENDBRANCH  56  73
ENDBRANCH  30  31
ENDBRANCH  23  25
ENDBRANCH  22  23
ENDBRANCH  21  22
ENDBRANCH   1  21
TORSDOF 15
ENDMDL
