MODEL 1
REMARK VINA RESULT:     -10.2      0.000      0.000
REMARK SMILES CC/C=C/C/C=C/C/C=C/C/C=C/CC/C=C/COCC(=O)OCCOC(=O)c1ccc(-c2c3nc(c(-c4c(F)cccc4F)c4ccc([nH]4)c(-c4c(F)cccc4F)c4nc(c(-c5c(F)cccc5F)c5ccc2[nH]5)C=C4)C=C3)cc1
REMARK SMILES IDX 18 1 17 2 16 3 15 4 14 5 13 6 12 7 11 8 10 9 9 10 8 11 7 12
REMARK SMILES IDX 6 13 5 14 4 15 3 16 2 17 1 18 19 19 20 20 21 21 22 22 23 23
REMARK SMILES IDX 24 24 25 25 26 26 27 27 28 28 29 29 30 30 82 31 31 32 81 33
REMARK SMILES IDX 32 34 33 35 34 36 75 37 35 38 80 39 74 40 76 41 36 42 79 43
REMARK SMILES IDX 73 44 72 45 37 47 63 48 46 49 62 50 47 51 50 52 61 53 77 54
REMARK SMILES IDX 48 55 49 56 60 58 78 59 51 60 38 61 39 62 44 63 40 64 41 65
REMARK SMILES IDX 43 66 45 67 42 68 64 69 65 70 70 71 66 72 67 73 69 74 71 75
REMARK SMILES IDX 68 76 52 77 53 78 58 79 54 80 55 81 57 82 59 83 56 84
REMARK H PARENT 76 46 50 57
REMARK Flexibility Score: inf
ROOT
ATOM      1  C   UNL A   1      40.502  19.719  26.127  1.00  0.00     0.188 C 
ENDROOT
BRANCH   1   2
ATOM      2  C   UNL A   1      39.163  19.535  25.468  1.00  0.00    -0.003 C 
ATOM      3  C   UNL A   1      38.292  20.546  25.306  1.00  0.00    -0.029 C 
BRANCH   3   4
ATOM      4  C   UNL A   1      36.831  20.367  24.986  1.00  0.00     0.031 C 
BRANCH   4   5
ATOM      5  C   UNL A   1      36.085  21.818  24.369  1.00  0.00     0.031 C 
BRANCH   5   6
ATOM      6  C   UNL A   1      34.105  22.483  23.865  1.00  0.00    -0.031 C 
ATOM      7  C   UNL A   1      32.748  22.145  23.981  1.00  0.00    -0.027 C 
BRANCH   7   8
ATOM      8  C   UNL A   1      31.614  22.662  23.130  1.00  0.00     0.054 C 
BRANCH   8   9
ATOM      9  C   UNL A   1      31.143  23.940  23.783  1.00  0.00    -0.027 C 
ATOM     10  C   UNL A   1      30.850  25.078  23.132  1.00  0.00    -0.027 C 
BRANCH  10  11
ATOM     11  C   UNL A   1      30.571  26.383  23.827  1.00  0.00     0.054 C 
BRANCH  11  12
ATOM     12  C   UNL A   1      31.834  27.010  24.352  1.00  0.00    -0.027 C 
ATOM     13  C   UNL A   1      32.327  26.773  25.580  1.00  0.00    -0.027 C 
BRANCH  13  14
ATOM     14  C   UNL A   1      33.581  27.384  26.135  1.00  0.00     0.054 C 
BRANCH  14  15
ATOM     15  C   UNL A   1      33.265  28.633  26.910  1.00  0.00    -0.027 C 
ATOM     16  C   UNL A   1      32.851  29.786  26.358  1.00  0.00    -0.031 C 
BRANCH  16  17
ATOM     17  C   UNL A   1      32.546  31.028  27.146  1.00  0.00     0.023 C 
ATOM     18  C   UNL A   1      31.392  31.804  26.531  1.00  0.00     0.008 C 
ENDBRANCH  16  17
ENDBRANCH  14  15
ENDBRANCH  13  14
ENDBRANCH  11  12
ENDBRANCH  10  11
ENDBRANCH   8   9
ENDBRANCH   7   8
ENDBRANCH   5   6
ENDBRANCH   4   5
ENDBRANCH   3   4
ENDBRANCH   1   2
BRANCH   1  19
ATOM     19  O   UNL A   1      41.486  18.772  25.704  1.00  0.00    -0.366 OA
BRANCH  19  20
ATOM     20  C   UNL A   1      42.838  19.026  26.020  1.00  0.00     0.283 C 
BRANCH  20  21
ATOM     21  C   UNL A   1      43.971  19.308  25.023  1.00  0.00     0.332 C 
ATOM     22  O   UNL A   1      44.698  18.402  24.618  1.00  0.00    -0.250 OA
BRANCH  21  23
ATOM     23  O   UNL A   1      44.116  20.614  24.680  1.00  0.00    -0.460 OA
BRANCH  23  24
ATOM     24  C   UNL A   1      43.517  21.557  25.603  1.00  0.00     0.274 C 
BRANCH  24  25
ATOM     25  C   UNL A   1      43.558  22.975  25.035  1.00  0.00     0.275 C 
BRANCH  25  26
ATOM     26  O   UNL A   1      43.335  23.916  26.097  1.00  0.00    -0.458 OA
BRANCH  26  27
ATOM     27  C   UNL A   1      42.717  25.039  25.682  1.00  0.00     0.338 C 
ATOM     28  O   UNL A   1      42.666  25.482  24.549  1.00  0.00    -0.246 OA
BRANCH  27  29
ATOM     29  C   UNL A   1      42.141  25.747  26.816  1.00  0.00     0.060 A 
ATOM     30  C   UNL A   1      40.638  25.221  27.699  1.00  0.00     0.016 A 
ATOM     31  C   UNL A   1      43.093  27.170  27.401  1.00  0.00     0.016 A 
ATOM     32  C   UNL A   1      40.028  26.218  29.089  1.00  0.00     0.010 A 
ATOM     33  C   UNL A   1      42.487  28.157  28.800  1.00  0.00     0.010 A 
ATOM     34  C   UNL A   1      40.940  27.697  29.670  1.00  0.00    -0.014 A 
BRANCH  34  35
ATOM     35  C   UNL A   1      40.574  28.476  30.894  1.00  0.00     0.031 A 
ATOM     36  C   UNL A   1      39.484  29.512  30.782  1.00  0.00     0.074 A 
ATOM     37  C   UNL A   1      41.366  28.422  31.987  1.00  0.00     0.049 A 
ATOM     38  N   UNL A   1      39.304  30.617  31.458  1.00  0.00    -0.248 NA
ATOM     39  C   UNL A   1      38.517  29.332  29.687  1.00  0.00     0.031 C 
ATOM     40  C   UNL A   1      42.510  27.531  32.184  1.00  0.00     0.029 A 
ATOM     41  N   UNL A   1      41.382  29.200  33.119  1.00  0.00    -0.354 N 
ATOM     42  C   UNL A   1      38.266  31.286  30.813  1.00  0.00     0.074 A 
ATOM     43  C   UNL A   1      37.931  30.518  29.639  1.00  0.00     0.031 C 
ATOM     44  C   UNL A   1      43.099  27.784  33.357  1.00  0.00     0.029 A 
ATOM     45  C   UNL A   1      42.446  28.930  33.952  1.00  0.00     0.049 A 
ATOM     46  H   UNL A   1      40.701  29.884  33.316  1.00  0.00     0.167 HD
ATOM     47  C   UNL A   1      37.618  32.412  31.197  1.00  0.00     0.037 A 
ATOM     48  C   UNL A   1      42.897  29.571  35.043  1.00  0.00     0.037 A 
ATOM     49  C   UNL A   1      37.922  33.087  32.431  1.00  0.00     0.049 A 
ATOM     50  C   UNL A   1      42.154  30.794  35.476  1.00  0.00     0.074 A 
ATOM     51  C   UNL A   1      37.304  34.182  33.003  1.00  0.00     0.029 A 
ATOM     52  N   UNL A   1      38.930  32.688  33.303  1.00  0.00    -0.354 N 
ATOM     53  N   UNL A   1      41.169  31.411  34.867  1.00  0.00    -0.248 NA
ATOM     54  C   UNL A   1      42.562  31.398  36.746  1.00  0.00     0.031 C 
ATOM     55  C   UNL A   1      37.960  34.466  34.204  1.00  0.00     0.029 A 
ATOM     56  C   UNL A   1      38.945  33.511  34.412  1.00  0.00     0.049 A 
ATOM     57  H   UNL A   1      39.541  31.931  33.153  1.00  0.00     0.167 HD
ATOM     58  C   UNL A   1      40.799  32.447  35.707  1.00  0.00     0.074 A 
ATOM     59  C   UNL A   1      41.673  32.375  36.863  1.00  0.00     0.031 C 
ATOM     60  C   UNL A   1      39.819  33.369  35.549  1.00  0.00     0.037 A 
BRANCH  47  61
ATOM     61  C   UNL A   1      36.514  32.940  30.314  1.00  0.00     0.057 A 
ATOM     62  C   UNL A   1      36.777  33.727  29.182  1.00  0.00     0.134 A 
ATOM     63  C   UNL A   1      35.168  32.660  30.588  1.00  0.00     0.134 A 
ATOM     64  F   UNL A   1      38.039  34.041  28.848  1.00  0.00    -0.206 F 
ATOM     65  C   UNL A   1      35.751  34.259  28.394  1.00  0.00     0.040 A 
ATOM     66  C   UNL A   1      34.134  33.153  29.785  1.00  0.00     0.040 A 
ATOM     67  F   UNL A   1      34.829  31.902  31.642  1.00  0.00    -0.206 F 
ATOM     68  C   UNL A   1      34.424  33.967  28.694  1.00  0.00     0.006 A 
ENDBRANCH  47  61
BRANCH  48  69
ATOM     69  C   UNL A   1      44.059  29.032  35.798  1.00  0.00     0.057 A 
ATOM     70  C   UNL A   1      43.889  27.976  36.701  1.00  0.00     0.134 A 
ATOM     71  C   UNL A   1      45.368  29.490  35.591  1.00  0.00     0.134 A 
ATOM     72  F   UNL A   1      42.663  27.485  36.939  1.00  0.00    -0.206 F 
ATOM     73  C   UNL A   1      44.967  27.410  37.386  1.00  0.00     0.040 A 
ATOM     74  C   UNL A   1      46.459  28.914  36.247  1.00  0.00     0.040 A 
ATOM     75  F   UNL A   1      45.611  30.475  34.714  1.00  0.00    -0.206 F 
ATOM     76  C   UNL A   1      46.258  27.876  37.154  1.00  0.00     0.006 A 
ENDBRANCH  48  69
BRANCH  60  77
ATOM     77  C   UNL A   1      39.590  34.302  36.693  1.00  0.00     0.057 A 
ATOM     78  C   UNL A   1      38.843  33.933  37.813  1.00  0.00     0.134 A 
ATOM     79  C   UNL A   1      40.190  35.568  36.687  1.00  0.00     0.134 A 
ATOM     80  F   UNL A   1      38.232  32.739  37.861  1.00  0.00    -0.206 F 
ATOM     81  C   UNL A   1      38.685  34.801  38.892  1.00  0.00     0.040 A 
ATOM     82  C   UNL A   1      40.067  36.431  37.772  1.00  0.00     0.040 A 
ATOM     83  F   UNL A   1      40.924  35.972  35.638  1.00  0.00    -0.206 F 
ATOM     84  C   UNL A   1      39.309  36.048  38.877  1.00  0.00     0.006 A 
ENDBRANCH  60  77
ENDBRANCH  34  35
ENDBRANCH  27  29
ENDBRANCH  26  27
ENDBRANCH  25  26
ENDBRANCH  24  25
ENDBRANCH  23  24
ENDBRANCH  21  23
ENDBRANCH  20  21
ENDBRANCH  19  20
ENDBRANCH   1  19
TORSDOF 24
ENDMDL
MODEL 2
REMARK VINA RESULT:      -9.8      5.695     13.017
REMARK SMILES CC/C=C/C/C=C/C/C=C/C/C=C/CC/C=C/COCC(=O)OCCOC(=O)c1ccc(-c2c3nc(c(-c4c(F)cccc4F)c4ccc([nH]4)c(-c4c(F)cccc4F)c4nc(c(-c5c(F)cccc5F)c5ccc2[nH]5)C=C4)C=C3)cc1
REMARK SMILES IDX 18 1 17 2 16 3 15 4 14 5 13 6 12 7 11 8 10 9 9 10 8 11 7 12
REMARK SMILES IDX 6 13 5 14 4 15 3 16 2 17 1 18 19 19 20 20 21 21 22 22 23 23
REMARK SMILES IDX 24 24 25 25 26 26 27 27 28 28 29 29 30 30 82 31 31 32 81 33
REMARK SMILES IDX 32 34 33 35 34 36 75 37 35 38 80 39 74 40 76 41 36 42 79 43
REMARK SMILES IDX 73 44 72 45 37 47 63 48 46 49 62 50 47 51 50 52 61 53 77 54
REMARK SMILES IDX 48 55 49 56 60 58 78 59 51 60 38 61 39 62 44 63 40 64 41 65
REMARK SMILES IDX 43 66 45 67 42 68 64 69 65 70 70 71 66 72 67 73 69 74 71 75
REMARK SMILES IDX 68 76 52 77 53 78 58 79 54 80 55 81 57 82 59 83 56 84
REMARK H PARENT 76 46 50 57
REMARK Flexibility Score: inf
ROOT
ATOM      1  C   UNL A   1      33.926  36.977  32.626  1.00  0.00     0.188 C 
ENDROOT
BRANCH   1   2
ATOM      2  C   UNL A   1      33.813  35.564  33.127  1.00  0.00    -0.003 C 
ATOM      3  C   UNL A   1      34.716  34.615  32.823  1.00  0.00    -0.029 C 
BRANCH   3   4
ATOM      4  C   UNL A   1      34.483  33.136  32.991  1.00  0.00     0.031 C 
BRANCH   4   5
ATOM      5  C   UNL A   1      35.854  32.172  32.508  1.00  0.00     0.031 C 
BRANCH   5   6
ATOM      6  C   UNL A   1      37.881  31.875  33.156  1.00  0.00    -0.031 C 
ATOM      7  C   UNL A   1      38.952  32.507  33.805  1.00  0.00    -0.027 C 
BRANCH   7   8
ATOM      8  C   UNL A   1      40.409  32.118  33.730  1.00  0.00     0.054 C 
BRANCH   8   9
ATOM      9  C   UNL A   1      40.444  30.608  33.715  1.00  0.00    -0.027 C 
ATOM     10  C   UNL A   1      41.331  29.863  33.034  1.00  0.00    -0.027 C 
BRANCH  10  11
ATOM     11  C   UNL A   1      41.219  28.370  32.887  1.00  0.00     0.054 C 
BRANCH  11  12
ATOM     12  C   UNL A   1      42.428  27.790  32.205  1.00  0.00    -0.027 C 
ATOM     13  C   UNL A   1      43.646  27.738  32.771  1.00  0.00    -0.027 C 
BRANCH  13  14
ATOM     14  C   UNL A   1      44.873  27.170  32.118  1.00  0.00     0.054 C 
BRANCH  14  15
ATOM     15  C   UNL A   1      45.101  25.752  32.560  1.00  0.00    -0.027 C 
ATOM     16  C   UNL A   1      44.155  24.960  33.092  1.00  0.00    -0.031 C 
BRANCH  16  17
ATOM     17  C   UNL A   1      44.401  23.546  33.536  1.00  0.00     0.023 C 
ATOM     18  C   UNL A   1      43.505  23.169  34.706  1.00  0.00     0.008 C 
ENDBRANCH  16  17
ENDBRANCH  14  15
ENDBRANCH  13  14
ENDBRANCH  11  12
ENDBRANCH  10  11
ENDBRANCH   8   9
ENDBRANCH   7   8
ENDBRANCH   5   6
ENDBRANCH   4   5
ENDBRANCH   3   4
ENDBRANCH   1   2
BRANCH   1  19
ATOM     19  O   UNL A   1      33.101  37.254  31.492  1.00  0.00    -0.366 OA
BRANCH  19  20
ATOM     20  C   UNL A   1      32.965  36.257  30.503  1.00  0.00     0.283 C 
BRANCH  20  21
ATOM     21  C   UNL A   1      33.346  36.382  29.021  1.00  0.00     0.332 C 
ATOM     22  O   UNL A   1      33.094  37.407  28.388  1.00  0.00    -0.250 OA
BRANCH  21  23
ATOM     23  O   UNL A   1      33.926  35.277  28.486  1.00  0.00    -0.460 OA
BRANCH  23  24
ATOM     24  C   UNL A   1      33.658  34.043  29.197  1.00  0.00     0.274 C 
BRANCH  24  25
ATOM     25  C   UNL A   1      34.035  32.832  28.346  1.00  0.00     0.275 C 
BRANCH  25  26
ATOM     26  O   UNL A   1      34.734  31.880  29.163  1.00  0.00    -0.458 OA
BRANCH  26  27
ATOM     27  C   UNL A   1      34.938  30.703  28.540  1.00  0.00     0.338 C 
ATOM     28  O   UNL A   1      34.120  30.033  27.933  1.00  0.00    -0.246 OA
BRANCH  27  29
ATOM     29  C   UNL A   1      36.309  30.255  28.740  1.00  0.00     0.060 A 
ATOM     30  C   UNL A   1      36.968  29.643  30.323  1.00  0.00     0.016 A 
ATOM     31  C   UNL A   1      37.335  30.227  27.251  1.00  0.00     0.016 A 
ATOM     32  C   UNL A   1      38.708  29.132  30.424  1.00  0.00     0.010 A 
ATOM     33  C   UNL A   1      39.072  29.704  27.352  1.00  0.00     0.010 A 
ATOM     34  C   UNL A   1      39.790  29.146  28.945  1.00  0.00    -0.014 A 
BRANCH  34  35
ATOM     35  C   UNL A   1      41.184  28.604  28.925  1.00  0.00     0.031 A 
ATOM     36  C   UNL A   1      42.331  29.584  28.947  1.00  0.00     0.074 A 
ATOM     37  C   UNL A   1      41.395  27.300  28.646  1.00  0.00     0.049 A 
ATOM     38  N   UNL A   1      43.539  29.472  28.459  1.00  0.00    -0.248 NA
ATOM     39  C   UNL A   1      42.048  30.914  29.510  1.00  0.00     0.031 C 
ATOM     40  C   UNL A   1      40.367  26.268  28.504  1.00  0.00     0.029 A 
ATOM     41  N   UNL A   1      42.553  26.627  28.342  1.00  0.00    -0.354 N 
ATOM     42  C   UNL A   1      44.112  30.736  28.583  1.00  0.00     0.074 A 
ATOM     43  C   UNL A   1      43.089  31.617  29.092  1.00  0.00     0.031 C 
ATOM     44  C   UNL A   1      40.925  25.100  28.171  1.00  0.00     0.029 A 
ATOM     45  C   UNL A   1      42.341  25.318  27.966  1.00  0.00     0.049 A 
ATOM     46  H   UNL A   1      43.446  27.038  28.388  1.00  0.00     0.167 HD
ATOM     47  C   UNL A   1      45.390  31.113  28.343  1.00  0.00     0.037 A 
ATOM     48  C   UNL A   1      43.175  24.403  27.445  1.00  0.00     0.037 A 
ATOM     49  C   UNL A   1      46.399  30.174  27.931  1.00  0.00     0.049 A 
ATOM     50  C   UNL A   1      44.592  24.821  27.215  1.00  0.00     0.074 A 
ATOM     51  C   UNL A   1      47.751  30.377  27.730  1.00  0.00     0.029 A 
ATOM     52  N   UNL A   1      46.152  28.826  27.691  1.00  0.00    -0.354 N 
ATOM     53  N   UNL A   1      45.126  26.012  27.344  1.00  0.00    -0.248 NA
ATOM     54  C   UNL A   1      45.526  23.776  26.788  1.00  0.00     0.031 C 
ATOM     55  C   UNL A   1      48.314  29.159  27.337  1.00  0.00     0.029 A 
ATOM     56  C   UNL A   1      47.327  28.185  27.352  1.00  0.00     0.049 A 
ATOM     57  H   UNL A   1      45.270  28.394  27.754  1.00  0.00     0.167 HD
ATOM     58  C   UNL A   1      46.473  25.853  27.070  1.00  0.00     0.074 A 
ATOM     59  C   UNL A   1      46.668  24.449  26.759  1.00  0.00     0.031 C 
ATOM     60  C   UNL A   1      47.465  26.775  27.085  1.00  0.00     0.037 A 
BRANCH  47  61
ATOM     61  C   UNL A   1      45.764  32.559  28.558  1.00  0.00     0.057 A 
ATOM     62  C   UNL A   1      46.186  33.043  29.807  1.00  0.00     0.134 A 
ATOM     63  C   UNL A   1      45.710  33.486  27.508  1.00  0.00     0.134 A 
ATOM     64  F   UNL A   1      46.266  32.220  30.864  1.00  0.00    -0.206 F 
ATOM     65  C   UNL A   1      46.482  34.393  30.017  1.00  0.00     0.040 A 
ATOM     66  C   UNL A   1      46.041  34.833  27.696  1.00  0.00     0.040 A 
ATOM     67  F   UNL A   1      45.332  33.105  26.279  1.00  0.00    -0.206 F 
ATOM     68  C   UNL A   1      46.414  35.291  28.956  1.00  0.00     0.006 A 
ENDBRANCH  47  61
BRANCH  48  69
ATOM     69  C   UNL A   1      42.693  23.024  27.169  1.00  0.00     0.057 A 
ATOM     70  C   UNL A   1      42.402  22.151  28.223  1.00  0.00     0.134 A 
ATOM     71  C   UNL A   1      42.435  22.564  25.869  1.00  0.00     0.134 A 
ATOM     72  F   UNL A   1      42.620  22.531  29.491  1.00  0.00    -0.206 F 
ATOM     73  C   UNL A   1      41.896  20.868  28.001  1.00  0.00     0.040 A 
ATOM     74  C   UNL A   1      41.900  21.295  25.633  1.00  0.00     0.040 A 
ATOM     75  F   UNL A   1      42.655  23.359  24.812  1.00  0.00    -0.206 F 
ATOM     76  C   UNL A   1      41.638  20.440  26.701  1.00  0.00     0.006 A 
ENDBRANCH  48  69
BRANCH  60  77
ATOM     77  C   UNL A   1      48.850  26.269  26.847  1.00  0.00     0.057 A 
ATOM     78  C   UNL A   1      49.476  26.380  25.603  1.00  0.00     0.134 A 
ATOM     79  C   UNL A   1      49.582  25.722  27.908  1.00  0.00     0.134 A 
ATOM     80  F   UNL A   1      48.814  26.880  24.549  1.00  0.00    -0.206 F 
ATOM     81  C   UNL A   1      50.788  25.948  25.416  1.00  0.00     0.040 A 
ATOM     82  C   UNL A   1      50.903  25.318  27.741  1.00  0.00     0.040 A 
ATOM     83  F   UNL A   1      49.030  25.597  29.125  1.00  0.00    -0.206 F 
ATOM     84  C   UNL A   1      51.508  25.428  26.491  1.00  0.00     0.006 A 
ENDBRANCH  60  77
ENDBRANCH  34  35
ENDBRANCH  27  29
ENDBRANCH  26  27
ENDBRANCH  25  26
ENDBRANCH  24  25
ENDBRANCH  23  24
ENDBRANCH  21  23
ENDBRANCH  20  21
ENDBRANCH  19  20
ENDBRANCH   1  19
TORSDOF 24
ENDMDL
MODEL 3
REMARK VINA RESULT:      -9.7      7.615     14.474
REMARK SMILES CC/C=C/C/C=C/C/C=C/C/C=C/CC/C=C/COCC(=O)OCCOC(=O)c1ccc(-c2c3nc(c(-c4c(F)cccc4F)c4ccc([nH]4)c(-c4c(F)cccc4F)c4nc(c(-c5c(F)cccc5F)c5ccc2[nH]5)C=C4)C=C3)cc1
REMARK SMILES IDX 18 1 17 2 16 3 15 4 14 5 13 6 12 7 11 8 10 9 9 10 8 11 7 12
REMARK SMILES IDX 6 13 5 14 4 15 3 16 2 17 1 18 19 19 20 20 21 21 22 22 23 23
REMARK SMILES IDX 24 24 25 25 26 26 27 27 28 28 29 29 30 30 82 31 31 32 81 33
REMARK SMILES IDX 32 34 33 35 34 36 75 37 35 38 80 39 74 40 76 41 36 42 79 43
REMARK SMILES IDX 73 44 72 45 37 47 63 48 46 49 62 50 47 51 50 52 61 53 77 54
REMARK SMILES IDX 48 55 49 56 60 58 78 59 51 60 38 61 39 62 44 63 40 64 41 65
REMARK SMILES IDX 43 66 45 67 42 68 64 69 65 70 70 71 66 72 67 73 69 74 71 75
REMARK SMILES IDX 68 76 52 77 53 78 58 79 54 80 55 81 57 82 59 83 56 84
REMARK H PARENT 76 46 50 57
REMARK Flexibility Score: inf
ROOT
ATOM      1  C   UNL A   1      46.965  45.116  27.362  1.00  0.00     0.188 C 
ENDROOT
BRANCH   1   2
ATOM      2  C   UNL A   1      45.738  45.071  26.494  1.00  0.00    -0.003 C 
ATOM      3  C   UNL A   1      45.425  44.002  25.741  1.00  0.00    -0.029 C 
BRANCH   3   4
ATOM      4  C   UNL A   1      44.432  44.022  24.608  1.00  0.00     0.031 C 
BRANCH   4   5
ATOM      5  C   UNL A   1      43.482  42.563  24.508  1.00  0.00     0.031 C 
BRANCH   5   6
ATOM      6  C   UNL A   1      42.582  41.171  25.875  1.00  0.00    -0.031 C 
ATOM      7  C   UNL A   1      42.662  39.850  26.342  1.00  0.00    -0.027 C 
BRANCH   7   8
ATOM      8  C   UNL A   1      41.574  39.073  27.042  1.00  0.00     0.054 C 
BRANCH   8   9
ATOM      9  C   UNL A   1      42.268  37.971  27.809  1.00  0.00    -0.027 C 
ATOM     10  C   UNL A   1      41.803  36.719  27.952  1.00  0.00    -0.027 C 
BRANCH  10  11
ATOM     11  C   UNL A   1      42.419  35.706  28.878  1.00  0.00     0.054 C 
BRANCH  11  12
ATOM     12  C   UNL A   1      41.384  35.059  29.757  1.00  0.00    -0.027 C 
ATOM     13  C   UNL A   1      40.124  34.810  29.361  1.00  0.00    -0.027 C 
BRANCH  13  14
ATOM     14  C   UNL A   1      39.066  34.170  30.214  1.00  0.00     0.054 C 
BRANCH  14  15
ATOM     15  C   UNL A   1      37.872  33.792  29.383  1.00  0.00    -0.027 C 
ATOM     16  C   UNL A   1      36.609  34.162  29.655  1.00  0.00    -0.031 C 
BRANCH  16  17
ATOM     17  C   UNL A   1      35.425  33.769  28.819  1.00  0.00     0.023 C 
ATOM     18  C   UNL A   1      35.781  32.662  27.839  1.00  0.00     0.008 C 
ENDBRANCH  16  17
ENDBRANCH  14  15
ENDBRANCH  13  14
ENDBRANCH  11  12
ENDBRANCH  10  11
ENDBRANCH   8   9
ENDBRANCH   7   8
ENDBRANCH   5   6
ENDBRANCH   4   5
ENDBRANCH   3   4
ENDBRANCH   1   2
BRANCH   1  19
ATOM     19  O   UNL A   1      47.415  43.829  27.790  1.00  0.00    -0.366 OA
BRANCH  19  20
ATOM     20  C   UNL A   1      47.391  43.536  29.170  1.00  0.00     0.283 C 
BRANCH  20  21
ATOM     21  C   UNL A   1      46.270  42.815  29.933  1.00  0.00     0.332 C 
ATOM     22  O   UNL A   1      46.042  43.072  31.114  1.00  0.00    -0.250 OA
BRANCH  21  23
ATOM     23  O   UNL A   1      45.609  41.871  29.215  1.00  0.00    -0.460 OA
BRANCH  23  24
ATOM     24  C   UNL A   1      46.059  40.511  29.436  1.00  0.00     0.274 C 
BRANCH  24  25
ATOM     25  C   UNL A   1      45.716  39.624  28.241  1.00  0.00     0.275 C 
BRANCH  25  26
ATOM     26  O   UNL A   1      45.691  38.251  28.662  1.00  0.00    -0.458 OA
BRANCH  26  27
ATOM     27  C   UNL A   1      46.417  37.443  27.865  1.00  0.00     0.338 C 
ATOM     28  O   UNL A   1      47.357  37.752  27.155  1.00  0.00    -0.246 OA
BRANCH  27  29
ATOM     29  C   UNL A   1      45.879  36.091  27.891  1.00  0.00     0.060 A 
ATOM     30  C   UNL A   1      45.013  35.302  26.497  1.00  0.00     0.016 A 
ATOM     31  C   UNL A   1      46.227  35.152  29.398  1.00  0.00     0.016 A 
ATOM     32  C   UNL A   1      44.382  33.610  26.684  1.00  0.00     0.010 A 
ATOM     33  C   UNL A   1      45.606  33.455  29.577  1.00  0.00     0.010 A 
ATOM     34  C   UNL A   1      44.670  32.652  28.220  1.00  0.00    -0.014 A 
BRANCH  34  35
ATOM     35  C   UNL A   1      44.307  31.211  28.386  1.00  0.00     0.031 A 
ATOM     36  C   UNL A   1      45.135  30.178  27.663  1.00  0.00     0.074 A 
ATOM     37  C   UNL A   1      43.130  30.876  28.958  1.00  0.00     0.049 A 
ATOM     38  N   UNL A   1      44.800  28.995  27.219  1.00  0.00    -0.248 NA
ATOM     39  C   UNL A   1      46.507  30.571  27.303  1.00  0.00     0.031 C 
ATOM     40  C   UNL A   1      42.191  31.792  29.607  1.00  0.00     0.029 A 
ATOM     41  N   UNL A   1      42.474  29.670  29.012  1.00  0.00    -0.354 N 
ATOM     42  C   UNL A   1      45.885  28.557  26.464  1.00  0.00     0.074 A 
ATOM     43  C   UNL A   1      46.839  29.639  26.424  1.00  0.00     0.031 C 
ATOM     44  C   UNL A   1      41.104  31.130  30.014  1.00  0.00     0.029 A 
ATOM     45  C   UNL A   1      41.212  29.761  29.559  1.00  0.00     0.049 A 
ATOM     46  H   UNL A   1      42.865  28.826  28.691  1.00  0.00     0.167 HD
ATOM     47  C   UNL A   1      46.088  27.342  25.899  1.00  0.00     0.037 A 
ATOM     48  C   UNL A   1      40.216  28.863  29.632  1.00  0.00     0.037 A 
ATOM     49  C   UNL A   1      45.150  26.262  26.051  1.00  0.00     0.049 A 
ATOM     50  C   UNL A   1      40.463  27.515  29.034  1.00  0.00     0.074 A 
ATOM     51  C   UNL A   1      45.247  24.954  25.618  1.00  0.00     0.029 A 
ATOM     52  N   UNL A   1      43.943  26.375  26.733  1.00  0.00    -0.354 N 
ATOM     53  N   UNL A   1      41.494  27.107  28.333  1.00  0.00    -0.248 NA
ATOM     54  C   UNL A   1      39.430  26.498  29.250  1.00  0.00     0.031 C 
ATOM     55  C   UNL A   1      44.083  24.285  26.008  1.00  0.00     0.029 A 
ATOM     56  C   UNL A   1      43.289  25.159  26.738  1.00  0.00     0.049 A 
ATOM     57  H   UNL A   1      43.604  27.200  27.150  1.00  0.00     0.167 HD
ATOM     58  C   UNL A   1      41.263  25.768  28.068  1.00  0.00     0.074 A 
ATOM     59  C   UNL A   1      39.989  25.440  28.680  1.00  0.00     0.031 C 
ATOM     60  C   UNL A   1      42.036  24.883  27.393  1.00  0.00     0.037 A 
BRANCH  47  61
ATOM     61  C   UNL A   1      47.362  27.116  25.123  1.00  0.00     0.057 A 
ATOM     62  C   UNL A   1      47.513  27.543  23.794  1.00  0.00     0.134 A 
ATOM     63  C   UNL A   1      48.460  26.468  25.705  1.00  0.00     0.134 A 
ATOM     64  F   UNL A   1      46.508  28.172  23.163  1.00  0.00    -0.206 F 
ATOM     65  C   UNL A   1      48.675  27.286  23.060  1.00  0.00     0.040 A 
ATOM     66  C   UNL A   1      49.644  26.240  24.994  1.00  0.00     0.040 A 
ATOM     67  F   UNL A   1      48.407  26.041  26.976  1.00  0.00    -0.206 F 
ATOM     68  C   UNL A   1      49.747  26.637  23.663  1.00  0.00     0.006 A 
ENDBRANCH  47  61
BRANCH  48  69
ATOM     69  C   UNL A   1      38.949  29.207  30.332  1.00  0.00     0.057 A 
ATOM     70  C   UNL A   1      38.776  28.883  31.682  1.00  0.00     0.134 A 
ATOM     71  C   UNL A   1      37.920  29.928  29.710  1.00  0.00     0.134 A 
ATOM     72  F   UNL A   1      39.727  28.201  32.338  1.00  0.00    -0.206 F 
ATOM     73  C   UNL A   1      37.622  29.240  32.384  1.00  0.00     0.040 A 
ATOM     74  C   UNL A   1      36.773  30.318  30.407  1.00  0.00     0.040 A 
ATOM     75  F   UNL A   1      38.033  30.304  28.428  1.00  0.00    -0.206 F 
ATOM     76  C   UNL A   1      36.619  29.966  31.747  1.00  0.00     0.006 A 
ENDBRANCH  48  69
BRANCH  60  77
ATOM     77  C   UNL A   1      41.561  23.467  27.368  1.00  0.00     0.057 A 
ATOM     78  C   UNL A   1      40.503  23.054  26.556  1.00  0.00     0.134 A 
ATOM     79  C   UNL A   1      42.227  22.498  28.129  1.00  0.00     0.134 A 
ATOM     80  F   UNL A   1      39.820  23.945  25.821  1.00  0.00    -0.206 F 
ATOM     81  C   UNL A   1      40.110  21.718  26.509  1.00  0.00     0.040 A 
ATOM     82  C   UNL A   1      41.865  21.155  28.065  1.00  0.00     0.040 A 
ATOM     83  F   UNL A   1      43.254  22.839  28.923  1.00  0.00    -0.206 F 
ATOM     84  C   UNL A   1      40.800  20.764  27.256  1.00  0.00     0.006 A 
ENDBRANCH  60  77
ENDBRANCH  34  35
ENDBRANCH  27  29
ENDBRANCH  26  27
ENDBRANCH  25  26
ENDBRANCH  24  25
ENDBRANCH  23  24
ENDBRANCH  21  23
ENDBRANCH  20  21
ENDBRANCH  19  20
ENDBRANCH   1  19
TORSDOF 24
ENDMDL
