MODEL 1
REMARK VINA RESULT:     -11.6      0.000      0.000
REMARK SMILES Cc1ccc(S(=O)(=O)Nc2cc3c(cc2C(=O)OCCOC(=O)c2ccc(-c4c5nc(c(-c6c(F)cccc6F)c6ccc([nH]6)c(-c6c(F)cccc6F)c6nc(c(-c7c(F)cccc7F)c7ccc4[nH]7)C=C6)C=C5)cc2)OCCO3)s1
REMARK SMILES IDX 19 1 18 2 16 3 17 4 15 5 10 6 11 7 12 8 14 9 13 10 81 11
REMARK SMILES IDX 78 12 80 13 79 14 9 15 6 17 7 18 8 19 5 20 1 21 2 22 3 23
REMARK SMILES IDX 82 24 4 25 20 26 21 27 22 28 23 29 24 30 25 31 77 32 26 33
REMARK SMILES IDX 76 34 27 35 28 36 29 37 70 38 30 39 75 40 69 41 71 42 31 43
REMARK SMILES IDX 74 44 68 45 67 46 32 48 58 49 41 50 57 51 42 52 45 53 56 54
REMARK SMILES IDX 72 55 43 56 44 57 55 59 73 60 46 61 33 62 34 63 39 64 35 65
REMARK SMILES IDX 36 66 38 67 40 68 37 69 59 70 60 71 65 72 61 73 62 74 64 75
REMARK SMILES IDX 66 76 63 77 47 78 48 79 53 80 49 81 50 82 52 83 54 84 51 85
REMARK H PARENT 9 16 71 47 45 58
REMARK Flexibility Score: inf
ROOT
ATOM      1  C   UNL A   1      38.506  21.261  25.490  1.00  0.00     0.275 C 
ENDROOT
BRANCH   1   2
ATOM      2  O   UNL A   1      37.386  21.481  24.600  1.00  0.00    -0.458 OA
BRANCH   2   3
ATOM      3  C   UNL A   1      36.233  21.845  25.209  1.00  0.00     0.340 C 
ATOM      4  O   UNL A   1      36.095  22.723  26.046  1.00  0.00    -0.246 OA
BRANCH   3   5
ATOM      5  C   UNL A   1      35.122  20.935  24.878  1.00  0.00     0.088 A 
ATOM      6  C   UNL A   1      33.779  21.351  24.934  1.00  0.00     0.067 A 
ATOM      7  C   UNL A   1      32.766  20.398  25.052  1.00  0.00     0.078 A 
ATOM      8  C   UNL A   1      33.072  19.049  24.955  1.00  0.00     0.163 A 
ATOM      9  C   UNL A   1      35.427  19.573  24.759  1.00  0.00     0.068 A 
ATOM     10  C   UNL A   1      34.392  18.643  24.733  1.00  0.00     0.162 A 
ATOM     11  O   UNL A   1      32.013  18.184  25.032  1.00  0.00    -0.486 OA
ATOM     12  O   UNL A   1      34.728  17.336  24.489  1.00  0.00    -0.486 OA
ATOM     13  C   UNL A   1      32.440  16.819  25.076  1.00  0.00     0.271 C 
ATOM     14  C   UNL A   1      33.569  16.590  24.084  1.00  0.00     0.271 C 
BRANCH   6  15
ATOM     15  N   UNL A   1      33.393  22.716  24.727  1.00  0.00    -0.278 N 
ATOM     16  H   UNL A   1      33.623  23.206  23.905  1.00  0.00     0.180 HD
BRANCH  15  17
ATOM     17  S   UNL A   1      32.499  23.449  26.011  1.00  0.00     0.271 S 
ATOM     18  O   UNL A   1      33.043  22.901  27.240  1.00  0.00    -0.200 OA
ATOM     19  O   UNL A   1      31.095  23.314  25.713  1.00  0.00    -0.200 OA
BRANCH  17  20
ATOM     20  C   UNL A   1      32.808  25.196  25.991  1.00  0.00     0.140 A 
ATOM     21  C   UNL A   1      32.061  28.811  27.217  1.00  0.00     0.056 C 
ATOM     22  C   UNL A   1      32.553  27.573  26.558  1.00  0.00     0.003 A 
ATOM     23  C   UNL A   1      33.812  27.296  26.068  1.00  0.00     0.016 A 
ATOM     24  S   UNL A   1      31.500  26.238  26.349  1.00  0.00    -0.127 S 
ATOM     25  C   UNL A   1      33.941  25.930  25.688  1.00  0.00     0.034 A 
ENDBRANCH  17  20
ENDBRANCH  15  17
ENDBRANCH   6  15
ENDBRANCH   3   5
ENDBRANCH   2   3
ENDBRANCH   1   2
BRANCH   1  26
ATOM     26  C   UNL A   1      39.186  19.912  25.261  1.00  0.00     0.275 C 
BRANCH  26  27
ATOM     27  O   UNL A   1      40.098  19.618  26.337  1.00  0.00    -0.458 OA
BRANCH  27  28
ATOM     28  C   UNL A   1      41.396  19.769  25.996  1.00  0.00     0.338 C 
ATOM     29  O   UNL A   1      42.037  19.025  25.273  1.00  0.00    -0.246 OA
BRANCH  28  30
ATOM     30  C   UNL A   1      42.004  20.985  26.550  1.00  0.00     0.060 A 
ATOM     31  C   UNL A   1      42.057  21.153  27.928  1.00  0.00     0.016 A 
ATOM     32  C   UNL A   1      42.244  22.069  25.701  1.00  0.00     0.016 A 
ATOM     33  C   UNL A   1      42.198  22.433  28.452  1.00  0.00     0.010 A 
ATOM     34  C   UNL A   1      42.519  23.332  26.238  1.00  0.00     0.010 A 
ATOM     35  C   UNL A   1      42.460  23.539  27.623  1.00  0.00    -0.014 A 
BRANCH  35  36
ATOM     36  C   UNL A   1      42.717  24.875  28.233  1.00  0.00     0.031 A 
ATOM     37  C   UNL A   1      41.619  25.883  28.461  1.00  0.00     0.074 A 
ATOM     38  C   UNL A   1      43.975  25.171  28.620  1.00  0.00     0.049 A 
ATOM     39  N   UNL A   1      41.721  27.131  28.851  1.00  0.00    -0.248 NA
ATOM     40  C   UNL A   1      40.235  25.444  28.234  1.00  0.00     0.031 C 
ATOM     41  C   UNL A   1      45.128  24.275  28.497  1.00  0.00     0.029 A 
ATOM     42  N   UNL A   1      44.496  26.295  29.209  1.00  0.00    -0.354 N 
ATOM     43  C   UNL A   1      40.424  27.634  28.884  1.00  0.00     0.074 A 
ATOM     44  C   UNL A   1      39.548  26.554  28.482  1.00  0.00     0.031 C 
ATOM     45  C   UNL A   1      46.198  24.851  29.052  1.00  0.00     0.029 A 
ATOM     46  C   UNL A   1      45.849  26.212  29.431  1.00  0.00     0.049 A 
ATOM     47  H   UNL A   1      43.956  27.083  29.447  1.00  0.00     0.167 HD
ATOM     48  C   UNL A   1      40.012  28.884  29.209  1.00  0.00     0.037 A 
ATOM     49  C   UNL A   1      46.743  27.140  29.815  1.00  0.00     0.037 A 
ATOM     50  C   UNL A   1      40.889  29.951  29.628  1.00  0.00     0.049 A 
ATOM     51  C   UNL A   1      46.278  28.537  30.063  1.00  0.00     0.074 A 
ATOM     52  C   UNL A   1      40.560  31.247  29.992  1.00  0.00     0.029 A 
ATOM     53  N   UNL A   1      42.267  29.846  29.738  1.00  0.00    -0.354 N 
ATOM     54  N   UNL A   1      45.061  29.017  30.020  1.00  0.00    -0.248 NA
ATOM     55  C   UNL A   1      47.313  29.529  30.376  1.00  0.00     0.031 C 
ATOM     56  C   UNL A   1      41.743  31.940  30.271  1.00  0.00     0.029 A 
ATOM     57  C   UNL A   1      42.806  31.062  30.131  1.00  0.00     0.049 A 
ATOM     58  H   UNL A   1      42.787  29.029  29.561  1.00  0.00     0.167 HD
ATOM     59  C   UNL A   1      45.180  30.370  30.290  1.00  0.00     0.074 A 
ATOM     60  C   UNL A   1      46.587  30.628  30.524  1.00  0.00     0.031 C 
ATOM     61  C   UNL A   1      44.209  31.315  30.330  1.00  0.00     0.037 A 
BRANCH  48  62
ATOM     62  C   UNL A   1      38.547  29.203  29.091  1.00  0.00     0.057 A 
ATOM     63  C   UNL A   1      37.686  29.174  30.193  1.00  0.00     0.134 A 
ATOM     64  C   UNL A   1      38.019  29.652  27.872  1.00  0.00     0.134 A 
ATOM     65  F   UNL A   1      38.125  28.756  31.390  1.00  0.00    -0.206 F 
ATOM     66  C   UNL A   1      36.350  29.574  30.086  1.00  0.00     0.040 A 
ATOM     67  C   UNL A   1      36.693  30.074  27.758  1.00  0.00     0.040 A 
ATOM     68  F   UNL A   1      38.794  29.719  26.778  1.00  0.00    -0.206 F 
ATOM     69  C   UNL A   1      35.854  30.036  28.868  1.00  0.00     0.006 A 
ENDBRANCH  48  62
BRANCH  49  70
ATOM     70  C   UNL A   1      48.178  26.772  29.872  1.00  0.00     0.057 A 
ATOM     71  C   UNL A   1      48.734  26.184  31.011  1.00  0.00     0.134 A 
ATOM     72  C   UNL A   1      49.008  26.930  28.752  1.00  0.00     0.134 A 
ATOM     73  F   UNL A   1      47.996  26.028  32.119  1.00  0.00    -0.206 F 
ATOM     74  C   UNL A   1      50.061  25.750  31.030  1.00  0.00     0.040 A 
ATOM     75  C   UNL A   1      50.323  26.471  28.745  1.00  0.00     0.040 A 
ATOM     76  F   UNL A   1      48.528  27.483  27.628  1.00  0.00    -0.206 F 
ATOM     77  C   UNL A   1      50.853  25.879  29.889  1.00  0.00     0.006 A 
ENDBRANCH  49  70
BRANCH  61  78
ATOM     78  C   UNL A   1      44.650  32.710  30.645  1.00  0.00     0.057 A 
ATOM     79  C   UNL A   1      44.958  33.627  29.632  1.00  0.00     0.134 A 
ATOM     80  C   UNL A   1      44.784  33.138  31.972  1.00  0.00     0.134 A 
ATOM     81  F   UNL A   1      44.870  33.270  28.342  1.00  0.00    -0.206 F 
ATOM     82  C   UNL A   1      45.412  34.913  29.928  1.00  0.00     0.040 A 
ATOM     83  C   UNL A   1      45.214  34.428  32.279  1.00  0.00     0.040 A 
ATOM     84  F   UNL A   1      44.502  32.308  32.987  1.00  0.00    -0.206 F 
ATOM     85  C   UNL A   1      45.538  35.317  31.255  1.00  0.00     0.006 A 
ENDBRANCH  61  78
ENDBRANCH  35  36
ENDBRANCH  28  30
ENDBRANCH  27  28
ENDBRANCH  26  27
ENDBRANCH   1  26
TORSDOF 14
ENDMDL
MODEL 2
REMARK VINA RESULT:     -11.5      2.235      4.682
REMARK SMILES Cc1ccc(S(=O)(=O)Nc2cc3c(cc2C(=O)OCCOC(=O)c2ccc(-c4c5nc(c(-c6c(F)cccc6F)c6ccc([nH]6)c(-c6c(F)cccc6F)c6nc(c(-c7c(F)cccc7F)c7ccc4[nH]7)C=C6)C=C5)cc2)OCCO3)s1
REMARK SMILES IDX 19 1 18 2 16 3 17 4 15 5 10 6 11 7 12 8 14 9 13 10 81 11
REMARK SMILES IDX 78 12 80 13 79 14 9 15 6 17 7 18 8 19 5 20 1 21 2 22 3 23
REMARK SMILES IDX 82 24 4 25 20 26 21 27 22 28 23 29 24 30 25 31 77 32 26 33
REMARK SMILES IDX 76 34 27 35 28 36 29 37 70 38 30 39 75 40 69 41 71 42 31 43
REMARK SMILES IDX 74 44 68 45 67 46 32 48 58 49 41 50 57 51 42 52 45 53 56 54
REMARK SMILES IDX 72 55 43 56 44 57 55 59 73 60 46 61 33 62 34 63 39 64 35 65
REMARK SMILES IDX 36 66 38 67 40 68 37 69 59 70 60 71 65 72 61 73 62 74 64 75
REMARK SMILES IDX 66 76 63 77 47 78 48 79 53 80 49 81 50 82 52 83 54 84 51 85
REMARK H PARENT 9 16 71 47 45 58
REMARK Flexibility Score: inf
ROOT
ATOM      1  C   UNL A   1      35.607  21.945  24.269  1.00  0.00     0.275 C 
ENDROOT
BRANCH   1   2
ATOM      2  O   UNL A   1      35.696  23.360  24.559  1.00  0.00    -0.458 OA
BRANCH   2   3
ATOM      3  C   UNL A   1      34.686  24.112  24.062  1.00  0.00     0.340 C 
ATOM      4  O   UNL A   1      34.407  24.271  22.884  1.00  0.00    -0.246 OA
BRANCH   3   5
ATOM      5  C   UNL A   1      34.013  24.899  25.111  1.00  0.00     0.088 A 
ATOM      6  C   UNL A   1      32.925  24.386  25.840  1.00  0.00     0.067 A 
ATOM      7  C   UNL A   1      32.051  25.263  26.485  1.00  0.00     0.078 A 
ATOM      8  C   UNL A   1      32.346  26.618  26.536  1.00  0.00     0.163 A 
ATOM      9  C   UNL A   1      34.321  26.263  25.182  1.00  0.00     0.068 A 
ATOM     10  C   UNL A   1      33.519  27.104  25.949  1.00  0.00     0.162 A 
ATOM     11  O   UNL A   1      31.462  27.401  27.230  1.00  0.00    -0.486 OA
ATOM     12  O   UNL A   1      33.929  28.404  26.091  1.00  0.00    -0.486 OA
ATOM     13  C   UNL A   1      31.765  28.793  27.099  1.00  0.00     0.271 C 
ATOM     14  C   UNL A   1      33.264  29.017  27.208  1.00  0.00     0.271 C 
BRANCH   6  15
ATOM     15  N   UNL A   1      32.756  22.981  26.074  1.00  0.00    -0.278 N 
ATOM     16  H   UNL A   1      33.302  22.490  26.729  1.00  0.00     0.180 HD
BRANCH  15  17
ATOM     17  S   UNL A   1      31.533  22.204  25.133  1.00  0.00     0.271 S 
ATOM     18  O   UNL A   1      31.331  23.044  23.966  1.00  0.00    -0.200 OA
ATOM     19  O   UNL A   1      30.427  21.892  26.004  1.00  0.00    -0.200 OA
BRANCH  17  20
ATOM     20  C   UNL A   1      32.149  20.631  24.592  1.00  0.00     0.140 A 
ATOM     21  C   UNL A   1      33.070  16.911  25.255  1.00  0.00     0.056 C 
ATOM     22  C   UNL A   1      32.833  18.275  24.713  1.00  0.00     0.003 A 
ATOM     23  C   UNL A   1      32.521  18.650  23.424  1.00  0.00     0.016 A 
ATOM     24  S   UNL A   1      32.911  19.634  25.753  1.00  0.00    -0.127 S 
ATOM     25  C   UNL A   1      32.178  20.029  23.346  1.00  0.00     0.034 A 
ENDBRANCH  17  20
ENDBRANCH  15  17
ENDBRANCH   6  15
ENDBRANCH   3   5
ENDBRANCH   2   3
ENDBRANCH   1   2
BRANCH   1  26
ATOM     26  C   UNL A   1      36.586  21.110  25.091  1.00  0.00     0.275 C 
BRANCH  26  27
ATOM     27  O   UNL A   1      37.945  21.464  24.768  1.00  0.00    -0.458 OA
BRANCH  27  28
ATOM     28  C   UNL A   1      38.822  21.185  25.756  1.00  0.00     0.338 C 
ATOM     29  O   UNL A   1      39.254  20.080  26.038  1.00  0.00    -0.246 OA
BRANCH  28  30
ATOM     30  C   UNL A   1      39.280  22.377  26.480  1.00  0.00     0.060 A 
ATOM     31  C   UNL A   1      38.768  23.621  26.135  1.00  0.00     0.016 A 
ATOM     32  C   UNL A   1      40.421  22.285  27.282  1.00  0.00     0.016 A 
ATOM     33  C   UNL A   1      39.484  24.767  26.465  1.00  0.00     0.010 A 
ATOM     34  C   UNL A   1      41.062  23.448  27.724  1.00  0.00     0.010 A 
ATOM     35  C   UNL A   1      40.624  24.707  27.287  1.00  0.00    -0.014 A 
BRANCH  35  36
ATOM     36  C   UNL A   1      41.297  25.967  27.711  1.00  0.00     0.031 A 
ATOM     37  C   UNL A   1      40.599  27.016  28.540  1.00  0.00     0.074 A 
ATOM     38  C   UNL A   1      42.586  26.153  27.361  1.00  0.00     0.049 A 
ATOM     39  N   UNL A   1      41.016  28.218  28.861  1.00  0.00    -0.248 NA
ATOM     40  C   UNL A   1      39.276  26.681  29.087  1.00  0.00     0.031 C 
ATOM     41  C   UNL A   1      43.398  25.204  26.595  1.00  0.00     0.029 A 
ATOM     42  N   UNL A   1      43.449  27.190  27.615  1.00  0.00    -0.354 N 
ATOM     43  C   UNL A   1      39.997  28.793  29.615  1.00  0.00     0.074 A 
ATOM     44  C   UNL A   1      38.943  27.805  29.713  1.00  0.00     0.031 C 
ATOM     45  C   UNL A   1      44.648  25.666  26.499  1.00  0.00     0.029 A 
ATOM     46  C   UNL A   1      44.692  27.007  27.061  1.00  0.00     0.049 A 
ATOM     47  H   UNL A   1      43.201  27.985  28.140  1.00  0.00     0.167 HD
ATOM     48  C   UNL A   1      39.949  30.032  30.161  1.00  0.00     0.037 A 
ATOM     49  C   UNL A   1      45.737  27.843  26.932  1.00  0.00     0.037 A 
ATOM     50  C   UNL A   1      41.011  31.005  30.076  1.00  0.00     0.049 A 
ATOM     51  C   UNL A   1      45.617  29.240  27.448  1.00  0.00     0.074 A 
ATOM     52  C   UNL A   1      41.058  32.283  30.611  1.00  0.00     0.029 A 
ATOM     53  N   UNL A   1      42.213  30.809  29.413  1.00  0.00    -0.354 N 
ATOM     54  N   UNL A   1      44.622  29.793  28.094  1.00  0.00    -0.248 NA
ATOM     55  C   UNL A   1      46.747  30.137  27.186  1.00  0.00     0.031 C 
ATOM     56  C   UNL A   1      42.266  32.877  30.228  1.00  0.00     0.029 A 
ATOM     57  C   UNL A   1      42.993  31.953  29.497  1.00  0.00     0.049 A 
ATOM     58  H   UNL A   1      42.474  29.981  28.949  1.00  0.00     0.167 HD
ATOM     59  C   UNL A   1      44.998  31.109  28.309  1.00  0.00     0.074 A 
ATOM     60  C   UNL A   1      46.326  31.261  27.749  1.00  0.00     0.031 C 
ATOM     61  C   UNL A   1      44.299  32.103  28.909  1.00  0.00     0.037 A 
BRANCH  48  62
ATOM     62  C   UNL A   1      38.691  30.447  30.873  1.00  0.00     0.057 A 
ATOM     63  C   UNL A   1      38.517  30.265  32.249  1.00  0.00     0.134 A 
ATOM     64  C   UNL A   1      37.685  31.138  30.182  1.00  0.00     0.134 A 
ATOM     65  F   UNL A   1      39.442  29.614  32.972  1.00  0.00    -0.206 F 
ATOM     66  C   UNL A   1      37.386  30.751  32.912  1.00  0.00     0.040 A 
ATOM     67  C   UNL A   1      36.561  31.645  30.837  1.00  0.00     0.040 A 
ATOM     68  F   UNL A   1      37.794  31.359  28.863  1.00  0.00    -0.206 F 
ATOM     69  C   UNL A   1      36.410  31.453  32.207  1.00  0.00     0.006 A 
ENDBRANCH  48  62
BRANCH  49  70
ATOM     70  C   UNL A   1      46.932  27.387  26.183  1.00  0.00     0.057 A 
ATOM     71  C   UNL A   1      47.982  26.722  26.823  1.00  0.00     0.134 A 
ATOM     72  C   UNL A   1      47.013  27.539  24.791  1.00  0.00     0.134 A 
ATOM     73  F   UNL A   1      47.971  26.567  28.155  1.00  0.00    -0.206 F 
ATOM     74  C   UNL A   1      49.061  26.208  26.103  1.00  0.00     0.040 A 
ATOM     75  C   UNL A   1      48.067  27.002  24.056  1.00  0.00     0.040 A 
ATOM     76  F   UNL A   1      46.032  28.164  24.122  1.00  0.00    -0.206 F 
ATOM     77  C   UNL A   1      49.096  26.333  24.714  1.00  0.00     0.006 A 
ENDBRANCH  49  70
BRANCH  61  78
ATOM     78  C   UNL A   1      44.973  33.437  28.988  1.00  0.00     0.057 A 
ATOM     79  C   UNL A   1      45.823  33.767  30.051  1.00  0.00     0.134 A 
ATOM     80  C   UNL A   1      44.760  34.408  28.002  1.00  0.00     0.134 A 
ATOM     81  F   UNL A   1      46.050  32.887  31.038  1.00  0.00    -0.206 F 
ATOM     82  C   UNL A   1      46.414  35.027  30.147  1.00  0.00     0.040 A 
ATOM     83  C   UNL A   1      45.364  35.662  28.074  1.00  0.00     0.040 A 
ATOM     84  F   UNL A   1      43.959  34.152  26.956  1.00  0.00    -0.206 F 
ATOM     85  C   UNL A   1      46.188  35.978  29.154  1.00  0.00     0.006 A 
ENDBRANCH  61  78
ENDBRANCH  35  36
ENDBRANCH  28  30
ENDBRANCH  27  28
ENDBRANCH  26  27
ENDBRANCH   1  26
TORSDOF 14
ENDMDL
MODEL 3
REMARK VINA RESULT:     -11.5      4.281      8.577
REMARK SMILES Cc1ccc(S(=O)(=O)Nc2cc3c(cc2C(=O)OCCOC(=O)c2ccc(-c4c5nc(c(-c6c(F)cccc6F)c6ccc([nH]6)c(-c6c(F)cccc6F)c6nc(c(-c7c(F)cccc7F)c7ccc4[nH]7)C=C6)C=C5)cc2)OCCO3)s1
REMARK SMILES IDX 19 1 18 2 16 3 17 4 15 5 10 6 11 7 12 8 14 9 13 10 81 11
REMARK SMILES IDX 78 12 80 13 79 14 9 15 6 17 7 18 8 19 5 20 1 21 2 22 3 23
REMARK SMILES IDX 82 24 4 25 20 26 21 27 22 28 23 29 24 30 25 31 77 32 26 33
REMARK SMILES IDX 76 34 27 35 28 36 29 37 70 38 30 39 75 40 69 41 71 42 31 43
REMARK SMILES IDX 74 44 68 45 67 46 32 48 58 49 41 50 57 51 42 52 45 53 56 54
REMARK SMILES IDX 72 55 43 56 44 57 55 59 73 60 46 61 33 62 34 63 39 64 35 65
REMARK SMILES IDX 36 66 38 67 40 68 37 69 59 70 60 71 65 72 61 73 62 74 64 75
REMARK SMILES IDX 66 76 63 77 47 78 48 79 53 80 49 81 50 82 52 83 54 84 51 85
REMARK H PARENT 9 16 71 47 45 58
REMARK Flexibility Score: inf
ROOT
ATOM      1  C   UNL A   1      31.583  28.763  27.296  1.00  0.00     0.275 C 
ENDROOT
BRANCH   1   2
ATOM      2  O   UNL A   1      32.664  27.864  26.953  1.00  0.00    -0.458 OA
BRANCH   2   3
ATOM      3  C   UNL A   1      32.276  26.655  26.483  1.00  0.00     0.340 C 
ATOM      4  O   UNL A   1      31.340  25.982  26.883  1.00  0.00    -0.246 OA
BRANCH   3   5
ATOM      5  C   UNL A   1      33.231  26.112  25.499  1.00  0.00     0.088 A 
ATOM      6  C   UNL A   1      33.008  26.214  24.114  1.00  0.00     0.067 A 
ATOM      7  C   UNL A   1      33.662  25.341  23.243  1.00  0.00     0.078 A 
ATOM      8  C   UNL A   1      34.641  24.486  23.728  1.00  0.00     0.163 A 
ATOM      9  C   UNL A   1      34.234  25.264  25.985  1.00  0.00     0.068 A 
ATOM     10  C   UNL A   1      34.977  24.504  25.086  1.00  0.00     0.162 A 
ATOM     11  O   UNL A   1      35.267  23.698  22.800  1.00  0.00    -0.486 OA
ATOM     12  O   UNL A   1      36.030  23.786  25.592  1.00  0.00    -0.486 OA
ATOM     13  C   UNL A   1      36.146  22.749  23.411  1.00  0.00     0.271 C 
ATOM     14  C   UNL A   1      36.927  23.406  24.537  1.00  0.00     0.271 C 
BRANCH   6  15
ATOM     15  N   UNL A   1      32.243  27.283  23.540  1.00  0.00    -0.278 N 
ATOM     16  H   UNL A   1      32.549  28.218  23.563  1.00  0.00     0.180 HD
BRANCH  15  17
ATOM     17  S   UNL A   1      30.748  26.827  22.804  1.00  0.00     0.271 S 
ATOM     18  O   UNL A   1      30.305  25.634  23.504  1.00  0.00    -0.200 OA
ATOM     19  O   UNL A   1      30.940  26.802  21.375  1.00  0.00    -0.200 OA
BRANCH  17  20
ATOM     20  C   UNL A   1      29.561  28.115  23.086  1.00  0.00     0.140 A 
ATOM     21  C   UNL A   1      28.510  31.860  23.043  1.00  0.00     0.056 C 
ATOM     22  C   UNL A   1      28.626  30.385  23.185  1.00  0.00     0.003 A 
ATOM     23  C   UNL A   1      27.637  29.428  23.096  1.00  0.00     0.016 A 
ATOM     24  S   UNL A   1      30.155  29.670  23.476  1.00  0.00    -0.127 S 
ATOM     25  C   UNL A   1      28.178  28.111  23.094  1.00  0.00     0.034 A 
ENDBRANCH  17  20
ENDBRANCH  15  17
ENDBRANCH   6  15
ENDBRANCH   3   5
ENDBRANCH   2   3
ENDBRANCH   1   2
BRANCH   1  26
ATOM     26  C   UNL A   1      31.822  30.189  26.802  1.00  0.00     0.275 C 
BRANCH  26  27
ATOM     27  O   UNL A   1      33.218  30.394  26.513  1.00  0.00    -0.458 OA
BRANCH  27  28
ATOM     28  C   UNL A   1      33.792  31.341  27.286  1.00  0.00     0.338 C 
ATOM     29  O   UNL A   1      33.276  32.390  27.635  1.00  0.00    -0.246 OA
BRANCH  28  30
ATOM     30  C   UNL A   1      35.140  30.981  27.740  1.00  0.00     0.060 A 
ATOM     31  C   UNL A   1      35.393  29.681  28.160  1.00  0.00     0.016 A 
ATOM     32  C   UNL A   1      36.054  31.999  28.024  1.00  0.00     0.016 A 
ATOM     33  C   UNL A   1      36.479  29.433  28.992  1.00  0.00     0.010 A 
ATOM     34  C   UNL A   1      37.217  31.715  28.749  1.00  0.00     0.010 A 
ATOM     35  C   UNL A   1      37.426  30.434  29.278  1.00  0.00    -0.014 A 
BRANCH  35  36
ATOM     36  C   UNL A   1      38.636  30.098  30.080  1.00  0.00     0.031 A 
ATOM     37  C   UNL A   1      39.731  29.204  29.556  1.00  0.00     0.074 A 
ATOM     38  C   UNL A   1      38.762  30.644  31.307  1.00  0.00     0.049 A 
ATOM     39  N   UNL A   1      40.768  28.717  30.194  1.00  0.00    -0.248 NA
ATOM     40  C   UNL A   1      39.666  28.810  28.141  1.00  0.00     0.031 C 
ATOM     41  C   UNL A   1      37.799  31.559  31.926  1.00  0.00     0.029 A 
ATOM     42  N   UNL A   1      39.753  30.527  32.249  1.00  0.00    -0.354 N 
ATOM     43  C   UNL A   1      41.458  27.936  29.273  1.00  0.00     0.074 A 
ATOM     44  C   UNL A   1      40.728  28.019  28.026  1.00  0.00     0.031 C 
ATOM     45  C   UNL A   1      38.274  31.972  33.106  1.00  0.00     0.029 A 
ATOM     46  C   UNL A   1      39.496  31.237  33.397  1.00  0.00     0.049 A 
ATOM     47  H   UNL A   1      40.566  29.988  32.117  1.00  0.00     0.167 HD
ATOM     48  C   UNL A   1      42.589  27.211  29.461  1.00  0.00     0.037 A 
ATOM     49  C   UNL A   1      40.113  31.245  34.591  1.00  0.00     0.037 A 
ATOM     50  C   UNL A   1      43.322  27.148  30.702  1.00  0.00     0.049 A 
ATOM     51  C   UNL A   1      41.294  30.355  34.804  1.00  0.00     0.074 A 
ATOM     52  C   UNL A   1      44.487  26.452  30.982  1.00  0.00     0.029 A 
ATOM     53  N   UNL A   1      42.963  27.805  31.869  1.00  0.00    -0.354 N 
ATOM     54  N   UNL A   1      41.892  29.567  33.948  1.00  0.00    -0.248 NA
ATOM     55  C   UNL A   1      41.860  30.327  36.157  1.00  0.00     0.031 C 
ATOM     56  C   UNL A   1      44.803  26.646  32.332  1.00  0.00     0.029 A 
ATOM     57  C   UNL A   1      43.863  27.504  32.880  1.00  0.00     0.049 A 
ATOM     58  H   UNL A   1      42.182  28.397  31.966  1.00  0.00     0.167 HD
ATOM     59  C   UNL A   1      42.902  28.938  34.657  1.00  0.00     0.074 A 
ATOM     60  C   UNL A   1      42.852  29.461  36.008  1.00  0.00     0.031 C 
ATOM     61  C   UNL A   1      43.785  28.005  34.227  1.00  0.00     0.037 A 
BRANCH  48  62
ATOM     62  C   UNL A   1      43.100  26.381  28.316  1.00  0.00     0.057 A 
ATOM     63  C   UNL A   1      42.615  25.096  28.051  1.00  0.00     0.134 A 
ATOM     64  C   UNL A   1      44.015  26.927  27.403  1.00  0.00     0.134 A 
ATOM     65  F   UNL A   1      41.737  24.515  28.882  1.00  0.00    -0.206 F 
ATOM     66  C   UNL A   1      43.025  24.380  26.922  1.00  0.00     0.040 A 
ATOM     67  C   UNL A   1      44.416  26.229  26.262  1.00  0.00     0.040 A 
ATOM     68  F   UNL A   1      44.509  28.160  27.590  1.00  0.00    -0.206 F 
ATOM     69  C   UNL A   1      43.920  24.951  26.018  1.00  0.00     0.006 A 
ENDBRANCH  48  62
BRANCH  49  70
ATOM     70  C   UNL A   1      39.535  32.053  35.691  1.00  0.00     0.057 A 
ATOM     71  C   UNL A   1      39.933  33.375  35.909  1.00  0.00     0.134 A 
ATOM     72  C   UNL A   1      38.510  31.542  36.500  1.00  0.00     0.134 A 
ATOM     73  F   UNL A   1      40.923  33.912  35.183  1.00  0.00    -0.206 F 
ATOM     74  C   UNL A   1      39.320  34.166  36.883  1.00  0.00     0.040 A 
ATOM     75  C   UNL A   1      37.867  32.329  37.452  1.00  0.00     0.040 A 
ATOM     76  F   UNL A   1      38.082  30.281  36.333  1.00  0.00    -0.206 F 
ATOM     77  C   UNL A   1      38.273  33.647  37.645  1.00  0.00     0.006 A 
ENDBRANCH  49  70
BRANCH  61  78
ATOM     78  C   UNL A   1      44.767  27.500  35.239  1.00  0.00     0.057 A 
ATOM     79  C   UNL A   1      44.510  26.353  36.000  1.00  0.00     0.134 A 
ATOM     80  C   UNL A   1      45.972  28.175  35.467  1.00  0.00     0.134 A 
ATOM     81  F   UNL A   1      43.363  25.675  35.842  1.00  0.00    -0.206 F 
ATOM     82  C   UNL A   1      45.406  25.910  36.974  1.00  0.00     0.040 A 
ATOM     83  C   UNL A   1      46.886  27.728  36.421  1.00  0.00     0.040 A 
ATOM     84  F   UNL A   1      46.278  29.279  34.769  1.00  0.00    -0.206 F 
ATOM     85  C   UNL A   1      46.599  26.597  37.184  1.00  0.00     0.006 A 
ENDBRANCH  61  78
ENDBRANCH  35  36
ENDBRANCH  28  30
ENDBRANCH  27  28
ENDBRANCH  26  27
ENDBRANCH   1  26
TORSDOF 14
ENDMDL
