MODEL 1
REMARK VINA RESULT:      -9.5      0.000      0.000
REMARK SMILES C[NH2+]CCC(=O)N1CC[C@@H](C(=O)OCCOC(=O)c2ccc(-c3c4nc(c(-c5c(F)cccc5F)c5ccc([nH]5)c(-c5c(F)cccc5F)c5nc(c(-c6c(F)cccc6F)c6ccc3[nH]6)C=C5)C=C4)cc2)[C@@H]1C
REMARK SMILES IDX 14 1 13 2 11 3 12 4 10 5 7 6 8 7 73 8 9 9 74 10 5 11 6 12
REMARK SMILES IDX 4 13 3 14 2 15 1 16 15 19 16 20 17 21 18 22 19 23 20 24
REMARK SMILES IDX 72 25 21 26 71 27 22 28 23 29 24 30 65 31 25 32 70 33 64 34
REMARK SMILES IDX 66 35 26 36 69 37 63 38 62 39 27 41 53 42 36 43 52 44 37 45
REMARK SMILES IDX 40 46 51 47 67 48 38 49 39 50 50 52 68 53 41 54 28 55 29 56
REMARK SMILES IDX 34 57 30 58 31 59 33 60 35 61 32 62 54 63 55 64 60 65 56 66
REMARK SMILES IDX 57 67 59 68 61 69 58 70 42 71 43 72 48 73 44 74 45 75 47 76
REMARK SMILES IDX 49 77 46 78
REMARK H PARENT 2 17 2 18 66 40 40 51
REMARK Flexibility Score: inf
ROOT
ATOM      1  C   UNL A   1      45.163  22.314  25.159  1.00  0.00     0.274 C 
ENDROOT
BRANCH   1   2
ATOM      2  O   UNL A   1      44.246  21.712  26.098  1.00  0.00    -0.462 OA
BRANCH   2   3
ATOM      3  C   UNL A   1      43.599  20.590  25.696  1.00  0.00     0.311 C 
ATOM      4  O   UNL A   1      44.004  19.828  24.825  1.00  0.00    -0.252 OA
BRANCH   3   5
ATOM      5  C   UNL A   1      42.290  20.345  26.423  1.00  0.00     0.123 C 
ATOM      6  N   UNL A   1      40.039  21.051  26.159  1.00  0.00    -0.339 N 
ATOM      7  C   UNL A   1      40.033  19.604  26.182  1.00  0.00     0.121 C 
ATOM      8  C   UNL A   1      41.350  21.562  26.540  1.00  0.00     0.096 C 
ATOM      9  C   UNL A   1      41.449  19.266  25.740  1.00  0.00     0.039 C 
ATOM     10  C   UNL A   1      41.289  22.072  27.986  1.00  0.00     0.032 C 
BRANCH   6  11
ATOM     11  C   UNL A   1      38.907  21.766  25.844  1.00  0.00     0.228 C 
ATOM     12  O   UNL A   1      38.692  22.871  26.349  1.00  0.00    -0.275 OA
BRANCH  11  13
ATOM     13  C   UNL A   1      37.819  21.069  25.040  1.00  0.00     0.161 C 
BRANCH  13  14
ATOM     14  C   UNL A   1      36.984  21.884  24.051  1.00  0.00     0.270 C 
BRANCH  14  15
ATOM     15  N   UNL A   1      36.956  23.348  24.164  1.00  0.00    -0.348 N 
ATOM     16  C   UNL A   1      35.798  23.905  24.843  1.00  0.00     0.330 C 
ATOM     17  H   UNL A   1      37.789  23.639  24.676  1.00  0.00     0.346 HD
ATOM     18  H   UNL A   1      36.914  23.700  23.208  1.00  0.00     0.346 HD
ENDBRANCH  14  15
ENDBRANCH  13  14
ENDBRANCH  11  13
ENDBRANCH   6  11
ENDBRANCH   3   5
ENDBRANCH   2   3
ENDBRANCH   1   2
BRANCH   1  19
ATOM     19  C   UNL A   1      44.431  23.200  24.146  1.00  0.00     0.275 C 
BRANCH  19  20
ATOM     20  O   UNL A   1      43.663  24.228  24.798  1.00  0.00    -0.458 OA
BRANCH  20  21
ATOM     21  C   UNL A   1      44.376  25.311  25.186  1.00  0.00     0.338 C 
ATOM     22  O   UNL A   1      45.341  25.799  24.626  1.00  0.00    -0.246 OA
BRANCH  21  23
ATOM     23  C   UNL A   1      43.704  25.948  26.328  1.00  0.00     0.060 A 
ATOM     24  C   UNL A   1      44.034  27.273  26.620  1.00  0.00     0.016 A 
ATOM     25  C   UNL A   1      42.816  25.245  27.143  1.00  0.00     0.016 A 
ATOM     26  C   UNL A   1      43.504  27.901  27.738  1.00  0.00     0.010 A 
ATOM     27  C   UNL A   1      42.259  25.886  28.254  1.00  0.00     0.010 A 
ATOM     28  C   UNL A   1      42.604  27.215  28.561  1.00  0.00    -0.014 A 
BRANCH  28  29
ATOM     29  C   UNL A   1      42.031  27.903  29.739  1.00  0.00     0.031 A 
ATOM     30  C   UNL A   1      40.784  28.722  29.598  1.00  0.00     0.074 A 
ATOM     31  C   UNL A   1      42.625  27.764  30.939  1.00  0.00     0.049 A 
ATOM     32  N   UNL A   1      40.187  29.475  30.486  1.00  0.00    -0.248 NA
ATOM     33  C   UNL A   1      40.118  28.689  28.288  1.00  0.00     0.031 C 
ATOM     34  C   UNL A   1      43.809  26.944  31.204  1.00  0.00     0.029 A 
ATOM     35  N   UNL A   1      42.313  28.307  32.158  1.00  0.00    -0.354 N 
ATOM     36  C   UNL A   1      39.090  30.025  29.838  1.00  0.00     0.074 A 
ATOM     37  C   UNL A   1      39.107  29.527  28.479  1.00  0.00     0.031 C 
ATOM     38  C   UNL A   1      44.124  27.039  32.506  1.00  0.00     0.029 A 
ATOM     39  C   UNL A   1      43.198  27.966  33.151  1.00  0.00     0.049 A 
ATOM     40  H   UNL A   1      41.531  28.885  32.308  1.00  0.00     0.167 HD
ATOM     41  C   UNL A   1      38.157  30.871  30.335  1.00  0.00     0.037 A 
ATOM     42  C   UNL A   1      43.278  28.384  34.427  1.00  0.00     0.037 A 
ATOM     43  C   UNL A   1      38.139  31.348  31.694  1.00  0.00     0.049 A 
ATOM     44  C   UNL A   1      42.271  29.375  34.934  1.00  0.00     0.074 A 
ATOM     45  C   UNL A   1      37.230  32.198  32.299  1.00  0.00     0.029 A 
ATOM     46  N   UNL A   1      39.078  31.014  32.659  1.00  0.00    -0.354 N 
ATOM     47  N   UNL A   1      41.248  29.906  34.308  1.00  0.00    -0.248 NA
ATOM     48  C   UNL A   1      42.435  29.838  36.320  1.00  0.00     0.031 C 
ATOM     49  C   UNL A   1      37.640  32.409  33.620  1.00  0.00     0.029 A 
ATOM     50  C   UNL A   1      38.783  31.659  33.848  1.00  0.00     0.049 A 
ATOM     51  H   UNL A   1      39.840  30.408  32.519  1.00  0.00     0.167 HD
ATOM     52  C   UNL A   1      40.641  30.754  35.224  1.00  0.00     0.074 A 
ATOM     53  C   UNL A   1      41.400  30.654  36.454  1.00  0.00     0.031 C 
ATOM     54  C   UNL A   1      39.554  31.546  35.060  1.00  0.00     0.037 A 
BRANCH  41  55
ATOM     55  C   UNL A   1      37.098  31.360  29.395  1.00  0.00     0.057 A 
ATOM     56  C   UNL A   1      35.993  30.574  29.047  1.00  0.00     0.134 A 
ATOM     57  C   UNL A   1      37.174  32.649  28.850  1.00  0.00     0.134 A 
ATOM     58  F   UNL A   1      35.870  29.325  29.522  1.00  0.00    -0.206 F 
ATOM     59  C   UNL A   1      35.008  31.047  28.176  1.00  0.00     0.040 A 
ATOM     60  C   UNL A   1      36.185  33.139  27.996  1.00  0.00     0.040 A 
ATOM     61  F   UNL A   1      38.206  33.453  29.145  1.00  0.00    -0.206 F 
ATOM     62  C   UNL A   1      35.101  32.335  27.652  1.00  0.00     0.006 A 
ENDBRANCH  41  55
BRANCH  42  63
ATOM     63  C   UNL A   1      44.375  27.895  35.298  1.00  0.00     0.057 A 
ATOM     64  C   UNL A   1      45.597  28.571  35.372  1.00  0.00     0.134 A 
ATOM     65  C   UNL A   1      44.223  26.743  36.080  1.00  0.00     0.134 A 
ATOM     66  F   UNL A   1      45.809  29.667  34.630  1.00  0.00    -0.206 F 
ATOM     67  C   UNL A   1      46.635  28.113  36.187  1.00  0.00     0.040 A 
ATOM     68  C   UNL A   1      45.243  26.288  36.916  1.00  0.00     0.040 A 
ATOM     69  F   UNL A   1      43.074  26.053  36.053  1.00  0.00    -0.206 F 
ATOM     70  C   UNL A   1      46.456  26.972  36.968  1.00  0.00     0.006 A 
ENDBRANCH  42  63
BRANCH  54  71
ATOM     71  C   UNL A   1      39.114  32.350  36.246  1.00  0.00     0.057 A 
ATOM     72  C   UNL A   1      39.582  33.652  36.465  1.00  0.00     0.134 A 
ATOM     73  C   UNL A   1      38.185  31.831  37.156  1.00  0.00     0.134 A 
ATOM     74  F   UNL A   1      40.485  34.197  35.635  1.00  0.00    -0.206 F 
ATOM     75  C   UNL A   1      39.152  34.404  37.558  1.00  0.00     0.040 A 
ATOM     76  C   UNL A   1      37.732  32.583  38.240  1.00  0.00     0.040 A 
ATOM     77  F   UNL A   1      37.695  30.592  36.996  1.00  0.00    -0.206 F 
ATOM     78  C   UNL A   1      38.219  33.871  38.446  1.00  0.00     0.006 A 
ENDBRANCH  54  71
ENDBRANCH  28  29
ENDBRANCH  21  23
ENDBRANCH  20  21
ENDBRANCH  19  20
ENDBRANCH   1  19
TORSDOF 15
ENDMDL
MODEL 2
REMARK VINA RESULT:      -9.5      4.341      8.670
REMARK SMILES C[NH2+]CCC(=O)N1CC[C@@H](C(=O)OCCOC(=O)c2ccc(-c3c4nc(c(-c5c(F)cccc5F)c5ccc([nH]5)c(-c5c(F)cccc5F)c5nc(c(-c6c(F)cccc6F)c6ccc3[nH]6)C=C5)C=C4)cc2)[C@@H]1C
REMARK SMILES IDX 14 1 13 2 11 3 12 4 10 5 7 6 8 7 73 8 9 9 74 10 5 11 6 12
REMARK SMILES IDX 4 13 3 14 2 15 1 16 15 19 16 20 17 21 18 22 19 23 20 24
REMARK SMILES IDX 72 25 21 26 71 27 22 28 23 29 24 30 65 31 25 32 70 33 64 34
REMARK SMILES IDX 66 35 26 36 69 37 63 38 62 39 27 41 53 42 36 43 52 44 37 45
REMARK SMILES IDX 40 46 51 47 67 48 38 49 39 50 50 52 68 53 41 54 28 55 29 56
REMARK SMILES IDX 34 57 30 58 31 59 33 60 35 61 32 62 54 63 55 64 60 65 56 66
REMARK SMILES IDX 57 67 59 68 61 69 58 70 42 71 43 72 48 73 44 74 45 75 47 76
REMARK SMILES IDX 49 77 46 78
REMARK H PARENT 2 17 2 18 66 40 40 51
REMARK Flexibility Score: inf
ROOT
ATOM      1  C   UNL A   1      37.857  20.400  25.030  1.00  0.00     0.274 C 
ENDROOT
BRANCH   1   2
ATOM      2  O   UNL A   1      37.461  21.674  24.478  1.00  0.00    -0.462 OA
BRANCH   2   3
ATOM      3  C   UNL A   1      36.929  22.581  25.335  1.00  0.00     0.311 C 
ATOM      4  O   UNL A   1      37.574  23.441  25.924  1.00  0.00    -0.252 OA
BRANCH   3   5
ATOM      5  C   UNL A   1      35.431  22.441  25.521  1.00  0.00     0.123 C 
ATOM      6  N   UNL A   1      33.836  20.704  25.246  1.00  0.00    -0.339 N 
ATOM      7  C   UNL A   1      33.708  21.190  26.602  1.00  0.00     0.121 C 
ATOM      8  C   UNL A   1      34.701  21.583  24.468  1.00  0.00     0.096 C 
ATOM      9  C   UNL A   1      35.079  21.796  26.863  1.00  0.00     0.039 C 
ATOM     10  C   UNL A   1      33.834  22.457  23.553  1.00  0.00     0.032 C 
BRANCH   6  11
ATOM     11  C   UNL A   1      33.171  19.576  24.824  1.00  0.00     0.228 C 
ATOM     12  O   UNL A   1      31.951  19.465  24.970  1.00  0.00    -0.275 OA
BRANCH  11  13
ATOM     13  C   UNL A   1      33.999  18.379  24.382  1.00  0.00     0.161 C 
BRANCH  13  14
ATOM     14  C   UNL A   1      33.293  17.059  24.067  1.00  0.00     0.270 C 
BRANCH  14  15
ATOM     15  N   UNL A   1      32.388  16.468  25.061  1.00  0.00    -0.348 N 
ATOM     16  C   UNL A   1      32.640  15.076  25.394  1.00  0.00     0.330 C 
ATOM     17  H   UNL A   1      32.466  17.015  25.919  1.00  0.00     0.346 HD
ATOM     18  H   UNL A   1      31.460  16.491  24.639  1.00  0.00     0.346 HD
ENDBRANCH  14  15
ENDBRANCH  13  14
ENDBRANCH  11  13
ENDBRANCH   6  11
ENDBRANCH   3   5
ENDBRANCH   2   3
ENDBRANCH   1   2
BRANCH   1  19
ATOM     19  C   UNL A   1      39.198  20.496  25.764  1.00  0.00     0.275 C 
BRANCH  19  20
ATOM     20  O   UNL A   1      39.957  19.280  25.640  1.00  0.00    -0.458 OA
BRANCH  20  21
ATOM     21  C   UNL A   1      41.236  19.360  26.074  1.00  0.00     0.338 C 
ATOM     22  O   UNL A   1      42.106  18.512  25.971  1.00  0.00    -0.246 OA
BRANCH  21  23
ATOM     23  C   UNL A   1      41.499  20.724  26.556  1.00  0.00     0.060 A 
ATOM     24  C   UNL A   1      41.944  21.667  25.628  1.00  0.00     0.016 A 
ATOM     25  C   UNL A   1      41.378  21.061  27.904  1.00  0.00     0.016 A 
ATOM     26  C   UNL A   1      42.296  22.946  26.037  1.00  0.00     0.010 A 
ATOM     27  C   UNL A   1      41.706  22.359  28.314  1.00  0.00     0.010 A 
ATOM     28  C   UNL A   1      42.172  23.305  27.383  1.00  0.00    -0.014 A 
BRANCH  28  29
ATOM     29  C   UNL A   1      42.533  24.678  27.802  1.00  0.00     0.031 A 
ATOM     30  C   UNL A   1      43.971  25.051  27.999  1.00  0.00     0.074 A 
ATOM     31  C   UNL A   1      41.561  25.592  27.974  1.00  0.00     0.049 A 
ATOM     32  N   UNL A   1      44.479  26.167  28.455  1.00  0.00    -0.248 NA
ATOM     33  C   UNL A   1      44.971  24.035  27.636  1.00  0.00     0.031 C 
ATOM     34  C   UNL A   1      40.132  25.357  27.754  1.00  0.00     0.029 A 
ATOM     35  N   UNL A   1      41.627  26.901  28.375  1.00  0.00    -0.354 N 
ATOM     36  C   UNL A   1      45.855  25.982  28.456  1.00  0.00     0.074 A 
ATOM     37  C   UNL A   1      46.103  24.644  27.964  1.00  0.00     0.031 C 
ATOM     38  C   UNL A   1      39.457  26.486  28.023  1.00  0.00     0.029 A 
ATOM     39  C   UNL A   1      40.398  27.502  28.485  1.00  0.00     0.049 A 
ATOM     40  H   UNL A   1      42.474  27.366  28.567  1.00  0.00     0.167 HD
ATOM     41  C   UNL A   1      46.819  26.853  28.837  1.00  0.00     0.037 A 
ATOM     42  C   UNL A   1      40.063  28.723  28.944  1.00  0.00     0.037 A 
ATOM     43  C   UNL A   1      46.562  28.189  29.310  1.00  0.00     0.049 A 
ATOM     44  C   UNL A   1      41.146  29.644  29.424  1.00  0.00     0.074 A 
ATOM     45  C   UNL A   1      47.471  29.153  29.708  1.00  0.00     0.029 A 
ATOM     46  N   UNL A   1      45.300  28.748  29.447  1.00  0.00    -0.354 N 
ATOM     47  N   UNL A   1      42.444  29.454  29.441  1.00  0.00    -0.248 NA
ATOM     48  C   UNL A   1      40.721  30.944  29.963  1.00  0.00     0.031 C 
ATOM     49  C   UNL A   1      46.757  30.283  30.123  1.00  0.00     0.029 A 
ATOM     50  C   UNL A   1      45.405  30.035  29.946  1.00  0.00     0.049 A 
ATOM     51  H   UNL A   1      44.455  28.295  29.223  1.00  0.00     0.167 HD
ATOM     52  C   UNL A   1      42.990  30.610  29.979  1.00  0.00     0.074 A 
ATOM     53  C   UNL A   1      41.885  31.504  30.260  1.00  0.00     0.031 C 
ATOM     54  C   UNL A   1      44.290  30.905  30.220  1.00  0.00     0.037 A 
BRANCH  41  55
ATOM     55  C   UNL A   1      48.238  26.375  28.789  1.00  0.00     0.057 A 
ATOM     56  C   UNL A   1      48.839  25.722  29.871  1.00  0.00     0.134 A 
ATOM     57  C   UNL A   1      49.007  26.550  27.630  1.00  0.00     0.134 A 
ATOM     58  F   UNL A   1      48.162  25.538  31.016  1.00  0.00    -0.206 F 
ATOM     59  C   UNL A   1      50.160  25.273  29.810  1.00  0.00     0.040 A 
ATOM     60  C   UNL A   1      50.320  26.087  27.550  1.00  0.00     0.040 A 
ATOM     61  F   UNL A   1      48.490  27.166  26.557  1.00  0.00    -0.206 F 
ATOM     62  C   UNL A   1      50.903  25.451  28.644  1.00  0.00     0.006 A 
ENDBRANCH  41  55
BRANCH  42  63
ATOM     63  C   UNL A   1      38.636  29.123  29.006  1.00  0.00     0.057 A 
ATOM     64  C   UNL A   1      37.893  28.977  30.182  1.00  0.00     0.134 A 
ATOM     65  C   UNL A   1      37.984  29.665  27.891  1.00  0.00     0.134 A 
ATOM     66  F   UNL A   1      38.456  28.444  31.274  1.00  0.00    -0.206 F 
ATOM     67  C   UNL A   1      36.548  29.349  30.245  1.00  0.00     0.040 A 
ATOM     68  C   UNL A   1      36.648  30.062  27.947  1.00  0.00     0.040 A 
ATOM     69  F   UNL A   1      38.643  29.831  26.735  1.00  0.00    -0.206 F 
ATOM     70  C   UNL A   1      35.924  29.900  29.127  1.00  0.00     0.006 A 
ENDBRANCH  42  63
BRANCH  54  71
ATOM     71  C   UNL A   1      44.584  32.256  30.801  1.00  0.00     0.057 A 
ATOM     72  C   UNL A   1      44.664  32.459  32.184  1.00  0.00     0.134 A 
ATOM     73  C   UNL A   1      44.827  33.354  29.966  1.00  0.00     0.134 A 
ATOM     74  F   UNL A   1      44.427  31.448  33.033  1.00  0.00    -0.206 F 
ATOM     75  C   UNL A   1      44.960  33.713  32.718  1.00  0.00     0.040 A 
ATOM     76  C   UNL A   1      45.145  34.607  30.489  1.00  0.00     0.040 A 
ATOM     77  F   UNL A   1      44.771  33.221  28.632  1.00  0.00    -0.206 F 
ATOM     78  C   UNL A   1      45.208  34.790  31.869  1.00  0.00     0.006 A 
ENDBRANCH  54  71
ENDBRANCH  28  29
ENDBRANCH  21  23
ENDBRANCH  20  21
ENDBRANCH  19  20
ENDBRANCH   1  19
TORSDOF 15
ENDMDL
MODEL 3
REMARK VINA RESULT:      -9.4      4.341      7.858
REMARK SMILES C[NH2+]CCC(=O)N1CC[C@@H](C(=O)OCCOC(=O)c2ccc(-c3c4nc(c(-c5c(F)cccc5F)c5ccc([nH]5)c(-c5c(F)cccc5F)c5nc(c(-c6c(F)cccc6F)c6ccc3[nH]6)C=C5)C=C4)cc2)[C@@H]1C
REMARK SMILES IDX 14 1 13 2 11 3 12 4 10 5 7 6 8 7 73 8 9 9 74 10 5 11 6 12
REMARK SMILES IDX 4 13 3 14 2 15 1 16 15 19 16 20 17 21 18 22 19 23 20 24
REMARK SMILES IDX 72 25 21 26 71 27 22 28 23 29 24 30 65 31 25 32 70 33 64 34
REMARK SMILES IDX 66 35 26 36 69 37 63 38 62 39 27 41 53 42 36 43 52 44 37 45
REMARK SMILES IDX 40 46 51 47 67 48 38 49 39 50 50 52 68 53 41 54 28 55 29 56
REMARK SMILES IDX 34 57 30 58 31 59 33 60 35 61 32 62 54 63 55 64 60 65 56 66
REMARK SMILES IDX 57 67 59 68 61 69 58 70 42 71 43 72 48 73 44 74 45 75 47 76
REMARK SMILES IDX 49 77 46 78
REMARK H PARENT 2 17 2 18 66 40 40 51
REMARK Flexibility Score: inf
ROOT
ATOM      1  C   UNL A   1      34.714  21.290  24.730  1.00  0.00     0.274 C 
ENDROOT
BRANCH   1   2
ATOM      2  O   UNL A   1      34.699  22.721  24.919  1.00  0.00    -0.462 OA
BRANCH   2   3
ATOM      3  C   UNL A   1      34.594  23.490  23.807  1.00  0.00     0.311 C 
ATOM      4  O   UNL A   1      34.667  23.066  22.659  1.00  0.00    -0.252 OA
BRANCH   3   5
ATOM      5  C   UNL A   1      34.380  24.963  24.101  1.00  0.00     0.123 C 
ATOM      6  N   UNL A   1      32.540  26.322  24.738  1.00  0.00    -0.339 N 
ATOM      7  C   UNL A   1      33.587  26.535  25.714  1.00  0.00     0.121 C 
ATOM      8  C   UNL A   1      33.048  25.559  23.604  1.00  0.00     0.096 C 
ATOM      9  C   UNL A   1      34.402  25.256  25.602  1.00  0.00     0.039 C 
ATOM     10  C   UNL A   1      33.280  26.512  22.424  1.00  0.00     0.032 C 
BRANCH   6  11
ATOM     11  C   UNL A   1      31.276  26.833  24.920  1.00  0.00     0.228 C 
ATOM     12  O   UNL A   1      31.040  28.029  24.731  1.00  0.00    -0.275 OA
BRANCH  11  13
ATOM     13  C   UNL A   1      30.231  25.943  25.576  1.00  0.00     0.161 C 
BRANCH  13  14
ATOM     14  C   UNL A   1      30.652  24.579  26.126  1.00  0.00     0.270 C 
BRANCH  14  15
ATOM     15  N   UNL A   1      30.579  23.397  25.259  1.00  0.00    -0.348 N 
ATOM     16  C   UNL A   1      31.275  22.216  25.742  1.00  0.00     0.330 C 
ATOM     17  H   UNL A   1      29.595  23.155  25.140  1.00  0.00     0.346 HD
ATOM     18  H   UNL A   1      31.047  23.660  24.391  1.00  0.00     0.346 HD
ENDBRANCH  14  15
ENDBRANCH  13  14
ENDBRANCH  11  13
ENDBRANCH   6  11
ENDBRANCH   3   5
ENDBRANCH   2   3
ENDBRANCH   1   2
BRANCH   1  19
ATOM     19  C   UNL A   1      36.102  20.699  24.998  1.00  0.00     0.275 C 
BRANCH  19  20
ATOM     20  O   UNL A   1      36.927  21.606  25.752  1.00  0.00    -0.458 OA
BRANCH  20  21
ATOM     21  C   UNL A   1      38.238  21.277  25.800  1.00  0.00     0.338 C 
ATOM     22  O   UNL A   1      38.761  20.261  25.374  1.00  0.00    -0.246 OA
BRANCH  21  23
ATOM     23  C   UNL A   1      39.008  22.425  26.301  1.00  0.00     0.060 A 
ATOM     24  C   UNL A   1      38.503  23.703  26.054  1.00  0.00     0.016 A 
ATOM     25  C   UNL A   1      40.235  22.261  26.942  1.00  0.00     0.016 A 
ATOM     26  C   UNL A   1      39.228  24.829  26.421  1.00  0.00     0.010 A 
ATOM     27  C   UNL A   1      40.953  23.395  27.339  1.00  0.00     0.010 A 
ATOM     28  C   UNL A   1      40.456  24.684  27.074  1.00  0.00    -0.014 A 
BRANCH  28  29
ATOM     29  C   UNL A   1      41.208  25.893  27.477  1.00  0.00     0.031 A 
ATOM     30  C   UNL A   1      40.546  26.947  28.312  1.00  0.00     0.074 A 
ATOM     31  C   UNL A   1      42.497  26.021  27.111  1.00  0.00     0.049 A 
ATOM     32  N   UNL A   1      41.005  28.115  28.682  1.00  0.00    -0.248 NA
ATOM     33  C   UNL A   1      39.191  26.649  28.796  1.00  0.00     0.031 C 
ATOM     34  C   UNL A   1      43.260  25.031  26.348  1.00  0.00     0.029 A 
ATOM     35  N   UNL A   1      43.391  27.037  27.331  1.00  0.00    -0.354 N 
ATOM     36  C   UNL A   1      39.988  28.702  29.421  1.00  0.00     0.074 A 
ATOM     37  C   UNL A   1      38.884  27.767  29.441  1.00  0.00     0.031 C 
ATOM     38  C   UNL A   1      44.509  25.489  26.163  1.00  0.00     0.029 A 
ATOM     39  C   UNL A   1      44.615  26.823  26.746  1.00  0.00     0.049 A 
ATOM     40  H   UNL A   1      43.177  27.841  27.856  1.00  0.00     0.167 HD
ATOM     41  C   UNL A   1      39.981  29.915  30.025  1.00  0.00     0.037 A 
ATOM     42  C   UNL A   1      45.689  27.629  26.657  1.00  0.00     0.037 A 
ATOM     43  C   UNL A   1      41.091  30.832  30.013  1.00  0.00     0.049 A 
ATOM     44  C   UNL A   1      45.630  28.995  27.277  1.00  0.00     0.074 A 
ATOM     45  C   UNL A   1      41.187  32.079  30.605  1.00  0.00     0.029 A 
ATOM     46  N   UNL A   1      42.300  30.598  29.374  1.00  0.00    -0.354 N 
ATOM     47  N   UNL A   1      44.656  29.551  27.957  1.00  0.00    -0.248 NA
ATOM     48  C   UNL A   1      46.811  29.853  27.105  1.00  0.00     0.031 C 
ATOM     49  C   UNL A   1      42.441  32.616  30.291  1.00  0.00     0.029 A 
ATOM     50  C   UNL A   1      43.139  31.687  29.538  1.00  0.00     0.049 A 
ATOM     51  H   UNL A   1      42.527  29.778  28.878  1.00  0.00     0.167 HD
ATOM     52  C   UNL A   1      45.110  30.816  28.304  1.00  0.00     0.074 A 
ATOM     53  C   UNL A   1      46.453  30.939  27.774  1.00  0.00     0.031 C 
ATOM     54  C   UNL A   1      44.471  31.788  28.999  1.00  0.00     0.037 A 
BRANCH  41  55
ATOM     55  C   UNL A   1      38.721  30.331  30.720  1.00  0.00     0.057 A 
ATOM     56  C   UNL A   1      38.480  30.029  32.066  1.00  0.00     0.134 A 
ATOM     57  C   UNL A   1      37.744  31.068  30.038  1.00  0.00     0.134 A 
ATOM     58  F   UNL A   1      39.369  29.312  32.771  1.00  0.00    -0.206 F 
ATOM     59  C   UNL A   1      37.305  30.432  32.704  1.00  0.00     0.040 A 
ATOM     60  C   UNL A   1      36.576  31.494  30.671  1.00  0.00     0.040 A 
ATOM     61  F   UNL A   1      37.914  31.392  28.747  1.00  0.00    -0.206 F 
ATOM     62  C   UNL A   1      36.351  31.171  32.007  1.00  0.00     0.006 A 
ENDBRANCH  41  55
BRANCH  42  63
ATOM     63  C   UNL A   1      46.894  27.176  25.919  1.00  0.00     0.057 A 
ATOM     64  C   UNL A   1      47.058  27.457  24.559  1.00  0.00     0.134 A 
ATOM     65  C   UNL A   1      47.910  26.455  26.559  1.00  0.00     0.134 A 
ATOM     66  F   UNL A   1      46.109  28.124  23.888  1.00  0.00    -0.206 F 
ATOM     67  C   UNL A   1      48.189  27.030  23.858  1.00  0.00     0.040 A 
ATOM     68  C   UNL A   1      49.054  26.043  25.877  1.00  0.00     0.040 A 
ATOM     69  F   UNL A   1      47.810  26.156  27.862  1.00  0.00    -0.206 F 
ATOM     70  C   UNL A   1      49.194  26.326  24.519  1.00  0.00     0.006 A 
ENDBRANCH  42  63
BRANCH  54  71
ATOM     71  C   UNL A   1      45.226  33.061  29.237  1.00  0.00     0.057 A 
ATOM     72  C   UNL A   1      45.120  34.152  28.365  1.00  0.00     0.134 A 
ATOM     73  C   UNL A   1      46.038  33.209  30.369  1.00  0.00     0.134 A 
ATOM     74  F   UNL A   1      44.370  34.065  27.257  1.00  0.00    -0.206 F 
ATOM     75  C   UNL A   1      45.808  35.342  28.604  1.00  0.00     0.040 A 
ATOM     76  C   UNL A   1      46.712  34.402  30.629  1.00  0.00     0.040 A 
ATOM     77  F   UNL A   1      46.175  32.201  31.244  1.00  0.00    -0.206 F 
ATOM     78  C   UNL A   1      46.602  35.471  29.742  1.00  0.00     0.006 A 
ENDBRANCH  54  71
ENDBRANCH  28  29
ENDBRANCH  21  23
ENDBRANCH  20  21
ENDBRANCH  19  20
ENDBRANCH   1  19
TORSDOF 15
ENDMDL
