MODEL 1
REMARK VINA RESULT:     -15.8      0.000      0.000
REMARK SMILES O=C(OCCOC(=O)[C@@]1(CCc2ccccc2)CCC[N@@H+](Cc2cccnc2)C1)c1ccc(-c2c3nc(c(-c4c(F)cccc4F)c4ccc([nH]4)c(-c4c(F)cccc4F)c4nc(c(-c5c(F)cccc5F)c5ccc2[nH]5)C=C4)C=C3)cc1
REMARK SMILES IDX 5 1 4 2 3 3 2 4 1 5 30 6 31 7 83 8 32 9 82 10 33 11 34 12
REMARK SMILES IDX 35 13 76 14 36 15 81 16 75 17 77 18 37 19 80 20 74 21 73 22
REMARK SMILES IDX 38 24 64 25 47 26 63 27 48 28 51 29 62 30 78 31 49 32 50 33
REMARK SMILES IDX 61 35 79 36 52 37 39 38 40 39 45 40 41 41 42 42 44 43 46 44
REMARK SMILES IDX 43 45 65 46 66 47 71 48 67 49 68 50 70 51 72 52 69 53 53 54
REMARK SMILES IDX 54 55 59 56 55 57 56 58 58 59 60 60 57 61 6 62 7 63 8 64
REMARK SMILES IDX 9 65 18 66 29 67 19 68 21 69 20 70 10 72 11 73 12 74 13 75
REMARK SMILES IDX 17 76 14 77 16 78 15 79 22 80 23 81 24 82 28 83 25 84 27 85
REMARK SMILES IDX 26 86
REMARK H PARENT 77 23 51 34 21 71
REMARK Flexibility Score: inf
ROOT
ATOM      1  C   UNL A   1      32.088  27.156  26.516  1.00  0.00     0.274 C 
ENDROOT
BRANCH   1   2
ATOM      2  C   UNL A   1      31.892  28.903  27.252  1.00  0.00     0.275 C 
BRANCH   2   3
ATOM      3  O   UNL A   1      33.380  30.294  27.105  1.00  0.00    -0.458 OA
BRANCH   3   4
ATOM      4  C   UNL A   1      34.541  30.790  28.131  1.00  0.00     0.338 C 
ATOM      5  O   UNL A   1      34.564  31.942  28.544  1.00  0.00    -0.246 OA
BRANCH   4   6
ATOM      6  C   UNL A   1      35.770  29.530  28.596  1.00  0.00     0.060 A 
ATOM      7  C   UNL A   1      36.551  29.368  30.365  1.00  0.00     0.016 A 
ATOM      8  C   UNL A   1      36.903  29.695  27.250  1.00  0.00     0.016 A 
ATOM      9  C   UNL A   1      38.302  29.512  30.630  1.00  0.00     0.010 A 
ATOM     10  C   UNL A   1      38.630  29.769  27.603  1.00  0.00     0.010 A 
ATOM     11  C   UNL A   1      39.306  29.626  29.225  1.00  0.00    -0.014 A 
BRANCH  11  12
ATOM     12  C   UNL A   1      40.705  29.112  29.376  1.00  0.00     0.031 A 
ATOM     13  C   UNL A   1      41.750  30.080  29.804  1.00  0.00     0.074 A 
ATOM     14  C   UNL A   1      41.043  27.830  29.064  1.00  0.00     0.049 A 
ATOM     15  N   UNL A   1      43.029  29.883  29.954  1.00  0.00    -0.248 NA
ATOM     16  C   UNL A   1      41.287  31.431  30.160  1.00  0.00     0.031 C 
ATOM     17  C   UNL A   1      40.139  26.714  28.759  1.00  0.00     0.029 A 
ATOM     18  N   UNL A   1      42.279  27.233  28.915  1.00  0.00    -0.354 N 
ATOM     19  C   UNL A   1      43.517  31.064  30.483  1.00  0.00     0.074 A 
ATOM     20  C   UNL A   1      42.421  32.008  30.524  1.00  0.00     0.031 C 
ATOM     21  C   UNL A   1      40.823  25.645  28.339  1.00  0.00     0.029 A 
ATOM     22  C   UNL A   1      42.225  25.949  28.404  1.00  0.00     0.049 A 
ATOM     23  H   UNL A   1      43.122  27.681  29.153  1.00  0.00     0.167 HD
ATOM     24  C   UNL A   1      44.761  31.310  30.947  1.00  0.00     0.037 A 
ATOM     25  C   UNL A   1      43.177  25.067  28.053  1.00  0.00     0.037 A 
ATOM     26  C   UNL A   1      45.845  30.375  30.842  1.00  0.00     0.049 A 
ATOM     27  C   UNL A   1      44.579  25.434  28.401  1.00  0.00     0.074 A 
ATOM     28  C   UNL A   1      47.161  30.534  31.229  1.00  0.00     0.029 A 
ATOM     29  N   UNL A   1      45.739  29.109  30.278  1.00  0.00    -0.354 N 
ATOM     30  N   UNL A   1      45.010  26.535  28.966  1.00  0.00    -0.248 NA
ATOM     31  C   UNL A   1      45.613  24.430  28.140  1.00  0.00     0.031 C 
ATOM     32  C   UNL A   1      47.867  29.395  30.829  1.00  0.00     0.029 A 
ATOM     33  C   UNL A   1      46.977  28.492  30.267  1.00  0.00     0.049 A 
ATOM     34  H   UNL A   1      44.905  28.710  29.938  1.00  0.00     0.167 HD
ATOM     35  C   UNL A   1      46.358  26.333  29.189  1.00  0.00     0.074 A 
ATOM     36  C   UNL A   1      46.670  25.005  28.696  1.00  0.00     0.031 C 
ATOM     37  C   UNL A   1      47.253  27.168  29.767  1.00  0.00     0.037 A 
BRANCH  24  38
ATOM     38  C   UNL A   1      44.979  32.659  31.557  1.00  0.00     0.057 A 
ATOM     39  C   UNL A   1      44.705  32.907  32.912  1.00  0.00     0.134 A 
ATOM     40  C   UNL A   1      45.372  33.742  30.765  1.00  0.00     0.134 A 
ATOM     41  F   UNL A   1      44.289  31.915  33.714  1.00  0.00    -0.206 F 
ATOM     42  C   UNL A   1      44.769  34.195  33.443  1.00  0.00     0.040 A 
ATOM     43  C   UNL A   1      45.466  35.029  31.293  1.00  0.00     0.040 A 
ATOM     44  F   UNL A   1      45.634  33.572  29.462  1.00  0.00    -0.206 F 
ATOM     45  C   UNL A   1      45.150  35.261  32.631  1.00  0.00     0.006 A 
ENDBRANCH  24  38
BRANCH  25  46
ATOM     46  C   UNL A   1      42.846  23.750  27.433  1.00  0.00     0.057 A 
ATOM     47  C   UNL A   1      42.533  22.627  28.212  1.00  0.00     0.134 A 
ATOM     48  C   UNL A   1      42.884  23.566  26.044  1.00  0.00     0.134 A 
ATOM     49  F   UNL A   1      42.467  22.733  29.548  1.00  0.00    -0.206 F 
ATOM     50  C   UNL A   1      42.333  21.366  27.644  1.00  0.00     0.040 A 
ATOM     51  C   UNL A   1      42.663  22.313  25.459  1.00  0.00     0.040 A 
ATOM     52  F   UNL A   1      43.143  24.599  25.230  1.00  0.00    -0.206 F 
ATOM     53  C   UNL A   1      42.405  21.204  26.263  1.00  0.00     0.006 A 
ENDBRANCH  25  46
BRANCH  37  54
ATOM     54  C   UNL A   1      48.645  26.647  29.927  1.00  0.00     0.057 A 
ATOM     55  C   UNL A   1      49.642  26.895  28.977  1.00  0.00     0.134 A 
ATOM     56  C   UNL A   1      49.000  25.941  31.082  1.00  0.00     0.134 A 
ATOM     57  F   UNL A   1      49.353  27.546  27.839  1.00  0.00    -0.206 F 
ATOM     58  C   UNL A   1      50.945  26.442  29.164  1.00  0.00     0.040 A 
ATOM     59  C   UNL A   1      50.309  25.519  31.299  1.00  0.00     0.040 A 
ATOM     60  F   UNL A   1      48.087  25.674  32.028  1.00  0.00    -0.206 F 
ATOM     61  C   UNL A   1      51.285  25.767  30.334  1.00  0.00     0.006 A 
ENDBRANCH  37  54
ENDBRANCH  11  12
ENDBRANCH   4   6
ENDBRANCH   3   4
ENDBRANCH   2   3
ENDBRANCH   1   2
BRANCH   1  62
ATOM     62  O   UNL A   1      30.910  25.840  26.487  1.00  0.00    -0.461 OA
BRANCH  62  63
ATOM     63  C   UNL A   1      30.753  24.366  26.467  1.00  0.00     0.317 C 
ATOM     64  O   UNL A   1      29.842  23.928  27.183  1.00  0.00    -0.251 OA
BRANCH  63  65
ATOM     65  C   UNL A   1      31.844  23.156  25.691  1.00  0.00     0.117 C 
ATOM     66  C   UNL A   1      32.673  23.040  27.062  1.00  0.00     0.030 C 
ATOM     67  C   UNL A   1      31.555  21.564  25.535  1.00  0.00     0.281 C 
ATOM     68  C   UNL A   1      33.660  21.936  27.435  1.00  0.00     0.063 C 
ATOM     69  N   UNL A   1      32.893  20.876  25.462  1.00  0.00    -0.330 N 
ATOM     70  C   UNL A   1      33.465  20.606  26.749  1.00  0.00     0.262 C 
ATOM     71  H   UNL A   1      33.201  21.666  24.893  1.00  0.00     0.348 HD
BRANCH  65  72
ATOM     72  C   UNL A   1      32.519  23.263  23.916  1.00  0.00     0.029 C 
BRANCH  72  73
ATOM     73  C   UNL A   1      34.631  23.180  23.308  1.00  0.00     0.037 C 
BRANCH  73  74
ATOM     74  C   UNL A   1      35.860  22.812  24.679  1.00  0.00    -0.048 A 
ATOM     75  C   UNL A   1      36.608  24.250  25.740  1.00  0.00     0.004 A 
ATOM     76  C   UNL A   1      36.838  21.363  24.464  1.00  0.00     0.004 A 
ATOM     77  C   UNL A   1      38.177  24.048  26.555  1.00  0.00     0.000 A 
ATOM     78  C   UNL A   1      38.367  21.270  25.317  1.00  0.00     0.000 A 
ATOM     79  C   UNL A   1      39.021  22.562  26.309  1.00  0.00     0.000 A 
ENDBRANCH  73  74
ENDBRANCH  72  73
ENDBRANCH  65  72
BRANCH  69  80
ATOM     80  C   UNL A   1      33.454  20.083  24.368  1.00  0.00     0.300 C 
BRANCH  80  81
ATOM     81  C   UNL A   1      33.578  18.635  24.683  1.00  0.00     0.025 A 
ATOM     82  C   UNL A   1      34.765  17.957  24.411  1.00  0.00     0.013 A 
ATOM     83  C   UNL A   1      32.503  17.910  25.181  1.00  0.00     0.120 A 
ATOM     84  C   UNL A   1      34.800  16.579  24.533  1.00  0.00     0.021 A 
ATOM     85  N   UNL A   1      32.516  16.569  25.330  1.00  0.00    -0.264 NA
ATOM     86  C   UNL A   1      33.654  15.936  24.969  1.00  0.00     0.111 A 
ENDBRANCH  80  81
ENDBRANCH  69  80
ENDBRANCH  63  65
ENDBRANCH  62  63
ENDBRANCH   1  62
TORSDOF 16
ENDMDL
MODEL 2
REMARK VINA RESULT:     -15.7      3.103      5.318
REMARK SMILES O=C(OCCOC(=O)[C@@]1(CCc2ccccc2)CCC[N@@H+](Cc2cccnc2)C1)c1ccc(-c2c3nc(c(-c4c(F)cccc4F)c4ccc([nH]4)c(-c4c(F)cccc4F)c4nc(c(-c5c(F)cccc5F)c5ccc2[nH]5)C=C4)C=C3)cc1
REMARK SMILES IDX 5 1 4 2 3 3 2 4 1 5 30 6 31 7 83 8 32 9 82 10 33 11 34 12
REMARK SMILES IDX 35 13 76 14 36 15 81 16 75 17 77 18 37 19 80 20 74 21 73 22
REMARK SMILES IDX 38 24 64 25 47 26 63 27 48 28 51 29 62 30 78 31 49 32 50 33
REMARK SMILES IDX 61 35 79 36 52 37 39 38 40 39 45 40 41 41 42 42 44 43 46 44
REMARK SMILES IDX 43 45 65 46 66 47 71 48 67 49 68 50 70 51 72 52 69 53 53 54
REMARK SMILES IDX 54 55 59 56 55 57 56 58 58 59 60 60 57 61 6 62 7 63 8 64
REMARK SMILES IDX 9 65 18 66 29 67 19 68 21 69 20 70 10 72 11 73 12 74 13 75
REMARK SMILES IDX 17 76 14 77 16 78 15 79 22 80 23 81 24 82 28 83 25 84 27 85
REMARK SMILES IDX 26 86
REMARK H PARENT 77 23 51 34 21 71
REMARK Flexibility Score: inf
ROOT
ATOM      1  C   UNL A   1      33.234  32.290  27.677  1.00  0.00     0.274 C 
ENDROOT
BRANCH   1   2
ATOM      2  C   UNL A   1      34.278  33.692  28.437  1.00  0.00     0.275 C 
BRANCH   2   3
ATOM      3  O   UNL A   1      34.954  33.594  30.361  1.00  0.00    -0.458 OA
BRANCH   3   4
ATOM      4  C   UNL A   1      34.895  32.435  31.502  1.00  0.00     0.338 C 
ATOM      5  O   UNL A   1      34.114  32.515  32.439  1.00  0.00    -0.246 OA
BRANCH   4   6
ATOM      6  C   UNL A   1      36.058  31.052  31.276  1.00  0.00     0.060 A 
ATOM      7  C   UNL A   1      37.513  30.640  32.491  1.00  0.00     0.016 A 
ATOM      8  C   UNL A   1      36.493  31.290  29.581  1.00  0.00     0.016 A 
ATOM      9  C   UNL A   1      39.206  30.637  31.953  1.00  0.00     0.010 A 
ATOM     10  C   UNL A   1      38.196  31.210  29.126  1.00  0.00     0.010 A 
ATOM     11  C   UNL A   1      39.496  30.841  30.259  1.00  0.00    -0.014 A 
BRANCH  11  12
ATOM     12  C   UNL A   1      40.754  30.221  29.730  1.00  0.00     0.031 A 
ATOM     13  C   UNL A   1      41.905  31.124  29.463  1.00  0.00     0.074 A 
ATOM     14  C   UNL A   1      40.835  28.896  29.426  1.00  0.00     0.049 A 
ATOM     15  N   UNL A   1      43.070  30.830  28.961  1.00  0.00    -0.248 NA
ATOM     16  C   UNL A   1      41.741  32.532  29.860  1.00  0.00     0.031 C 
ATOM     17  C   UNL A   1      39.863  27.842  29.742  1.00  0.00     0.029 A 
ATOM     18  N   UNL A   1      41.795  28.186  28.733  1.00  0.00    -0.354 N 
ATOM     19  C   UNL A   1      43.804  31.999  29.040  1.00  0.00     0.074 A 
ATOM     20  C   UNL A   1      42.921  33.034  29.534  1.00  0.00     0.031 C 
ATOM     21  C   UNL A   1      40.193  26.692  29.148  1.00  0.00     0.029 A 
ATOM     22  C   UNL A   1      41.439  26.879  28.457  1.00  0.00     0.049 A 
ATOM     23  H   UNL A   1      42.657  28.576  28.460  1.00  0.00     0.167 HD
ATOM     24  C   UNL A   1      45.118  32.171  28.778  1.00  0.00     0.037 A 
ATOM     25  C   UNL A   1      42.041  25.896  27.766  1.00  0.00     0.037 A 
ATOM     26  C   UNL A   1      45.958  31.141  28.235  1.00  0.00     0.049 A 
ATOM     27  C   UNL A   1      43.435  26.166  27.312  1.00  0.00     0.074 A 
ATOM     28  C   UNL A   1      47.290  31.214  27.880  1.00  0.00     0.029 A 
ATOM     29  N   UNL A   1      45.530  29.852  27.940  1.00  0.00    -0.354 N 
ATOM     30  N   UNL A   1      44.136  27.263  27.460  1.00  0.00    -0.248 NA
ATOM     31  C   UNL A   1      44.149  25.061  26.668  1.00  0.00     0.031 C 
ATOM     32  C   UNL A   1      47.647  29.993  27.298  1.00  0.00     0.029 A 
ATOM     33  C   UNL A   1      46.562  29.132  27.365  1.00  0.00     0.049 A 
ATOM     34  H   UNL A   1      44.626  29.502  28.115  1.00  0.00     0.167 HD
ATOM     35  C   UNL A   1      45.398  26.963  26.985  1.00  0.00     0.074 A 
ATOM     36  C   UNL A   1      45.362  25.581  26.545  1.00  0.00     0.031 C 
ATOM     37  C   UNL A   1      46.492  27.757  26.937  1.00  0.00     0.037 A 
BRANCH  24  38
ATOM     38  C   UNL A   1      45.668  33.536  29.048  1.00  0.00     0.057 A 
ATOM     39  C   UNL A   1      45.676  34.534  28.060  1.00  0.00     0.134 A 
ATOM     40  C   UNL A   1      46.282  33.826  30.269  1.00  0.00     0.134 A 
ATOM     41  F   UNL A   1      45.134  34.302  26.854  1.00  0.00    -0.206 F 
ATOM     42  C   UNL A   1      46.318  35.754  28.265  1.00  0.00     0.040 A 
ATOM     43  C   UNL A   1      46.902  35.055  30.495  1.00  0.00     0.040 A 
ATOM     44  F   UNL A   1      46.318  32.910  31.247  1.00  0.00    -0.206 F 
ATOM     45  C   UNL A   1      46.935  36.017  29.486  1.00  0.00     0.006 A 
ENDBRANCH  24  38
BRANCH  25  46
ATOM     46  C   UNL A   1      41.390  24.571  27.543  1.00  0.00     0.057 A 
ATOM     47  C   UNL A   1      40.383  24.398  26.584  1.00  0.00     0.134 A 
ATOM     48  C   UNL A   1      41.723  23.453  28.320  1.00  0.00     0.134 A 
ATOM     49  F   UNL A   1      40.020  25.422  25.797  1.00  0.00    -0.206 F 
ATOM     50  C   UNL A   1      39.691  23.190  26.447  1.00  0.00     0.040 A 
ATOM     51  C   UNL A   1      41.055  22.230  28.179  1.00  0.00     0.040 A 
ATOM     52  F   UNL A   1      42.700  23.530  29.235  1.00  0.00    -0.206 F 
ATOM     53  C   UNL A   1      40.022  22.103  27.252  1.00  0.00     0.006 A 
ENDBRANCH  25  46
BRANCH  37  54
ATOM     54  C   UNL A   1      47.748  27.132  26.420  1.00  0.00     0.057 A 
ATOM     55  C   UNL A   1      48.093  27.175  25.064  1.00  0.00     0.134 A 
ATOM     56  C   UNL A   1      48.649  26.534  27.308  1.00  0.00     0.134 A 
ATOM     57  F   UNL A   1      47.255  27.715  24.164  1.00  0.00    -0.206 F 
ATOM     58  C   UNL A   1      49.289  26.629  24.606  1.00  0.00     0.040 A 
ATOM     59  C   UNL A   1      49.866  26.020  26.867  1.00  0.00     0.040 A 
ATOM     60  F   UNL A   1      48.373  26.463  28.619  1.00  0.00    -0.206 F 
ATOM     61  C   UNL A   1      50.186  26.064  25.510  1.00  0.00     0.006 A 
ENDBRANCH  37  54
ENDBRANCH  11  12
ENDBRANCH   4   6
ENDBRANCH   3   4
ENDBRANCH   2   3
ENDBRANCH   1   2
BRANCH   1  62
ATOM     62  O   UNL A   1      33.575  30.557  27.656  1.00  0.00    -0.461 OA
BRANCH  62  63
ATOM     63  C   UNL A   1      33.995  29.423  26.798  1.00  0.00     0.317 C 
ATOM     64  O   UNL A   1      35.201  29.147  26.850  1.00  0.00    -0.251 OA
BRANCH  63  65
ATOM     65  C   UNL A   1      33.003  28.553  25.566  1.00  0.00     0.117 C 
ATOM     66  C   UNL A   1      32.781  27.351  26.609  1.00  0.00     0.030 C 
ATOM     67  C   UNL A   1      31.426  28.800  25.257  1.00  0.00     0.281 C 
ATOM     68  C   UNL A   1      31.731  26.247  26.509  1.00  0.00     0.063 C 
ATOM     69  N   UNL A   1      30.879  27.512  24.699  1.00  0.00    -0.330 N 
ATOM     70  C   UNL A   1      30.492  26.573  25.712  1.00  0.00     0.262 C 
ATOM     71  H   UNL A   1      31.762  27.425  24.194  1.00  0.00     0.348 HD
BRANCH  65  72
ATOM     72  C   UNL A   1      33.406  28.441  23.711  1.00  0.00     0.029 C 
BRANCH  72  73
ATOM     73  C   UNL A   1      33.581  26.602  22.516  1.00  0.00     0.037 C 
BRANCH  73  74
ATOM     74  C   UNL A   1      33.606  24.996  23.490  1.00  0.00    -0.048 A 
ATOM     75  C   UNL A   1      32.001  23.924  23.658  1.00  0.00     0.004 A 
ATOM     76  C   UNL A   1      34.786  24.909  24.794  1.00  0.00     0.004 A 
ATOM     77  C   UNL A   1      31.800  22.810  25.032  1.00  0.00     0.000 A 
ATOM     78  C   UNL A   1      34.487  23.774  26.098  1.00  0.00     0.000 A 
ATOM     79  C   UNL A   1      33.049  22.777  26.223  1.00  0.00     0.000 A 
ENDBRANCH  73  74
ENDBRANCH  72  73
ENDBRANCH  65  72
BRANCH  69  80
ATOM     80  C   UNL A   1      30.293  27.263  23.382  1.00  0.00     0.300 C 
BRANCH  80  81
ATOM     81  C   UNL A   1      29.537  28.421  22.835  1.00  0.00     0.025 A 
ATOM     82  C   UNL A   1      28.187  28.586  23.142  1.00  0.00     0.013 A 
ATOM     83  C   UNL A   1      30.127  29.319  21.956  1.00  0.00     0.120 A 
ATOM     84  C   UNL A   1      27.456  29.556  22.479  1.00  0.00     0.021 A 
ATOM     85  N   UNL A   1      29.445  30.287  21.311  1.00  0.00    -0.264 NA
ATOM     86  C   UNL A   1      28.120  30.357  21.564  1.00  0.00     0.111 A 
ENDBRANCH  80  81
ENDBRANCH  69  80
ENDBRANCH  63  65
ENDBRANCH  62  63
ENDBRANCH   1  62
TORSDOF 16
ENDMDL
MODEL 3
REMARK VINA RESULT:     -15.6      1.445      3.372
REMARK SMILES O=C(OCCOC(=O)[C@@]1(CCc2ccccc2)CCC[N@@H+](Cc2cccnc2)C1)c1ccc(-c2c3nc(c(-c4c(F)cccc4F)c4ccc([nH]4)c(-c4c(F)cccc4F)c4nc(c(-c5c(F)cccc5F)c5ccc2[nH]5)C=C4)C=C3)cc1
REMARK SMILES IDX 5 1 4 2 3 3 2 4 1 5 30 6 31 7 83 8 32 9 82 10 33 11 34 12
REMARK SMILES IDX 35 13 76 14 36 15 81 16 75 17 77 18 37 19 80 20 74 21 73 22
REMARK SMILES IDX 38 24 64 25 47 26 63 27 48 28 51 29 62 30 78 31 49 32 50 33
REMARK SMILES IDX 61 35 79 36 52 37 39 38 40 39 45 40 41 41 42 42 44 43 46 44
REMARK SMILES IDX 43 45 65 46 66 47 71 48 67 49 68 50 70 51 72 52 69 53 53 54
REMARK SMILES IDX 54 55 59 56 55 57 56 58 58 59 60 60 57 61 6 62 7 63 8 64
REMARK SMILES IDX 9 65 18 66 29 67 19 68 21 69 20 70 10 72 11 73 12 74 13 75
REMARK SMILES IDX 17 76 14 77 16 78 15 79 22 80 23 81 24 82 28 83 25 84 27 85
REMARK SMILES IDX 26 86
REMARK H PARENT 77 23 51 34 21 71
REMARK Flexibility Score: inf
ROOT
ATOM      1  C   UNL A   1      31.273  27.795  27.088  1.00  0.00     0.274 C 
ENDROOT
BRANCH   1   2
ATOM      2  C   UNL A   1      32.877  28.572  26.414  1.00  0.00     0.275 C 
BRANCH   2   3
ATOM      3  O   UNL A   1      33.522  30.403  27.048  1.00  0.00    -0.458 OA
BRANCH   3   4
ATOM      4  C   UNL A   1      34.666  30.873  28.104  1.00  0.00     0.338 C 
ATOM      5  O   UNL A   1      34.700  32.022  28.524  1.00  0.00    -0.246 OA
BRANCH   4   6
ATOM      6  C   UNL A   1      35.860  29.589  28.594  1.00  0.00     0.060 A 
ATOM      7  C   UNL A   1      36.627  29.431  30.369  1.00  0.00     0.016 A 
ATOM      8  C   UNL A   1      37.003  29.704  27.252  1.00  0.00     0.016 A 
ATOM      9  C   UNL A   1      38.379  29.533  30.642  1.00  0.00     0.010 A 
ATOM     10  C   UNL A   1      38.729  29.739  27.613  1.00  0.00     0.010 A 
ATOM     11  C   UNL A   1      39.393  29.601  29.240  1.00  0.00    -0.014 A 
BRANCH  11  12
ATOM     12  C   UNL A   1      40.778  29.053  29.406  1.00  0.00     0.031 A 
ATOM     13  C   UNL A   1      41.835  29.988  29.875  1.00  0.00     0.074 A 
ATOM     14  C   UNL A   1      41.093  27.771  29.072  1.00  0.00     0.049 A 
ATOM     15  N   UNL A   1      43.106  29.760  30.045  1.00  0.00    -0.248 NA
ATOM     16  C   UNL A   1      41.395  31.341  30.252  1.00  0.00     0.031 C 
ATOM     17  C   UNL A   1      40.172  26.682  28.725  1.00  0.00     0.029 A 
ATOM     18  N   UNL A   1      42.319  27.150  28.933  1.00  0.00    -0.354 N 
ATOM     19  C   UNL A   1      43.610  30.917  30.609  1.00  0.00     0.074 A 
ATOM     20  C   UNL A   1      42.533  31.884  30.650  1.00  0.00     0.031 C 
ATOM     21  C   UNL A   1      40.840  25.608  28.294  1.00  0.00     0.029 A 
ATOM     22  C   UNL A   1      42.247  25.880  28.392  1.00  0.00     0.049 A 
ATOM     23  H   UNL A   1      43.167  27.574  29.197  1.00  0.00     0.167 HD
ATOM     24  C   UNL A   1      44.849  31.126  31.102  1.00  0.00     0.037 A 
ATOM     25  C   UNL A   1      43.186  24.984  28.040  1.00  0.00     0.037 A 
ATOM     26  C   UNL A   1      45.915  30.170  30.996  1.00  0.00     0.049 A 
ATOM     27  C   UNL A   1      44.589  25.313  28.422  1.00  0.00     0.074 A 
ATOM     28  C   UNL A   1      47.226  30.291  31.411  1.00  0.00     0.029 A 
ATOM     29  N   UNL A   1      45.792  28.919  30.402  1.00  0.00    -0.354 N 
ATOM     30  N   UNL A   1      45.033  26.391  29.020  1.00  0.00    -0.248 NA
ATOM     31  C   UNL A   1      45.606  24.292  28.158  1.00  0.00     0.031 C 
ATOM     32  C   UNL A   1      47.914  29.145  30.999  1.00  0.00     0.029 A 
ATOM     33  C   UNL A   1      47.016  28.275  30.401  1.00  0.00     0.049 A 
ATOM     34  H   UNL A   1      44.957  28.546  30.037  1.00  0.00     0.167 HD
ATOM     35  C   UNL A   1      46.372  26.154  29.263  1.00  0.00     0.074 A 
ATOM     36  C   UNL A   1      46.664  24.830  28.747  1.00  0.00     0.031 C 
ATOM     37  C   UNL A   1      47.273  26.956  29.877  1.00  0.00     0.037 A 
BRANCH  24  38
ATOM     38  C   UNL A   1      45.085  32.456  31.746  1.00  0.00     0.057 A 
ATOM     39  C   UNL A   1      45.570  33.552  31.014  1.00  0.00     0.134 A 
ATOM     40  C   UNL A   1      44.918  32.617  33.124  1.00  0.00     0.134 A 
ATOM     41  F   UNL A   1      45.785  33.447  29.694  1.00  0.00    -0.206 F 
ATOM     42  C   UNL A   1      45.926  34.745  31.643  1.00  0.00     0.040 A 
ATOM     43  C   UNL A   1      45.244  33.816  33.758  1.00  0.00     0.040 A 
ATOM     44  F   UNL A   1      44.470  31.604  33.879  1.00  0.00    -0.206 F 
ATOM     45  C   UNL A   1      45.763  34.879  33.020  1.00  0.00     0.006 A 
ENDBRANCH  24  38
BRANCH  25  46
ATOM     46  C   UNL A   1      42.839  23.689  27.385  1.00  0.00     0.057 A 
ATOM     47  C   UNL A   1      42.489  22.556  28.132  1.00  0.00     0.134 A 
ATOM     48  C   UNL A   1      42.897  23.535  25.993  1.00  0.00     0.134 A 
ATOM     49  F   UNL A   1      42.402  22.633  29.469  1.00  0.00    -0.206 F 
ATOM     50  C   UNL A   1      42.272  21.312  27.533  1.00  0.00     0.040 A 
ATOM     51  C   UNL A   1      42.661  22.300  25.376  1.00  0.00     0.040 A 
ATOM     52  F   UNL A   1      43.193  24.580  25.206  1.00  0.00    -0.206 F 
ATOM     53  C   UNL A   1      42.366  21.180  26.149  1.00  0.00     0.006 A 
ENDBRANCH  25  46
BRANCH  37  54
ATOM     54  C   UNL A   1      48.650  26.402  30.051  1.00  0.00     0.057 A 
ATOM     55  C   UNL A   1      49.658  26.611  29.103  1.00  0.00     0.134 A 
ATOM     56  C   UNL A   1      48.980  25.701  31.217  1.00  0.00     0.134 A 
ATOM     57  F   UNL A   1      49.392  27.254  27.956  1.00  0.00    -0.206 F 
ATOM     58  C   UNL A   1      50.948  26.127  29.303  1.00  0.00     0.040 A 
ATOM     59  C   UNL A   1      50.277  25.248  31.446  1.00  0.00     0.040 A 
ATOM     60  F   UNL A   1      48.056  25.470  32.161  1.00  0.00    -0.206 F 
ATOM     61  C   UNL A   1      51.264  25.458  30.484  1.00  0.00     0.006 A 
ENDBRANCH  37  54
ENDBRANCH  11  12
ENDBRANCH   4   6
ENDBRANCH   3   4
ENDBRANCH   2   3
ENDBRANCH   1   2
BRANCH   1  62
ATOM     62  O   UNL A   1      30.624  26.181  26.783  1.00  0.00    -0.461 OA
BRANCH  62  63
ATOM     63  C   UNL A   1      30.986  24.771  26.503  1.00  0.00     0.317 C 
ATOM     64  O   UNL A   1      30.122  23.939  26.809  1.00  0.00    -0.251 OA
BRANCH  63  65
ATOM     65  C   UNL A   1      32.589  24.136  25.965  1.00  0.00     0.117 C 
ATOM     66  C   UNL A   1      32.692  23.280  27.321  1.00  0.00     0.030 C 
ATOM     67  C   UNL A   1      32.835  22.884  24.958  1.00  0.00     0.281 C 
ATOM     68  C   UNL A   1      33.649  22.122  27.591  1.00  0.00     0.063 C 
ATOM     69  N   UNL A   1      34.185  22.307  25.293  1.00  0.00    -0.330 N 
ATOM     70  C   UNL A   1      34.150  21.372  26.381  1.00  0.00     0.262 C 
ATOM     71  H   UNL A   1      34.499  23.269  25.422  1.00  0.00     0.348 HD
BRANCH  65  72
ATOM     72  C   UNL A   1      33.948  25.159  25.115  1.00  0.00     0.029 C 
BRANCH  72  73
ATOM     73  C   UNL A   1      33.787  26.208  23.188  1.00  0.00     0.037 C 
BRANCH  73  74
ATOM     74  C   UNL A   1      32.107  26.953  22.803  1.00  0.00    -0.048 A 
ATOM     75  C   UNL A   1      31.873  28.875  22.753  1.00  0.00     0.004 A 
ATOM     76  C   UNL A   1      30.713  25.973  23.248  1.00  0.00     0.004 A 
ATOM     77  C   UNL A   1      30.271  29.597  23.036  1.00  0.00     0.000 A 
ATOM     78  C   UNL A   1      29.182  26.789  23.502  1.00  0.00     0.000 A 
ATOM     79  C   UNL A   1      28.969  28.529  23.415  1.00  0.00     0.000 A 
ENDBRANCH  73  74
ENDBRANCH  72  73
ENDBRANCH  65  72
BRANCH  69  80
ATOM     80  C   UNL A   1      35.373  22.208  24.445  1.00  0.00     0.300 C 
BRANCH  80  81
ATOM     81  C   UNL A   1      36.649  22.425  25.177  1.00  0.00     0.025 A 
ATOM     82  C   UNL A   1      36.925  23.664  25.754  1.00  0.00     0.013 A 
ATOM     83  C   UNL A   1      37.623  21.437  25.240  1.00  0.00     0.120 A 
ATOM     84  C   UNL A   1      38.188  23.906  26.265  1.00  0.00     0.021 A 
ATOM     85  N   UNL A   1      38.855  21.639  25.750  1.00  0.00    -0.264 NA
ATOM     86  C   UNL A   1      39.116  22.879  26.218  1.00  0.00     0.111 A 
ENDBRANCH  80  81
ENDBRANCH  69  80
ENDBRANCH  63  65
ENDBRANCH  62  63
ENDBRANCH   1  62
TORSDOF 16
ENDMDL
