MODEL 1
REMARK VINA RESULT:     -10.5      0.000      0.000
REMARK SMILES CCCC[C@@H](C(=O)OCCOC(=O)c1ccc(-c2c3nc(c(-c4c(F)cccc4F)c4ccc([nH]4)c(-c4c(F)cccc4F)c4nc(c(-c5c(F)cccc5F)c5ccc2[nH]5)C=C4)C=C3)cc1)[C@]1(O)COc2cc(O)ccc21
REMARK SMILES IDX 9 1 8 2 6 3 7 4 5 5 4 6 3 7 2 8 1 9 68 10 70 11 78 12 71 13
REMARK SMILES IDX 72 14 77 15 73 16 76 17 74 18 69 19 75 21 10 23 11 24 12 25
REMARK SMILES IDX 13 26 14 27 15 28 67 29 16 30 66 31 17 32 18 33 19 34 60 35
REMARK SMILES IDX 20 36 65 37 59 38 61 39 21 40 64 41 58 42 57 43 22 45 48 46
REMARK SMILES IDX 31 47 47 48 32 49 35 50 46 51 62 52 33 53 34 54 45 56 63 57
REMARK SMILES IDX 36 58 23 59 24 60 29 61 25 62 26 63 28 64 30 65 27 66 49 67
REMARK SMILES IDX 50 68 55 69 51 70 52 71 54 72 56 73 53 74 37 75 38 76 43 77
REMARK SMILES IDX 39 78 40 79 42 80 44 81 41 82
REMARK H PARENT 69 20 75 22 61 44 35 55
REMARK Flexibility Score: inf
ROOT
ATOM      1  C   UNL A   1      31.403  31.043  26.312  1.00  0.00     0.274 C 
ENDROOT
BRANCH   1   2
ATOM      2  O   UNL A   1      32.209  30.131  27.075  1.00  0.00    -0.462 OA
BRANCH   2   3
ATOM      3  C   UNL A   1      31.803  28.833  27.056  1.00  0.00     0.312 C 
ATOM      4  O   UNL A   1      31.335  28.233  28.017  1.00  0.00    -0.252 OA
BRANCH   3   5
ATOM      5  C   UNL A   1      31.941  28.222  25.668  1.00  0.00     0.139 C 
BRANCH   5   6
ATOM      6  C   UNL A   1      30.944  27.040  25.477  1.00  0.00     0.019 C 
BRANCH   6   7
ATOM      7  C   UNL A   1      30.018  27.107  24.255  1.00  0.00     0.001 C 
BRANCH   7   8
ATOM      8  C   UNL A   1      29.376  25.784  23.847  1.00  0.00    -0.003 C 
ATOM      9  C   UNL A   1      30.394  24.686  23.572  1.00  0.00     0.004 C 
ENDBRANCH   7   8
ENDBRANCH   6   7
ENDBRANCH   5   6
BRANCH   5  10
ATOM     10  C   UNL A   1      33.435  27.842  25.343  1.00  0.00     0.140 C 
ATOM     11  C   UNL A   1      33.999  28.628  24.144  1.00  0.00     0.270 C 
ATOM     12  C   UNL A   1      33.682  26.493  24.710  1.00  0.00     0.030 A 
ATOM     13  O   UNL A   1      33.468  27.974  22.981  1.00  0.00    -0.490 OA
ATOM     14  C   UNL A   1      33.585  26.658  23.332  1.00  0.00     0.129 A 
ATOM     15  C   UNL A   1      34.009  25.248  25.213  1.00  0.00     0.014 A 
ATOM     16  C   UNL A   1      33.646  25.622  22.429  1.00  0.00     0.093 A 
ATOM     17  C   UNL A   1      34.175  24.183  24.305  1.00  0.00     0.047 A 
ATOM     18  C   UNL A   1      33.961  24.374  22.931  1.00  0.00     0.119 A 
BRANCH  10  19
ATOM     19  O   UNL A   1      34.256  28.066  26.487  1.00  0.00    -0.381 OA
ATOM     20  H   UNL A   1      34.641  28.955  26.441  1.00  0.00     0.212 HD
ENDBRANCH  10  19
BRANCH  18  21
ATOM     21  O   UNL A   1      34.084  23.361  22.028  1.00  0.00    -0.508 OA
ATOM     22  H   UNL A   1      33.534  23.340  21.269  1.00  0.00     0.293 HD
ENDBRANCH  18  21
ENDBRANCH   5  10
ENDBRANCH   3   5
ENDBRANCH   2   3
ENDBRANCH   1   2
BRANCH   1  23
ATOM     23  C   UNL A   1      31.472  32.431  26.956  1.00  0.00     0.275 C 
BRANCH  23  24
ATOM     24  O   UNL A   1      32.828  32.931  26.938  1.00  0.00    -0.458 OA
BRANCH  24  25
ATOM     25  C   UNL A   1      33.203  33.700  27.990  1.00  0.00     0.338 C 
ATOM     26  O   UNL A   1      32.552  34.591  28.520  1.00  0.00    -0.246 OA
BRANCH  25  27
ATOM     27  C   UNL A   1      34.477  33.193  28.553  1.00  0.00     0.060 A 
ATOM     28  C   UNL A   1      34.455  31.913  29.119  1.00  0.00     0.016 A 
ATOM     29  C   UNL A   1      35.691  33.883  28.433  1.00  0.00     0.016 A 
ATOM     30  C   UNL A   1      35.650  31.272  29.437  1.00  0.00     0.010 A 
ATOM     31  C   UNL A   1      36.889  33.258  28.813  1.00  0.00     0.010 A 
ATOM     32  C   UNL A   1      36.876  31.937  29.291  1.00  0.00    -0.014 A 
BRANCH  32  33
ATOM     33  C   UNL A   1      38.079  31.282  29.862  1.00  0.00     0.031 A 
ATOM     34  C   UNL A   1      38.392  31.574  31.301  1.00  0.00     0.074 A 
ATOM     35  C   UNL A   1      38.780  30.345  29.194  1.00  0.00     0.049 A 
ATOM     36  N   UNL A   1      39.267  31.016  32.096  1.00  0.00    -0.248 NA
ATOM     37  C   UNL A   1      37.566  32.613  31.940  1.00  0.00     0.031 C 
ATOM     38  C   UNL A   1      38.523  29.899  27.827  1.00  0.00     0.029 A 
ATOM     39  N   UNL A   1      39.841  29.571  29.605  1.00  0.00    -0.354 N 
ATOM     40  C   UNL A   1      39.067  31.607  33.336  1.00  0.00     0.074 A 
ATOM     41  C   UNL A   1      38.004  32.576  33.186  1.00  0.00     0.031 C 
ATOM     42  C   UNL A   1      39.393  28.919  27.516  1.00  0.00     0.029 A 
ATOM     43  C   UNL A   1      40.282  28.681  28.653  1.00  0.00     0.049 A 
ATOM     44  H   UNL A   1      40.248  29.648  30.498  1.00  0.00     0.167 HD
ATOM     45  C   UNL A   1      39.712  31.371  34.501  1.00  0.00     0.037 A 
ATOM     46  C   UNL A   1      41.289  27.784  28.703  1.00  0.00     0.037 A 
ATOM     47  C   UNL A   1      40.826  30.478  34.640  1.00  0.00     0.049 A 
ATOM     48  C   UNL A   1      42.096  27.651  29.975  1.00  0.00     0.074 A 
ATOM     49  C   UNL A   1      41.627  30.258  35.745  1.00  0.00     0.029 A 
ATOM     50  N   UNL A   1      41.313  29.672  33.622  1.00  0.00    -0.354 N 
ATOM     51  N   UNL A   1      41.912  28.225  31.139  1.00  0.00    -0.248 NA
ATOM     52  C   UNL A   1      43.256  26.746  29.935  1.00  0.00     0.031 C 
ATOM     53  C   UNL A   1      42.630  29.353  35.381  1.00  0.00     0.029 A 
ATOM     54  C   UNL A   1      42.420  28.969  34.066  1.00  0.00     0.049 A 
ATOM     55  H   UNL A   1      40.929  29.608  32.717  1.00  0.00     0.167 HD
ATOM     56  C   UNL A   1      42.912  27.733  31.973  1.00  0.00     0.074 A 
ATOM     57  C   UNL A   1      43.687  26.797  31.188  1.00  0.00     0.031 C 
ATOM     58  C   UNL A   1      43.171  28.032  33.271  1.00  0.00     0.037 A 
BRANCH  45  59
ATOM     59  C   UNL A   1      39.258  32.173  35.681  1.00  0.00     0.057 A 
ATOM     60  C   UNL A   1      38.279  31.697  36.563  1.00  0.00     0.134 A 
ATOM     61  C   UNL A   1      39.748  33.467  35.889  1.00  0.00     0.134 A 
ATOM     62  F   UNL A   1      37.745  30.478  36.393  1.00  0.00    -0.206 F 
ATOM     63  C   UNL A   1      37.782  32.494  37.595  1.00  0.00     0.040 A 
ATOM     64  C   UNL A   1      39.274  34.266  36.929  1.00  0.00     0.040 A 
ATOM     65  F   UNL A   1      40.677  33.984  35.070  1.00  0.00    -0.206 F 
ATOM     66  C   UNL A   1      38.280  33.783  37.779  1.00  0.00     0.006 A 
ENDBRANCH  45  59
BRANCH  46  67
ATOM     67  C   UNL A   1      41.636  26.949  27.517  1.00  0.00     0.057 A 
ATOM     68  C   UNL A   1      41.185  25.628  27.393  1.00  0.00     0.134 A 
ATOM     69  C   UNL A   1      42.505  27.422  26.525  1.00  0.00     0.134 A 
ATOM     70  F   UNL A   1      40.378  25.100  28.324  1.00  0.00    -0.206 F 
ATOM     71  C   UNL A   1      41.605  24.803  26.345  1.00  0.00     0.040 A 
ATOM     72  C   UNL A   1      42.911  26.618  25.459  1.00  0.00     0.040 A 
ATOM     73  F   UNL A   1      42.987  28.672  26.586  1.00  0.00    -0.206 F 
ATOM     74  C   UNL A   1      42.470  25.299  25.373  1.00  0.00     0.006 A 
ENDBRANCH  46  67
BRANCH  58  75
ATOM     75  C   UNL A   1      44.316  27.320  33.932  1.00  0.00     0.057 A 
ATOM     76  C   UNL A   1      44.151  26.085  34.574  1.00  0.00     0.134 A 
ATOM     77  C   UNL A   1      45.610  27.852  33.879  1.00  0.00     0.134 A 
ATOM     78  F   UNL A   1      42.936  25.526  34.669  1.00  0.00    -0.206 F 
ATOM     79  C   UNL A   1      45.229  25.419  35.159  1.00  0.00     0.040 A 
ATOM     80  C   UNL A   1      46.700  27.182  34.435  1.00  0.00     0.040 A 
ATOM     81  F   UNL A   1      45.841  29.025  33.269  1.00  0.00    -0.206 F 
ATOM     82  C   UNL A   1      46.510  25.963  35.083  1.00  0.00     0.006 A 
ENDBRANCH  58  75
ENDBRANCH  32  33
ENDBRANCH  25  27
ENDBRANCH  24  25
ENDBRANCH  23  24
ENDBRANCH   1  23
TORSDOF 17
ENDMDL
MODEL 2
REMARK VINA RESULT:     -10.5      4.244      9.294
REMARK SMILES CCCC[C@@H](C(=O)OCCOC(=O)c1ccc(-c2c3nc(c(-c4c(F)cccc4F)c4ccc([nH]4)c(-c4c(F)cccc4F)c4nc(c(-c5c(F)cccc5F)c5ccc2[nH]5)C=C4)C=C3)cc1)[C@]1(O)COc2cc(O)ccc21
REMARK SMILES IDX 9 1 8 2 6 3 7 4 5 5 4 6 3 7 2 8 1 9 68 10 70 11 78 12 71 13
REMARK SMILES IDX 72 14 77 15 73 16 76 17 74 18 69 19 75 21 10 23 11 24 12 25
REMARK SMILES IDX 13 26 14 27 15 28 67 29 16 30 66 31 17 32 18 33 19 34 60 35
REMARK SMILES IDX 20 36 65 37 59 38 61 39 21 40 64 41 58 42 57 43 22 45 48 46
REMARK SMILES IDX 31 47 47 48 32 49 35 50 46 51 62 52 33 53 34 54 45 56 63 57
REMARK SMILES IDX 36 58 23 59 24 60 29 61 25 62 26 63 28 64 30 65 27 66 49 67
REMARK SMILES IDX 50 68 55 69 51 70 52 71 54 72 56 73 53 74 37 75 38 76 43 77
REMARK SMILES IDX 39 78 40 79 42 80 44 81 41 82
REMARK H PARENT 69 20 75 22 61 44 35 55
REMARK Flexibility Score: inf
ROOT
ATOM      1  C   UNL A   1      37.926  19.932  24.855  1.00  0.00     0.274 C 
ENDROOT
BRANCH   1   2
ATOM      2  O   UNL A   1      36.868  20.758  25.366  1.00  0.00    -0.462 OA
BRANCH   2   3
ATOM      3  C   UNL A   1      36.386  21.694  24.504  1.00  0.00     0.312 C 
ATOM      4  O   UNL A   1      36.998  22.134  23.537  1.00  0.00    -0.252 OA
BRANCH   3   5
ATOM      5  C   UNL A   1      34.955  22.089  24.846  1.00  0.00     0.139 C 
BRANCH   5   6
ATOM      6  C   UNL A   1      34.246  22.736  23.620  1.00  0.00     0.019 C 
BRANCH   6   7
ATOM      7  C   UNL A   1      32.921  22.102  23.173  1.00  0.00     0.001 C 
BRANCH   7   8
ATOM      8  C   UNL A   1      31.701  23.015  23.251  1.00  0.00    -0.003 C 
ATOM      9  C   UNL A   1      31.988  24.437  22.791  1.00  0.00     0.004 C 
ENDBRANCH   7   8
ENDBRANCH   6   7
ENDBRANCH   5   6
BRANCH   5  10
ATOM     10  C   UNL A   1      34.891  22.973  26.148  1.00  0.00     0.140 C 
ATOM     11  C   UNL A   1      34.251  22.232  27.337  1.00  0.00     0.270 C 
ATOM     12  C   UNL A   1      33.881  24.097  26.170  1.00  0.00     0.030 A 
ATOM     13  O   UNL A   1      32.835  22.288  27.100  1.00  0.00    -0.490 OA
ATOM     14  C   UNL A   1      32.686  23.571  26.651  1.00  0.00     0.129 A 
ATOM     15  C   UNL A   1      33.946  25.444  25.870  1.00  0.00     0.014 A 
ATOM     16  C   UNL A   1      31.507  24.276  26.711  1.00  0.00     0.093 A 
ATOM     17  C   UNL A   1      32.776  26.217  26.014  1.00  0.00     0.047 A 
ATOM     18  C   UNL A   1      31.567  25.621  26.401  1.00  0.00     0.119 A 
BRANCH  10  19
ATOM     19  O   UNL A   1      36.199  23.410  26.508  1.00  0.00    -0.381 OA
ATOM     20  H   UNL A   1      36.821  22.669  26.432  1.00  0.00     0.212 HD
ENDBRANCH  10  19
BRANCH  18  21
ATOM     21  O   UNL A   1      30.410  26.332  26.522  1.00  0.00    -0.508 OA
ATOM     22  H   UNL A   1      30.440  27.265  26.606  1.00  0.00     0.293 HD
ENDBRANCH  18  21
ENDBRANCH   5  10
ENDBRANCH   3   5
ENDBRANCH   2   3
ENDBRANCH   1   2
BRANCH   1  23
ATOM     23  C   UNL A   1      39.218  20.247  25.614  1.00  0.00     0.275 C 
BRANCH  23  24
ATOM     24  O   UNL A   1      40.030  19.058  25.747  1.00  0.00    -0.458 OA
BRANCH  24  25
ATOM     25  C   UNL A   1      41.347  19.251  26.006  1.00  0.00     0.338 C 
ATOM     26  O   UNL A   1      42.261  18.464  25.804  1.00  0.00    -0.246 OA
BRANCH  25  27
ATOM     27  C   UNL A   1      41.575  20.656  26.422  1.00  0.00     0.060 A 
ATOM     28  C   UNL A   1      41.403  20.950  27.780  1.00  0.00     0.016 A 
ATOM     29  C   UNL A   1      42.057  21.640  25.550  1.00  0.00     0.016 A 
ATOM     30  C   UNL A   1      41.838  22.172  28.288  1.00  0.00     0.010 A 
ATOM     31  C   UNL A   1      42.436  22.894  26.054  1.00  0.00     0.010 A 
ATOM     32  C   UNL A   1      42.354  23.156  27.432  1.00  0.00    -0.014 A 
BRANCH  32  33
ATOM     33  C   UNL A   1      42.580  24.506  28.004  1.00  0.00     0.031 A 
ATOM     34  C   UNL A   1      44.008  24.933  28.191  1.00  0.00     0.074 A 
ATOM     35  C   UNL A   1      41.581  25.387  28.203  1.00  0.00     0.049 A 
ATOM     36  N   UNL A   1      44.496  26.104  28.504  1.00  0.00    -0.248 NA
ATOM     37  C   UNL A   1      45.026  23.897  27.945  1.00  0.00     0.031 C 
ATOM     38  C   UNL A   1      40.161  25.133  27.970  1.00  0.00     0.029 A 
ATOM     39  N   UNL A   1      41.622  26.698  28.619  1.00  0.00    -0.354 N 
ATOM     40  C   UNL A   1      45.875  25.955  28.451  1.00  0.00     0.074 A 
ATOM     41  C   UNL A   1      46.147  24.580  28.095  1.00  0.00     0.031 C 
ATOM     42  C   UNL A   1      39.467  26.258  28.232  1.00  0.00     0.029 A 
ATOM     43  C   UNL A   1      40.389  27.305  28.671  1.00  0.00     0.049 A 
ATOM     44  H   UNL A   1      42.458  27.159  28.858  1.00  0.00     0.167 HD
ATOM     45  C   UNL A   1      46.837  26.877  28.682  1.00  0.00     0.037 A 
ATOM     46  C   UNL A   1      40.054  28.561  29.034  1.00  0.00     0.037 A 
ATOM     47  C   UNL A   1      46.580  28.218  29.123  1.00  0.00     0.049 A 
ATOM     48  C   UNL A   1      41.144  29.528  29.438  1.00  0.00     0.074 A 
ATOM     49  C   UNL A   1      47.485  29.192  29.502  1.00  0.00     0.029 A 
ATOM     50  N   UNL A   1      45.314  28.764  29.268  1.00  0.00    -0.354 N 
ATOM     51  N   UNL A   1      42.446  29.375  29.402  1.00  0.00    -0.248 NA
ATOM     52  C   UNL A   1      40.715  30.844  29.939  1.00  0.00     0.031 C 
ATOM     53  C   UNL A   1      46.762  30.314  29.924  1.00  0.00     0.029 A 
ATOM     54  C   UNL A   1      45.410  30.056  29.754  1.00  0.00     0.049 A 
ATOM     55  H   UNL A   1      44.470  28.301  29.057  1.00  0.00     0.167 HD
ATOM     56  C   UNL A   1      42.987  30.576  29.847  1.00  0.00     0.074 A 
ATOM     57  C   UNL A   1      41.874  31.458  30.128  1.00  0.00     0.031 C 
ATOM     58  C   UNL A   1      44.289  30.921  30.016  1.00  0.00     0.037 A 
BRANCH  45  59
ATOM     59  C   UNL A   1      48.251  26.406  28.537  1.00  0.00     0.057 A 
ATOM     60  C   UNL A   1      48.941  26.509  27.322  1.00  0.00     0.134 A 
ATOM     61  C   UNL A   1      48.899  25.771  29.602  1.00  0.00     0.134 A 
ATOM     62  F   UNL A   1      48.359  27.076  26.255  1.00  0.00    -0.206 F 
ATOM     63  C   UNL A   1      50.218  25.968  27.164  1.00  0.00     0.040 A 
ATOM     64  C   UNL A   1      50.183  25.245  29.463  1.00  0.00     0.040 A 
ATOM     65  F   UNL A   1      48.285  25.630  30.787  1.00  0.00    -0.206 F 
ATOM     66  C   UNL A   1      50.842  25.333  28.237  1.00  0.00     0.006 A 
ENDBRANCH  45  59
BRANCH  46  67
ATOM     67  C   UNL A   1      38.629  28.996  29.073  1.00  0.00     0.057 A 
ATOM     68  C   UNL A   1      38.015  29.600  27.968  1.00  0.00     0.134 A 
ATOM     69  C   UNL A   1      37.874  28.906  30.250  1.00  0.00     0.134 A 
ATOM     70  F   UNL A   1      38.692  29.751  26.819  1.00  0.00    -0.206 F 
ATOM     71  C   UNL A   1      36.719  30.119  28.037  1.00  0.00     0.040 A 
ATOM     72  C   UNL A   1      36.568  29.394  30.325  1.00  0.00     0.040 A 
ATOM     73  F   UNL A   1      38.400  28.352  31.351  1.00  0.00    -0.206 F 
ATOM     74  C   UNL A   1      35.991  30.015  29.220  1.00  0.00     0.006 A 
ENDBRANCH  46  67
BRANCH  58  75
ATOM     75  C   UNL A   1      44.582  32.314  30.495  1.00  0.00     0.057 A 
ATOM     76  C   UNL A   1      44.732  32.614  31.856  1.00  0.00     0.134 A 
ATOM     77  C   UNL A   1      44.768  33.357  29.579  1.00  0.00     0.134 A 
ATOM     78  F   UNL A   1      44.557  31.663  32.785  1.00  0.00    -0.206 F 
ATOM     79  C   UNL A   1      45.034  33.907  32.287  1.00  0.00     0.040 A 
ATOM     80  C   UNL A   1      45.098  34.647  29.997  1.00  0.00     0.040 A 
ATOM     81  F   UNL A   1      44.650  33.136  28.261  1.00  0.00    -0.206 F 
ATOM     82  C   UNL A   1      45.225  34.926  31.356  1.00  0.00     0.006 A 
ENDBRANCH  58  75
ENDBRANCH  32  33
ENDBRANCH  25  27
ENDBRANCH  24  25
ENDBRANCH  23  24
ENDBRANCH   1  23
TORSDOF 17
ENDMDL
MODEL 3
REMARK VINA RESULT:     -10.5      4.429      9.719
REMARK SMILES CCCC[C@@H](C(=O)OCCOC(=O)c1ccc(-c2c3nc(c(-c4c(F)cccc4F)c4ccc([nH]4)c(-c4c(F)cccc4F)c4nc(c(-c5c(F)cccc5F)c5ccc2[nH]5)C=C4)C=C3)cc1)[C@]1(O)COc2cc(O)ccc21
REMARK SMILES IDX 9 1 8 2 6 3 7 4 5 5 4 6 3 7 2 8 1 9 68 10 70 11 78 12 71 13
REMARK SMILES IDX 72 14 77 15 73 16 76 17 74 18 69 19 75 21 10 23 11 24 12 25
REMARK SMILES IDX 13 26 14 27 15 28 67 29 16 30 66 31 17 32 18 33 19 34 60 35
REMARK SMILES IDX 20 36 65 37 59 38 61 39 21 40 64 41 58 42 57 43 22 45 48 46
REMARK SMILES IDX 31 47 47 48 32 49 35 50 46 51 62 52 33 53 34 54 45 56 63 57
REMARK SMILES IDX 36 58 23 59 24 60 29 61 25 62 26 63 28 64 30 65 27 66 49 67
REMARK SMILES IDX 50 68 55 69 51 70 52 71 54 72 56 73 53 74 37 75 38 76 43 77
REMARK SMILES IDX 39 78 40 79 42 80 44 81 41 82
REMARK H PARENT 69 20 75 22 61 44 35 55
REMARK Flexibility Score: inf
ROOT
ATOM      1  C   UNL A   1      38.369  20.894  25.617  1.00  0.00     0.274 C 
ENDROOT
BRANCH   1   2
ATOM      2  O   UNL A   1      37.020  20.620  25.207  1.00  0.00    -0.462 OA
BRANCH   2   3
ATOM      3  C   UNL A   1      36.401  21.617  24.520  1.00  0.00     0.312 C 
ATOM      4  O   UNL A   1      36.905  22.245  23.595  1.00  0.00    -0.252 OA
BRANCH   3   5
ATOM      5  C   UNL A   1      34.969  21.822  24.995  1.00  0.00     0.139 C 
BRANCH   5   6
ATOM      6  C   UNL A   1      34.043  22.241  23.815  1.00  0.00     0.019 C 
BRANCH   6   7
ATOM      7  C   UNL A   1      32.727  21.467  23.660  1.00  0.00     0.001 C 
BRANCH   7   8
ATOM      8  C   UNL A   1      32.653  20.145  24.419  1.00  0.00    -0.003 C 
ATOM      9  C   UNL A   1      32.566  18.933  23.503  1.00  0.00     0.004 C 
ENDBRANCH   7   8
ENDBRANCH   6   7
ENDBRANCH   5   6
BRANCH   5  10
ATOM     10  C   UNL A   1      34.898  22.800  26.228  1.00  0.00     0.140 C 
ATOM     11  C   UNL A   1      34.311  22.130  27.484  1.00  0.00     0.270 C 
ATOM     12  C   UNL A   1      33.848  23.886  26.188  1.00  0.00     0.030 A 
ATOM     13  O   UNL A   1      32.889  22.118  27.276  1.00  0.00    -0.490 OA
ATOM     14  C   UNL A   1      32.683  23.357  26.735  1.00  0.00     0.129 A 
ATOM     15  C   UNL A   1      33.857  25.208  25.785  1.00  0.00     0.014 A 
ATOM     16  C   UNL A   1      31.481  24.022  26.768  1.00  0.00     0.093 A 
ATOM     17  C   UNL A   1      32.663  25.948  25.897  1.00  0.00     0.047 A 
ATOM     18  C   UNL A   1      31.485  25.341  26.356  1.00  0.00     0.119 A 
BRANCH  10  19
ATOM     19  O   UNL A   1      36.197  23.309  26.523  1.00  0.00    -0.381 OA
ATOM     20  H   UNL A   1      36.676  23.476  25.696  1.00  0.00     0.212 HD
ENDBRANCH  10  19
BRANCH  18  21
ATOM     21  O   UNL A   1      30.305  26.018  26.449  1.00  0.00    -0.508 OA
ATOM     22  H   UNL A   1      30.219  26.727  27.056  1.00  0.00     0.293 HD
ENDBRANCH  18  21
ENDBRANCH   5  10
ENDBRANCH   3   5
ENDBRANCH   2   3
ENDBRANCH   1   2
BRANCH   1  23
ATOM     23  C   UNL A   1      39.238  19.665  25.335  1.00  0.00     0.275 C 
BRANCH  23  24
ATOM     24  O   UNL A   1      40.242  19.507  26.365  1.00  0.00    -0.458 OA
BRANCH  24  25
ATOM     25  C   UNL A   1      41.514  19.824  26.020  1.00  0.00     0.338 C 
ATOM     26  O   UNL A   1      42.248  19.205  25.261  1.00  0.00    -0.246 OA
BRANCH  25  27
ATOM     27  C   UNL A   1      41.864  21.158  26.564  1.00  0.00     0.060 A 
ATOM     28  C   UNL A   1      41.997  22.202  25.641  1.00  0.00     0.016 A 
ATOM     29  C   UNL A   1      41.944  21.424  27.937  1.00  0.00     0.016 A 
ATOM     30  C   UNL A   1      42.074  23.520  26.088  1.00  0.00     0.010 A 
ATOM     31  C   UNL A   1      42.085  22.747  28.384  1.00  0.00     0.010 A 
ATOM     32  C   UNL A   1      42.122  23.805  27.460  1.00  0.00    -0.014 A 
BRANCH  32  33
ATOM     33  C   UNL A   1      42.434  25.201  27.856  1.00  0.00     0.031 A 
ATOM     34  C   UNL A   1      43.775  25.739  27.446  1.00  0.00     0.074 A 
ATOM     35  C   UNL A   1      41.519  26.019  28.412  1.00  0.00     0.049 A 
ATOM     36  N   UNL A   1      44.240  26.959  27.506  1.00  0.00    -0.248 NA
ATOM     37  C   UNL A   1      44.701  24.764  26.845  1.00  0.00     0.031 C 
ATOM     38  C   UNL A   1      40.151  25.651  28.771  1.00  0.00     0.029 A 
ATOM     39  N   UNL A   1      41.604  27.353  28.739  1.00  0.00    -0.354 N 
ATOM     40  C   UNL A   1      45.493  26.905  26.912  1.00  0.00     0.074 A 
ATOM     41  C   UNL A   1      45.724  25.533  26.517  1.00  0.00     0.031 C 
ATOM     42  C   UNL A   1      39.519  26.737  29.255  1.00  0.00     0.029 A 
ATOM     43  C   UNL A   1      40.442  27.873  29.260  1.00  0.00     0.049 A 
ATOM     44  H   UNL A   1      42.421  27.886  28.612  1.00  0.00     0.167 HD
ATOM     45  C   UNL A   1      46.381  27.905  26.714  1.00  0.00     0.037 A 
ATOM     46  C   UNL A   1      40.165  29.122  29.691  1.00  0.00     0.037 A 
ATOM     47  C   UNL A   1      46.200  29.250  27.182  1.00  0.00     0.049 A 
ATOM     48  C   UNL A   1      41.235  30.187  29.599  1.00  0.00     0.074 A 
ATOM     49  C   UNL A   1      47.089  30.307  27.142  1.00  0.00     0.029 A 
ATOM     50  N   UNL A   1      45.050  29.712  27.804  1.00  0.00    -0.354 N 
ATOM     51  N   UNL A   1      42.425  30.125  29.052  1.00  0.00    -0.248 NA
ATOM     52  C   UNL A   1      40.922  31.497  30.192  1.00  0.00     0.031 C 
ATOM     53  C   UNL A   1      46.493  31.399  27.784  1.00  0.00     0.029 A 
ATOM     54  C   UNL A   1      45.214  31.035  28.174  1.00  0.00     0.049 A 
ATOM     55  H   UNL A   1      44.237  29.179  27.960  1.00  0.00     0.167 HD
ATOM     56  C   UNL A   1      42.988  31.387  29.210  1.00  0.00     0.074 A 
ATOM     57  C   UNL A   1      42.002  32.203  29.886  1.00  0.00     0.031 C 
ATOM     58  C   UNL A   1      44.214  31.833  28.836  1.00  0.00     0.037 A 
BRANCH  45  59
ATOM     59  C   UNL A   1      47.660  27.528  26.032  1.00  0.00     0.057 A 
ATOM     60  C   UNL A   1      47.780  27.541  24.636  1.00  0.00     0.134 A 
ATOM     61  C   UNL A   1      48.752  27.071  26.776  1.00  0.00     0.134 A 
ATOM     62  F   UNL A   1      46.754  27.935  23.867  1.00  0.00    -0.206 F 
ATOM     63  C   UNL A   1      48.937  27.083  24.003  1.00  0.00     0.040 A 
ATOM     64  C   UNL A   1      49.921  26.630  26.156  1.00  0.00     0.040 A 
ATOM     65  F   UNL A   1      48.691  27.022  28.115  1.00  0.00    -0.206 F 
ATOM     66  C   UNL A   1      50.012  26.625  24.765  1.00  0.00     0.006 A 
ENDBRANCH  45  59
BRANCH  46  67
ATOM     67  C   UNL A   1      38.839  29.457  30.282  1.00  0.00     0.057 A 
ATOM     68  C   UNL A   1      37.813  30.021  29.512  1.00  0.00     0.134 A 
ATOM     69  C   UNL A   1      38.596  29.307  31.654  1.00  0.00     0.134 A 
ATOM     70  F   UNL A   1      37.990  30.224  28.198  1.00  0.00    -0.206 F 
ATOM     71  C   UNL A   1      36.612  30.448  30.085  1.00  0.00     0.040 A 
ATOM     72  C   UNL A   1      37.390  29.703  32.235  1.00  0.00     0.040 A 
ATOM     73  F   UNL A   1      39.537  28.787  32.455  1.00  0.00    -0.206 F 
ATOM     74  C   UNL A   1      36.397  30.288  31.451  1.00  0.00     0.006 A 
ENDBRANCH  46  67
BRANCH  58  75
ATOM     75  C   UNL A   1      44.546  33.271  29.119  1.00  0.00     0.057 A 
ATOM     76  C   UNL A   1      44.206  34.299  28.230  1.00  0.00     0.134 A 
ATOM     77  C   UNL A   1      45.167  33.633  30.321  1.00  0.00     0.134 A 
ATOM     78  F   UNL A   1      43.619  34.018  27.058  1.00  0.00    -0.206 F 
ATOM     79  C   UNL A   1      44.493  35.635  28.518  1.00  0.00     0.040 A 
ATOM     80  C   UNL A   1      45.433  34.968  30.632  1.00  0.00     0.040 A 
ATOM     81  F   UNL A   1      45.509  32.700  31.222  1.00  0.00    -0.206 F 
ATOM     82  C   UNL A   1      45.102  35.972  29.726  1.00  0.00     0.006 A 
ENDBRANCH  58  75
ENDBRANCH  32  33
ENDBRANCH  25  27
ENDBRANCH  24  25
ENDBRANCH  23  24
ENDBRANCH   1  23
TORSDOF 17
ENDMDL
