MODEL 1
REMARK VINA RESULT:     -12.1      0.000      0.000
REMARK SMILES NC(=O)C[C@H](NC(=O)C1(c2ccccc2)CCN(C(=O)[C@@H]2CCC[NH2+]2)CC1)C(=O)OCCOC(=O)c1ccc(-c2c3nc(c(-c4c(F)cccc4F)c4ccc([nH]4)c(-c4c(F)cccc4F)c4nc(c(-c5c(F)cccc5F)c5ccc2[nH]5)C=C4)C=C3)cc1
REMARK SMILES IDX 31 1 30 2 28 3 29 4 5 5 4 6 2 7 1 8 3 11 6 12 7 13 8 15 9 16
REMARK SMILES IDX 16 17 27 18 17 19 26 20 18 21 19 22 20 23 10 24 11 25 15 26
REMARK SMILES IDX 12 27 14 28 13 29 21 30 22 31 25 32 23 33 24 34 32 37 33 38
REMARK SMILES IDX 34 39 35 40 36 41 37 42 89 43 38 44 88 45 39 46 40 47 41 48
REMARK SMILES IDX 82 49 42 50 87 51 81 52 83 53 43 54 86 55 80 56 79 57 44 59
REMARK SMILES IDX 70 60 53 61 69 62 54 63 57 64 68 65 84 66 55 67 56 68 67 70
REMARK SMILES IDX 85 71 58 72 45 73 46 74 51 75 47 76 48 77 50 78 52 79 49 80
REMARK SMILES IDX 71 81 72 82 77 83 73 84 74 85 76 86 78 87 75 88 59 89 60 90
REMARK SMILES IDX 65 91 61 92 62 93 64 94 66 95 63 96
REMARK H PARENT 1 9 1 10 6 14 25 35 25 36 83 58 57 69
REMARK Flexibility Score: inf
ROOT
ATOM      1  C   UNL A   1      32.748  28.633  24.127  1.00  0.00     0.274 C 
ENDROOT
BRANCH   1   2
ATOM      2  O   UNL A   1      33.057  27.438  24.880  1.00  0.00    -0.461 OA
BRANCH   2   3
ATOM      3  C   UNL A   1      33.330  26.336  24.118  1.00  0.00     0.329 C 
ATOM      4  O   UNL A   1      33.996  26.366  23.089  1.00  0.00    -0.250 OA
BRANCH   3   5
ATOM      5  C   UNL A   1      33.014  25.038  24.885  1.00  0.00     0.201 C 
BRANCH   5   6
ATOM      6  C   UNL A   1      31.519  24.689  24.926  1.00  0.00     0.136 C 
BRANCH   6   7
ATOM      7  C   UNL A   1      30.896  24.942  26.268  1.00  0.00     0.220 C 
ATOM      8  N   UNL A   1      30.492  26.227  26.486  1.00  0.00    -0.370 N 
ATOM      9  H   UNL A   1      30.074  26.473  27.343  1.00  0.00     0.159 HD
ATOM     10  H   UNL A   1      30.621  26.908  25.787  1.00  0.00     0.159 HD
ATOM     11  O   UNL A   1      30.706  24.062  27.098  1.00  0.00    -0.275 OA
ENDBRANCH   6   7
ENDBRANCH   5   6
BRANCH   5  12
ATOM     12  N   UNL A   1      33.745  24.638  26.108  1.00  0.00    -0.342 N 
ATOM     13  C   UNL A   1      34.180  23.417  26.555  1.00  0.00     0.231 C 
ATOM     14  H   UNL A   1      33.958  25.387  26.712  1.00  0.00     0.164 HD
ATOM     15  O   UNL A   1      33.977  23.199  27.756  1.00  0.00    -0.274 OA
BRANCH  13  16
ATOM     16  C   UNL A   1      35.042  22.417  25.715  1.00  0.00     0.077 C 
ATOM     17  C   UNL A   1      34.761  22.424  24.221  1.00  0.00     0.043 C 
ATOM     18  C   UNL A   1      34.752  20.951  26.205  1.00  0.00     0.043 C 
ATOM     19  C   UNL A   1      33.425  21.830  23.794  1.00  0.00     0.121 C 
ATOM     20  C   UNL A   1      33.400  20.386  25.746  1.00  0.00     0.121 C 
ATOM     21  N   UNL A   1      33.243  20.496  24.294  1.00  0.00    -0.337 N 
ATOM     22  C   UNL A   1      32.533  19.650  23.445  1.00  0.00     0.280 C 
ATOM     23  O   UNL A   1      31.889  20.118  22.495  1.00  0.00    -0.268 OA
BRANCH  16  24
ATOM     24  C   UNL A   1      36.568  22.783  25.872  1.00  0.00    -0.032 A 
ATOM     25  C   UNL A   1      37.009  24.067  26.257  1.00  0.00     0.005 A 
ATOM     26  C   UNL A   1      37.567  21.795  25.743  1.00  0.00     0.005 A 
ATOM     27  C   UNL A   1      38.363  24.354  26.480  1.00  0.00     0.000 A 
ATOM     28  C   UNL A   1      38.922  22.083  25.962  1.00  0.00     0.000 A 
ATOM     29  C   UNL A   1      39.320  23.361  26.331  1.00  0.00     0.000 A 
ENDBRANCH  16  24
BRANCH  22  30
ATOM     30  C   UNL A   1      32.561  18.138  23.625  1.00  0.00     0.272 C 
ATOM     31  C   UNL A   1      32.295  17.649  25.026  1.00  0.00     0.081 C 
ATOM     32  N   UNL A   1      33.842  17.524  23.238  1.00  0.00    -0.336 N 
ATOM     33  C   UNL A   1      32.772  16.211  24.948  1.00  0.00     0.068 C 
ATOM     34  C   UNL A   1      33.859  16.204  23.878  1.00  0.00     0.261 C 
ATOM     35  H   UNL A   1      34.623  18.090  23.570  1.00  0.00     0.346 HD
ATOM     36  H   UNL A   1      33.935  17.452  22.224  1.00  0.00     0.346 HD
ENDBRANCH  22  30
ENDBRANCH  13  16
ENDBRANCH   5  12
ENDBRANCH   3   5
ENDBRANCH   2   3
ENDBRANCH   1   2
BRANCH   1  37
ATOM     37  C   UNL A   1      31.726  29.483  24.893  1.00  0.00     0.275 C 
BRANCH  37  38
ATOM     38  O   UNL A   1      32.076  29.517  26.294  1.00  0.00    -0.458 OA
BRANCH  38  39
ATOM     39  C   UNL A   1      32.545  30.715  26.755  1.00  0.00     0.338 C 
ATOM     40  O   UNL A   1      31.937  31.768  26.736  1.00  0.00    -0.246 OA
BRANCH  39  41
ATOM     41  C   UNL A   1      33.905  30.549  27.360  1.00  0.00     0.060 A 
ATOM     42  C   UNL A   1      34.460  29.289  27.545  1.00  0.00     0.016 A 
ATOM     43  C   UNL A   1      34.600  31.655  27.870  1.00  0.00     0.016 A 
ATOM     44  C   UNL A   1      35.581  29.137  28.374  1.00  0.00     0.010 A 
ATOM     45  C   UNL A   1      35.823  31.494  28.566  1.00  0.00     0.010 A 
ATOM     46  C   UNL A   1      36.337  30.220  28.856  1.00  0.00    -0.014 A 
BRANCH  46  47
ATOM     47  C   UNL A   1      37.627  29.984  29.619  1.00  0.00     0.031 A 
ATOM     48  C   UNL A   1      38.820  29.254  29.017  1.00  0.00     0.074 A 
ATOM     49  C   UNL A   1      37.805  30.505  30.858  1.00  0.00     0.049 A 
ATOM     50  N   UNL A   1      39.894  28.781  29.613  1.00  0.00    -0.248 NA
ATOM     51  C   UNL A   1      38.824  29.043  27.560  1.00  0.00     0.031 C 
ATOM     52  C   UNL A   1      36.838  31.326  31.589  1.00  0.00     0.029 A 
ATOM     53  N   UNL A   1      38.888  30.467  31.714  1.00  0.00    -0.354 N 
ATOM     54  C   UNL A   1      40.673  28.191  28.621  1.00  0.00     0.074 A 
ATOM     55  C   UNL A   1      39.950  28.361  27.377  1.00  0.00     0.031 C 
ATOM     56  C   UNL A   1      37.413  31.833  32.684  1.00  0.00     0.029 A 
ATOM     57  C   UNL A   1      38.699  31.183  32.873  1.00  0.00     0.049 A 
ATOM     58  H   UNL A   1      39.717  29.975  31.514  1.00  0.00     0.167 HD
ATOM     59  C   UNL A   1      41.877  27.570  28.733  1.00  0.00     0.037 A 
ATOM     60  C   UNL A   1      39.398  31.250  34.024  1.00  0.00     0.037 A 
ATOM     61  C   UNL A   1      42.644  27.465  29.954  1.00  0.00     0.049 A 
ATOM     62  C   UNL A   1      40.620  30.403  34.186  1.00  0.00     0.074 A 
ATOM     63  C   UNL A   1      43.843  26.800  30.167  1.00  0.00     0.029 A 
ATOM     64  N   UNL A   1      42.306  28.058  31.160  1.00  0.00    -0.354 N 
ATOM     65  N   UNL A   1      41.255  29.691  33.291  1.00  0.00    -0.248 NA
ATOM     66  C   UNL A   1      41.191  30.322  35.539  1.00  0.00     0.031 C 
ATOM     67  C   UNL A   1      44.201  26.945  31.512  1.00  0.00     0.029 A 
ATOM     68  C   UNL A   1      43.256  27.746  32.125  1.00  0.00     0.049 A 
ATOM     69  H   UNL A   1      41.511  28.618  31.311  1.00  0.00     0.167 HD
ATOM     70  C   UNL A   1      42.293  29.071  33.971  1.00  0.00     0.074 A 
ATOM     71  C   UNL A   1      42.231  29.525  35.344  1.00  0.00     0.031 C 
ATOM     72  C   UNL A   1      43.202  28.188  33.496  1.00  0.00     0.037 A 
BRANCH  59  73
ATOM     73  C   UNL A   1      42.435  26.880  27.518  1.00  0.00     0.057 A 
ATOM     74  C   UNL A   1      43.240  27.531  26.576  1.00  0.00     0.134 A 
ATOM     75  C   UNL A   1      42.227  25.503  27.343  1.00  0.00     0.134 A 
ATOM     76  F   UNL A   1      43.480  28.847  26.681  1.00  0.00    -0.206 F 
ATOM     77  C   UNL A   1      43.804  26.842  25.498  1.00  0.00     0.040 A 
ATOM     78  C   UNL A   1      42.805  24.799  26.285  1.00  0.00     0.040 A 
ATOM     79  F   UNL A   1      41.484  24.812  28.221  1.00  0.00    -0.206 F 
ATOM     80  C   UNL A   1      43.592  25.470  25.355  1.00  0.00     0.006 A 
ENDBRANCH  59  73
BRANCH  60  81
ATOM     81  C   UNL A   1      38.861  32.031  35.174  1.00  0.00     0.057 A 
ATOM     82  C   UNL A   1      39.054  33.413  35.274  1.00  0.00     0.134 A 
ATOM     83  C   UNL A   1      38.148  31.408  36.210  1.00  0.00     0.134 A 
ATOM     84  F   UNL A   1      39.765  34.066  34.343  1.00  0.00    -0.206 F 
ATOM     85  C   UNL A   1      38.551  34.143  36.353  1.00  0.00     0.040 A 
ATOM     86  C   UNL A   1      37.598  32.131  37.266  1.00  0.00     0.040 A 
ATOM     87  F   UNL A   1      37.944  30.081  36.192  1.00  0.00    -0.206 F 
ATOM     88  C   UNL A   1      37.806  33.504  37.343  1.00  0.00     0.006 A 
ENDBRANCH  60  81
BRANCH  72  89
ATOM     89  C   UNL A   1      44.222  27.670  34.467  1.00  0.00     0.057 A 
ATOM     90  C   UNL A   1      44.021  26.480  35.180  1.00  0.00     0.134 A 
ATOM     91  C   UNL A   1      45.413  28.367  34.699  1.00  0.00     0.134 A 
ATOM     92  F   UNL A   1      42.890  25.776  35.022  1.00  0.00    -0.206 F 
ATOM     93  C   UNL A   1      44.957  26.017  36.107  1.00  0.00     0.040 A 
ATOM     94  C   UNL A   1      46.369  27.900  35.603  1.00  0.00     0.040 A 
ATOM     95  F   UNL A   1      45.671  29.513  34.049  1.00  0.00    -0.206 F 
ATOM     96  C   UNL A   1      46.139  26.725  36.316  1.00  0.00     0.006 A 
ENDBRANCH  72  89
ENDBRANCH  46  47
ENDBRANCH  39  41
ENDBRANCH  38  39
ENDBRANCH  37  38
ENDBRANCH   1  37
TORSDOF 17
ENDMDL
MODEL 2
REMARK VINA RESULT:     -11.7      3.602      9.469
REMARK SMILES NC(=O)C[C@H](NC(=O)C1(c2ccccc2)CCN(C(=O)[C@@H]2CCC[NH2+]2)CC1)C(=O)OCCOC(=O)c1ccc(-c2c3nc(c(-c4c(F)cccc4F)c4ccc([nH]4)c(-c4c(F)cccc4F)c4nc(c(-c5c(F)cccc5F)c5ccc2[nH]5)C=C4)C=C3)cc1
REMARK SMILES IDX 31 1 30 2 28 3 29 4 5 5 4 6 2 7 1 8 3 11 6 12 7 13 8 15 9 16
REMARK SMILES IDX 16 17 27 18 17 19 26 20 18 21 19 22 20 23 10 24 11 25 15 26
REMARK SMILES IDX 12 27 14 28 13 29 21 30 22 31 25 32 23 33 24 34 32 37 33 38
REMARK SMILES IDX 34 39 35 40 36 41 37 42 89 43 38 44 88 45 39 46 40 47 41 48
REMARK SMILES IDX 82 49 42 50 87 51 81 52 83 53 43 54 86 55 80 56 79 57 44 59
REMARK SMILES IDX 70 60 53 61 69 62 54 63 57 64 68 65 84 66 55 67 56 68 67 70
REMARK SMILES IDX 85 71 58 72 45 73 46 74 51 75 47 76 48 77 50 78 52 79 49 80
REMARK SMILES IDX 71 81 72 82 77 83 73 84 74 85 76 86 78 87 75 88 59 89 60 90
REMARK SMILES IDX 65 91 61 92 62 93 64 94 66 95 63 96
REMARK H PARENT 1 9 1 10 6 14 25 35 25 36 83 58 57 69
REMARK Flexibility Score: inf
ROOT
ATOM      1  C   UNL A   1      34.770  22.487  24.219  1.00  0.00     0.274 C 
ENDROOT
BRANCH   1   2
ATOM      2  O   UNL A   1      34.523  23.827  24.703  1.00  0.00    -0.461 OA
BRANCH   2   3
ATOM      3  C   UNL A   1      33.216  24.223  24.649  1.00  0.00     0.329 C 
ATOM      4  O   UNL A   1      32.479  24.013  23.692  1.00  0.00    -0.250 OA
BRANCH   3   5
ATOM      5  C   UNL A   1      32.700  24.629  26.043  1.00  0.00     0.201 C 
BRANCH   5   6
ATOM      6  C   UNL A   1      32.603  23.460  27.035  1.00  0.00     0.136 C 
BRANCH   6   7
ATOM      7  C   UNL A   1      31.302  22.717  26.938  1.00  0.00     0.220 C 
ATOM      8  N   UNL A   1      31.313  21.637  26.104  1.00  0.00    -0.370 N 
ATOM      9  H   UNL A   1      30.497  21.098  25.986  1.00  0.00     0.159 HD
ATOM     10  H   UNL A   1      32.135  21.398  25.619  1.00  0.00     0.159 HD
ATOM     11  O   UNL A   1      30.309  23.011  27.590  1.00  0.00    -0.275 OA
ENDBRANCH   6   7
ENDBRANCH   5   6
BRANCH   5  12
ATOM     12  N   UNL A   1      31.648  25.652  26.235  1.00  0.00    -0.342 N 
ATOM     13  C   UNL A   1      31.718  27.004  26.453  1.00  0.00     0.231 C 
ATOM     14  H   UNL A   1      30.731  25.297  26.200  1.00  0.00     0.164 HD
ATOM     15  O   UNL A   1      30.954  27.430  27.328  1.00  0.00    -0.274 OA
BRANCH  13  16
ATOM     16  C   UNL A   1      32.531  28.008  25.570  1.00  0.00     0.077 C 
ATOM     17  C   UNL A   1      34.020  28.063  25.866  1.00  0.00     0.043 C 
ATOM     18  C   UNL A   1      31.986  29.463  25.812  1.00  0.00     0.043 C 
ATOM     19  C   UNL A   1      34.412  28.711  27.187  1.00  0.00     0.121 C 
ATOM     20  C   UNL A   1      32.410  30.084  27.150  1.00  0.00     0.121 C 
ATOM     21  N   UNL A   1      33.863  30.031  27.324  1.00  0.00    -0.337 N 
ATOM     22  C   UNL A   1      34.673  30.927  28.017  1.00  0.00     0.280 C 
ATOM     23  O   UNL A   1      35.632  30.512  28.684  1.00  0.00    -0.268 OA
BRANCH  16  24
ATOM     24  C   UNL A   1      32.403  27.592  24.054  1.00  0.00    -0.032 A 
ATOM     25  C   UNL A   1      33.523  27.339  23.234  1.00  0.00     0.005 A 
ATOM     26  C   UNL A   1      31.140  27.341  23.477  1.00  0.00     0.005 A 
ATOM     27  C   UNL A   1      33.393  26.883  21.915  1.00  0.00     0.000 A 
ATOM     28  C   UNL A   1      31.009  26.890  22.155  1.00  0.00     0.000 A 
ATOM     29  C   UNL A   1      32.135  26.659  21.375  1.00  0.00     0.000 A 
ENDBRANCH  16  24
BRANCH  22  30
ATOM     30  C   UNL A   1      34.440  32.431  27.942  1.00  0.00     0.272 C 
ATOM     31  C   UNL A   1      35.684  33.280  27.997  1.00  0.00     0.081 C 
ATOM     32  N   UNL A   1      33.573  32.945  29.015  1.00  0.00    -0.336 N 
ATOM     33  C   UNL A   1      35.110  34.652  28.295  1.00  0.00     0.068 C 
ATOM     34  C   UNL A   1      33.820  34.390  29.066  1.00  0.00     0.261 C 
ATOM     35  H   UNL A   1      33.815  32.511  29.906  1.00  0.00     0.346 HD
ATOM     36  H   UNL A   1      32.590  32.736  28.839  1.00  0.00     0.346 HD
ENDBRANCH  22  30
ENDBRANCH  13  16
ENDBRANCH   5  12
ENDBRANCH   3   5
ENDBRANCH   2   3
ENDBRANCH   1   2
BRANCH   1  37
ATOM     37  C   UNL A   1      36.277  22.197  24.234  1.00  0.00     0.275 C 
BRANCH  37  38
ATOM     38  O   UNL A   1      36.696  21.873  25.577  1.00  0.00    -0.458 OA
BRANCH  38  39
ATOM     39  C   UNL A   1      38.016  21.551  25.721  1.00  0.00     0.338 C 
ATOM     40  O   UNL A   1      38.534  20.510  25.364  1.00  0.00    -0.246 OA
BRANCH  39  41
ATOM     41  C   UNL A   1      38.773  22.693  26.326  1.00  0.00     0.060 A 
ATOM     42  C   UNL A   1      38.362  24.007  26.138  1.00  0.00     0.016 A 
ATOM     43  C   UNL A   1      39.986  22.473  26.992  1.00  0.00     0.016 A 
ATOM     44  C   UNL A   1      39.233  25.060  26.449  1.00  0.00     0.010 A 
ATOM     45  C   UNL A   1      40.778  23.555  27.449  1.00  0.00     0.010 A 
ATOM     46  C   UNL A   1      40.430  24.886  27.167  1.00  0.00    -0.014 A 
BRANCH  46  47
ATOM     47  C   UNL A   1      41.250  26.084  27.606  1.00  0.00     0.031 A 
ATOM     48  C   UNL A   1      40.729  27.127  28.585  1.00  0.00     0.074 A 
ATOM     49  C   UNL A   1      42.539  26.226  27.207  1.00  0.00     0.049 A 
ATOM     50  N   UNL A   1      41.219  28.314  28.877  1.00  0.00    -0.248 NA
ATOM     51  C   UNL A   1      39.516  26.796  29.350  1.00  0.00     0.031 C 
ATOM     52  C   UNL A   1      43.279  25.294  26.353  1.00  0.00     0.029 A 
ATOM     53  N   UNL A   1      43.484  27.187  27.507  1.00  0.00    -0.354 N 
ATOM     54  C   UNL A   1      40.364  28.877  29.821  1.00  0.00     0.074 A 
ATOM     55  C   UNL A   1      39.316  27.904  30.056  1.00  0.00     0.031 C 
ATOM     56  C   UNL A   1      44.571  25.635  26.328  1.00  0.00     0.029 A 
ATOM     57  C   UNL A   1      44.717  26.940  26.949  1.00  0.00     0.049 A 
ATOM     58  H   UNL A   1      43.294  27.974  28.067  1.00  0.00     0.167 HD
ATOM     59  C   UNL A   1      40.445  30.086  30.436  1.00  0.00     0.037 A 
ATOM     60  C   UNL A   1      45.828  27.695  26.831  1.00  0.00     0.037 A 
ATOM     61  C   UNL A   1      41.527  31.030  30.269  1.00  0.00     0.049 A 
ATOM     62  C   UNL A   1      45.817  29.097  27.353  1.00  0.00     0.074 A 
ATOM     63  C   UNL A   1      41.655  32.302  30.807  1.00  0.00     0.029 A 
ATOM     64  N   UNL A   1      42.678  30.800  29.531  1.00  0.00    -0.354 N 
ATOM     65  N   UNL A   1      44.919  29.696  28.092  1.00  0.00    -0.248 NA
ATOM     66  C   UNL A   1      46.953  29.949  26.973  1.00  0.00     0.031 C 
ATOM     67  C   UNL A   1      42.855  32.861  30.352  1.00  0.00     0.029 A 
ATOM     68  C   UNL A   1      43.501  31.918  29.575  1.00  0.00     0.049 A 
ATOM     69  H   UNL A   1      42.881  29.967  29.047  1.00  0.00     0.167 HD
ATOM     70  C   UNL A   1      45.374  30.995  28.259  1.00  0.00     0.074 A 
ATOM     71  C   UNL A   1      46.650  31.087  27.582  1.00  0.00     0.031 C 
ATOM     72  C   UNL A   1      44.771  32.022  28.901  1.00  0.00     0.037 A 
BRANCH  59  73
ATOM     73  C   UNL A   1      39.297  30.515  31.308  1.00  0.00     0.057 A 
ATOM     74  C   UNL A   1      38.242  31.308  30.842  1.00  0.00     0.134 A 
ATOM     75  C   UNL A   1      39.210  30.042  32.627  1.00  0.00     0.134 A 
ATOM     76  F   UNL A   1      38.259  31.795  29.591  1.00  0.00    -0.206 F 
ATOM     77  C   UNL A   1      37.152  31.627  31.658  1.00  0.00     0.040 A 
ATOM     78  C   UNL A   1      38.116  30.333  33.444  1.00  0.00     0.040 A 
ATOM     79  F   UNL A   1      40.175  29.258  33.132  1.00  0.00    -0.206 F 
ATOM     80  C   UNL A   1      37.085  31.132  32.961  1.00  0.00     0.006 A 
ENDBRANCH  59  73
BRANCH  60  81
ATOM     81  C   UNL A   1      46.987  27.189  26.043  1.00  0.00     0.057 A 
ATOM     82  C   UNL A   1      47.062  27.364  24.658  1.00  0.00     0.134 A 
ATOM     83  C   UNL A   1      48.046  26.507  26.661  1.00  0.00     0.134 A 
ATOM     84  F   UNL A   1      46.063  27.966  23.996  1.00  0.00    -0.206 F 
ATOM     85  C   UNL A   1      48.149  26.888  23.921  1.00  0.00     0.040 A 
ATOM     86  C   UNL A   1      49.159  26.071  25.946  1.00  0.00     0.040 A 
ATOM     87  F   UNL A   1      48.030  26.282  27.984  1.00  0.00    -0.206 F 
ATOM     88  C   UNL A   1      49.209  26.254  24.568  1.00  0.00     0.006 A 
ENDBRANCH  60  81
BRANCH  72  89
ATOM     89  C   UNL A   1      45.499  33.335  28.922  1.00  0.00     0.057 A 
ATOM     90  C   UNL A   1      46.432  33.643  29.921  1.00  0.00     0.134 A 
ATOM     91  C   UNL A   1      45.264  34.303  27.939  1.00  0.00     0.134 A 
ATOM     92  F   UNL A   1      46.687  32.767  30.906  1.00  0.00    -0.206 F 
ATOM     93  C   UNL A   1      47.085  34.876  29.957  1.00  0.00     0.040 A 
ATOM     94  C   UNL A   1      45.930  35.530  27.948  1.00  0.00     0.040 A 
ATOM     95  F   UNL A   1      44.384  34.074  26.952  1.00  0.00    -0.206 F 
ATOM     96  C   UNL A   1      46.838  35.822  28.964  1.00  0.00     0.006 A 
ENDBRANCH  72  89
ENDBRANCH  46  47
ENDBRANCH  39  41
ENDBRANCH  38  39
ENDBRANCH  37  38
ENDBRANCH   1  37
TORSDOF 17
ENDMDL
MODEL 3
REMARK VINA RESULT:     -11.7      3.583      9.194
REMARK SMILES NC(=O)C[C@H](NC(=O)C1(c2ccccc2)CCN(C(=O)[C@@H]2CCC[NH2+]2)CC1)C(=O)OCCOC(=O)c1ccc(-c2c3nc(c(-c4c(F)cccc4F)c4ccc([nH]4)c(-c4c(F)cccc4F)c4nc(c(-c5c(F)cccc5F)c5ccc2[nH]5)C=C4)C=C3)cc1
REMARK SMILES IDX 31 1 30 2 28 3 29 4 5 5 4 6 2 7 1 8 3 11 6 12 7 13 8 15 9 16
REMARK SMILES IDX 16 17 27 18 17 19 26 20 18 21 19 22 20 23 10 24 11 25 15 26
REMARK SMILES IDX 12 27 14 28 13 29 21 30 22 31 25 32 23 33 24 34 32 37 33 38
REMARK SMILES IDX 34 39 35 40 36 41 37 42 89 43 38 44 88 45 39 46 40 47 41 48
REMARK SMILES IDX 82 49 42 50 87 51 81 52 83 53 43 54 86 55 80 56 79 57 44 59
REMARK SMILES IDX 70 60 53 61 69 62 54 63 57 64 68 65 84 66 55 67 56 68 67 70
REMARK SMILES IDX 85 71 58 72 45 73 46 74 51 75 47 76 48 77 50 78 52 79 49 80
REMARK SMILES IDX 71 81 72 82 77 83 73 84 74 85 76 86 78 87 75 88 59 89 60 90
REMARK SMILES IDX 65 91 61 92 62 93 64 94 66 95 63 96
REMARK H PARENT 1 9 1 10 6 14 25 35 25 36 83 58 57 69
REMARK Flexibility Score: inf
ROOT
ATOM      1  C   UNL A   1      34.815  22.906  25.928  1.00  0.00     0.274 C 
ENDROOT
BRANCH   1   2
ATOM      2  O   UNL A   1      33.451  22.850  25.452  1.00  0.00    -0.461 OA
BRANCH   2   3
ATOM      3  C   UNL A   1      32.664  23.898  25.842  1.00  0.00     0.329 C 
ATOM      4  O   UNL A   1      32.323  24.099  27.002  1.00  0.00    -0.250 OA
BRANCH   3   5
ATOM      5  C   UNL A   1      32.568  24.963  24.733  1.00  0.00     0.201 C 
BRANCH   5   6
ATOM      6  C   UNL A   1      31.943  24.447  23.429  1.00  0.00     0.136 C 
BRANCH   6   7
ATOM      7  C   UNL A   1      32.962  24.175  22.360  1.00  0.00     0.220 C 
ATOM      8  N   UNL A   1      33.477  22.912  22.360  1.00  0.00    -0.370 N 
ATOM      9  H   UNL A   1      34.152  22.655  21.690  1.00  0.00     0.159 HD
ATOM     10  H   UNL A   1      33.176  22.257  23.030  1.00  0.00     0.159 HD
ATOM     11  O   UNL A   1      33.281  24.996  21.511  1.00  0.00    -0.275 OA
ENDBRANCH   6   7
ENDBRANCH   5   6
BRANCH   5  12
ATOM     12  N   UNL A   1      33.615  25.987  24.520  1.00  0.00    -0.342 N 
ATOM     13  C   UNL A   1      33.541  27.310  24.167  1.00  0.00     0.231 C 
ATOM     14  H   UNL A   1      34.533  25.657  24.656  1.00  0.00     0.164 HD
ATOM     15  O   UNL A   1      34.362  27.667  23.313  1.00  0.00    -0.274 OA
BRANCH  13  16
ATOM     16  C   UNL A   1      32.649  28.376  24.887  1.00  0.00     0.077 C 
ATOM     17  C   UNL A   1      31.382  27.828  25.522  1.00  0.00     0.043 C 
ATOM     18  C   UNL A   1      32.181  29.448  23.836  1.00  0.00     0.043 C 
ATOM     19  C   UNL A   1      30.293  27.384  24.555  1.00  0.00     0.121 C 
ATOM     20  C   UNL A   1      31.076  28.963  22.886  1.00  0.00     0.121 C 
ATOM     21  N   UNL A   1      29.936  28.421  23.628  1.00  0.00    -0.337 N 
ATOM     22  C   UNL A   1      28.593  28.434  23.260  1.00  0.00     0.280 C 
ATOM     23  O   UNL A   1      27.872  27.456  23.501  1.00  0.00    -0.268 OA
BRANCH  16  24
ATOM     24  C   UNL A   1      33.471  29.040  26.057  1.00  0.00    -0.032 A 
ATOM     25  C   UNL A   1      34.707  28.529  26.507  1.00  0.00     0.005 A 
ATOM     26  C   UNL A   1      33.053  30.256  26.636  1.00  0.00     0.005 A 
ATOM     27  C   UNL A   1      35.470  29.181  27.486  1.00  0.00     0.000 A 
ATOM     28  C   UNL A   1      33.813  30.906  27.619  1.00  0.00     0.000 A 
ATOM     29  C   UNL A   1      35.022  30.370  28.044  1.00  0.00     0.000 A 
ENDBRANCH  16  24
BRANCH  22  30
ATOM     30  C   UNL A   1      27.962  29.653  22.599  1.00  0.00     0.272 C 
ATOM     31  C   UNL A   1      28.588  30.076  21.294  1.00  0.00     0.081 C 
ATOM     32  N   UNL A   1      27.982  30.857  23.446  1.00  0.00    -0.336 N 
ATOM     33  C   UNL A   1      28.025  31.474  21.119  1.00  0.00     0.068 C 
ATOM     34  C   UNL A   1      27.774  31.986  22.534  1.00  0.00     0.261 C 
ATOM     35  H   UNL A   1      28.881  30.943  23.920  1.00  0.00     0.346 HD
ATOM     36  H   UNL A   1      27.265  30.820  24.170  1.00  0.00     0.346 HD
ENDBRANCH  22  30
ENDBRANCH  13  16
ENDBRANCH   5  12
ENDBRANCH   3   5
ENDBRANCH   2   3
ENDBRANCH   1   2
BRANCH   1  37
ATOM     37  C   UNL A   1      35.495  21.547  25.722  1.00  0.00     0.275 C 
BRANCH  37  38
ATOM     38  O   UNL A   1      36.663  21.710  24.888  1.00  0.00    -0.458 OA
BRANCH  38  39
ATOM     39  C   UNL A   1      37.841  21.287  25.434  1.00  0.00     0.338 C 
ATOM     40  O   UNL A   1      38.283  20.154  25.376  1.00  0.00    -0.246 OA
BRANCH  39  41
ATOM     41  C   UNL A   1      38.568  22.433  26.068  1.00  0.00     0.060 A 
ATOM     42  C   UNL A   1      38.158  23.744  25.865  1.00  0.00     0.016 A 
ATOM     43  C   UNL A   1      39.756  22.218  26.781  1.00  0.00     0.016 A 
ATOM     44  C   UNL A   1      39.011  24.802  26.210  1.00  0.00     0.010 A 
ATOM     45  C   UNL A   1      40.524  23.304  27.268  1.00  0.00     0.010 A 
ATOM     46  C   UNL A   1      40.180  24.633  26.974  1.00  0.00    -0.014 A 
BRANCH  46  47
ATOM     47  C   UNL A   1      40.976  25.835  27.444  1.00  0.00     0.031 A 
ATOM     48  C   UNL A   1      40.406  26.884  28.390  1.00  0.00     0.074 A 
ATOM     49  C   UNL A   1      42.282  25.977  27.108  1.00  0.00     0.049 A 
ATOM     50  N   UNL A   1      40.880  28.073  28.698  1.00  0.00    -0.248 NA
ATOM     51  C   UNL A   1      39.158  26.555  29.098  1.00  0.00     0.031 C 
ATOM     52  C   UNL A   1      43.064  25.042  26.297  1.00  0.00     0.029 A 
ATOM     53  N   UNL A   1      43.210  26.942  27.448  1.00  0.00    -0.354 N 
ATOM     54  C   UNL A   1      39.979  28.641  29.596  1.00  0.00     0.074 A 
ATOM     55  C   UNL A   1      38.922  27.667  29.786  1.00  0.00     0.031 C 
ATOM     56  C   UNL A   1      44.355  25.385  26.332  1.00  0.00     0.029 A 
ATOM     57  C   UNL A   1      44.469  26.694  26.952  1.00  0.00     0.049 A 
ATOM     58  H   UNL A   1      42.992  27.732  27.993  1.00  0.00     0.167 HD
ATOM     59  C   UNL A   1      40.028  29.853  30.207  1.00  0.00     0.037 A 
ATOM     60  C   UNL A   1      45.583  27.450  26.883  1.00  0.00     0.037 A 
ATOM     61  C   UNL A   1      41.116  30.798  30.087  1.00  0.00     0.049 A 
ATOM     62  C   UNL A   1      45.545  28.855  27.395  1.00  0.00     0.074 A 
ATOM     63  C   UNL A   1      41.216  32.074  30.622  1.00  0.00     0.029 A 
ATOM     64  N   UNL A   1      42.301  30.566  29.407  1.00  0.00    -0.354 N 
ATOM     65  N   UNL A   1      44.611  29.457  28.086  1.00  0.00    -0.248 NA
ATOM     66  C   UNL A   1      46.697  29.707  27.065  1.00  0.00     0.031 C 
ATOM     67  C   UNL A   1      42.435  32.632  30.223  1.00  0.00     0.029 A 
ATOM     68  C   UNL A   1      43.120  31.685  29.484  1.00  0.00     0.049 A 
ATOM     69  H   UNL A   1      42.529  29.730  28.939  1.00  0.00     0.167 HD
ATOM     70  C   UNL A   1      45.055  30.758  28.266  1.00  0.00     0.074 A 
ATOM     71  C   UNL A   1      46.363  30.847  27.652  1.00  0.00     0.031 C 
ATOM     72  C   UNL A   1      44.421  31.788  28.872  1.00  0.00     0.037 A 
BRANCH  59  73
ATOM     73  C   UNL A   1      38.838  30.286  31.020  1.00  0.00     0.057 A 
ATOM     74  C   UNL A   1      38.713  30.016  32.387  1.00  0.00     0.134 A 
ATOM     75  C   UNL A   1      37.838  31.072  30.426  1.00  0.00     0.134 A 
ATOM     76  F   UNL A   1      39.632  29.270  33.020  1.00  0.00    -0.206 F 
ATOM     77  C   UNL A   1      37.630  30.497  33.130  1.00  0.00     0.040 A 
ATOM     78  C   UNL A   1      36.765  31.579  31.162  1.00  0.00     0.040 A 
ATOM     79  F   UNL A   1      37.908  31.389  29.124  1.00  0.00    -0.206 F 
ATOM     80  C   UNL A   1      36.657  31.288  32.518  1.00  0.00     0.006 A 
ENDBRANCH  59  73
BRANCH  60  81
ATOM     81  C   UNL A   1      46.780  26.941  26.156  1.00  0.00     0.057 A 
ATOM     82  C   UNL A   1      47.797  26.245  26.816  1.00  0.00     0.134 A 
ATOM     83  C   UNL A   1      46.939  27.152  24.777  1.00  0.00     0.134 A 
ATOM     84  F   UNL A   1      47.732  26.048  28.141  1.00  0.00    -0.206 F 
ATOM     85  C   UNL A   1      48.919  25.771  26.132  1.00  0.00     0.040 A 
ATOM     86  C   UNL A   1      48.028  26.642  24.074  1.00  0.00     0.040 A 
ATOM     87  F   UNL A   1      46.014  27.833  24.082  1.00  0.00    -0.206 F 
ATOM     88  C   UNL A   1      49.028  25.954  24.755  1.00  0.00     0.006 A 
ENDBRANCH  60  81
BRANCH  72  89
ATOM     89  C   UNL A   1      45.145  33.102  28.920  1.00  0.00     0.057 A 
ATOM     90  C   UNL A   1      44.959  34.081  27.936  1.00  0.00     0.134 A 
ATOM     91  C   UNL A   1      46.042  33.391  29.956  1.00  0.00     0.134 A 
ATOM     92  F   UNL A   1      44.130  33.858  26.904  1.00  0.00    -0.206 F 
ATOM     93  C   UNL A   1      45.658  35.289  27.966  1.00  0.00     0.040 A 
ATOM     94  C   UNL A   1      46.726  34.606  30.011  1.00  0.00     0.040 A 
ATOM     95  F   UNL A   1      46.267  32.498  30.932  1.00  0.00    -0.206 F 
ATOM     96  C   UNL A   1      46.541  35.557  29.010  1.00  0.00     0.006 A 
ENDBRANCH  72  89
ENDBRANCH  46  47
ENDBRANCH  39  41
ENDBRANCH  38  39
ENDBRANCH  37  38
ENDBRANCH   1  37
TORSDOF 17
ENDMDL
