MODEL 1
REMARK VINA RESULT:     -12.1      0.000      0.000
REMARK SMILES Cc1c(Cl)cccc1NC(=O)NCc1cn([C@@H]2C[NH2+][C@H](C(=O)OCCOC(=O)c3ccc(-c4c5nc(c(-c6c(F)cccc6F)c6ccc([nH]6)c(-c6c(F)cccc6F)c6nc(c(-c7c(F)cccc7F)c7ccc4[nH]7)C=C6)C=C5)cc3)C2)nn1
REMARK SMILES IDX 24 1 23 2 21 3 22 4 20 5 17 6 18 7 83 8 19 9 16 12 14 13
REMARK SMILES IDX 15 14 85 15 84 16 13 17 12 18 9 19 10 20 11 22 8 24 1 25
REMARK SMILES IDX 2 26 3 27 4 28 5 29 7 30 6 31 25 32 26 33 27 34 28 35 29 36
REMARK SMILES IDX 30 37 82 38 31 39 81 40 32 41 33 42 34 43 75 44 35 45 80 46
REMARK SMILES IDX 74 47 76 48 36 49 79 50 73 51 72 52 37 54 63 55 46 56 62 57
REMARK SMILES IDX 47 58 50 59 61 60 77 61 48 62 49 63 60 65 78 66 51 67 38 68
REMARK SMILES IDX 39 69 44 70 40 71 41 72 43 73 45 74 42 75 64 76 65 77 70 78
REMARK SMILES IDX 66 79 67 80 69 81 71 82 68 83 52 84 53 85 58 86 54 87 55 88
REMARK SMILES IDX 57 89 59 90 56 91
REMARK H PARENT 19 10 19 11 9 21 12 23 76 53 50 64
REMARK Flexibility Score: inf
ROOT
ATOM      1  C   UNL A   1      34.042  29.351  27.135  1.00  0.00     0.274 C 
ENDROOT
BRANCH   1   2
ATOM      2  O   UNL A   1      33.382  28.897  25.942  1.00  0.00    -0.458 OA
BRANCH   2   3
ATOM      3  C   UNL A   1      32.127  28.393  26.096  1.00  0.00     0.365 C 
ATOM      4  O   UNL A   1      31.731  27.832  27.114  1.00  0.00    -0.245 OA
BRANCH   3   5
ATOM      5  C   UNL A   1      31.203  28.694  24.901  1.00  0.00     0.295 C 
ATOM      6  C   UNL A   1      31.379  27.532  22.765  1.00  0.00     0.170 C 
ATOM      7  C   UNL A   1      32.352  28.703  22.852  1.00  0.00     0.289 C 
ATOM      8  C   UNL A   1      30.789  27.417  24.172  1.00  0.00     0.110 C 
ATOM      9  N   UNL A   1      31.814  29.584  23.884  1.00  0.00    -0.333 N 
ATOM     10  H   UNL A   1      31.110  30.206  23.487  1.00  0.00     0.347 HD
ATOM     11  H   UNL A   1      32.542  30.171  24.291  1.00  0.00     0.347 HD
BRANCH   6  12
ATOM     12  N   UNL A   1      32.038  26.327  22.323  1.00  0.00    -0.243 N 
ATOM     13  C   UNL A   1      32.899  24.349  22.244  1.00  0.00     0.102 A 
ATOM     14  C   UNL A   1      31.977  25.111  22.923  1.00  0.00     0.137 A 
ATOM     15  N   UNL A   1      33.422  25.092  21.220  1.00  0.00    -0.134 NA
ATOM     16  N   UNL A   1      32.884  26.310  21.280  1.00  0.00    -0.067 NA
BRANCH  13  17
ATOM     17  C   UNL A   1      33.246  22.957  22.585  1.00  0.00     0.178 C 
BRANCH  17  18
ATOM     18  N   UNL A   1      32.369  22.313  23.518  1.00  0.00    -0.332 N 
ATOM     19  N   UNL A   1      33.483  21.869  25.609  1.00  0.00    -0.308 N 
ATOM     20  C   UNL A   1      32.405  22.065  24.826  1.00  0.00     0.319 C 
ATOM     21  H   UNL A   1      33.227  21.772  26.554  1.00  0.00     0.171 HD
ATOM     22  O   UNL A   1      31.307  21.897  25.375  1.00  0.00    -0.248 OA
ATOM     23  H   UNL A   1      31.548  21.975  23.092  1.00  0.00     0.165 HD
BRANCH  19  24
ATOM     24  C   UNL A   1      34.877  21.765  25.441  1.00  0.00     0.047 A 
ATOM     25  C   UNL A   1      35.132  24.303  25.752  1.00  0.00     0.048 C 
ATOM     26  C   UNL A   1      35.696  22.910  25.602  1.00  0.00    -0.009 A 
ATOM     27  C   UNL A   1      37.101  22.746  25.554  1.00  0.00     0.046 A 
ATOM     28  Cl  UNL A   1      38.188  24.078  25.762  1.00  0.00    -0.084 Cl
ATOM     29  C   UNL A   1      37.677  21.499  25.316  1.00  0.00     0.021 A 
ATOM     30  C   UNL A   1      35.478  20.587  25.002  1.00  0.00     0.026 A 
ATOM     31  C   UNL A   1      36.863  20.423  24.999  1.00  0.00     0.004 A 
ENDBRANCH  19  24
ENDBRANCH  17  18
ENDBRANCH  13  17
ENDBRANCH   6  12
ENDBRANCH   3   5
ENDBRANCH   2   3
ENDBRANCH   1   2
BRANCH   1  32
ATOM     32  C   UNL A   1      33.841  30.851  27.313  1.00  0.00     0.275 C 
BRANCH  32  33
ATOM     33  O   UNL A   1      35.047  31.507  27.715  1.00  0.00    -0.458 OA
BRANCH  33  34
ATOM     34  C   UNL A   1      35.167  31.718  29.045  1.00  0.00     0.338 C 
ATOM     35  O   UNL A   1      34.494  32.453  29.744  1.00  0.00    -0.246 OA
BRANCH  34  36
ATOM     36  C   UNL A   1      36.370  31.046  29.545  1.00  0.00     0.060 A 
ATOM     37  C   UNL A   1      37.597  31.703  29.397  1.00  0.00     0.016 A 
ATOM     38  C   UNL A   1      36.299  29.703  29.937  1.00  0.00     0.016 A 
ATOM     39  C   UNL A   1      38.764  30.977  29.541  1.00  0.00     0.010 A 
ATOM     40  C   UNL A   1      37.462  28.980  30.073  1.00  0.00     0.010 A 
ATOM     41  C   UNL A   1      38.682  29.608  29.821  1.00  0.00    -0.014 A 
BRANCH  41  42
ATOM     42  C   UNL A   1      39.915  28.850  29.921  1.00  0.00     0.031 A 
ATOM     43  C   UNL A   1      40.477  28.753  31.290  1.00  0.00     0.074 A 
ATOM     44  C   UNL A   1      40.412  28.144  28.887  1.00  0.00     0.049 A 
ATOM     45  N   UNL A   1      41.650  29.105  31.699  1.00  0.00    -0.248 NA
ATOM     46  C   UNL A   1      39.581  28.273  32.355  1.00  0.00     0.031 C 
ATOM     47  C   UNL A   1      39.782  27.915  27.582  1.00  0.00     0.029 A 
ATOM     48  N   UNL A   1      41.542  27.384  28.831  1.00  0.00    -0.354 N 
ATOM     49  C   UNL A   1      41.709  28.721  33.036  1.00  0.00     0.074 A 
ATOM     50  C   UNL A   1      40.376  28.340  33.422  1.00  0.00     0.031 C 
ATOM     51  C   UNL A   1      40.433  26.915  26.948  1.00  0.00     0.029 A 
ATOM     52  C   UNL A   1      41.590  26.532  27.739  1.00  0.00     0.049 A 
ATOM     53  H   UNL A   1      42.258  27.437  29.504  1.00  0.00     0.167 HD
ATOM     54  C   UNL A   1      42.894  28.512  33.665  1.00  0.00     0.037 A 
ATOM     55  C   UNL A   1      42.485  25.540  27.524  1.00  0.00     0.037 A 
ATOM     56  C   UNL A   1      43.988  29.137  32.976  1.00  0.00     0.049 A 
ATOM     57  C   UNL A   1      43.676  25.807  28.361  1.00  0.00     0.074 A 
ATOM     58  C   UNL A   1      44.368  30.433  32.699  1.00  0.00     0.029 A 
ATOM     59  N   UNL A   1      44.729  28.327  32.156  1.00  0.00    -0.354 N 
ATOM     60  N   UNL A   1      44.501  26.796  28.167  1.00  0.00    -0.248 NA
ATOM     61  C   UNL A   1      43.796  25.144  29.653  1.00  0.00     0.031 C 
ATOM     62  C   UNL A   1      45.071  30.371  31.460  1.00  0.00     0.029 A 
ATOM     63  C   UNL A   1      45.097  29.039  31.044  1.00  0.00     0.049 A 
ATOM     64  H   UNL A   1      44.961  27.388  32.337  1.00  0.00     0.167 HD
ATOM     65  C   UNL A   1      44.934  27.146  29.434  1.00  0.00     0.074 A 
ATOM     66  C   UNL A   1      44.614  25.999  30.271  1.00  0.00     0.031 C 
ATOM     67  C   UNL A   1      45.235  28.443  29.734  1.00  0.00     0.037 A 
BRANCH  54  68
ATOM     68  C   UNL A   1      43.107  27.411  34.671  1.00  0.00     0.057 A 
ATOM     69  C   UNL A   1      43.222  26.081  34.235  1.00  0.00     0.134 A 
ATOM     70  C   UNL A   1      42.906  27.577  36.058  1.00  0.00     0.134 A 
ATOM     71  F   UNL A   1      43.372  25.796  32.933  1.00  0.00    -0.206 F 
ATOM     72  C   UNL A   1      43.106  24.995  35.112  1.00  0.00     0.040 A 
ATOM     73  C   UNL A   1      42.842  26.503  36.948  1.00  0.00     0.040 A 
ATOM     74  F   UNL A   1      42.659  28.775  36.604  1.00  0.00    -0.206 F 
ATOM     75  C   UNL A   1      42.915  25.204  36.473  1.00  0.00     0.006 A 
ENDBRANCH  54  68
BRANCH  55  76
ATOM     76  C   UNL A   1      42.289  24.265  26.804  1.00  0.00     0.057 A 
ATOM     77  C   UNL A   1      43.121  23.893  25.740  1.00  0.00     0.134 A 
ATOM     78  C   UNL A   1      41.439  23.265  27.307  1.00  0.00     0.134 A 
ATOM     79  F   UNL A   1      43.994  24.767  25.221  1.00  0.00    -0.206 F 
ATOM     80  C   UNL A   1      43.122  22.593  25.220  1.00  0.00     0.040 A 
ATOM     81  C   UNL A   1      41.423  21.967  26.790  1.00  0.00     0.040 A 
ATOM     82  F   UNL A   1      40.658  23.490  28.373  1.00  0.00    -0.206 F 
ATOM     83  C   UNL A   1      42.278  21.622  25.751  1.00  0.00     0.006 A 
ENDBRANCH  55  76
BRANCH  67  84
ATOM     84  C   UNL A   1      45.489  29.367  28.576  1.00  0.00     0.057 A 
ATOM     85  C   UNL A   1      44.489  30.107  27.928  1.00  0.00     0.134 A 
ATOM     86  C   UNL A   1      46.807  29.582  28.163  1.00  0.00     0.134 A 
ATOM     87  F   UNL A   1      43.211  30.038  28.320  1.00  0.00    -0.206 F 
ATOM     88  C   UNL A   1      44.785  30.978  26.876  1.00  0.00     0.040 A 
ATOM     89  C   UNL A   1      47.120  30.478  27.137  1.00  0.00     0.040 A 
ATOM     90  F   UNL A   1      47.821  28.951  28.776  1.00  0.00    -0.206 F 
ATOM     91  C   UNL A   1      46.105  31.168  26.479  1.00  0.00     0.006 A 
ENDBRANCH  67  84
ENDBRANCH  41  42
ENDBRANCH  34  36
ENDBRANCH  33  34
ENDBRANCH  32  33
ENDBRANCH   1  32
TORSDOF 15
ENDMDL
MODEL 2
REMARK VINA RESULT:     -12.0      2.945      8.061
REMARK SMILES Cc1c(Cl)cccc1NC(=O)NCc1cn([C@@H]2C[NH2+][C@H](C(=O)OCCOC(=O)c3ccc(-c4c5nc(c(-c6c(F)cccc6F)c6ccc([nH]6)c(-c6c(F)cccc6F)c6nc(c(-c7c(F)cccc7F)c7ccc4[nH]7)C=C6)C=C5)cc3)C2)nn1
REMARK SMILES IDX 24 1 23 2 21 3 22 4 20 5 17 6 18 7 83 8 19 9 16 12 14 13
REMARK SMILES IDX 15 14 85 15 84 16 13 17 12 18 9 19 10 20 11 22 8 24 1 25
REMARK SMILES IDX 2 26 3 27 4 28 5 29 7 30 6 31 25 32 26 33 27 34 28 35 29 36
REMARK SMILES IDX 30 37 82 38 31 39 81 40 32 41 33 42 34 43 75 44 35 45 80 46
REMARK SMILES IDX 74 47 76 48 36 49 79 50 73 51 72 52 37 54 63 55 46 56 62 57
REMARK SMILES IDX 47 58 50 59 61 60 77 61 48 62 49 63 60 65 78 66 51 67 38 68
REMARK SMILES IDX 39 69 44 70 40 71 41 72 43 73 45 74 42 75 64 76 65 77 70 78
REMARK SMILES IDX 66 79 67 80 69 81 71 82 68 83 52 84 53 85 58 86 54 87 55 88
REMARK SMILES IDX 57 89 59 90 56 91
REMARK H PARENT 19 10 19 11 9 21 12 23 76 53 50 64
REMARK Flexibility Score: inf
ROOT
ATOM      1  C   UNL A   1      37.525  22.605  25.400  1.00  0.00     0.274 C 
ENDROOT
BRANCH   1   2
ATOM      2  O   UNL A   1      36.865  21.963  24.298  1.00  0.00    -0.458 OA
BRANCH   2   3
ATOM      3  C   UNL A   1      35.551  22.268  24.115  1.00  0.00     0.365 C 
ATOM      4  O   UNL A   1      35.152  23.311  23.603  1.00  0.00    -0.245 OA
BRANCH   3   5
ATOM      5  C   UNL A   1      34.601  21.122  24.514  1.00  0.00     0.295 C 
ATOM      6  C   UNL A   1      32.507  21.491  25.706  1.00  0.00     0.170 C 
ATOM      7  C   UNL A   1      33.693  21.410  26.662  1.00  0.00     0.289 C 
ATOM      8  C   UNL A   1      33.138  21.506  24.312  1.00  0.00     0.110 C 
ATOM      9  N   UNL A   1      34.739  20.701  25.930  1.00  0.00    -0.333 N 
ATOM     10  H   UNL A   1      34.609  19.693  26.014  1.00  0.00     0.347 HD
ATOM     11  H   UNL A   1      35.665  20.919  26.296  1.00  0.00     0.347 HD
BRANCH   6  12
ATOM     12  N   UNL A   1      31.689  22.649  25.974  1.00  0.00    -0.243 N 
ATOM     13  C   UNL A   1      30.684  24.553  25.820  1.00  0.00     0.102 A 
ATOM     14  C   UNL A   1      31.267  23.564  25.064  1.00  0.00     0.137 A 
ATOM     15  N   UNL A   1      30.699  24.174  27.135  1.00  0.00    -0.134 NA
ATOM     16  N   UNL A   1      31.323  23.000  27.217  1.00  0.00    -0.067 NA
BRANCH  13  17
ATOM     17  C   UNL A   1      30.135  25.808  25.274  1.00  0.00     0.178 C 
BRANCH  17  18
ATOM     18  N   UNL A   1      30.355  26.020  23.873  1.00  0.00    -0.332 N 
ATOM     19  N   UNL A   1      32.078  27.661  23.492  1.00  0.00    -0.308 N 
ATOM     20  C   UNL A   1      31.299  26.619  23.149  1.00  0.00     0.319 C 
ATOM     21  H   UNL A   1      32.740  27.860  22.791  1.00  0.00     0.171 HD
ATOM     22  O   UNL A   1      31.408  26.231  21.977  1.00  0.00    -0.248 OA
ATOM     23  H   UNL A   1      29.641  25.632  23.317  1.00  0.00     0.165 HD
BRANCH  19  24
ATOM     24  C   UNL A   1      32.204  28.544  24.582  1.00  0.00     0.047 A 
ATOM     25  C   UNL A   1      34.052  27.075  25.595  1.00  0.00     0.048 C 
ATOM     26  C   UNL A   1      33.213  28.329  25.553  1.00  0.00    -0.009 A 
ATOM     27  C   UNL A   1      33.394  29.304  26.563  1.00  0.00     0.046 A 
ATOM     28  Cl  UNL A   1      34.614  29.146  27.782  1.00  0.00    -0.084 Cl
ATOM     29  C   UNL A   1      32.580  30.433  26.634  1.00  0.00     0.021 A 
ATOM     30  C   UNL A   1      31.285  29.568  24.807  1.00  0.00     0.026 A 
ATOM     31  C   UNL A   1      31.496  30.546  25.778  1.00  0.00     0.004 A 
ENDBRANCH  19  24
ENDBRANCH  17  18
ENDBRANCH  13  17
ENDBRANCH   6  12
ENDBRANCH   3   5
ENDBRANCH   2   3
ENDBRANCH   1   2
BRANCH   1  32
ATOM     32  C   UNL A   1      38.730  21.785  25.846  1.00  0.00     0.275 C 
BRANCH  32  33
ATOM     33  O   UNL A   1      39.454  22.429  26.899  1.00  0.00    -0.458 OA
BRANCH  33  34
ATOM     34  C   UNL A   1      40.740  22.729  26.608  1.00  0.00     0.338 C 
ATOM     35  O   UNL A   1      41.617  21.966  26.247  1.00  0.00    -0.246 OA
BRANCH  34  36
ATOM     36  C   UNL A   1      41.010  24.128  26.952  1.00  0.00     0.060 A 
ATOM     37  C   UNL A   1      41.964  24.387  27.942  1.00  0.00     0.016 A 
ATOM     38  C   UNL A   1      40.167  25.135  26.463  1.00  0.00     0.016 A 
ATOM     39  C   UNL A   1      42.001  25.641  28.522  1.00  0.00     0.010 A 
ATOM     40  C   UNL A   1      40.201  26.382  27.046  1.00  0.00     0.010 A 
ATOM     41  C   UNL A   1      41.079  26.608  28.107  1.00  0.00    -0.014 A 
BRANCH  41  42
ATOM     42  C   UNL A   1      41.099  27.905  28.759  1.00  0.00     0.031 A 
ATOM     43  C   UNL A   1      42.222  28.785  28.358  1.00  0.00     0.074 A 
ATOM     44  C   UNL A   1      40.083  28.338  29.529  1.00  0.00     0.049 A 
ATOM     45  N   UNL A   1      43.116  29.335  29.112  1.00  0.00    -0.248 NA
ATOM     46  C   UNL A   1      42.418  29.018  26.918  1.00  0.00     0.031 C 
ATOM     47  C   UNL A   1      38.788  27.684  29.744  1.00  0.00     0.029 A 
ATOM     48  N   UNL A   1      39.954  29.521  30.194  1.00  0.00    -0.354 N 
ATOM     49  C   UNL A   1      43.879  30.133  28.265  1.00  0.00     0.074 A 
ATOM     50  C   UNL A   1      43.496  29.801  26.918  1.00  0.00     0.031 C 
ATOM     51  C   UNL A   1      37.937  28.566  30.312  1.00  0.00     0.029 A 
ATOM     52  C   UNL A   1      38.661  29.789  30.614  1.00  0.00     0.049 A 
ATOM     53  H   UNL A   1      40.710  30.128  30.359  1.00  0.00     0.167 HD
ATOM     54  C   UNL A   1      44.599  31.184  28.734  1.00  0.00     0.037 A 
ATOM     55  C   UNL A   1      38.200  30.954  31.124  1.00  0.00     0.037 A 
ATOM     56  C   UNL A   1      44.830  31.091  30.148  1.00  0.00     0.049 A 
ATOM     57  C   UNL A   1      39.360  31.730  31.618  1.00  0.00     0.074 A 
ATOM     58  C   UNL A   1      45.531  30.244  30.980  1.00  0.00     0.029 A 
ATOM     59  N   UNL A   1      43.987  31.817  30.948  1.00  0.00    -0.354 N 
ATOM     60  N   UNL A   1      40.083  31.392  32.648  1.00  0.00    -0.248 NA
ATOM     61  C   UNL A   1      39.943  32.755  30.761  1.00  0.00     0.031 C 
ATOM     62  C   UNL A   1      44.820  30.243  32.215  1.00  0.00     0.029 A 
ATOM     63  C   UNL A   1      43.724  31.097  32.085  1.00  0.00     0.049 A 
ATOM     64  H   UNL A   1      43.629  32.710  30.742  1.00  0.00     0.167 HD
ATOM     65  C   UNL A   1      41.359  31.833  32.341  1.00  0.00     0.074 A 
ATOM     66  C   UNL A   1      41.175  32.804  31.272  1.00  0.00     0.031 C 
ATOM     67  C   UNL A   1      42.456  31.148  32.777  1.00  0.00     0.037 A 
BRANCH  54  68
ATOM     68  C   UNL A   1      44.740  32.483  27.984  1.00  0.00     0.057 A 
ATOM     69  C   UNL A   1      45.936  32.772  27.309  1.00  0.00     0.134 A 
ATOM     70  C   UNL A   1      43.862  33.575  28.152  1.00  0.00     0.134 A 
ATOM     71  F   UNL A   1      46.868  31.824  27.128  1.00  0.00    -0.206 F 
ATOM     72  C   UNL A   1      46.251  34.063  26.866  1.00  0.00     0.040 A 
ATOM     73  C   UNL A   1      44.143  34.855  27.667  1.00  0.00     0.040 A 
ATOM     74  F   UNL A   1      42.740  33.484  28.878  1.00  0.00    -0.206 F 
ATOM     75  C   UNL A   1      45.354  35.109  27.045  1.00  0.00     0.006 A 
ENDBRANCH  54  68
BRANCH  55  76
ATOM     76  C   UNL A   1      36.845  31.532  31.020  1.00  0.00     0.057 A 
ATOM     77  C   UNL A   1      36.092  31.839  32.161  1.00  0.00     0.134 A 
ATOM     78  C   UNL A   1      36.356  32.033  29.800  1.00  0.00     0.134 A 
ATOM     79  F   UNL A   1      36.500  31.439  33.373  1.00  0.00    -0.206 F 
ATOM     80  C   UNL A   1      34.930  32.617  32.095  1.00  0.00     0.040 A 
ATOM     81  C   UNL A   1      35.192  32.802  29.720  1.00  0.00     0.040 A 
ATOM     82  F   UNL A   1      37.038  31.865  28.658  1.00  0.00    -0.206 F 
ATOM     83  C   UNL A   1      34.482  33.109  30.872  1.00  0.00     0.006 A 
ENDBRANCH  55  76
BRANCH  67  84
ATOM     84  C   UNL A   1      42.249  30.189  33.916  1.00  0.00     0.057 A 
ATOM     85  C   UNL A   1      41.903  28.840  33.754  1.00  0.00     0.134 A 
ATOM     86  C   UNL A   1      42.500  30.629  35.219  1.00  0.00     0.134 A 
ATOM     87  F   UNL A   1      41.738  28.307  32.538  1.00  0.00    -0.206 F 
ATOM     88  C   UNL A   1      41.756  27.983  34.848  1.00  0.00     0.040 A 
ATOM     89  C   UNL A   1      42.392  29.773  36.318  1.00  0.00     0.040 A 
ATOM     90  F   UNL A   1      42.891  31.893  35.445  1.00  0.00    -0.206 F 
ATOM     91  C   UNL A   1      42.004  28.448  36.136  1.00  0.00     0.006 A 
ENDBRANCH  67  84
ENDBRANCH  41  42
ENDBRANCH  34  36
ENDBRANCH  33  34
ENDBRANCH  32  33
ENDBRANCH   1  32
TORSDOF 15
ENDMDL
MODEL 3
REMARK VINA RESULT:     -12.0      3.804      8.805
REMARK SMILES Cc1c(Cl)cccc1NC(=O)NCc1cn([C@@H]2C[NH2+][C@H](C(=O)OCCOC(=O)c3ccc(-c4c5nc(c(-c6c(F)cccc6F)c6ccc([nH]6)c(-c6c(F)cccc6F)c6nc(c(-c7c(F)cccc7F)c7ccc4[nH]7)C=C6)C=C5)cc3)C2)nn1
REMARK SMILES IDX 24 1 23 2 21 3 22 4 20 5 17 6 18 7 83 8 19 9 16 12 14 13
REMARK SMILES IDX 15 14 85 15 84 16 13 17 12 18 9 19 10 20 11 22 8 24 1 25
REMARK SMILES IDX 2 26 3 27 4 28 5 29 7 30 6 31 25 32 26 33 27 34 28 35 29 36
REMARK SMILES IDX 30 37 82 38 31 39 81 40 32 41 33 42 34 43 75 44 35 45 80 46
REMARK SMILES IDX 74 47 76 48 36 49 79 50 73 51 72 52 37 54 63 55 46 56 62 57
REMARK SMILES IDX 47 58 50 59 61 60 77 61 48 62 49 63 60 65 78 66 51 67 38 68
REMARK SMILES IDX 39 69 44 70 40 71 41 72 43 73 45 74 42 75 64 76 65 77 70 78
REMARK SMILES IDX 66 79 67 80 69 81 71 82 68 83 52 84 53 85 58 86 54 87 55 88
REMARK SMILES IDX 57 89 59 90 56 91
REMARK H PARENT 19 10 19 11 9 21 12 23 76 53 50 64
REMARK Flexibility Score: inf
ROOT
ATOM      1  C   UNL A   1      44.689  19.198  24.978  1.00  0.00     0.274 C 
ENDROOT
BRANCH   1   2
ATOM      2  O   UNL A   1      43.492  19.986  25.075  1.00  0.00    -0.458 OA
BRANCH   2   3
ATOM      3  C   UNL A   1      42.504  19.496  25.873  1.00  0.00     0.365 C 
ATOM      4  O   UNL A   1      41.924  18.432  25.673  1.00  0.00    -0.245 OA
BRANCH   3   5
ATOM      5  C   UNL A   1      42.254  20.356  27.126  1.00  0.00     0.295 C 
ATOM      6  C   UNL A   1      40.474  22.017  27.259  1.00  0.00     0.170 C 
ATOM      7  C   UNL A   1      41.727  22.584  26.599  1.00  0.00     0.289 C 
ATOM      8  C   UNL A   1      40.762  20.521  27.408  1.00  0.00     0.110 C 
ATOM      9  N   UNL A   1      42.823  21.723  27.033  1.00  0.00    -0.333 N 
ATOM     10  H   UNL A   1      43.172  22.024  27.943  1.00  0.00     0.347 HD
ATOM     11  H   UNL A   1      43.606  21.758  26.381  1.00  0.00     0.347 HD
BRANCH   6  12
ATOM     12  N   UNL A   1      39.293  22.294  26.479  1.00  0.00    -0.243 N 
ATOM     13  C   UNL A   1      37.407  23.085  25.789  1.00  0.00     0.102 A 
ATOM     14  C   UNL A   1      38.463  23.359  26.625  1.00  0.00     0.137 A 
ATOM     15  N   UNL A   1      37.663  21.921  25.115  1.00  0.00    -0.134 NA
ATOM     16  N   UNL A   1      38.828  21.443  25.550  1.00  0.00    -0.067 NA
BRANCH  13  17
ATOM     17  C   UNL A   1      36.204  23.929  25.658  1.00  0.00     0.178 C 
BRANCH  17  18
ATOM     18  N   UNL A   1      35.025  23.425  26.298  1.00  0.00    -0.332 N 
ATOM     19  N   UNL A   1      33.082  24.726  25.711  1.00  0.00    -0.308 N 
ATOM     20  C   UNL A   1      33.715  23.621  26.148  1.00  0.00     0.319 C 
ATOM     21  H   UNL A   1      32.112  24.576  25.633  1.00  0.00     0.171 HD
ATOM     22  O   UNL A   1      32.982  22.707  26.550  1.00  0.00    -0.248 OA
ATOM     23  H   UNL A   1      35.230  22.784  27.017  1.00  0.00     0.165 HD
BRANCH  19  24
ATOM     24  C   UNL A   1      33.431  26.038  25.336  1.00  0.00     0.047 A 
ATOM     25  C   UNL A   1      33.638  25.311  22.881  1.00  0.00     0.048 C 
ATOM     26  C   UNL A   1      33.608  26.359  23.968  1.00  0.00    -0.009 A 
ATOM     27  C   UNL A   1      33.831  27.711  23.616  1.00  0.00     0.046 A 
ATOM     28  Cl  UNL A   1      34.038  28.210  21.971  1.00  0.00    -0.084 Cl
ATOM     29  C   UNL A   1      33.916  28.707  24.588  1.00  0.00     0.021 A 
ATOM     30  C   UNL A   1      33.727  27.018  26.282  1.00  0.00     0.026 A 
ATOM     31  C   UNL A   1      33.904  28.355  25.927  1.00  0.00     0.004 A 
ENDBRANCH  19  24
ENDBRANCH  17  18
ENDBRANCH  13  17
ENDBRANCH   6  12
ENDBRANCH   3   5
ENDBRANCH   2   3
ENDBRANCH   1   2
BRANCH   1  32
ATOM     32  C   UNL A   1      45.862  20.068  24.545  1.00  0.00     0.275 C 
BRANCH  32  33
ATOM     33  O   UNL A   1      46.084  21.154  25.451  1.00  0.00    -0.458 OA
BRANCH  33  34
ATOM     34  C   UNL A   1      46.147  22.375  24.874  1.00  0.00     0.338 C 
ATOM     35  O   UNL A   1      46.817  22.710  23.915  1.00  0.00    -0.246 OA
BRANCH  34  36
ATOM     36  C   UNL A   1      45.396  23.341  25.682  1.00  0.00     0.060 A 
ATOM     37  C   UNL A   1      44.550  24.235  25.016  1.00  0.00     0.016 A 
ATOM     38  C   UNL A   1      45.706  23.496  27.039  1.00  0.00     0.016 A 
ATOM     39  C   UNL A   1      44.098  25.353  25.690  1.00  0.00     0.010 A 
ATOM     40  C   UNL A   1      45.260  24.615  27.707  1.00  0.00     0.010 A 
ATOM     41  C   UNL A   1      44.506  25.561  27.012  1.00  0.00    -0.014 A 
BRANCH  41  42
ATOM     42  C   UNL A   1      44.061  26.765  27.690  1.00  0.00     0.031 A 
ATOM     43  C   UNL A   1      44.954  27.937  27.527  1.00  0.00     0.074 A 
ATOM     44  C   UNL A   1      42.850  26.857  28.272  1.00  0.00     0.049 A 
ATOM     45  N   UNL A   1      45.523  28.643  28.446  1.00  0.00    -0.248 NA
ATOM     46  C   UNL A   1      45.321  28.320  26.153  1.00  0.00     0.031 C 
ATOM     47  C   UNL A   1      41.765  25.872  28.229  1.00  0.00     0.029 A 
ATOM     48  N   UNL A   1      42.294  27.911  28.933  1.00  0.00    -0.354 N 
ATOM     49  C   UNL A   1      46.173  29.674  27.774  1.00  0.00     0.074 A 
ATOM     50  C   UNL A   1      46.129  29.356  26.372  1.00  0.00     0.031 C 
ATOM     51  C   UNL A   1      40.622  26.454  28.653  1.00  0.00     0.029 A 
ATOM     52  C   UNL A   1      40.925  27.798  29.115  1.00  0.00     0.049 A 
ATOM     53  H   UNL A   1      42.817  28.682  29.251  1.00  0.00     0.167 HD
ATOM     54  C   UNL A   1      46.489  30.840  28.396  1.00  0.00     0.037 A 
ATOM     55  C   UNL A   1      40.085  28.759  29.563  1.00  0.00     0.037 A 
ATOM     56  C   UNL A   1      46.494  30.705  29.826  1.00  0.00     0.049 A 
ATOM     57  C   UNL A   1      40.889  29.774  30.282  1.00  0.00     0.074 A 
ATOM     58  C   UNL A   1      47.247  30.012  30.749  1.00  0.00     0.029 A 
ATOM     59  N   UNL A   1      45.362  31.122  30.476  1.00  0.00    -0.354 N 
ATOM     60  N   UNL A   1      41.491  29.561  31.418  1.00  0.00    -0.248 NA
ATOM     61  C   UNL A   1      41.308  30.976  29.574  1.00  0.00     0.031 C 
ATOM     62  C   UNL A   1      46.364  29.731  31.832  1.00  0.00     0.029 A 
ATOM     63  C   UNL A   1      45.116  30.275  31.526  1.00  0.00     0.049 A 
ATOM     64  H   UNL A   1      44.816  31.903  30.231  1.00  0.00     0.167 HD
ATOM     65  C   UNL A   1      42.632  30.343  31.362  1.00  0.00     0.074 A 
ATOM     66  C   UNL A   1      42.375  31.309  30.304  1.00  0.00     0.031 C 
ATOM     67  C   UNL A   1      43.783  29.939  31.974  1.00  0.00     0.037 A 
BRANCH  54  68
ATOM     68  C   UNL A   1      46.397  32.183  27.720  1.00  0.00     0.057 A 
ATOM     69  C   UNL A   1      45.166  32.624  27.212  1.00  0.00     0.134 A 
ATOM     70  C   UNL A   1      47.525  32.915  27.291  1.00  0.00     0.134 A 
ATOM     71  F   UNL A   1      44.028  31.981  27.513  1.00  0.00    -0.206 F 
ATOM     72  C   UNL A   1      45.068  33.694  26.312  1.00  0.00     0.040 A 
ATOM     73  C   UNL A   1      47.434  34.016  26.436  1.00  0.00     0.040 A 
ATOM     74  F   UNL A   1      48.776  32.542  27.594  1.00  0.00    -0.206 F 
ATOM     75  C   UNL A   1      46.204  34.392  25.921  1.00  0.00     0.006 A 
ENDBRANCH  54  68
BRANCH  55  76
ATOM     76  C   UNL A   1      38.662  28.967  29.227  1.00  0.00     0.057 A 
ATOM     77  C   UNL A   1      37.672  28.985  30.218  1.00  0.00     0.134 A 
ATOM     78  C   UNL A   1      38.269  29.406  27.950  1.00  0.00     0.134 A 
ATOM     79  F   UNL A   1      37.962  28.622  31.475  1.00  0.00    -0.206 F 
ATOM     80  C   UNL A   1      36.372  29.434  29.960  1.00  0.00     0.040 A 
ATOM     81  C   UNL A   1      36.972  29.846  27.676  1.00  0.00     0.040 A 
ATOM     82  F   UNL A   1      39.155  29.504  26.948  1.00  0.00    -0.206 F 
ATOM     83  C   UNL A   1      36.020  29.875  28.687  1.00  0.00     0.006 A 
ENDBRANCH  55  76
BRANCH  67  84
ATOM     84  C   UNL A   1      43.655  28.877  33.030  1.00  0.00     0.057 A 
ATOM     85  C   UNL A   1      43.330  29.136  34.369  1.00  0.00     0.134 A 
ATOM     86  C   UNL A   1      43.777  27.536  32.653  1.00  0.00     0.134 A 
ATOM     87  F   UNL A   1      43.099  30.383  34.798  1.00  0.00    -0.206 F 
ATOM     88  C   UNL A   1      43.191  28.106  35.304  1.00  0.00     0.040 A 
ATOM     89  C   UNL A   1      43.604  26.496  33.570  1.00  0.00     0.040 A 
ATOM     90  F   UNL A   1      44.030  27.211  31.376  1.00  0.00    -0.206 F 
ATOM     91  C   UNL A   1      43.325  26.780  34.904  1.00  0.00     0.006 A 
ENDBRANCH  67  84
ENDBRANCH  41  42
ENDBRANCH  34  36
ENDBRANCH  33  34
ENDBRANCH  32  33
ENDBRANCH   1  32
TORSDOF 15
ENDMDL
