MODEL 1
REMARK VINA RESULT:     -10.9      0.000      0.000
REMARK SMILES COc1cccc([C@@H]2[NH2+][C@@](CCSC)(C(=O)OCCOC(=O)c3ccc(-c4c5nc(c(-c6c(F)cccc6F)c6ccc([nH]6)c(-c6c(F)cccc6F)c6nc(c(-c7c(F)cccc7F)c7ccc4[nH]7)C=C6)C=C5)cc3)[C@@H]3C(=O)N(C(C)C)C(=O)[C@@H]32)c1O
REMARK SMILES IDX 18 1 17 2 15 3 16 4 10 5 8 6 9 7 86 8 77 11 84 12 78 13
REMARK SMILES IDX 80 14 85 15 79 16 7 17 3 18 4 19 87 20 5 21 6 22 2 23 1 24
REMARK SMILES IDX 88 25 11 27 12 28 13 29 14 30 81 31 82 32 83 33 19 34 20 35
REMARK SMILES IDX 21 36 22 37 23 38 24 39 76 40 25 41 75 42 26 43 27 44 28 45
REMARK SMILES IDX 69 46 29 47 74 48 68 49 70 50 30 51 73 52 67 53 66 54 31 56
REMARK SMILES IDX 57 57 40 58 56 59 41 60 44 61 55 62 71 63 42 64 43 65 54 67
REMARK SMILES IDX 72 68 45 69 32 70 33 71 38 72 34 73 35 74 37 75 39 76 36 77
REMARK SMILES IDX 58 78 59 79 64 80 60 81 61 82 63 83 65 84 62 85 46 86 47 87
REMARK SMILES IDX 52 88 48 89 49 90 51 91 53 92 50 93
REMARK H PARENT 9 9 9 10 88 26 70 55 44 66
REMARK Flexibility Score: inf
ROOT
ATOM      1  C   UNL A   1      37.158  21.326  24.143  1.00  0.00     0.274 C 
ENDROOT
BRANCH   1   2
ATOM      2  O   UNL A   1      36.365  22.447  24.599  1.00  0.00    -0.457 OA
BRANCH   2   3
ATOM      3  C   UNL A   1      35.468  22.907  23.693  1.00  0.00     0.369 C 
ATOM      4  O   UNL A   1      35.771  23.243  22.550  1.00  0.00    -0.245 OA
BRANCH   3   5
ATOM      5  C   UNL A   1      33.999  23.012  24.219  1.00  0.00     0.208 C 
ATOM      6  C   UNL A   1      33.980  25.382  24.064  1.00  0.00     0.232 C 
ATOM      7  N   UNL A   1      33.383  24.167  23.462  1.00  0.00    -0.324 N 
ATOM      8  C   UNL A   1      33.961  25.082  25.561  1.00  0.00     0.161 C 
ATOM      9  H   UNL A   1      33.612  24.108  22.470  1.00  0.00     0.347 HD
ATOM     10  H   UNL A   1      32.364  24.168  23.527  1.00  0.00     0.347 HD
ATOM     11  C   UNL A   1      33.885  23.542  25.659  1.00  0.00     0.171 C 
ATOM     12  C   UNL A   1      32.709  25.564  26.241  1.00  0.00     0.240 C 
ATOM     13  C   UNL A   1      32.516  23.324  26.264  1.00  0.00     0.240 C 
ATOM     14  N   UNL A   1      31.864  24.509  26.402  1.00  0.00    -0.279 N 
ATOM     15  O   UNL A   1      32.513  26.715  26.602  1.00  0.00    -0.274 OA
ATOM     16  O   UNL A   1      32.072  22.241  26.609  1.00  0.00    -0.274 OA
BRANCH   6  17
ATOM     17  C   UNL A   1      33.360  26.655  23.555  1.00  0.00     0.056 A 
ATOM     18  C   UNL A   1      31.471  27.833  22.560  1.00  0.00     0.161 A 
ATOM     19  C   UNL A   1      32.177  29.029  22.576  1.00  0.00     0.050 A 
ATOM     20  C   UNL A   1      32.075  26.649  22.998  1.00  0.00     0.166 A 
ATOM     21  C   UNL A   1      33.469  29.053  23.101  1.00  0.00     0.005 A 
ATOM     22  C   UNL A   1      34.043  27.883  23.607  1.00  0.00     0.014 A 
BRANCH  18  23
ATOM     23  O   UNL A   1      30.199  27.821  22.051  1.00  0.00    -0.493 OA
ATOM     24  C   UNL A   1      29.256  28.331  23.001  1.00  0.00     0.278 C 
ENDBRANCH  18  23
BRANCH  20  25
ATOM     25  O   UNL A   1      31.402  25.462  22.866  1.00  0.00    -0.504 OA
ATOM     26  H   UNL A   1      31.607  24.742  23.429  1.00  0.00     0.293 HD
ENDBRANCH  20  25
ENDBRANCH   6  17
BRANCH   5  27
ATOM     27  C   UNL A   1      33.181  21.754  23.838  1.00  0.00     0.093 C 
BRANCH  27  28
ATOM     28  C   UNL A   1      33.588  20.365  24.354  1.00  0.00     0.076 C 
BRANCH  28  29
ATOM     29  S   UNL A   1      32.590  18.915  23.912  1.00  0.00    -0.165 SA
ATOM     30  C   UNL A   1      32.732  17.925  25.413  1.00  0.00     0.085 C 
ENDBRANCH  28  29
ENDBRANCH  27  28
ENDBRANCH   5  27
BRANCH  14  31
ATOM     31  C   UNL A   1      30.457  24.637  26.780  1.00  0.00     0.087 C 
ATOM     32  C   UNL A   1      29.723  25.551  25.792  1.00  0.00     0.031 C 
ATOM     33  C   UNL A   1      29.747  23.290  26.899  1.00  0.00     0.031 C 
ENDBRANCH  14  31
ENDBRANCH   3   5
ENDBRANCH   2   3
ENDBRANCH   1   2
BRANCH   1  34
ATOM     34  C   UNL A   1      37.770  20.538  25.304  1.00  0.00     0.275 C 
BRANCH  34  35
ATOM     35  O   UNL A   1      38.918  21.230  25.824  1.00  0.00    -0.458 OA
BRANCH  35  36
ATOM     36  C   UNL A   1      40.048  20.502  25.956  1.00  0.00     0.338 C 
ATOM     37  O   UNL A   1      40.177  19.306  25.735  1.00  0.00    -0.246 OA
BRANCH  36  38
ATOM     38  C   UNL A   1      41.171  21.366  26.386  1.00  0.00     0.060 A 
ATOM     39  C   UNL A   1      40.976  22.715  26.691  1.00  0.00     0.016 A 
ATOM     40  C   UNL A   1      42.458  20.833  26.424  1.00  0.00     0.016 A 
ATOM     41  C   UNL A   1      42.052  23.539  27.007  1.00  0.00     0.010 A 
ATOM     42  C   UNL A   1      43.527  21.634  26.837  1.00  0.00     0.010 A 
ATOM     43  C   UNL A   1      43.330  22.990  27.144  1.00  0.00    -0.014 A 
BRANCH  43  44
ATOM     44  C   UNL A   1      44.441  23.793  27.708  1.00  0.00     0.031 A 
ATOM     45  C   UNL A   1      44.560  24.004  29.187  1.00  0.00     0.074 A 
ATOM     46  C   UNL A   1      45.301  24.397  26.864  1.00  0.00     0.049 A 
ATOM     47  N   UNL A   1      45.292  24.870  29.839  1.00  0.00    -0.248 NA
ATOM     48  C   UNL A   1      43.742  23.134  30.045  1.00  0.00     0.031 C 
ATOM     49  C   UNL A   1      45.312  24.240  25.407  1.00  0.00     0.029 A 
ATOM     50  N   UNL A   1      46.318  25.286  27.106  1.00  0.00    -0.354 N 
ATOM     51  C   UNL A   1      44.996  24.679  31.182  1.00  0.00     0.074 A 
ATOM     52  C   UNL A   1      44.019  23.611  31.251  1.00  0.00     0.031 C 
ATOM     53  C   UNL A   1      46.283  25.002  24.886  1.00  0.00     0.029 A 
ATOM     54  C   UNL A   1      46.902  25.769  25.959  1.00  0.00     0.049 A 
ATOM     55  H   UNL A   1      46.600  25.552  28.010  1.00  0.00     0.167 HD
ATOM     56  C   UNL A   1      45.493  25.344  32.251  1.00  0.00     0.037 A 
ATOM     57  C   UNL A   1      47.787  26.764  25.778  1.00  0.00     0.037 A 
ATOM     58  C   UNL A   1      46.480  26.391  32.165  1.00  0.00     0.049 A 
ATOM     59  C   UNL A   1      48.265  27.536  26.971  1.00  0.00     0.074 A 
ATOM     60  C   UNL A   1      47.069  27.109  33.191  1.00  0.00     0.029 A 
ATOM     61  N   UNL A   1      47.022  26.868  30.981  1.00  0.00    -0.354 N 
ATOM     62  N   UNL A   1      47.957  27.373  28.234  1.00  0.00    -0.248 NA
ATOM     63  C   UNL A   1      49.193  28.643  26.712  1.00  0.00     0.031 C 
ATOM     64  C   UNL A   1      47.938  28.048  32.624  1.00  0.00     0.029 A 
ATOM     65  C   UNL A   1      47.920  27.888  31.248  1.00  0.00     0.049 A 
ATOM     66  H   UNL A   1      46.801  26.531  30.082  1.00  0.00     0.167 HD
ATOM     67  C   UNL A   1      48.654  28.353  28.923  1.00  0.00     0.074 A 
ATOM     68  C   UNL A   1      49.417  29.094  27.938  1.00  0.00     0.031 C 
ATOM     69  C   UNL A   1      48.659  28.619  30.252  1.00  0.00     0.037 A 
BRANCH  56  70
ATOM     70  C   UNL A   1      44.956  24.987  33.605  1.00  0.00     0.057 A 
ATOM     71  C   UNL A   1      45.575  24.035  34.423  1.00  0.00     0.134 A 
ATOM     72  C   UNL A   1      43.826  25.641  34.114  1.00  0.00     0.134 A 
ATOM     73  F   UNL A   1      46.653  23.365  33.990  1.00  0.00    -0.206 F 
ATOM     74  C   UNL A   1      45.083  23.736  35.696  1.00  0.00     0.040 A 
ATOM     75  C   UNL A   1      43.336  25.366  35.392  1.00  0.00     0.040 A 
ATOM     76  F   UNL A   1      43.187  26.566  33.382  1.00  0.00    -0.206 F 
ATOM     77  C   UNL A   1      43.964  24.408  36.185  1.00  0.00     0.006 A 
ENDBRANCH  56  70
BRANCH  57  78
ATOM     78  C   UNL A   1      48.223  27.118  24.406  1.00  0.00     0.057 A 
ATOM     79  C   UNL A   1      49.474  26.724  23.923  1.00  0.00     0.134 A 
ATOM     80  C   UNL A   1      47.385  27.827  23.534  1.00  0.00     0.134 A 
ATOM     81  F   UNL A   1      50.327  26.061  24.718  1.00  0.00    -0.206 F 
ATOM     82  C   UNL A   1      49.880  27.022  22.622  1.00  0.00     0.040 A 
ATOM     83  C   UNL A   1      47.767  28.109  22.223  1.00  0.00     0.040 A 
ATOM     84  F   UNL A   1      46.170  28.225  23.937  1.00  0.00    -0.206 F 
ATOM     85  C   UNL A   1      49.020  27.709  21.764  1.00  0.00     0.006 A 
ENDBRANCH  57  78
BRANCH  69  86
ATOM     86  C   UNL A   1      49.527  29.751  30.707  1.00  0.00     0.057 A 
ATOM     87  C   UNL A   1      50.871  29.555  31.043  1.00  0.00     0.134 A 
ATOM     88  C   UNL A   1      49.016  31.051  30.795  1.00  0.00     0.134 A 
ATOM     89  F   UNL A   1      51.411  28.328  30.997  1.00  0.00    -0.206 F 
ATOM     90  C   UNL A   1      51.676  30.612  31.469  1.00  0.00     0.040 A 
ATOM     91  C   UNL A   1      49.816  32.120  31.198  1.00  0.00     0.040 A 
ATOM     92  F   UNL A   1      47.736  31.304  30.484  1.00  0.00    -0.206 F 
ATOM     93  C   UNL A   1      51.149  31.900  31.541  1.00  0.00     0.006 A 
ENDBRANCH  69  86
ENDBRANCH  43  44
ENDBRANCH  36  38
ENDBRANCH  35  36
ENDBRANCH  34  35
ENDBRANCH   1  34
TORSDOF 18
ENDMDL
MODEL 2
REMARK VINA RESULT:     -10.8      8.261     14.816
REMARK SMILES COc1cccc([C@@H]2[NH2+][C@@](CCSC)(C(=O)OCCOC(=O)c3ccc(-c4c5nc(c(-c6c(F)cccc6F)c6ccc([nH]6)c(-c6c(F)cccc6F)c6nc(c(-c7c(F)cccc7F)c7ccc4[nH]7)C=C6)C=C5)cc3)[C@@H]3C(=O)N(C(C)C)C(=O)[C@@H]32)c1O
REMARK SMILES IDX 18 1 17 2 15 3 16 4 10 5 8 6 9 7 86 8 77 11 84 12 78 13
REMARK SMILES IDX 80 14 85 15 79 16 7 17 3 18 4 19 87 20 5 21 6 22 2 23 1 24
REMARK SMILES IDX 88 25 11 27 12 28 13 29 14 30 81 31 82 32 83 33 19 34 20 35
REMARK SMILES IDX 21 36 22 37 23 38 24 39 76 40 25 41 75 42 26 43 27 44 28 45
REMARK SMILES IDX 69 46 29 47 74 48 68 49 70 50 30 51 73 52 67 53 66 54 31 56
REMARK SMILES IDX 57 57 40 58 56 59 41 60 44 61 55 62 71 63 42 64 43 65 54 67
REMARK SMILES IDX 72 68 45 69 32 70 33 71 38 72 34 73 35 74 37 75 39 76 36 77
REMARK SMILES IDX 58 78 59 79 64 80 60 81 61 82 63 83 65 84 62 85 46 86 47 87
REMARK SMILES IDX 52 88 48 89 49 90 51 91 53 92 50 93
REMARK H PARENT 9 9 9 10 88 26 70 55 44 66
REMARK Flexibility Score: inf
ROOT
ATOM      1  C   UNL A   1      45.247  22.939  39.982  1.00  0.00     0.274 C 
ENDROOT
BRANCH   1   2
ATOM      2  O   UNL A   1      46.564  22.352  40.104  1.00  0.00    -0.457 OA
BRANCH   2   3
ATOM      3  C   UNL A   1      46.772  21.272  39.314  1.00  0.00     0.369 C 
ATOM      4  O   UNL A   1      46.202  20.194  39.475  1.00  0.00    -0.245 OA
BRANCH   3   5
ATOM      5  C   UNL A   1      47.831  21.481  38.181  1.00  0.00     0.208 C 
ATOM      6  C   UNL A   1      46.171  21.872  36.529  1.00  0.00     0.232 C 
ATOM      7  N   UNL A   1      47.252  22.550  37.282  1.00  0.00    -0.324 N 
ATOM      8  C   UNL A   1      46.786  20.522  36.163  1.00  0.00     0.161 C 
ATOM      9  H   UNL A   1      46.875  23.319  37.836  1.00  0.00     0.347 HD
ATOM     10  H   UNL A   1      47.956  22.952  36.663  1.00  0.00     0.347 HD
ATOM     11  C   UNL A   1      47.923  20.311  37.186  1.00  0.00     0.171 C 
ATOM     12  C   UNL A   1      47.479  20.535  34.828  1.00  0.00     0.240 C 
ATOM     13  C   UNL A   1      49.158  20.372  36.315  1.00  0.00     0.240 C 
ATOM     14  N   UNL A   1      48.819  20.666  35.031  1.00  0.00    -0.279 N 
ATOM     15  O   UNL A   1      46.914  20.424  33.750  1.00  0.00    -0.274 OA
ATOM     16  O   UNL A   1      50.295  20.156  36.702  1.00  0.00    -0.274 OA
BRANCH   6  17
ATOM     17  C   UNL A   1      45.578  22.734  35.447  1.00  0.00     0.056 A 
ATOM     18  C   UNL A   1      45.815  24.518  33.802  1.00  0.00     0.161 A 
ATOM     19  C   UNL A   1      44.485  24.380  33.425  1.00  0.00     0.050 A 
ATOM     20  C   UNL A   1      46.341  23.737  34.837  1.00  0.00     0.166 A 
ATOM     21  C   UNL A   1      43.699  23.406  34.038  1.00  0.00     0.005 A 
ATOM     22  C   UNL A   1      44.248  22.576  35.021  1.00  0.00     0.014 A 
BRANCH  18  23
ATOM     23  O   UNL A   1      46.583  25.471  33.186  1.00  0.00    -0.493 OA
ATOM     24  C   UNL A   1      46.096  25.759  31.870  1.00  0.00     0.278 C 
ENDBRANCH  18  23
BRANCH  20  25
ATOM     25  O   UNL A   1      47.621  23.970  35.270  1.00  0.00    -0.504 OA
ATOM     26  H   UNL A   1      48.324  24.007  34.653  1.00  0.00     0.293 HD
ENDBRANCH  20  25
ENDBRANCH   6  17
BRANCH   5  27
ATOM     27  C   UNL A   1      49.149  22.059  38.753  1.00  0.00     0.093 C 
BRANCH  27  28
ATOM     28  C   UNL A   1      49.685  23.416  38.273  1.00  0.00     0.076 C 
BRANCH  28  29
ATOM     29  S   UNL A   1      51.377  23.915  38.701  1.00  0.00    -0.165 SA
ATOM     30  C   UNL A   1      52.268  23.443  37.206  1.00  0.00     0.085 C 
ENDBRANCH  28  29
ENDBRANCH  27  28
ENDBRANCH   5  27
BRANCH  14  31
ATOM     31  C   UNL A   1      49.780  20.981  33.975  1.00  0.00     0.087 C 
ATOM     32  C   UNL A   1      50.360  22.384  34.186  1.00  0.00     0.031 C 
ATOM     33  C   UNL A   1      50.898  19.946  33.860  1.00  0.00     0.031 C 
ENDBRANCH  14  31
ENDBRANCH   3   5
ENDBRANCH   2   3
ENDBRANCH   1   2
BRANCH   1  34
ATOM     34  C   UNL A   1      45.303  24.457  39.795  1.00  0.00     0.275 C 
BRANCH  34  35
ATOM     35  O   UNL A   1      44.819  24.817  38.490  1.00  0.00    -0.458 OA
BRANCH  35  36
ATOM     36  C   UNL A   1      45.626  25.605  37.747  1.00  0.00     0.338 C 
ATOM     37  O   UNL A   1      46.847  25.550  37.685  1.00  0.00    -0.246 OA
BRANCH  36  38
ATOM     38  C   UNL A   1      44.824  26.565  36.956  1.00  0.00     0.060 A 
ATOM     39  C   UNL A   1      45.432  27.559  36.184  1.00  0.00     0.016 A 
ATOM     40  C   UNL A   1      43.434  26.514  37.037  1.00  0.00     0.016 A 
ATOM     41  C   UNL A   1      44.669  28.512  35.517  1.00  0.00     0.010 A 
ATOM     42  C   UNL A   1      42.663  27.409  36.290  1.00  0.00     0.010 A 
ATOM     43  C   UNL A   1      43.275  28.407  35.513  1.00  0.00    -0.014 A 
BRANCH  43  44
ATOM     44  C   UNL A   1      42.455  29.261  34.621  1.00  0.00     0.031 A 
ATOM     45  C   UNL A   1      41.827  30.522  35.131  1.00  0.00     0.074 A 
ATOM     46  C   UNL A   1      42.218  28.846  33.360  1.00  0.00     0.049 A 
ATOM     47  N   UNL A   1      40.885  31.250  34.591  1.00  0.00    -0.248 NA
ATOM     48  C   UNL A   1      42.317  31.027  36.423  1.00  0.00     0.031 C 
ATOM     49  C   UNL A   1      42.801  27.655  32.735  1.00  0.00     0.029 A 
ATOM     50  N   UNL A   1      41.404  29.363  32.385  1.00  0.00    -0.354 N 
ATOM     51  C   UNL A   1      40.638  32.277  35.492  1.00  0.00     0.074 A 
ATOM     52  C   UNL A   1      41.533  32.079  36.614  1.00  0.00     0.031 C 
ATOM     53  C   UNL A   1      42.329  27.533  31.487  1.00  0.00     0.029 A 
ATOM     54  C   UNL A   1      41.344  28.582  31.256  1.00  0.00     0.049 A 
ATOM     55  H   UNL A   1      40.911  30.209  32.485  1.00  0.00     0.167 HD
ATOM     56  C   UNL A   1      39.738  33.284  35.387  1.00  0.00     0.037 A 
ATOM     57  C   UNL A   1      40.541  28.656  30.180  1.00  0.00     0.037 A 
ATOM     58  C   UNL A   1      38.869  33.477  34.255  1.00  0.00     0.049 A 
ATOM     59  C   UNL A   1      39.502  29.734  30.123  1.00  0.00     0.074 A 
ATOM     60  C   UNL A   1      37.941  34.480  34.040  1.00  0.00     0.029 A 
ATOM     61  N   UNL A   1      38.821  32.644  33.146  1.00  0.00    -0.354 N 
ATOM     62  N   UNL A   1      39.250  30.681  30.993  1.00  0.00    -0.248 NA
ATOM     63  C   UNL A   1      38.619  29.738  28.950  1.00  0.00     0.031 C 
ATOM     64  C   UNL A   1      37.304  34.232  32.818  1.00  0.00     0.029 A 
ATOM     65  C   UNL A   1      37.862  33.097  32.255  1.00  0.00     0.049 A 
ATOM     66  H   UNL A   1      39.386  31.849  33.012  1.00  0.00     0.167 HD
ATOM     67  C   UNL A   1      38.185  31.399  30.473  1.00  0.00     0.074 A 
ATOM     68  C   UNL A   1      37.850  30.788  29.201  1.00  0.00     0.031 C 
ATOM     69  C   UNL A   1      37.538  32.466  31.002  1.00  0.00     0.037 A 
BRANCH  56  70
ATOM     70  C   UNL A   1      39.622  34.236  36.540  1.00  0.00     0.057 A 
ATOM     71  C   UNL A   1      38.870  33.933  37.681  1.00  0.00     0.134 A 
ATOM     72  C   UNL A   1      40.313  35.455  36.525  1.00  0.00     0.134 A 
ATOM     73  F   UNL A   1      38.175  32.788  37.753  1.00  0.00    -0.206 F 
ATOM     74  C   UNL A   1      38.798  34.815  38.762  1.00  0.00     0.040 A 
ATOM     75  C   UNL A   1      40.265  36.335  37.607  1.00  0.00     0.040 A 
ATOM     76  F   UNL A   1      41.054  35.804  35.463  1.00  0.00    -0.206 F 
ATOM     77  C   UNL A   1      39.503  36.017  38.729  1.00  0.00     0.006 A 
ENDBRANCH  56  70
BRANCH  57  78
ATOM     78  C   UNL A   1      40.656  27.638  29.108  1.00  0.00     0.057 A 
ATOM     79  C   UNL A   1      39.783  26.548  29.053  1.00  0.00     0.134 A 
ATOM     80  C   UNL A   1      41.616  27.752  28.093  1.00  0.00     0.134 A 
ATOM     81  F   UNL A   1      38.857  26.376  30.007  1.00  0.00    -0.206 F 
ATOM     82  C   UNL A   1      39.860  25.604  28.029  1.00  0.00     0.040 A 
ATOM     83  C   UNL A   1      41.687  26.830  27.049  1.00  0.00     0.040 A 
ATOM     84  F   UNL A   1      42.477  28.780  28.087  1.00  0.00    -0.206 F 
ATOM     85  C   UNL A   1      40.809  25.749  27.017  1.00  0.00     0.006 A 
ENDBRANCH  57  78
BRANCH  69  86
ATOM     86  C   UNL A   1      36.415  33.039  30.194  1.00  0.00     0.057 A 
ATOM     87  C   UNL A   1      35.078  32.739  30.482  1.00  0.00     0.134 A 
ATOM     88  C   UNL A   1      36.672  33.912  29.131  1.00  0.00     0.134 A 
ATOM     89  F   UNL A   1      34.771  31.893  31.477  1.00  0.00    -0.206 F 
ATOM     90  C   UNL A   1      34.034  33.274  29.727  1.00  0.00     0.040 A 
ATOM     91  C   UNL A   1      35.637  34.470  28.382  1.00  0.00     0.040 A 
ATOM     92  F   UNL A   1      37.932  34.240  28.808  1.00  0.00    -0.206 F 
ATOM     93  C   UNL A   1      34.313  34.147  28.677  1.00  0.00     0.006 A 
ENDBRANCH  69  86
ENDBRANCH  43  44
ENDBRANCH  36  38
ENDBRANCH  35  36
ENDBRANCH  34  35
ENDBRANCH   1  34
TORSDOF 18
ENDMDL
MODEL 3
REMARK VINA RESULT:     -10.6      6.666     11.701
REMARK SMILES COc1cccc([C@@H]2[NH2+][C@@](CCSC)(C(=O)OCCOC(=O)c3ccc(-c4c5nc(c(-c6c(F)cccc6F)c6ccc([nH]6)c(-c6c(F)cccc6F)c6nc(c(-c7c(F)cccc7F)c7ccc4[nH]7)C=C6)C=C5)cc3)[C@@H]3C(=O)N(C(C)C)C(=O)[C@@H]32)c1O
REMARK SMILES IDX 18 1 17 2 15 3 16 4 10 5 8 6 9 7 86 8 77 11 84 12 78 13
REMARK SMILES IDX 80 14 85 15 79 16 7 17 3 18 4 19 87 20 5 21 6 22 2 23 1 24
REMARK SMILES IDX 88 25 11 27 12 28 13 29 14 30 81 31 82 32 83 33 19 34 20 35
REMARK SMILES IDX 21 36 22 37 23 38 24 39 76 40 25 41 75 42 26 43 27 44 28 45
REMARK SMILES IDX 69 46 29 47 74 48 68 49 70 50 30 51 73 52 67 53 66 54 31 56
REMARK SMILES IDX 57 57 40 58 56 59 41 60 44 61 55 62 71 63 42 64 43 65 54 67
REMARK SMILES IDX 72 68 45 69 32 70 33 71 38 72 34 73 35 74 37 75 39 76 36 77
REMARK SMILES IDX 58 78 59 79 64 80 60 81 61 82 63 83 65 84 62 85 46 86 47 87
REMARK SMILES IDX 52 88 48 89 49 90 51 91 53 92 50 93
REMARK H PARENT 9 9 9 10 88 26 70 55 44 66
REMARK Flexibility Score: inf
ROOT
ATOM      1  C   UNL A   1      44.706  23.817  24.923  1.00  0.00     0.274 C 
ENDROOT
BRANCH   1   2
ATOM      2  O   UNL A   1      44.951  25.017  25.694  1.00  0.00    -0.457 OA
BRANCH   2   3
ATOM      3  C   UNL A   1      46.227  25.155  26.128  1.00  0.00     0.369 C 
ATOM      4  O   UNL A   1      47.210  24.910  25.431  1.00  0.00    -0.245 OA
BRANCH   3   5
ATOM      5  C   UNL A   1      46.369  25.626  27.612  1.00  0.00     0.208 C 
ATOM      6  C   UNL A   1      46.125  27.918  27.041  1.00  0.00     0.232 C 
ATOM      7  N   UNL A   1      45.440  26.811  27.749  1.00  0.00    -0.324 N 
ATOM      8  C   UNL A   1      47.581  27.770  27.476  1.00  0.00     0.161 C 
ATOM      9  H   UNL A   1      44.538  26.612  27.315  1.00  0.00     0.347 HD
ATOM     10  H   UNL A   1      45.250  27.040  28.725  1.00  0.00     0.347 HD
ATOM     11  C   UNL A   1      47.715  26.300  27.930  1.00  0.00     0.171 C 
ATOM     12  C   UNL A   1      47.912  28.574  28.703  1.00  0.00     0.240 C 
ATOM     13  C   UNL A   1      47.969  26.442  29.414  1.00  0.00     0.240 C 
ATOM     14  N   UNL A   1      47.898  27.749  29.786  1.00  0.00    -0.279 N 
ATOM     15  O   UNL A   1      48.169  29.769  28.704  1.00  0.00    -0.274 OA
ATOM     16  O   UNL A   1      48.234  25.518  30.167  1.00  0.00    -0.274 OA
BRANCH   6  17
ATOM     17  C   UNL A   1      45.431  29.243  27.210  1.00  0.00     0.056 A 
ATOM     18  C   UNL A   1      44.904  31.472  26.375  1.00  0.00     0.161 A 
ATOM     19  C   UNL A   1      44.154  31.747  27.512  1.00  0.00     0.050 A 
ATOM     20  C   UNL A   1      45.577  30.251  26.250  1.00  0.00     0.166 A 
ATOM     21  C   UNL A   1      44.018  30.767  28.494  1.00  0.00     0.005 A 
ATOM     22  C   UNL A   1      44.630  29.520  28.332  1.00  0.00     0.014 A 
BRANCH  18  23
ATOM     23  O   UNL A   1      45.024  32.438  25.411  1.00  0.00    -0.493 OA
ATOM     24  C   UNL A   1      44.049  33.473  25.589  1.00  0.00     0.278 C 
ENDBRANCH  18  23
BRANCH  20  25
ATOM     25  O   UNL A   1      46.403  30.047  25.175  1.00  0.00    -0.504 OA
ATOM     26  H   UNL A   1      47.115  30.633  25.014  1.00  0.00     0.293 HD
ENDBRANCH  20  25
ENDBRANCH   6  17
BRANCH   5  27
ATOM     27  C   UNL A   1      45.844  24.546  28.590  1.00  0.00     0.093 C 
BRANCH  27  28
ATOM     28  C   UNL A   1      44.343  24.425  28.896  1.00  0.00     0.076 C 
BRANCH  28  29
ATOM     29  S   UNL A   1      43.784  23.323  30.225  1.00  0.00    -0.165 SA
ATOM     30  C   UNL A   1      44.528  24.112  31.667  1.00  0.00     0.085 C 
ENDBRANCH  28  29
ENDBRANCH  27  28
ENDBRANCH   5  27
BRANCH  14  31
ATOM     31  C   UNL A   1      47.911  28.214  31.172  1.00  0.00     0.087 C 
ATOM     32  C   UNL A   1      49.277  28.818  31.516  1.00  0.00     0.031 C 
ATOM     33  C   UNL A   1      46.789  29.205  31.478  1.00  0.00     0.031 C 
ENDBRANCH  14  31
ENDBRANCH   3   5
ENDBRANCH   2   3
ENDBRANCH   1   2
BRANCH   1  34
ATOM     34  C   UNL A   1      43.251  23.352  25.021  1.00  0.00     0.275 C 
BRANCH  34  35
ATOM     35  O   UNL A   1      42.398  24.455  25.373  1.00  0.00    -0.458 OA
BRANCH  35  36
ATOM     36  C   UNL A   1      41.408  24.190  26.253  1.00  0.00     0.338 C 
ATOM     37  O   UNL A   1      40.726  23.176  26.303  1.00  0.00    -0.246 OA
BRANCH  36  38
ATOM     38  C   UNL A   1      41.260  25.306  27.214  1.00  0.00     0.060 A 
ATOM     39  C   UNL A   1      40.354  25.237  28.275  1.00  0.00     0.016 A 
ATOM     40  C   UNL A   1      41.995  26.474  27.014  1.00  0.00     0.016 A 
ATOM     41  C   UNL A   1      40.157  26.327  29.119  1.00  0.00     0.010 A 
ATOM     42  C   UNL A   1      41.872  27.533  27.918  1.00  0.00     0.010 A 
ATOM     43  C   UNL A   1      40.961  27.462  28.985  1.00  0.00    -0.014 A 
BRANCH  43  44
ATOM     44  C   UNL A   1      40.936  28.531  30.012  1.00  0.00     0.031 A 
ATOM     45  C   UNL A   1      41.852  28.478  31.197  1.00  0.00     0.074 A 
ATOM     46  C   UNL A   1      40.021  29.515  29.904  1.00  0.00     0.049 A 
ATOM     47  N   UNL A   1      41.800  29.163  32.309  1.00  0.00    -0.248 NA
ATOM     48  C   UNL A   1      42.967  27.522  31.125  1.00  0.00     0.031 C 
ATOM     49  C   UNL A   1      39.098  29.697  28.780  1.00  0.00     0.029 A 
ATOM     50  N   UNL A   1      39.696  30.534  30.764  1.00  0.00    -0.354 N 
ATOM     51  C   UNL A   1      42.849  28.697  33.089  1.00  0.00     0.074 A 
ATOM     52  C   UNL A   1      43.524  27.670  32.320  1.00  0.00     0.031 C 
ATOM     53  C   UNL A   1      38.315  30.758  29.016  1.00  0.00     0.029 A 
ATOM     54  C   UNL A   1      38.617  31.275  30.344  1.00  0.00     0.049 A 
ATOM     55  H   UNL A   1      40.186  30.715  31.597  1.00  0.00     0.167 HD
ATOM     56  C   UNL A   1      43.205  29.089  34.336  1.00  0.00     0.037 A 
ATOM     57  C   UNL A   1      37.903  32.221  30.980  1.00  0.00     0.037 A 
ATOM     58  C   UNL A   1      42.535  30.126  35.079  1.00  0.00     0.049 A 
ATOM     59  C   UNL A   1      38.269  32.584  32.387  1.00  0.00     0.074 A 
ATOM     60  C   UNL A   1      42.833  30.616  36.337  1.00  0.00     0.029 A 
ATOM     61  N   UNL A   1      41.428  30.830  34.627  1.00  0.00    -0.354 N 
ATOM     62  N   UNL A   1      39.241  32.116  33.131  1.00  0.00    -0.248 NA
ATOM     63  C   UNL A   1      37.427  33.585  33.051  1.00  0.00     0.031 C 
ATOM     64  C   UNL A   1      41.882  31.591  36.664  1.00  0.00     0.029 A 
ATOM     65  C   UNL A   1      41.016  31.734  35.592  1.00  0.00     0.049 A 
ATOM     66  H   UNL A   1      40.999  30.706  33.749  1.00  0.00     0.167 HD
ATOM     67  C   UNL A   1      39.132  32.767  34.350  1.00  0.00     0.074 A 
ATOM     68  C   UNL A   1      38.010  33.679  34.237  1.00  0.00     0.031 C 
ATOM     69  C   UNL A   1      39.890  32.622  35.463  1.00  0.00     0.037 A 
BRANCH  56  70
ATOM     70  C   UNL A   1      44.349  28.374  34.991  1.00  0.00     0.057 A 
ATOM     71  C   UNL A   1      44.195  27.118  35.588  1.00  0.00     0.134 A 
ATOM     72  C   UNL A   1      45.633  28.933  34.981  1.00  0.00     0.134 A 
ATOM     73  F   UNL A   1      42.989  26.533  35.642  1.00  0.00    -0.206 F 
ATOM     74  C   UNL A   1      45.277  26.447  36.165  1.00  0.00     0.040 A 
ATOM     75  C   UNL A   1      46.726  28.265  35.536  1.00  0.00     0.040 A 
ATOM     76  F   UNL A   1      45.849  30.133  34.421  1.00  0.00    -0.206 F 
ATOM     77  C   UNL A   1      46.548  27.020  36.134  1.00  0.00     0.006 A 
ENDBRANCH  56  70
BRANCH  57  78
ATOM     78  C   UNL A   1      36.736  32.837  30.304  1.00  0.00     0.057 A 
ATOM     79  C   UNL A   1      35.432  32.440  30.613  1.00  0.00     0.134 A 
ATOM     80  C   UNL A   1      36.895  33.862  29.361  1.00  0.00     0.134 A 
ATOM     81  F   UNL A   1      35.218  31.450  31.492  1.00  0.00    -0.206 F 
ATOM     82  C   UNL A   1      34.326  33.037  30.008  1.00  0.00     0.040 A 
ATOM     83  C   UNL A   1      35.798  34.485  28.768  1.00  0.00     0.040 A 
ATOM     84  F   UNL A   1      38.121  34.292  29.029  1.00  0.00    -0.206 F 
ATOM     85  C   UNL A   1      34.508  34.071  29.090  1.00  0.00     0.006 A 
ENDBRANCH  57  78
BRANCH  69  86
ATOM     86  C   UNL A   1      39.530  33.478  36.638  1.00  0.00     0.057 A 
ATOM     87  C   UNL A   1      38.659  33.025  37.636  1.00  0.00     0.134 A 
ATOM     88  C   UNL A   1      40.072  34.760  36.780  1.00  0.00     0.134 A 
ATOM     89  F   UNL A   1      38.093  31.813  37.544  1.00  0.00    -0.206 F 
ATOM     90  C   UNL A   1      38.325  33.827  38.728  1.00  0.00     0.040 A 
ATOM     91  C   UNL A   1      39.764  35.563  37.878  1.00  0.00     0.040 A 
ATOM     92  F   UNL A   1      40.915  35.250  35.858  1.00  0.00    -0.206 F 
ATOM     93  C   UNL A   1      38.884  35.097  38.853  1.00  0.00     0.006 A 
ENDBRANCH  69  86
ENDBRANCH  43  44
ENDBRANCH  36  38
ENDBRANCH  35  36
ENDBRANCH  34  35
ENDBRANCH   1  34
TORSDOF 18
ENDMDL
