MODEL 1
REMARK VINA RESULT:     -12.3      0.000      0.000
REMARK SMILES Cc1c(C(=O)N[C@H]2C=C[C@@H](C(=O)OCCOC(=O)c3ccc(-c4c5nc(c(-c6c(F)cccc6F)c6ccc([nH]6)c(-c6c(F)cccc6F)c6nc(c(-c7c(F)cccc7F)c7ccc4[nH]7)C=C6)C=C5)cc3)C2)oc2ccccc12
REMARK SMILES IDX 14 1 13 2 11 3 12 4 10 5 7 6 8 7 73 8 9 9 6 10 4 11 5 12
REMARK SMILES IDX 3 14 1 15 2 16 80 17 74 18 75 19 79 20 76 21 78 22 77 23
REMARK SMILES IDX 15 24 16 25 17 26 18 27 19 28 20 29 72 30 21 31 71 32 22 33
REMARK SMILES IDX 23 34 24 35 65 36 25 37 70 38 64 39 66 40 26 41 69 42 63 43
REMARK SMILES IDX 62 44 27 46 53 47 36 48 52 49 37 50 40 51 51 52 67 53 38 54
REMARK SMILES IDX 39 55 50 57 68 58 41 59 28 60 29 61 34 62 30 63 31 64 33 65
REMARK SMILES IDX 35 66 32 67 54 68 55 69 60 70 56 71 57 72 59 73 61 74 58 75
REMARK SMILES IDX 42 76 43 77 48 78 44 79 45 80 47 81 49 82 46 83
REMARK H PARENT 6 13 66 45 40 56
REMARK Flexibility Score: inf
ROOT
ATOM      1  C   UNL A   1      37.912  20.013  24.946  1.00  0.00     0.274 C 
ENDROOT
BRANCH   1   2
ATOM      2  O   UNL A   1      36.943  21.066  25.126  1.00  0.00    -0.462 OA
BRANCH   2   3
ATOM      3  C   UNL A   1      35.647  20.700  24.984  1.00  0.00     0.312 C 
ATOM      4  O   UNL A   1      35.265  19.552  24.773  1.00  0.00    -0.252 OA
BRANCH   3   5
ATOM      5  C   UNL A   1      34.663  21.846  25.109  1.00  0.00     0.124 C 
ATOM      6  C   UNL A   1      32.682  22.925  25.761  1.00  0.00     0.106 C 
ATOM      7  C   UNL A   1      33.838  23.542  26.489  1.00  0.00    -0.006 C 
ATOM      8  C   UNL A   1      33.244  21.518  25.555  1.00  0.00     0.048 C 
ATOM      9  C   UNL A   1      34.980  22.951  26.086  1.00  0.00    -0.014 C 
BRANCH   6  10
ATOM     10  N   UNL A   1      31.444  22.950  26.451  1.00  0.00    -0.343 N 
ATOM     11  C   UNL A   1      30.558  23.996  26.631  1.00  0.00     0.287 C 
ATOM     12  O   UNL A   1      29.544  23.670  27.261  1.00  0.00    -0.266 OA
ATOM     13  H   UNL A   1      31.175  22.099  26.864  1.00  0.00     0.164 HD
BRANCH  11  14
ATOM     14  C   UNL A   1      30.766  25.385  26.179  1.00  0.00     0.195 A 
ATOM     15  C   UNL A   1      29.841  26.005  23.778  1.00  0.00     0.049 C 
ATOM     16  C   UNL A   1      30.525  26.219  25.073  1.00  0.00     0.008 A 
ATOM     17  C   UNL A   1      31.047  27.518  25.400  1.00  0.00     0.024 A 
ATOM     18  O   UNL A   1      31.372  26.170  27.152  1.00  0.00    -0.451 OA
ATOM     19  C   UNL A   1      31.528  27.430  26.688  1.00  0.00     0.135 A 
ATOM     20  C   UNL A   1      31.126  28.759  24.734  1.00  0.00     0.012 A 
ATOM     21  C   UNL A   1      32.079  28.499  27.390  1.00  0.00     0.048 A 
ATOM     22  C   UNL A   1      31.676  29.855  25.407  1.00  0.00     0.001 A 
ATOM     23  C   UNL A   1      32.140  29.726  26.717  1.00  0.00     0.004 A 
ENDBRANCH  11  14
ENDBRANCH   6  10
ENDBRANCH   3   5
ENDBRANCH   2   3
ENDBRANCH   1   2
BRANCH   1  24
ATOM     24  C   UNL A   1      39.244  20.350  25.625  1.00  0.00     0.275 C 
BRANCH  24  25
ATOM     25  O   UNL A   1      40.106  19.201  25.755  1.00  0.00    -0.458 OA
BRANCH  25  26
ATOM     26  C   UNL A   1      41.412  19.489  25.944  1.00  0.00     0.338 C 
ATOM     27  O   UNL A   1      42.372  18.797  25.638  1.00  0.00    -0.246 OA
BRANCH  26  28
ATOM     28  C   UNL A   1      41.575  20.835  26.517  1.00  0.00     0.060 A 
ATOM     29  C   UNL A   1      42.005  21.860  25.670  1.00  0.00     0.016 A 
ATOM     30  C   UNL A   1      41.433  21.065  27.886  1.00  0.00     0.016 A 
ATOM     31  C   UNL A   1      42.337  23.108  26.193  1.00  0.00     0.010 A 
ATOM     32  C   UNL A   1      41.742  22.327  28.407  1.00  0.00     0.010 A 
ATOM     33  C   UNL A   1      42.217  23.352  27.568  1.00  0.00    -0.014 A 
BRANCH  33  34
ATOM     34  C   UNL A   1      42.602  24.673  28.127  1.00  0.00     0.031 A 
ATOM     35  C   UNL A   1      41.566  25.739  28.351  1.00  0.00     0.074 A 
ATOM     36  C   UNL A   1      43.888  24.917  28.440  1.00  0.00     0.049 A 
ATOM     37  N   UNL A   1      41.722  26.967  28.781  1.00  0.00    -0.248 NA
ATOM     38  C   UNL A   1      40.173  25.377  28.051  1.00  0.00     0.031 C 
ATOM     39  C   UNL A   1      44.986  23.961  28.300  1.00  0.00     0.029 A 
ATOM     40  N   UNL A   1      44.487  26.045  28.939  1.00  0.00    -0.354 N 
ATOM     41  C   UNL A   1      40.453  27.532  28.782  1.00  0.00     0.074 A 
ATOM     42  C   UNL A   1      39.541  26.517  28.294  1.00  0.00     0.031 C 
ATOM     43  C   UNL A   1      46.124  24.538  28.717  1.00  0.00     0.029 A 
ATOM     44  C   UNL A   1      45.843  25.917  29.111  1.00  0.00     0.049 A 
ATOM     45  H   UNL A   1      43.992  26.869  29.154  1.00  0.00     0.167 HD
ATOM     46  C   UNL A   1      40.080  28.779  29.161  1.00  0.00     0.037 A 
ATOM     47  C   UNL A   1      46.761  26.812  29.522  1.00  0.00     0.037 A 
ATOM     48  C   UNL A   1      40.981  29.785  29.663  1.00  0.00     0.049 A 
ATOM     49  C   UNL A   1      46.332  28.209  29.872  1.00  0.00     0.074 A 
ATOM     50  C   UNL A   1      40.686  31.060  30.115  1.00  0.00     0.029 A 
ATOM     51  N   UNL A   1      42.354  29.632  29.774  1.00  0.00    -0.354 N 
ATOM     52  N   UNL A   1      45.127  28.723  29.891  1.00  0.00    -0.248 NA
ATOM     53  C   UNL A   1      47.395  29.151  30.251  1.00  0.00     0.031 C 
ATOM     54  C   UNL A   1      41.886  31.693  30.457  1.00  0.00     0.029 A 
ATOM     55  C   UNL A   1      42.924  30.799  30.258  1.00  0.00     0.049 A 
ATOM     56  H   UNL A   1      42.852  28.814  29.542  1.00  0.00     0.167 HD
ATOM     57  C   UNL A   1      45.282  30.040  30.304  1.00  0.00     0.074 A 
ATOM     58  C   UNL A   1      46.698  30.243  30.533  1.00  0.00     0.031 C 
ATOM     59  C   UNL A   1      44.335  30.992  30.481  1.00  0.00     0.037 A 
BRANCH  46  60
ATOM     60  C   UNL A   1      38.630  29.135  29.016  1.00  0.00     0.057 A 
ATOM     61  C   UNL A   1      37.735  29.060  30.090  1.00  0.00     0.134 A 
ATOM     62  C   UNL A   1      38.127  29.580  27.786  1.00  0.00     0.134 A 
ATOM     63  F   UNL A   1      38.152  28.633  31.292  1.00  0.00    -0.206 F 
ATOM     64  C   UNL A   1      36.386  29.385  29.941  1.00  0.00     0.040 A 
ATOM     65  C   UNL A   1      36.784  29.931  27.630  1.00  0.00     0.040 A 
ATOM     66  F   UNL A   1      38.932  29.683  26.718  1.00  0.00    -0.206 F 
ATOM     67  C   UNL A   1      35.908  29.825  28.707  1.00  0.00     0.006 A 
ENDBRANCH  46  60
BRANCH  47  68
ATOM     68  C   UNL A   1      48.184  26.411  29.627  1.00  0.00     0.057 A 
ATOM     69  C   UNL A   1      49.062  26.597  28.553  1.00  0.00     0.134 A 
ATOM     70  C   UNL A   1      48.701  25.844  30.797  1.00  0.00     0.134 A 
ATOM     71  F   UNL A   1      48.615  27.116  27.400  1.00  0.00    -0.206 F 
ATOM     72  C   UNL A   1      50.404  26.227  28.636  1.00  0.00     0.040 A 
ATOM     73  C   UNL A   1      50.047  25.490  30.902  1.00  0.00     0.040 A 
ATOM     74  F   UNL A   1      47.909  25.644  31.860  1.00  0.00    -0.206 F 
ATOM     75  C   UNL A   1      50.901  25.679  29.817  1.00  0.00     0.006 A 
ENDBRANCH  47  68
BRANCH  59  76
ATOM     76  C   UNL A   1      44.795  32.332  30.974  1.00  0.00     0.057 A 
ATOM     77  C   UNL A   1      44.912  32.615  32.340  1.00  0.00     0.134 A 
ATOM     78  C   UNL A   1      45.148  33.342  30.071  1.00  0.00     0.134 A 
ATOM     79  F   UNL A   1      44.573  31.696  33.256  1.00  0.00    -0.206 F 
ATOM     80  C   UNL A   1      45.347  33.863  32.791  1.00  0.00     0.040 A 
ATOM     81  C   UNL A   1      45.605  34.586  30.509  1.00  0.00     0.040 A 
ATOM     82  F   UNL A   1      45.062  33.134  28.748  1.00  0.00    -0.206 F 
ATOM     83  C   UNL A   1      45.700  34.851  31.874  1.00  0.00     0.006 A 
ENDBRANCH  59  76
ENDBRANCH  33  34
ENDBRANCH  26  28
ENDBRANCH  25  26
ENDBRANCH  24  25
ENDBRANCH   1  24
TORSDOF 13
ENDMDL
MODEL 2
REMARK VINA RESULT:     -12.2      1.408      2.067
REMARK SMILES Cc1c(C(=O)N[C@H]2C=C[C@@H](C(=O)OCCOC(=O)c3ccc(-c4c5nc(c(-c6c(F)cccc6F)c6ccc([nH]6)c(-c6c(F)cccc6F)c6nc(c(-c7c(F)cccc7F)c7ccc4[nH]7)C=C6)C=C5)cc3)C2)oc2ccccc12
REMARK SMILES IDX 14 1 13 2 11 3 12 4 10 5 7 6 8 7 73 8 9 9 6 10 4 11 5 12
REMARK SMILES IDX 3 14 1 15 2 16 80 17 74 18 75 19 79 20 76 21 78 22 77 23
REMARK SMILES IDX 15 24 16 25 17 26 18 27 19 28 20 29 72 30 21 31 71 32 22 33
REMARK SMILES IDX 23 34 24 35 65 36 25 37 70 38 64 39 66 40 26 41 69 42 63 43
REMARK SMILES IDX 62 44 27 46 53 47 36 48 52 49 37 50 40 51 51 52 67 53 38 54
REMARK SMILES IDX 39 55 50 57 68 58 41 59 28 60 29 61 34 62 30 63 31 64 33 65
REMARK SMILES IDX 35 66 32 67 54 68 55 69 60 70 56 71 57 72 59 73 61 74 58 75
REMARK SMILES IDX 42 76 43 77 48 78 44 79 45 80 47 81 49 82 46 83
REMARK H PARENT 6 13 66 45 40 56
REMARK Flexibility Score: inf
ROOT
ATOM      1  C   UNL A   1      37.730  20.118  24.934  1.00  0.00     0.274 C 
ENDROOT
BRANCH   1   2
ATOM      2  O   UNL A   1      36.548  20.823  25.366  1.00  0.00    -0.462 OA
BRANCH   2   3
ATOM      3  C   UNL A   1      35.376  20.353  24.878  1.00  0.00     0.312 C 
ATOM      4  O   UNL A   1      35.124  19.166  24.687  1.00  0.00    -0.252 OA
BRANCH   3   5
ATOM      5  C   UNL A   1      34.356  21.432  24.573  1.00  0.00     0.124 C 
ATOM      6  C   UNL A   1      33.440  23.275  23.443  1.00  0.00     0.106 C 
ATOM      7  C   UNL A   1      32.576  22.075  23.202  1.00  0.00    -0.006 C 
ATOM      8  C   UNL A   1      34.781  22.574  23.659  1.00  0.00     0.048 C 
ATOM      9  C   UNL A   1      33.078  21.026  23.882  1.00  0.00    -0.014 C 
BRANCH   6  10
ATOM     10  N   UNL A   1      33.459  24.233  22.398  1.00  0.00    -0.343 N 
ATOM     11  C   UNL A   1      33.423  25.613  22.469  1.00  0.00     0.287 C 
ATOM     12  O   UNL A   1      33.488  26.158  21.359  1.00  0.00    -0.266 OA
ATOM     13  H   UNL A   1      33.503  23.862  21.488  1.00  0.00     0.164 HD
BRANCH  11  14
ATOM     14  C   UNL A   1      33.280  26.407  23.704  1.00  0.00     0.195 A 
ATOM     15  C   UNL A   1      34.494  25.474  25.863  1.00  0.00     0.049 C 
ATOM     16  C   UNL A   1      33.659  26.394  25.058  1.00  0.00     0.008 A 
ATOM     17  C   UNL A   1      33.108  27.575  25.663  1.00  0.00     0.024 A 
ATOM     18  O   UNL A   1      32.565  27.579  23.496  1.00  0.00    -0.451 OA
ATOM     19  C   UNL A   1      32.474  28.268  24.655  1.00  0.00     0.135 A 
ATOM     20  C   UNL A   1      33.118  28.130  26.960  1.00  0.00     0.012 A 
ATOM     21  C   UNL A   1      31.848  29.500  24.829  1.00  0.00     0.048 A 
ATOM     22  C   UNL A   1      32.497  29.365  27.173  1.00  0.00     0.001 A 
ATOM     23  C   UNL A   1      31.876  30.040  26.122  1.00  0.00     0.004 A 
ENDBRANCH  11  14
ENDBRANCH   6  10
ENDBRANCH   3   5
ENDBRANCH   2   3
ENDBRANCH   1   2
BRANCH   1  24
ATOM     24  C   UNL A   1      38.996  20.694  25.577  1.00  0.00     0.275 C 
BRANCH  24  25
ATOM     25  O   UNL A   1      39.775  19.693  26.263  1.00  0.00    -0.458 OA
BRANCH  25  26
ATOM     26  C   UNL A   1      41.105  19.752  26.036  1.00  0.00     0.338 C 
ATOM     27  O   UNL A   1      41.786  18.939  25.428  1.00  0.00    -0.246 OA
BRANCH  26  28
ATOM     28  C   UNL A   1      41.671  21.007  26.555  1.00  0.00     0.060 A 
ATOM     29  C   UNL A   1      41.579  21.248  27.929  1.00  0.00     0.016 A 
ATOM     30  C   UNL A   1      42.169  21.990  25.699  1.00  0.00     0.016 A 
ATOM     31  C   UNL A   1      41.944  22.488  28.449  1.00  0.00     0.010 A 
ATOM     32  C   UNL A   1      42.560  23.227  26.226  1.00  0.00     0.010 A 
ATOM     33  C   UNL A   1      42.430  23.494  27.601  1.00  0.00    -0.014 A 
BRANCH  33  34
ATOM     34  C   UNL A   1      42.788  24.825  28.154  1.00  0.00     0.031 A 
ATOM     35  C   UNL A   1      41.729  25.866  28.385  1.00  0.00     0.074 A 
ATOM     36  C   UNL A   1      44.070  25.100  28.455  1.00  0.00     0.049 A 
ATOM     37  N   UNL A   1      41.859  27.098  28.811  1.00  0.00    -0.248 NA
ATOM     38  C   UNL A   1      40.343  25.471  28.097  1.00  0.00     0.031 C 
ATOM     39  C   UNL A   1      45.190  24.170  28.308  1.00  0.00     0.029 A 
ATOM     40  N   UNL A   1      44.646  26.243  28.948  1.00  0.00    -0.354 N 
ATOM     41  C   UNL A   1      40.577  27.633  28.822  1.00  0.00     0.074 A 
ATOM     42  C   UNL A   1      39.686  26.596  28.344  1.00  0.00     0.031 C 
ATOM     43  C   UNL A   1      46.316  24.775  28.715  1.00  0.00     0.029 A 
ATOM     44  C   UNL A   1      46.007  26.147  29.109  1.00  0.00     0.049 A 
ATOM     45  H   UNL A   1      44.134  27.056  29.165  1.00  0.00     0.167 HD
ATOM     46  C   UNL A   1      40.178  28.872  29.201  1.00  0.00     0.037 A 
ATOM     47  C   UNL A   1      46.906  27.065  29.511  1.00  0.00     0.037 A 
ATOM     48  C   UNL A   1      41.059  29.900  29.695  1.00  0.00     0.049 A 
ATOM     49  C   UNL A   1      46.447  28.452  29.861  1.00  0.00     0.074 A 
ATOM     50  C   UNL A   1      40.737  31.169  30.147  1.00  0.00     0.029 A 
ATOM     51  N   UNL A   1      42.436  29.779  29.794  1.00  0.00    -0.354 N 
ATOM     52  N   UNL A   1      45.230  28.937  29.889  1.00  0.00    -0.248 NA
ATOM     53  C   UNL A   1      47.490  29.419  30.230  1.00  0.00     0.031 C 
ATOM     54  C   UNL A   1      41.925  31.831  30.477  1.00  0.00     0.029 A 
ATOM     55  C   UNL A   1      42.982  30.960  30.271  1.00  0.00     0.049 A 
ATOM     56  H   UNL A   1      42.951  28.973  29.559  1.00  0.00     0.167 HD
ATOM     57  C   UNL A   1      45.358  30.258  30.299  1.00  0.00     0.074 A 
ATOM     58  C   UNL A   1      46.770  30.495  30.516  1.00  0.00     0.031 C 
ATOM     59  C   UNL A   1      44.390  31.188  30.483  1.00  0.00     0.037 A 
BRANCH  46  60
ATOM     60  C   UNL A   1      38.718  29.193  29.068  1.00  0.00     0.057 A 
ATOM     61  C   UNL A   1      37.838  29.118  30.155  1.00  0.00     0.134 A 
ATOM     62  C   UNL A   1      38.191  29.605  27.837  1.00  0.00     0.134 A 
ATOM     63  F   UNL A   1      38.279  28.722  31.359  1.00  0.00    -0.206 F 
ATOM     64  C   UNL A   1      36.480  29.410  30.016  1.00  0.00     0.040 A 
ATOM     65  C   UNL A   1      36.839  29.922  27.691  1.00  0.00     0.040 A 
ATOM     66  F   UNL A   1      38.981  29.706  26.757  1.00  0.00    -0.206 F 
ATOM     67  C   UNL A   1      35.979  29.817  28.781  1.00  0.00     0.006 A 
ENDBRANCH  46  60
BRANCH  47  68
ATOM     68  C   UNL A   1      48.339  26.698  29.605  1.00  0.00     0.057 A 
ATOM     69  C   UNL A   1      48.852  26.105  30.764  1.00  0.00     0.134 A 
ATOM     70  C   UNL A   1      49.224  26.920  28.543  1.00  0.00     0.134 A 
ATOM     71  F   UNL A   1      48.054  25.889  31.820  1.00  0.00    -0.206 F 
ATOM     72  C   UNL A   1      50.198  25.752  30.868  1.00  0.00     0.040 A 
ATOM     73  C   UNL A   1      50.567  26.551  28.626  1.00  0.00     0.040 A 
ATOM     74  F   UNL A   1      48.789  27.483  27.407  1.00  0.00    -0.206 F 
ATOM     75  C   UNL A   1      51.057  25.968  29.792  1.00  0.00     0.006 A 
ENDBRANCH  47  68
BRANCH  59  76
ATOM     76  C   UNL A   1      44.821  32.539  30.969  1.00  0.00     0.057 A 
ATOM     77  C   UNL A   1      44.945  32.827  32.334  1.00  0.00     0.134 A 
ATOM     78  C   UNL A   1      45.141  33.556  30.061  1.00  0.00     0.134 A 
ATOM     79  F   UNL A   1      44.638  31.901  33.254  1.00  0.00    -0.206 F 
ATOM     80  C   UNL A   1      45.354  34.085  32.779  1.00  0.00     0.040 A 
ATOM     81  C   UNL A   1      45.572  34.811  30.493  1.00  0.00     0.040 A 
ATOM     82  F   UNL A   1      45.047  33.345  28.740  1.00  0.00    -0.206 F 
ATOM     83  C   UNL A   1      45.674  35.080  31.857  1.00  0.00     0.006 A 
ENDBRANCH  59  76
ENDBRANCH  33  34
ENDBRANCH  26  28
ENDBRANCH  25  26
ENDBRANCH  24  25
ENDBRANCH   1  24
TORSDOF 13
ENDMDL
MODEL 3
REMARK VINA RESULT:     -12.2      4.262      8.953
REMARK SMILES Cc1c(C(=O)N[C@H]2C=C[C@@H](C(=O)OCCOC(=O)c3ccc(-c4c5nc(c(-c6c(F)cccc6F)c6ccc([nH]6)c(-c6c(F)cccc6F)c6nc(c(-c7c(F)cccc7F)c7ccc4[nH]7)C=C6)C=C5)cc3)C2)oc2ccccc12
REMARK SMILES IDX 14 1 13 2 11 3 12 4 10 5 7 6 8 7 73 8 9 9 6 10 4 11 5 12
REMARK SMILES IDX 3 14 1 15 2 16 80 17 74 18 75 19 79 20 76 21 78 22 77 23
REMARK SMILES IDX 15 24 16 25 17 26 18 27 19 28 20 29 72 30 21 31 71 32 22 33
REMARK SMILES IDX 23 34 24 35 65 36 25 37 70 38 64 39 66 40 26 41 69 42 63 43
REMARK SMILES IDX 62 44 27 46 53 47 36 48 52 49 37 50 40 51 51 52 67 53 38 54
REMARK SMILES IDX 39 55 50 57 68 58 41 59 28 60 29 61 34 62 30 63 31 64 33 65
REMARK SMILES IDX 35 66 32 67 54 68 55 69 60 70 56 71 57 72 59 73 61 74 58 75
REMARK SMILES IDX 42 76 43 77 48 78 44 79 45 80 47 81 49 82 46 83
REMARK H PARENT 6 13 66 45 40 56
REMARK Flexibility Score: inf
ROOT
ATOM      1  C   UNL A   1      31.486  31.851  26.765  1.00  0.00     0.274 C 
ENDROOT
BRANCH   1   2
ATOM      2  O   UNL A   1      32.024  30.821  25.910  1.00  0.00    -0.462 OA
BRANCH   2   3
ATOM      3  C   UNL A   1      32.707  29.836  26.540  1.00  0.00     0.312 C 
ATOM      4  O   UNL A   1      33.368  29.989  27.564  1.00  0.00    -0.252 OA
BRANCH   3   5
ATOM      5  C   UNL A   1      32.595  28.481  25.872  1.00  0.00     0.124 C 
ATOM      6  C   UNL A   1      32.578  26.950  24.091  1.00  0.00     0.106 C 
ATOM      7  C   UNL A   1      33.765  26.672  24.963  1.00  0.00    -0.006 C 
ATOM      8  C   UNL A   1      32.420  28.447  24.358  1.00  0.00     0.048 C 
ATOM      9  C   UNL A   1      33.754  27.524  26.007  1.00  0.00    -0.014 C 
BRANCH   6  10
ATOM     10  N   UNL A   1      32.741  26.629  22.719  1.00  0.00    -0.343 N 
ATOM     11  C   UNL A   1      33.183  25.456  22.137  1.00  0.00     0.287 C 
ATOM     12  O   UNL A   1      33.176  25.496  20.899  1.00  0.00    -0.266 OA
ATOM     13  H   UNL A   1      32.506  27.347  22.089  1.00  0.00     0.164 HD
BRANCH  11  14
ATOM     14  C   UNL A   1      33.666  24.266  22.862  1.00  0.00     0.195 A 
ATOM     15  C   UNL A   1      31.821  22.628  23.818  1.00  0.00     0.049 C 
ATOM     16  C   UNL A   1      33.184  23.140  23.553  1.00  0.00     0.008 A 
ATOM     17  C   UNL A   1      34.328  22.396  24.001  1.00  0.00     0.024 A 
ATOM     18  O   UNL A   1      35.052  24.174  22.858  1.00  0.00    -0.451 OA
ATOM     19  C   UNL A   1      35.436  23.063  23.526  1.00  0.00     0.135 A 
ATOM     20  C   UNL A   1      34.521  21.207  24.735  1.00  0.00     0.012 A 
ATOM     21  C   UNL A   1      36.747  22.631  23.710  1.00  0.00     0.048 A 
ATOM     22  C   UNL A   1      35.824  20.743  24.943  1.00  0.00     0.001 A 
ATOM     23  C   UNL A   1      36.918  21.443  24.434  1.00  0.00     0.004 A 
ENDBRANCH  11  14
ENDBRANCH   6  10
ENDBRANCH   3   5
ENDBRANCH   2   3
ENDBRANCH   1   2
BRANCH   1  24
ATOM     24  C   UNL A   1      32.430  33.055  26.860  1.00  0.00     0.275 C 
BRANCH  24  25
ATOM     25  O   UNL A   1      32.171  33.872  28.020  1.00  0.00    -0.458 OA
BRANCH  25  26
ATOM     26  C   UNL A   1      33.204  34.651  28.408  1.00  0.00     0.338 C 
ATOM     27  O   UNL A   1      33.217  35.870  28.491  1.00  0.00    -0.246 OA
BRANCH  26  28
ATOM     28  C   UNL A   1      34.353  33.831  28.822  1.00  0.00     0.060 A 
ATOM     29  C   UNL A   1      34.106  32.710  29.618  1.00  0.00     0.016 A 
ATOM     30  C   UNL A   1      35.664  34.222  28.542  1.00  0.00     0.016 A 
ATOM     31  C   UNL A   1      35.166  31.999  30.177  1.00  0.00     0.010 A 
ATOM     32  C   UNL A   1      36.729  33.491  29.082  1.00  0.00     0.010 A 
ATOM     33  C   UNL A   1      36.489  32.388  29.921  1.00  0.00    -0.014 A 
BRANCH  33  34
ATOM     34  C   UNL A   1      37.616  31.647  30.543  1.00  0.00     0.031 A 
ATOM     35  C   UNL A   1      38.013  31.915  31.968  1.00  0.00     0.074 A 
ATOM     36  C   UNL A   1      38.283  30.723  29.828  1.00  0.00     0.049 A 
ATOM     37  N   UNL A   1      39.000  31.404  32.662  1.00  0.00    -0.248 NA
ATOM     38  C   UNL A   1      37.195  32.886  32.708  1.00  0.00     0.031 C 
ATOM     39  C   UNL A   1      37.982  30.345  28.447  1.00  0.00     0.029 A 
ATOM     40  N   UNL A   1      39.355  29.936  30.165  1.00  0.00    -0.354 N 
ATOM     41  C   UNL A   1      38.936  32.007  33.912  1.00  0.00     0.074 A 
ATOM     42  C   UNL A   1      37.824  32.934  33.875  1.00  0.00     0.031 C 
ATOM     43  C   UNL A   1      38.839  29.389  28.059  1.00  0.00     0.029 A 
ATOM     44  C   UNL A   1      39.778  29.118  29.145  1.00  0.00     0.049 A 
ATOM     45  H   UNL A   1      39.782  29.955  31.052  1.00  0.00     0.167 HD
ATOM     46  C   UNL A   1      39.728  31.803  34.994  1.00  0.00     0.037 A 
ATOM     47  C   UNL A   1      40.814  28.261  29.085  1.00  0.00     0.037 A 
ATOM     48  C   UNL A   1      40.823  30.868  35.040  1.00  0.00     0.049 A 
ATOM     49  C   UNL A   1      41.717  28.102  30.275  1.00  0.00     0.074 A 
ATOM     50  C   UNL A   1      41.651  30.561  36.108  1.00  0.00     0.029 A 
ATOM     51  N   UNL A   1      41.250  30.097  33.971  1.00  0.00    -0.354 N 
ATOM     52  N   UNL A   1      41.632  28.660  31.457  1.00  0.00    -0.248 NA
ATOM     53  C   UNL A   1      42.865  27.198  30.117  1.00  0.00     0.031 C 
ATOM     54  C   UNL A   1      42.605  29.635  35.670  1.00  0.00     0.029 A 
ATOM     55  C   UNL A   1      42.347  29.336  34.343  1.00  0.00     0.049 A 
ATOM     56  H   UNL A   1      40.836  30.091  33.078  1.00  0.00     0.167 HD
ATOM     57  C   UNL A   1      42.699  28.159  32.191  1.00  0.00     0.074 A 
ATOM     58  C   UNL A   1      43.413  27.245  31.323  1.00  0.00     0.031 C 
ATOM     59  C   UNL A   1      43.052  28.430  33.471  1.00  0.00     0.037 A 
BRANCH  46  60
ATOM     60  C   UNL A   1      39.451  32.632  36.213  1.00  0.00     0.057 A 
ATOM     61  C   UNL A   1      40.095  33.854  36.442  1.00  0.00     0.134 A 
ATOM     62  C   UNL A   1      38.509  32.210  37.161  1.00  0.00     0.134 A 
ATOM     63  F   UNL A   1      41.014  34.310  35.577  1.00  0.00    -0.206 F 
ATOM     64  C   UNL A   1      39.836  34.613  37.585  1.00  0.00     0.040 A 
ATOM     65  C   UNL A   1      38.224  32.971  38.296  1.00  0.00     0.040 A 
ATOM     66  F   UNL A   1      37.850  31.053  36.997  1.00  0.00    -0.206 F 
ATOM     67  C   UNL A   1      38.894  34.172  38.514  1.00  0.00     0.006 A 
ENDBRANCH  46  60
BRANCH  47  68
ATOM     68  C   UNL A   1      41.052  27.481  27.847  1.00  0.00     0.057 A 
ATOM     69  C   UNL A   1      40.505  26.203  27.689  1.00  0.00     0.134 A 
ATOM     70  C   UNL A   1      41.819  27.993  26.795  1.00  0.00     0.134 A 
ATOM     71  F   UNL A   1      39.780  25.653  28.675  1.00  0.00    -0.206 F 
ATOM     72  C   UNL A   1      40.718  25.457  26.530  1.00  0.00     0.040 A 
ATOM     73  C   UNL A   1      42.022  27.267  25.621  1.00  0.00     0.040 A 
ATOM     74  F   UNL A   1      42.367  29.213  26.888  1.00  0.00    -0.206 F 
ATOM     75  C   UNL A   1      41.473  25.993  25.488  1.00  0.00     0.006 A 
ENDBRANCH  47  68
BRANCH  59  76
ATOM     76  C   UNL A   1      44.246  27.707  34.020  1.00  0.00     0.057 A 
ATOM     77  C   UNL A   1      45.531  28.263  33.971  1.00  0.00     0.134 A 
ATOM     78  C   UNL A   1      44.106  26.453  34.627  1.00  0.00     0.134 A 
ATOM     79  F   UNL A   1      45.735  29.453  33.389  1.00  0.00    -0.206 F 
ATOM     80  C   UNL A   1      46.637  27.587  34.490  1.00  0.00     0.040 A 
ATOM     81  C   UNL A   1      45.200  25.777  35.169  1.00  0.00     0.040 A 
ATOM     82  F   UNL A   1      42.901  25.868  34.710  1.00  0.00    -0.206 F 
ATOM     83  C   UNL A   1      46.472  26.342  35.097  1.00  0.00     0.006 A 
ENDBRANCH  59  76
ENDBRANCH  33  34
ENDBRANCH  26  28
ENDBRANCH  25  26
ENDBRANCH  24  25
ENDBRANCH   1  24
TORSDOF 13
ENDMDL
