MODEL 1
REMARK VINA RESULT:     -11.8      0.000      0.000
REMARK SMILES O=C(OCCOC(=O)c1cc(S(=O)(=O)Nc2ccc(F)c(C(F)(F)F)c2)c[nH]1)c1ccc(-c2c3nc(c(-c4c(F)cccc4F)c4ccc([nH]4)c(-c4c(F)cccc4F)c4nc(c(-c5c(F)cccc5F)c5ccc2[nH]5)C=C4)C=C3)cc1
REMARK SMILES IDX 5 1 4 2 3 3 2 4 1 5 29 6 30 7 82 8 31 9 81 10 32 11 33 12
REMARK SMILES IDX 34 13 75 14 35 15 80 16 74 17 76 18 36 19 79 20 73 21 72 22
REMARK SMILES IDX 37 24 63 25 46 26 62 27 47 28 50 29 61 30 77 31 48 32 49 33
REMARK SMILES IDX 60 35 78 36 51 37 38 38 39 39 44 40 40 41 41 42 43 43 45 44
REMARK SMILES IDX 42 45 64 46 65 47 70 48 66 49 67 50 69 51 71 52 68 53 52 54
REMARK SMILES IDX 53 55 58 56 54 57 55 58 57 59 59 60 56 61 6 62 7 63 8 64
REMARK SMILES IDX 9 65 10 66 28 67 11 68 27 69 12 71 13 72 14 73 15 74 16 76
REMARK SMILES IDX 17 77 26 78 18 79 21 80 19 81 20 82 22 83 23 84 24 85 25 86
REMARK H PARENT 76 23 50 34 28 70 15 75
REMARK Flexibility Score: inf
ROOT
ATOM      1  C   UNL A   1      41.863  20.040  27.131  1.00  0.00     0.275 C 
ENDROOT
BRANCH   1   2
ATOM      2  C   UNL A   1      42.714  20.644  26.010  1.00  0.00     0.275 C 
BRANCH   2   3
ATOM      3  O   UNL A   1      43.383  21.869  26.377  1.00  0.00    -0.458 OA
BRANCH   3   4
ATOM      4  C   UNL A   1      43.153  23.062  25.779  1.00  0.00     0.338 C 
ATOM      5  O   UNL A   1      43.141  23.183  24.557  1.00  0.00    -0.246 OA
BRANCH   4   6
ATOM      6  C   UNL A   1      42.646  24.181  26.609  1.00  0.00     0.060 A 
ATOM      7  C   UNL A   1      41.726  24.032  27.648  1.00  0.00     0.016 A 
ATOM      8  C   UNL A   1      43.228  25.439  26.377  1.00  0.00     0.016 A 
ATOM      9  C   UNL A   1      41.329  25.135  28.393  1.00  0.00     0.010 A 
ATOM     10  C   UNL A   1      42.867  26.540  27.149  1.00  0.00     0.010 A 
ATOM     11  C   UNL A   1      41.909  26.385  28.155  1.00  0.00    -0.014 A 
BRANCH  11  12
ATOM     12  C   UNL A   1      41.583  27.485  29.088  1.00  0.00     0.031 A 
ATOM     13  C   UNL A   1      42.431  27.464  30.355  1.00  0.00     0.074 A 
ATOM     14  C   UNL A   1      40.561  28.315  28.735  1.00  0.00     0.049 A 
ATOM     15  N   UNL A   1      42.150  27.894  31.547  1.00  0.00    -0.248 NA
ATOM     16  C   UNL A   1      43.757  26.793  30.311  1.00  0.00     0.031 C 
ATOM     17  C   UNL A   1      39.819  28.188  27.472  1.00  0.00     0.029 A 
ATOM     18  N   UNL A   1      39.934  29.395  29.327  1.00  0.00    -0.354 N 
ATOM     19  C   UNL A   1      43.311  27.735  32.326  1.00  0.00     0.074 A 
ATOM     20  C   UNL A   1      44.211  26.928  31.558  1.00  0.00     0.031 C 
ATOM     21  C   UNL A   1      38.824  29.090  27.415  1.00  0.00     0.029 A 
ATOM     22  C   UNL A   1      38.820  29.905  28.616  1.00  0.00     0.049 A 
ATOM     23  H   UNL A   1      40.239  29.782  30.181  1.00  0.00     0.167 HD
ATOM     24  C   UNL A   1      43.529  28.407  33.493  1.00  0.00     0.037 A 
ATOM     25  C   UNL A   1      37.926  30.881  28.967  1.00  0.00     0.037 A 
ATOM     26  C   UNL A   1      42.408  29.216  33.834  1.00  0.00     0.049 A 
ATOM     27  C   UNL A   1      38.413  31.459  30.236  1.00  0.00     0.074 A 
ATOM     28  C   UNL A   1      41.154  28.954  34.318  1.00  0.00     0.029 A 
ATOM     29  N   UNL A   1      42.456  30.527  33.432  1.00  0.00    -0.354 N 
ATOM     30  N   UNL A   1      39.457  32.227  30.358  1.00  0.00    -0.248 NA
ATOM     31  C   UNL A   1      37.726  31.108  31.486  1.00  0.00     0.031 C 
ATOM     32  C   UNL A   1      40.359  30.030  33.858  1.00  0.00     0.029 A 
ATOM     33  C   UNL A   1      41.171  30.926  33.156  1.00  0.00     0.049 A 
ATOM     34  H   UNL A   1      43.265  31.082  33.355  1.00  0.00     0.167 HD
ATOM     35  C   UNL A   1      39.724  32.166  31.707  1.00  0.00     0.074 A 
ATOM     36  C   UNL A   1      38.505  31.747  32.355  1.00  0.00     0.031 C 
ATOM     37  C   UNL A   1      40.992  31.932  32.130  1.00  0.00     0.037 A 
BRANCH  24  38
ATOM     38  C   UNL A   1      44.800  28.628  34.270  1.00  0.00     0.057 A 
ATOM     39  C   UNL A   1      45.171  27.880  35.392  1.00  0.00     0.134 A 
ATOM     40  C   UNL A   1      45.834  29.382  33.668  1.00  0.00     0.134 A 
ATOM     41  F   UNL A   1      44.299  27.086  36.028  1.00  0.00    -0.206 F 
ATOM     42  C   UNL A   1      46.495  27.836  35.851  1.00  0.00     0.040 A 
ATOM     43  C   UNL A   1      47.165  29.305  34.085  1.00  0.00     0.040 A 
ATOM     44  F   UNL A   1      45.590  30.160  32.601  1.00  0.00    -0.206 F 
ATOM     45  C   UNL A   1      47.503  28.515  35.174  1.00  0.00     0.006 A 
ENDBRANCH  24  38
BRANCH  25  46
ATOM     46  C   UNL A   1      36.599  31.396  28.438  1.00  0.00     0.057 A 
ATOM     47  C   UNL A   1      36.342  32.792  28.375  1.00  0.00     0.134 A 
ATOM     48  C   UNL A   1      35.502  30.619  28.044  1.00  0.00     0.134 A 
ATOM     49  F   UNL A   1      37.308  33.701  28.568  1.00  0.00    -0.206 F 
ATOM     50  C   UNL A   1      35.085  33.352  28.109  1.00  0.00     0.040 A 
ATOM     51  C   UNL A   1      34.238  31.166  27.749  1.00  0.00     0.040 A 
ATOM     52  F   UNL A   1      35.586  29.298  27.888  1.00  0.00    -0.206 F 
ATOM     53  C   UNL A   1      34.014  32.533  27.817  1.00  0.00     0.006 A 
ENDBRANCH  25  46
BRANCH  37  54
ATOM     54  C   UNL A   1      42.054  32.387  31.155  1.00  0.00     0.057 A 
ATOM     55  C   UNL A   1      42.715  31.519  30.275  1.00  0.00     0.134 A 
ATOM     56  C   UNL A   1      42.351  33.745  31.009  1.00  0.00     0.134 A 
ATOM     57  F   UNL A   1      42.481  30.209  30.314  1.00  0.00    -0.206 F 
ATOM     58  C   UNL A   1      43.629  31.957  29.314  1.00  0.00     0.040 A 
ATOM     59  C   UNL A   1      43.253  34.208  30.041  1.00  0.00     0.040 A 
ATOM     60  F   UNL A   1      41.765  34.654  31.805  1.00  0.00    -0.206 F 
ATOM     61  C   UNL A   1      43.897  33.313  29.189  1.00  0.00     0.006 A 
ENDBRANCH  37  54
ENDBRANCH  11  12
ENDBRANCH   4   6
ENDBRANCH   3   4
ENDBRANCH   2   3
ENDBRANCH   1   2
BRANCH   1  62
ATOM     62  O   UNL A   1      40.543  20.608  27.171  1.00  0.00    -0.457 OA
BRANCH  62  63
ATOM     63  C   UNL A   1      39.740  20.261  26.126  1.00  0.00     0.354 C 
ATOM     64  O   UNL A   1      39.726  19.168  25.573  1.00  0.00    -0.244 OA
BRANCH  63  65
ATOM     65  C   UNL A   1      38.882  21.356  25.762  1.00  0.00     0.126 A 
ATOM     66  C   UNL A   1      37.777  21.393  24.930  1.00  0.00     0.057 A 
ATOM     67  N   UNL A   1      39.003  22.610  26.323  1.00  0.00    -0.354 N 
ATOM     68  C   UNL A   1      37.044  22.556  25.290  1.00  0.00     0.106 A 
ATOM     69  C   UNL A   1      37.867  23.338  26.073  1.00  0.00     0.105 A 
ATOM     70  H   UNL A   1      39.785  22.934  26.826  1.00  0.00     0.166 HD
BRANCH  68  71
ATOM     71  S   UNL A   1      35.368  22.803  24.929  1.00  0.00     0.263 S 
ATOM     72  O   UNL A   1      34.997  24.017  25.631  1.00  0.00    -0.201 OA
ATOM     73  O   UNL A   1      35.276  22.696  23.494  1.00  0.00    -0.201 OA
BRANCH  71  74
ATOM     74  N   UNL A   1      34.455  21.528  25.619  1.00  0.00    -0.280 N 
ATOM     75  H   UNL A   1      34.327  21.447  26.592  1.00  0.00     0.180 HD
BRANCH  74  76
ATOM     76  C   UNL A   1      33.889  20.590  24.699  1.00  0.00     0.050 A 
ATOM     77  C   UNL A   1      32.832  21.011  23.889  1.00  0.00     0.030 A 
ATOM     78  C   UNL A   1      34.283  19.250  24.695  1.00  0.00     0.043 A 
ATOM     79  C   UNL A   1      32.153  20.089  23.093  1.00  0.00     0.042 A 
ATOM     80  C   UNL A   1      33.609  18.315  23.885  1.00  0.00     0.093 A 
ATOM     81  C   UNL A   1      32.544  18.753  23.098  1.00  0.00     0.135 A 
ATOM     82  F   UNL A   1      31.863  17.891  22.334  1.00  0.00    -0.206 F 
BRANCH  80  83
ATOM     83  C   UNL A   1      34.044  16.879  23.857  1.00  0.00     0.419 C 
ATOM     84  F   UNL A   1      35.114  16.659  24.671  1.00  0.00    -0.166 F 
ATOM     85  F   UNL A   1      33.067  16.037  24.296  1.00  0.00    -0.166 F 
ATOM     86  F   UNL A   1      34.402  16.412  22.631  1.00  0.00    -0.166 F 
ENDBRANCH  80  83
ENDBRANCH  74  76
ENDBRANCH  71  74
ENDBRANCH  68  71
ENDBRANCH  63  65
ENDBRANCH  62  63
ENDBRANCH   1  62
TORSDOF 15
ENDMDL
MODEL 2
REMARK VINA RESULT:     -11.8      4.924      9.144
REMARK SMILES O=C(OCCOC(=O)c1cc(S(=O)(=O)Nc2ccc(F)c(C(F)(F)F)c2)c[nH]1)c1ccc(-c2c3nc(c(-c4c(F)cccc4F)c4ccc([nH]4)c(-c4c(F)cccc4F)c4nc(c(-c5c(F)cccc5F)c5ccc2[nH]5)C=C4)C=C3)cc1
REMARK SMILES IDX 5 1 4 2 3 3 2 4 1 5 29 6 30 7 82 8 31 9 81 10 32 11 33 12
REMARK SMILES IDX 34 13 75 14 35 15 80 16 74 17 76 18 36 19 79 20 73 21 72 22
REMARK SMILES IDX 37 24 63 25 46 26 62 27 47 28 50 29 61 30 77 31 48 32 49 33
REMARK SMILES IDX 60 35 78 36 51 37 38 38 39 39 44 40 40 41 41 42 43 43 45 44
REMARK SMILES IDX 42 45 64 46 65 47 70 48 66 49 67 50 69 51 71 52 68 53 52 54
REMARK SMILES IDX 53 55 58 56 54 57 55 58 57 59 59 60 56 61 6 62 7 63 8 64
REMARK SMILES IDX 9 65 10 66 28 67 11 68 27 69 12 71 13 72 14 73 15 74 16 76
REMARK SMILES IDX 17 77 26 78 18 79 21 80 19 81 20 82 22 83 23 84 24 85 25 86
REMARK H PARENT 76 23 50 34 28 70 15 75
REMARK Flexibility Score: inf
ROOT
ATOM      1  C   UNL A   1      31.535  31.775  26.876  1.00  0.00     0.275 C 
ENDROOT
BRANCH   1   2
ATOM      2  C   UNL A   1      32.655  32.651  27.448  1.00  0.00     0.275 C 
BRANCH   2   3
ATOM      3  O   UNL A   1      32.266  34.023  27.677  1.00  0.00    -0.458 OA
BRANCH   3   4
ATOM      4  C   UNL A   1      32.933  34.867  28.499  1.00  0.00     0.338 C 
ATOM      5  O   UNL A   1      32.486  35.972  28.795  1.00  0.00    -0.246 OA
BRANCH   4   6
ATOM      6  C   UNL A   1      34.091  34.342  29.262  1.00  0.00     0.060 A 
ATOM      7  C   UNL A   1      33.982  33.605  30.443  1.00  0.00     0.016 A 
ATOM      8  C   UNL A   1      35.354  34.525  28.676  1.00  0.00     0.016 A 
ATOM      9  C   UNL A   1      35.123  33.126  31.075  1.00  0.00     0.010 A 
ATOM     10  C   UNL A   1      36.498  34.010  29.282  1.00  0.00     0.010 A 
ATOM     11  C   UNL A   1      36.378  33.315  30.489  1.00  0.00    -0.014 A 
BRANCH  11  12
ATOM     12  C   UNL A   1      37.537  32.637  31.109  1.00  0.00     0.031 A 
ATOM     13  C   UNL A   1      37.906  31.331  30.414  1.00  0.00     0.074 A 
ATOM     14  C   UNL A   1      38.073  33.217  32.219  1.00  0.00     0.049 A 
ATOM     15  N   UNL A   1      38.473  30.267  30.897  1.00  0.00    -0.248 NA
ATOM     16  C   UNL A   1      37.513  31.147  28.992  1.00  0.00     0.031 C 
ATOM     17  C   UNL A   1      37.584  34.483  32.784  1.00  0.00     0.029 A 
ATOM     18  N   UNL A   1      39.094  32.891  33.092  1.00  0.00    -0.354 N 
ATOM     19  C   UNL A   1      38.685  29.389  29.819  1.00  0.00     0.074 A 
ATOM     20  C   UNL A   1      37.951  29.919  28.709  1.00  0.00     0.031 C 
ATOM     21  C   UNL A   1      38.247  34.786  33.913  1.00  0.00     0.029 A 
ATOM     22  C   UNL A   1      39.240  33.768  34.197  1.00  0.00     0.049 A 
ATOM     23  H   UNL A   1      39.676  32.108  32.958  1.00  0.00     0.167 HD
ATOM     24  C   UNL A   1      39.580  28.360  29.854  1.00  0.00     0.037 A 
ATOM     25  C   UNL A   1      40.066  33.677  35.285  1.00  0.00     0.037 A 
ATOM     26  C   UNL A   1      40.197  28.263  31.134  1.00  0.00     0.049 A 
ATOM     27  C   UNL A   1      40.941  32.510  35.053  1.00  0.00     0.074 A 
ATOM     28  C   UNL A   1      39.780  27.832  32.366  1.00  0.00     0.029 A 
ATOM     29  N   UNL A   1      41.401  28.905  31.282  1.00  0.00    -0.354 N 
ATOM     30  N   UNL A   1      41.910  32.461  34.185  1.00  0.00    -0.248 NA
ATOM     31  C   UNL A   1      40.684  31.270  35.797  1.00  0.00     0.031 C 
ATOM     32  C   UNL A   1      40.579  28.548  33.287  1.00  0.00     0.029 A 
ATOM     33  C   UNL A   1      41.482  29.347  32.579  1.00  0.00     0.049 A 
ATOM     34  H   UNL A   1      42.083  29.028  30.583  1.00  0.00     0.167 HD
ATOM     35  C   UNL A   1      42.140  31.109  34.060  1.00  0.00     0.074 A 
ATOM     36  C   UNL A   1      41.606  30.485  35.247  1.00  0.00     0.031 C 
ATOM     37  C   UNL A   1      42.238  30.557  32.825  1.00  0.00     0.037 A 
BRANCH  24  38
ATOM     38  C   UNL A   1      40.180  27.548  28.738  1.00  0.00     0.057 A 
ATOM     39  C   UNL A   1      39.771  26.252  28.405  1.00  0.00     0.134 A 
ATOM     40  C   UNL A   1      40.950  28.217  27.758  1.00  0.00     0.134 A 
ATOM     41  F   UNL A   1      38.999  25.526  29.224  1.00  0.00    -0.206 F 
ATOM     42  C   UNL A   1      40.057  25.681  27.157  1.00  0.00     0.040 A 
ATOM     43  C   UNL A   1      41.195  27.679  26.493  1.00  0.00     0.040 A 
ATOM     44  F   UNL A   1      41.420  29.456  27.977  1.00  0.00    -0.206 F 
ATOM     45  C   UNL A   1      40.733  26.408  26.183  1.00  0.00     0.006 A 
ENDBRANCH  24  38
BRANCH  25  46
ATOM     46  C   UNL A   1      40.207  34.391  36.618  1.00  0.00     0.057 A 
ATOM     47  C   UNL A   1      39.131  34.401  37.547  1.00  0.00     0.134 A 
ATOM     48  C   UNL A   1      41.306  35.146  37.045  1.00  0.00     0.134 A 
ATOM     49  F   UNL A   1      38.052  33.622  37.392  1.00  0.00    -0.206 F 
ATOM     50  C   UNL A   1      39.088  35.204  38.695  1.00  0.00     0.040 A 
ATOM     51  C   UNL A   1      41.289  35.940  38.209  1.00  0.00     0.040 A 
ATOM     52  F   UNL A   1      42.468  35.142  36.392  1.00  0.00    -0.206 F 
ATOM     53  C   UNL A   1      40.166  36.001  39.020  1.00  0.00     0.006 A 
ENDBRANCH  25  46
BRANCH  37  54
ATOM     54  C   UNL A   1      42.718  31.520  31.763  1.00  0.00     0.057 A 
ATOM     55  C   UNL A   1      44.070  31.821  31.550  1.00  0.00     0.134 A 
ATOM     56  C   UNL A   1      41.818  32.080  30.851  1.00  0.00     0.134 A 
ATOM     57  F   UNL A   1      45.009  31.314  32.346  1.00  0.00    -0.206 F 
ATOM     58  C   UNL A   1      44.516  32.641  30.509  1.00  0.00     0.040 A 
ATOM     59  C   UNL A   1      42.245  32.892  29.790  1.00  0.00     0.040 A 
ATOM     60  F   UNL A   1      40.503  31.846  30.971  1.00  0.00    -0.206 F 
ATOM     61  C   UNL A   1      43.598  33.175  29.617  1.00  0.00     0.006 A 
ENDBRANCH  37  54
ENDBRANCH  11  12
ENDBRANCH   4   6
ENDBRANCH   3   4
ENDBRANCH   2   3
ENDBRANCH   1   2
BRANCH   1  62
ATOM     62  O   UNL A   1      32.040  30.768  25.983  1.00  0.00    -0.457 OA
BRANCH  62  63
ATOM     63  C   UNL A   1      32.170  29.529  26.535  1.00  0.00     0.354 C 
ATOM     64  O   UNL A   1      31.713  29.181  27.617  1.00  0.00    -0.244 OA
BRANCH  63  65
ATOM     65  C   UNL A   1      32.908  28.661  25.659  1.00  0.00     0.126 A 
ATOM     66  C   UNL A   1      32.966  27.280  25.603  1.00  0.00     0.057 A 
ATOM     67  N   UNL A   1      33.653  29.135  24.599  1.00  0.00    -0.354 N 
ATOM     68  C   UNL A   1      33.436  26.950  24.303  1.00  0.00     0.106 A 
ATOM     69  C   UNL A   1      33.947  28.104  23.744  1.00  0.00     0.105 A 
ATOM     70  H   UNL A   1      33.931  30.072  24.476  1.00  0.00     0.166 HD
BRANCH  68  71
ATOM     71  S   UNL A   1      33.217  25.408  23.547  1.00  0.00     0.263 S 
ATOM     72  O   UNL A   1      34.414  25.192  22.756  1.00  0.00    -0.201 OA
ATOM     73  O   UNL A   1      32.842  24.518  24.618  1.00  0.00    -0.201 OA
BRANCH  71  74
ATOM     74  N   UNL A   1      31.905  25.505  22.450  1.00  0.00    -0.280 N 
ATOM     75  H   UNL A   1      31.911  25.031  21.587  1.00  0.00     0.180 HD
BRANCH  74  76
ATOM     76  C   UNL A   1      30.800  26.316  22.860  1.00  0.00     0.050 A 
ATOM     77  C   UNL A   1      29.823  25.740  23.676  1.00  0.00     0.030 A 
ATOM     78  C   UNL A   1      30.620  27.606  22.359  1.00  0.00     0.043 A 
ATOM     79  C   UNL A   1      28.656  26.445  23.971  1.00  0.00     0.042 A 
ATOM     80  C   UNL A   1      29.449  28.329  22.661  1.00  0.00     0.093 A 
ATOM     81  C   UNL A   1      28.478  27.728  23.462  1.00  0.00     0.135 A 
ATOM     82  F   UNL A   1      27.341  28.372  23.751  1.00  0.00    -0.206 F 
BRANCH  80  83
ATOM     83  C   UNL A   1      29.262  29.726  22.146  1.00  0.00     0.419 C 
ATOM     84  F   UNL A   1      30.309  30.123  21.371  1.00  0.00    -0.166 F 
ATOM     85  F   UNL A   1      28.156  29.839  21.357  1.00  0.00    -0.166 F 
ATOM     86  F   UNL A   1      29.122  30.678  23.107  1.00  0.00    -0.166 F 
ENDBRANCH  80  83
ENDBRANCH  74  76
ENDBRANCH  71  74
ENDBRANCH  68  71
ENDBRANCH  63  65
ENDBRANCH  62  63
ENDBRANCH   1  62
TORSDOF 15
ENDMDL
MODEL 3
REMARK VINA RESULT:     -11.8      3.515      7.765
REMARK SMILES O=C(OCCOC(=O)c1cc(S(=O)(=O)Nc2ccc(F)c(C(F)(F)F)c2)c[nH]1)c1ccc(-c2c3nc(c(-c4c(F)cccc4F)c4ccc([nH]4)c(-c4c(F)cccc4F)c4nc(c(-c5c(F)cccc5F)c5ccc2[nH]5)C=C4)C=C3)cc1
REMARK SMILES IDX 5 1 4 2 3 3 2 4 1 5 29 6 30 7 82 8 31 9 81 10 32 11 33 12
REMARK SMILES IDX 34 13 75 14 35 15 80 16 74 17 76 18 36 19 79 20 73 21 72 22
REMARK SMILES IDX 37 24 63 25 46 26 62 27 47 28 50 29 61 30 77 31 48 32 49 33
REMARK SMILES IDX 60 35 78 36 51 37 38 38 39 39 44 40 40 41 41 42 43 43 45 44
REMARK SMILES IDX 42 45 64 46 65 47 70 48 66 49 67 50 69 51 71 52 68 53 52 54
REMARK SMILES IDX 53 55 58 56 54 57 55 58 57 59 59 60 56 61 6 62 7 63 8 64
REMARK SMILES IDX 9 65 10 66 28 67 11 68 27 69 12 71 13 72 14 73 15 74 16 76
REMARK SMILES IDX 17 77 26 78 18 79 21 80 19 81 20 82 22 83 23 84 24 85 25 86
REMARK H PARENT 76 23 50 34 28 70 15 75
REMARK Flexibility Score: inf
ROOT
ATOM      1  C   UNL A   1      37.993  20.128  25.001  1.00  0.00     0.275 C 
ENDROOT
BRANCH   1   2
ATOM      2  C   UNL A   1      39.318  20.371  25.730  1.00  0.00     0.275 C 
BRANCH   2   3
ATOM      3  O   UNL A   1      40.167  19.205  25.806  1.00  0.00    -0.458 OA
BRANCH   3   4
ATOM      4  C   UNL A   1      41.492  19.255  26.081  1.00  0.00     0.338 C 
ATOM      5  O   UNL A   1      42.232  18.295  25.881  1.00  0.00    -0.246 OA
BRANCH   4   6
ATOM      6  C   UNL A   1      42.103  20.572  26.377  1.00  0.00     0.060 A 
ATOM      7  C   UNL A   1      42.579  21.452  25.403  1.00  0.00     0.016 A 
ATOM      8  C   UNL A   1      42.089  20.974  27.723  1.00  0.00     0.016 A 
ATOM      9  C   UNL A   1      43.110  22.682  25.772  1.00  0.00     0.010 A 
ATOM     10  C   UNL A   1      42.580  22.223  28.094  1.00  0.00     0.010 A 
ATOM     11  C   UNL A   1      43.097  23.074  27.113  1.00  0.00    -0.014 A 
BRANCH  11  12
ATOM     12  C   UNL A   1      43.511  24.459  27.430  1.00  0.00     0.031 A 
ATOM     13  C   UNL A   1      42.331  25.409  27.605  1.00  0.00     0.074 A 
ATOM     14  C   UNL A   1      44.849  24.712  27.467  1.00  0.00     0.049 A 
ATOM     15  N   UNL A   1      42.261  26.688  27.400  1.00  0.00    -0.248 NA
ATOM     16  C   UNL A   1      41.012  24.839  27.988  1.00  0.00     0.031 C 
ATOM     17  C   UNL A   1      45.872  23.678  27.253  1.00  0.00     0.029 A 
ATOM     18  N   UNL A   1      45.622  25.840  27.672  1.00  0.00    -0.354 N 
ATOM     19  C   UNL A   1      40.980  27.101  27.812  1.00  0.00     0.074 A 
ATOM     20  C   UNL A   1      40.216  25.909  28.027  1.00  0.00     0.031 C 
ATOM     21  C   UNL A   1      47.103  24.218  27.277  1.00  0.00     0.029 A 
ATOM     22  C   UNL A   1      47.018  25.646  27.521  1.00  0.00     0.049 A 
ATOM     23  H   UNL A   1      45.232  26.714  27.906  1.00  0.00     0.167 HD
ATOM     24  C   UNL A   1      40.669  28.396  28.107  1.00  0.00     0.037 A 
ATOM     25  C   UNL A   1      48.039  26.558  27.547  1.00  0.00     0.037 A 
ATOM     26  C   UNL A   1      41.780  29.256  27.871  1.00  0.00     0.049 A 
ATOM     27  C   UNL A   1      47.435  27.853  27.919  1.00  0.00     0.074 A 
ATOM     28  C   UNL A   1      42.385  29.746  26.745  1.00  0.00     0.029 A 
ATOM     29  N   UNL A   1      42.581  29.529  28.951  1.00  0.00    -0.354 N 
ATOM     30  N   UNL A   1      46.990  28.162  29.103  1.00  0.00    -0.248 NA
ATOM     31  C   UNL A   1      47.246  28.873  26.878  1.00  0.00     0.031 C 
ATOM     32  C   UNL A   1      43.723  29.989  27.133  1.00  0.00     0.029 A 
ATOM     33  C   UNL A   1      43.865  29.684  28.490  1.00  0.00     0.049 A 
ATOM     34  H   UNL A   1      42.288  29.600  29.888  1.00  0.00     0.167 HD
ATOM     35  C   UNL A   1      46.192  29.256  28.853  1.00  0.00     0.074 A 
ATOM     36  C   UNL A   1      46.623  29.807  27.592  1.00  0.00     0.031 C 
ATOM     37  C   UNL A   1      44.943  29.308  29.381  1.00  0.00     0.037 A 
BRANCH  24  38
ATOM     38  C   UNL A   1      39.501  28.973  28.862  1.00  0.00     0.057 A 
ATOM     39  C   UNL A   1      38.370  29.526  28.251  1.00  0.00     0.134 A 
ATOM     40  C   UNL A   1      39.360  28.650  30.232  1.00  0.00     0.134 A 
ATOM     41  F   UNL A   1      38.355  29.833  26.947  1.00  0.00    -0.206 F 
ATOM     42  C   UNL A   1      37.160  29.692  28.941  1.00  0.00     0.040 A 
ATOM     43  C   UNL A   1      38.147  28.763  30.913  1.00  0.00     0.040 A 
ATOM     44  F   UNL A   1      40.387  28.138  30.930  1.00  0.00    -0.206 F 
ATOM     45  C   UNL A   1      37.034  29.273  30.261  1.00  0.00     0.006 A 
ENDBRANCH  24  38
BRANCH  25  46
ATOM     46  C   UNL A   1      49.520  26.557  27.212  1.00  0.00     0.057 A 
ATOM     47  C   UNL A   1      49.962  26.215  25.906  1.00  0.00     0.134 A 
ATOM     48  C   UNL A   1      50.574  26.800  28.101  1.00  0.00     0.134 A 
ATOM     49  F   UNL A   1      49.111  26.091  24.878  1.00  0.00    -0.206 F 
ATOM     50  C   UNL A   1      51.300  25.978  25.563  1.00  0.00     0.040 A 
ATOM     51  C   UNL A   1      51.927  26.591  27.766  1.00  0.00     0.040 A 
ATOM     52  F   UNL A   1      50.373  27.281  29.328  1.00  0.00    -0.206 F 
ATOM     53  C   UNL A   1      52.293  26.144  26.506  1.00  0.00     0.006 A 
ENDBRANCH  25  46
BRANCH  37  54
ATOM     54  C   UNL A   1      44.786  28.517  30.659  1.00  0.00     0.057 A 
ATOM     55  C   UNL A   1      45.155  29.008  31.919  1.00  0.00     0.134 A 
ATOM     56  C   UNL A   1      44.147  27.273  30.652  1.00  0.00     0.134 A 
ATOM     57  F   UNL A   1      45.744  30.196  32.036  1.00  0.00    -0.206 F 
ATOM     58  C   UNL A   1      44.924  28.310  33.108  1.00  0.00     0.040 A 
ATOM     59  C   UNL A   1      43.892  26.563  31.834  1.00  0.00     0.040 A 
ATOM     60  F   UNL A   1      43.754  26.722  29.494  1.00  0.00    -0.206 F 
ATOM     61  C   UNL A   1      44.282  27.081  33.068  1.00  0.00     0.006 A 
ENDBRANCH  37  54
ENDBRANCH  11  12
ENDBRANCH   4   6
ENDBRANCH   3   4
ENDBRANCH   2   3
ENDBRANCH   1   2
BRANCH   1  62
ATOM     62  O   UNL A   1      37.419  21.349  24.505  1.00  0.00    -0.457 OA
BRANCH  62  63
ATOM     63  C   UNL A   1      36.297  21.760  25.159  1.00  0.00     0.354 C 
ATOM     64  O   UNL A   1      35.851  21.264  26.186  1.00  0.00    -0.244 OA
BRANCH  63  65
ATOM     65  C   UNL A   1      35.702  22.883  24.487  1.00  0.00     0.126 A 
ATOM     66  C   UNL A   1      35.142  22.981  23.226  1.00  0.00     0.057 A 
ATOM     67  N   UNL A   1      35.509  24.100  25.106  1.00  0.00    -0.354 N 
ATOM     68  C   UNL A   1      34.302  24.128  23.248  1.00  0.00     0.106 A 
ATOM     69  C   UNL A   1      34.624  24.853  24.377  1.00  0.00     0.105 A 
ATOM     70  H   UNL A   1      35.941  24.386  25.944  1.00  0.00     0.166 HD
BRANCH  68  71
ATOM     71  S   UNL A   1      33.010  24.413  22.131  1.00  0.00     0.263 S 
ATOM     72  O   UNL A   1      32.747  25.838  22.201  1.00  0.00    -0.201 OA
ATOM     73  O   UNL A   1      33.427  23.775  20.907  1.00  0.00    -0.201 OA
BRANCH  71  74
ATOM     74  N   UNL A   1      31.601  23.617  22.694  1.00  0.00    -0.280 N 
ATOM     75  H   UNL A   1      30.697  23.919  22.444  1.00  0.00     0.180 HD
BRANCH  74  76
ATOM     76  C   UNL A   1      31.812  22.490  23.549  1.00  0.00     0.050 A 
ATOM     77  C   UNL A   1      31.914  22.712  24.924  1.00  0.00     0.030 A 
ATOM     78  C   UNL A   1      32.046  21.216  23.027  1.00  0.00     0.043 A 
ATOM     79  C   UNL A   1      32.273  21.666  25.775  1.00  0.00     0.042 A 
ATOM     80  C   UNL A   1      32.398  20.152  23.881  1.00  0.00     0.093 A 
ATOM     81  C   UNL A   1      32.512  20.400  25.248  1.00  0.00     0.135 A 
ATOM     82  F   UNL A   1      32.869  19.422  26.089  1.00  0.00    -0.206 F 
BRANCH  80  83
ATOM     83  C   UNL A   1      32.625  18.776  23.328  1.00  0.00     0.419 C 
ATOM     84  F   UNL A   1      31.801  17.857  23.903  1.00  0.00    -0.166 F 
ATOM     85  F   UNL A   1      32.372  18.711  21.990  1.00  0.00    -0.166 F 
ATOM     86  F   UNL A   1      33.889  18.298  23.482  1.00  0.00    -0.166 F 
ENDBRANCH  80  83
ENDBRANCH  74  76
ENDBRANCH  71  74
ENDBRANCH  68  71
ENDBRANCH  63  65
ENDBRANCH  62  63
ENDBRANCH   1  62
TORSDOF 15
ENDMDL
