MODEL 1
REMARK VINA RESULT:     -13.7      0.000      0.000
REMARK SMILES O=C(OCCOC(=O)[C@H]1CN(C(=O)C[C@H]2NC(=O)c3ccccc32)C[C@@H]1c1ccc(F)cc1)c1ccc(-c2c3nc(c(-c4c(F)cccc4F)c4ccc([nH]4)c(-c4c(F)cccc4F)c4nc(c(-c5c(F)cccc5F)c5ccc2[nH]5)C=C4)C=C3)cc1
REMARK SMILES IDX 5 1 4 2 3 3 2 4 1 5 34 6 35 7 87 8 36 9 86 10 37 11 38 12
REMARK SMILES IDX 39 13 80 14 40 15 85 16 79 17 81 18 41 19 84 20 78 21 77 22
REMARK SMILES IDX 42 24 68 25 51 26 67 27 52 28 55 29 66 30 82 31 53 32 54 33
REMARK SMILES IDX 65 35 83 36 56 37 43 38 44 39 49 40 45 41 46 42 48 43 50 44
REMARK SMILES IDX 47 45 69 46 70 47 75 48 71 49 72 50 74 51 76 52 73 53 57 54
REMARK SMILES IDX 58 55 63 56 59 57 60 58 62 59 64 60 61 61 6 62 7 63 8 64
REMARK SMILES IDX 9 65 10 66 26 67 11 68 25 69 27 70 28 71 33 72 29 73 32 74
REMARK SMILES IDX 30 75 31 76 12 77 13 78 14 79 15 80 16 81 24 82 17 83 19 85
REMARK SMILES IDX 23 86 18 87 20 88 22 89 21 90
REMARK H PARENT 81 23 55 34 16 84
REMARK Flexibility Score: inf
ROOT
ATOM      1  C   UNL A   1      32.258  30.989  26.250  1.00  0.00     0.274 C 
ENDROOT
BRANCH   1   2
ATOM      2  C   UNL A   1      31.403  32.100  26.878  1.00  0.00     0.275 C 
BRANCH   2   3
ATOM      3  O   UNL A   1      32.053  33.372  27.006  1.00  0.00    -0.458 OA
BRANCH   3   4
ATOM      4  C   UNL A   1      32.895  33.828  27.959  1.00  0.00     0.338 C 
ATOM      5  O   UNL A   1      32.632  34.900  28.506  1.00  0.00    -0.246 OA
BRANCH   4   6
ATOM      6  C   UNL A   1      34.213  33.187  28.293  1.00  0.00     0.060 A 
ATOM      7  C   UNL A   1      35.489  33.749  28.174  1.00  0.00     0.016 A 
ATOM      8  C   UNL A   1      34.126  31.932  28.907  1.00  0.00     0.016 A 
ATOM      9  C   UNL A   1      36.604  33.181  28.802  1.00  0.00     0.010 A 
ATOM     10  C   UNL A   1      35.225  31.381  29.564  1.00  0.00     0.010 A 
ATOM     11  C   UNL A   1      36.474  32.010  29.538  1.00  0.00    -0.014 A 
BRANCH  11  12
ATOM     12  C   UNL A   1      37.661  31.327  30.104  1.00  0.00     0.031 A 
ATOM     13  C   UNL A   1      38.017  31.662  31.524  1.00  0.00     0.074 A 
ATOM     14  C   UNL A   1      38.394  30.440  29.397  1.00  0.00     0.049 A 
ATOM     15  N   UNL A   1      39.032  31.265  32.240  1.00  0.00    -0.248 NA
ATOM     16  C   UNL A   1      37.111  32.589  32.233  1.00  0.00     0.031 C 
ATOM     17  C   UNL A   1      38.137  30.014  28.019  1.00  0.00     0.029 A 
ATOM     18  N   UNL A   1      39.528  29.743  29.741  1.00  0.00    -0.354 N 
ATOM     19  C   UNL A   1      38.874  31.892  33.468  1.00  0.00     0.074 A 
ATOM     20  C   UNL A   1      37.759  32.797  33.363  1.00  0.00     0.031 C 
ATOM     21  C   UNL A   1      39.103  29.164  27.625  1.00  0.00     0.029 A 
ATOM     22  C   UNL A   1      40.038  28.964  28.727  1.00  0.00     0.049 A 
ATOM     23  H   UNL A   1      39.940  29.798  30.634  1.00  0.00     0.167 HD
ATOM     24  C   UNL A   1      39.535  31.662  34.621  1.00  0.00     0.037 A 
ATOM     25  C   UNL A   1      41.128  28.170  28.703  1.00  0.00     0.037 A 
ATOM     26  C   UNL A   1      40.594  30.710  34.742  1.00  0.00     0.049 A 
ATOM     27  C   UNL A   1      41.913  27.995  29.980  1.00  0.00     0.074 A 
ATOM     28  C   UNL A   1      41.306  30.360  35.871  1.00  0.00     0.029 A 
ATOM     29  N   UNL A   1      41.082  29.948  33.692  1.00  0.00    -0.354 N 
ATOM     30  N   UNL A   1      41.700  28.534  31.157  1.00  0.00    -0.248 NA
ATOM     31  C   UNL A   1      43.062  27.079  29.942  1.00  0.00     0.031 C 
ATOM     32  C   UNL A   1      42.263  29.417  35.493  1.00  0.00     0.029 A 
ATOM     33  C   UNL A   1      42.107  29.140  34.142  1.00  0.00     0.049 A 
ATOM     34  H   UNL A   1      40.749  29.978  32.766  1.00  0.00     0.167 HD
ATOM     35  C   UNL A   1      42.652  27.987  32.007  1.00  0.00     0.074 A 
ATOM     36  C   UNL A   1      43.444  27.072  31.212  1.00  0.00     0.031 C 
ATOM     37  C   UNL A   1      42.851  28.214  33.328  1.00  0.00     0.037 A 
BRANCH  24  38
ATOM     38  C   UNL A   1      39.082  32.416  35.830  1.00  0.00     0.057 A 
ATOM     39  C   UNL A   1      38.212  31.830  36.755  1.00  0.00     0.134 A 
ATOM     40  C   UNL A   1      39.511  33.729  36.078  1.00  0.00     0.134 A 
ATOM     41  F   UNL A   1      37.777  30.574  36.579  1.00  0.00    -0.206 F 
ATOM     42  C   UNL A   1      37.775  32.528  37.880  1.00  0.00     0.040 A 
ATOM     43  C   UNL A   1      39.104  34.425  37.216  1.00  0.00     0.040 A 
ATOM     44  F   UNL A   1      40.374  34.332  35.246  1.00  0.00    -0.206 F 
ATOM     45  C   UNL A   1      38.224  33.827  38.115  1.00  0.00     0.006 A 
ENDBRANCH  24  38
BRANCH  25  46
ATOM     46  C   UNL A   1      41.521  27.442  27.465  1.00  0.00     0.057 A 
ATOM     47  C   UNL A   1      42.284  28.058  26.465  1.00  0.00     0.134 A 
ATOM     48  C   UNL A   1      41.180  26.096  27.267  1.00  0.00     0.134 A 
ATOM     49  F   UNL A   1      42.637  29.347  26.581  1.00  0.00    -0.206 F 
ATOM     50  C   UNL A   1      42.700  27.364  25.324  1.00  0.00     0.040 A 
ATOM     51  C   UNL A   1      41.607  25.384  26.143  1.00  0.00     0.040 A 
ATOM     52  F   UNL A   1      40.464  25.441  28.192  1.00  0.00    -0.206 F 
ATOM     53  C   UNL A   1      42.370  26.020  25.166  1.00  0.00     0.006 A 
ENDBRANCH  25  46
BRANCH  37  54
ATOM     54  C   UNL A   1      43.934  27.444  34.019  1.00  0.00     0.057 A 
ATOM     55  C   UNL A   1      43.628  26.266  34.714  1.00  0.00     0.134 A 
ATOM     56  C   UNL A   1      45.238  27.939  34.118  1.00  0.00     0.134 A 
ATOM     57  F   UNL A   1      42.390  25.751  34.672  1.00  0.00    -0.206 F 
ATOM     58  C   UNL A   1      44.576  25.626  35.512  1.00  0.00     0.040 A 
ATOM     59  C   UNL A   1      46.203  27.290  34.887  1.00  0.00     0.040 A 
ATOM     60  F   UNL A   1      45.591  29.060  33.469  1.00  0.00    -0.206 F 
ATOM     61  C   UNL A   1      45.867  26.140  35.600  1.00  0.00     0.006 A 
ENDBRANCH  37  54
ENDBRANCH  11  12
ENDBRANCH   4   6
ENDBRANCH   3   4
ENDBRANCH   2   3
ENDBRANCH   1   2
BRANCH   1  62
ATOM     62  O   UNL A   1      31.733  29.651  26.380  1.00  0.00    -0.462 OA
BRANCH  62  63
ATOM     63  C   UNL A   1      31.862  28.849  25.281  1.00  0.00     0.311 C 
ATOM     64  O   UNL A   1      32.457  27.781  25.294  1.00  0.00    -0.252 OA
BRANCH  63  65
ATOM     65  C   UNL A   1      31.285  29.516  24.031  1.00  0.00     0.128 C 
ATOM     66  C   UNL A   1      31.823  28.700  22.878  1.00  0.00     0.135 C 
ATOM     67  C   UNL A   1      29.758  29.376  23.826  1.00  0.00     0.055 C 
ATOM     68  N   UNL A   1      30.886  27.589  22.778  1.00  0.00    -0.341 N 
ATOM     69  C   UNL A   1      29.580  27.957  23.279  1.00  0.00     0.128 C 
BRANCH  67  70
ATOM     70  C   UNL A   1      29.074  30.411  22.923  1.00  0.00    -0.042 A 
ATOM     71  C   UNL A   1      28.990  31.742  23.378  1.00  0.00     0.007 A 
ATOM     72  C   UNL A   1      28.561  30.128  21.645  1.00  0.00     0.007 A 
ATOM     73  C   UNL A   1      28.460  32.755  22.571  1.00  0.00     0.039 A 
ATOM     74  C   UNL A   1      28.032  31.142  20.836  1.00  0.00     0.039 A 
ATOM     75  C   UNL A   1      27.994  32.445  21.301  1.00  0.00     0.123 A 
ATOM     76  F   UNL A   1      27.502  33.416  20.521  1.00  0.00    -0.207 F 
ENDBRANCH  67  70
BRANCH  68  77
ATOM     77  C   UNL A   1      31.177  26.265  22.546  1.00  0.00     0.225 C 
ATOM     78  O   UNL A   1      31.915  25.893  21.636  1.00  0.00    -0.275 OA
BRANCH  77  79
ATOM     79  C   UNL A   1      30.574  25.281  23.511  1.00  0.00     0.130 C 
BRANCH  79  80
ATOM     80  C   UNL A   1      31.706  24.763  24.388  1.00  0.00     0.123 C 
ATOM     81  N   UNL A   1      31.396  24.803  25.810  1.00  0.00    -0.345 N 
ATOM     82  C   UNL A   1      31.982  23.311  24.175  1.00  0.00    -0.012 A 
ATOM     83  C   UNL A   1      31.535  23.585  26.433  1.00  0.00     0.252 C 
ATOM     84  H   UNL A   1      31.116  25.622  26.279  1.00  0.00     0.164 HD
ATOM     85  C   UNL A   1      31.891  22.624  25.384  1.00  0.00     0.045 A 
ATOM     86  C   UNL A   1      32.311  22.651  23.005  1.00  0.00     0.007 A 
ATOM     87  O   UNL A   1      31.404  23.366  27.615  1.00  0.00    -0.269 OA
ATOM     88  C   UNL A   1      32.119  21.271  25.486  1.00  0.00     0.014 A 
ATOM     89  C   UNL A   1      32.537  21.276  23.081  1.00  0.00     0.000 A 
ATOM     90  C   UNL A   1      32.443  20.593  24.310  1.00  0.00     0.001 A 
ENDBRANCH  79  80
ENDBRANCH  77  79
ENDBRANCH  68  77
ENDBRANCH  63  65
ENDBRANCH  62  63
ENDBRANCH   1  62
TORSDOF 15
ENDMDL
MODEL 2
REMARK VINA RESULT:     -13.3      4.625     10.013
REMARK SMILES O=C(OCCOC(=O)[C@H]1CN(C(=O)C[C@H]2NC(=O)c3ccccc32)C[C@@H]1c1ccc(F)cc1)c1ccc(-c2c3nc(c(-c4c(F)cccc4F)c4ccc([nH]4)c(-c4c(F)cccc4F)c4nc(c(-c5c(F)cccc5F)c5ccc2[nH]5)C=C4)C=C3)cc1
REMARK SMILES IDX 5 1 4 2 3 3 2 4 1 5 34 6 35 7 87 8 36 9 86 10 37 11 38 12
REMARK SMILES IDX 39 13 80 14 40 15 85 16 79 17 81 18 41 19 84 20 78 21 77 22
REMARK SMILES IDX 42 24 68 25 51 26 67 27 52 28 55 29 66 30 82 31 53 32 54 33
REMARK SMILES IDX 65 35 83 36 56 37 43 38 44 39 49 40 45 41 46 42 48 43 50 44
REMARK SMILES IDX 47 45 69 46 70 47 75 48 71 49 72 50 74 51 76 52 73 53 57 54
REMARK SMILES IDX 58 55 63 56 59 57 60 58 62 59 64 60 61 61 6 62 7 63 8 64
REMARK SMILES IDX 9 65 10 66 26 67 11 68 25 69 27 70 28 71 33 72 29 73 32 74
REMARK SMILES IDX 30 75 31 76 12 77 13 78 14 79 15 80 16 81 24 82 17 83 19 85
REMARK SMILES IDX 23 86 18 87 20 88 22 89 21 90
REMARK H PARENT 81 23 55 34 16 84
REMARK Flexibility Score: inf
ROOT
ATOM      1  C   UNL A   1      38.406  21.157  25.551  1.00  0.00     0.274 C 
ENDROOT
BRANCH   1   2
ATOM      2  C   UNL A   1      38.882  19.795  25.025  1.00  0.00     0.275 C 
BRANCH   2   3
ATOM      3  O   UNL A   1      39.897  19.157  25.813  1.00  0.00    -0.458 OA
BRANCH   3   4
ATOM      4  C   UNL A   1      41.208  19.453  25.948  1.00  0.00     0.338 C 
ATOM      5  O   UNL A   1      42.027  18.541  25.838  1.00  0.00    -0.246 OA
BRANCH   4   6
ATOM      6  C   UNL A   1      41.726  20.799  26.376  1.00  0.00     0.060 A 
ATOM      7  C   UNL A   1      42.294  21.790  25.569  1.00  0.00     0.016 A 
ATOM      8  C   UNL A   1      41.493  21.126  27.717  1.00  0.00     0.016 A 
ATOM      9  C   UNL A   1      42.449  23.106  26.021  1.00  0.00     0.010 A 
ATOM     10  C   UNL A   1      41.613  22.442  28.161  1.00  0.00     0.010 A 
ATOM     11  C   UNL A   1      42.071  23.454  27.311  1.00  0.00    -0.014 A 
BRANCH  11  12
ATOM     12  C   UNL A   1      42.343  24.808  27.848  1.00  0.00     0.031 A 
ATOM     13  C   UNL A   1      43.771  25.123  28.191  1.00  0.00     0.074 A 
ATOM     14  C   UNL A   1      41.370  25.729  28.022  1.00  0.00     0.049 A 
ATOM     15  N   UNL A   1      44.277  26.195  28.733  1.00  0.00    -0.248 NA
ATOM     16  C   UNL A   1      44.768  24.073  27.898  1.00  0.00     0.031 C 
ATOM     17  C   UNL A   1      39.951  25.554  27.705  1.00  0.00     0.029 A 
ATOM     18  N   UNL A   1      41.429  27.005  28.529  1.00  0.00    -0.354 N 
ATOM     19  C   UNL A   1      45.637  25.940  28.836  1.00  0.00     0.074 A 
ATOM     20  C   UNL A   1      45.862  24.575  28.438  1.00  0.00     0.031 C 
ATOM     21  C   UNL A   1      39.272  26.660  28.060  1.00  0.00     0.029 A 
ATOM     22  C   UNL A   1      40.207  27.635  28.610  1.00  0.00     0.049 A 
ATOM     23  H   UNL A   1      42.271  27.431  28.812  1.00  0.00     0.167 HD
ATOM     24  C   UNL A   1      46.633  26.797  29.138  1.00  0.00     0.037 A 
ATOM     25  C   UNL A   1      39.890  28.866  29.062  1.00  0.00     0.037 A 
ATOM     26  C   UNL A   1      46.414  28.172  29.463  1.00  0.00     0.049 A 
ATOM     27  C   UNL A   1      41.011  29.782  29.486  1.00  0.00     0.074 A 
ATOM     28  C   UNL A   1      47.350  29.146  29.742  1.00  0.00     0.029 A 
ATOM     29  N   UNL A   1      45.163  28.766  29.538  1.00  0.00    -0.354 N 
ATOM     30  N   UNL A   1      42.302  29.551  29.499  1.00  0.00    -0.248 NA
ATOM     31  C   UNL A   1      40.642  31.138  29.920  1.00  0.00     0.031 C 
ATOM     32  C   UNL A   1      46.663  30.324  30.036  1.00  0.00     0.029 A 
ATOM     33  C   UNL A   1      45.302  30.096  29.883  1.00  0.00     0.049 A 
ATOM     34  H   UNL A   1      44.307  28.310  29.371  1.00  0.00     0.167 HD
ATOM     35  C   UNL A   1      42.901  30.741  29.892  1.00  0.00     0.074 A 
ATOM     36  C   UNL A   1      41.832  31.695  30.106  1.00  0.00     0.031 C 
ATOM     37  C   UNL A   1      44.215  31.025  30.055  1.00  0.00     0.037 A 
BRANCH  24  38
ATOM     38  C   UNL A   1      48.031  26.272  29.071  1.00  0.00     0.057 A 
ATOM     39  C   UNL A   1      48.746  26.289  27.870  1.00  0.00     0.134 A 
ATOM     40  C   UNL A   1      48.670  25.745  30.204  1.00  0.00     0.134 A 
ATOM     41  F   UNL A   1      48.194  26.791  26.757  1.00  0.00    -0.206 F 
ATOM     42  C   UNL A   1      50.046  25.791  27.795  1.00  0.00     0.040 A 
ATOM     43  C   UNL A   1      49.981  25.272  30.147  1.00  0.00     0.040 A 
ATOM     44  F   UNL A   1      48.049  25.733  31.394  1.00  0.00    -0.206 F 
ATOM     45  C   UNL A   1      50.669  25.285  28.935  1.00  0.00     0.006 A 
ENDBRANCH  24  38
BRANCH  25  46
ATOM     46  C   UNL A   1      38.475  29.330  29.097  1.00  0.00     0.057 A 
ATOM     47  C   UNL A   1      37.837  29.821  27.951  1.00  0.00     0.134 A 
ATOM     48  C   UNL A   1      37.709  29.253  30.268  1.00  0.00     0.134 A 
ATOM     49  F   UNL A   1      38.512  29.933  26.796  1.00  0.00    -0.206 F 
ATOM     50  C   UNL A   1      36.494  30.209  27.965  1.00  0.00     0.040 A 
ATOM     51  C   UNL A   1      36.359  29.617  30.292  1.00  0.00     0.040 A 
ATOM     52  F   UNL A   1      38.252  28.778  31.398  1.00  0.00    -0.206 F 
ATOM     53  C   UNL A   1      35.748  30.098  29.137  1.00  0.00     0.006 A 
ENDBRANCH  25  46
BRANCH  37  54
ATOM     54  C   UNL A   1      44.591  32.421  30.446  1.00  0.00     0.057 A 
ATOM     55  C   UNL A   1      44.645  32.784  31.799  1.00  0.00     0.134 A 
ATOM     56  C   UNL A   1      44.757  33.431  29.493  1.00  0.00     0.134 A 
ATOM     57  F   UNL A   1      44.476  31.863  32.760  1.00  0.00    -0.206 F 
ATOM     58  C   UNL A   1      44.816  34.112  32.189  1.00  0.00     0.040 A 
ATOM     59  C   UNL A   1      44.962  34.758  29.871  1.00  0.00     0.040 A 
ATOM     60  F   UNL A   1      44.723  33.142  28.183  1.00  0.00    -0.206 F 
ATOM     61  C   UNL A   1      44.974  35.102  31.222  1.00  0.00     0.006 A 
ENDBRANCH  37  54
ENDBRANCH  11  12
ENDBRANCH   4   6
ENDBRANCH   3   4
ENDBRANCH   2   3
ENDBRANCH   1   2
BRANCH   1  62
ATOM     62  O   UNL A   1      37.307  21.754  24.829  1.00  0.00    -0.462 OA
BRANCH  62  63
ATOM     63  C   UNL A   1      36.253  22.177  25.588  1.00  0.00     0.311 C 
ATOM     64  O   UNL A   1      36.182  23.296  26.076  1.00  0.00    -0.252 OA
BRANCH  63  65
ATOM     65  C   UNL A   1      35.259  21.044  25.848  1.00  0.00     0.128 C 
ATOM     66  C   UNL A   1      34.066  21.718  26.485  1.00  0.00     0.135 C 
ATOM     67  C   UNL A   1      34.619  20.397  24.596  1.00  0.00     0.055 C 
ATOM     68  N   UNL A   1      33.296  22.200  25.346  1.00  0.00    -0.341 N 
ATOM     69  C   UNL A   1      33.536  21.391  24.171  1.00  0.00     0.128 C 
BRANCH  67  70
ATOM     70  C   UNL A   1      34.046  18.983  24.753  1.00  0.00    -0.042 A 
ATOM     71  C   UNL A   1      34.782  17.903  24.224  1.00  0.00     0.007 A 
ATOM     72  C   UNL A   1      32.852  18.685  25.430  1.00  0.00     0.007 A 
ATOM     73  C   UNL A   1      34.365  16.580  24.408  1.00  0.00     0.039 A 
ATOM     74  C   UNL A   1      32.435  17.360  25.616  1.00  0.00     0.039 A 
ATOM     75  C   UNL A   1      33.198  16.321  25.112  1.00  0.00     0.123 A 
ATOM     76  F   UNL A   1      32.806  15.054  25.302  1.00  0.00    -0.207 F 
ENDBRANCH  67  70
BRANCH  68  77
ATOM     77  C   UNL A   1      32.651  23.409  25.220  1.00  0.00     0.225 C 
ATOM     78  O   UNL A   1      31.726  23.593  24.432  1.00  0.00    -0.275 OA
BRANCH  77  79
ATOM     79  C   UNL A   1      33.114  24.499  26.147  1.00  0.00     0.130 C 
BRANCH  79  80
ATOM     80  C   UNL A   1      34.088  25.369  25.362  1.00  0.00     0.123 C 
ATOM     81  N   UNL A   1      34.089  25.087  23.934  1.00  0.00    -0.345 N 
ATOM     82  C   UNL A   1      33.720  26.815  25.390  1.00  0.00    -0.012 A 
ATOM     83  C   UNL A   1      33.845  26.197  23.159  1.00  0.00     0.252 C 
ATOM     84  H   UNL A   1      34.249  24.191  23.560  1.00  0.00     0.164 HD
ATOM     85  C   UNL A   1      33.589  27.301  24.090  1.00  0.00     0.045 A 
ATOM     86  C   UNL A   1      33.538  27.646  26.480  1.00  0.00     0.007 A 
ATOM     87  O   UNL A   1      33.859  26.244  21.951  1.00  0.00    -0.269 OA
ATOM     88  C   UNL A   1      33.275  28.612  23.817  1.00  0.00     0.014 A 
ATOM     89  C   UNL A   1      33.208  28.979  26.230  1.00  0.00     0.000 A 
ATOM     90  C   UNL A   1      33.081  29.457  24.911  1.00  0.00     0.001 A 
ENDBRANCH  79  80
ENDBRANCH  77  79
ENDBRANCH  68  77
ENDBRANCH  63  65
ENDBRANCH  62  63
ENDBRANCH   1  62
TORSDOF 15
ENDMDL
MODEL 3
REMARK VINA RESULT:     -13.2      4.475      9.276
REMARK SMILES O=C(OCCOC(=O)[C@H]1CN(C(=O)C[C@H]2NC(=O)c3ccccc32)C[C@@H]1c1ccc(F)cc1)c1ccc(-c2c3nc(c(-c4c(F)cccc4F)c4ccc([nH]4)c(-c4c(F)cccc4F)c4nc(c(-c5c(F)cccc5F)c5ccc2[nH]5)C=C4)C=C3)cc1
REMARK SMILES IDX 5 1 4 2 3 3 2 4 1 5 34 6 35 7 87 8 36 9 86 10 37 11 38 12
REMARK SMILES IDX 39 13 80 14 40 15 85 16 79 17 81 18 41 19 84 20 78 21 77 22
REMARK SMILES IDX 42 24 68 25 51 26 67 27 52 28 55 29 66 30 82 31 53 32 54 33
REMARK SMILES IDX 65 35 83 36 56 37 43 38 44 39 49 40 45 41 46 42 48 43 50 44
REMARK SMILES IDX 47 45 69 46 70 47 75 48 71 49 72 50 74 51 76 52 73 53 57 54
REMARK SMILES IDX 58 55 63 56 59 57 60 58 62 59 64 60 61 61 6 62 7 63 8 64
REMARK SMILES IDX 9 65 10 66 26 67 11 68 25 69 27 70 28 71 33 72 29 73 32 74
REMARK SMILES IDX 30 75 31 76 12 77 13 78 14 79 15 80 16 81 24 82 17 83 19 85
REMARK SMILES IDX 23 86 18 87 20 88 22 89 21 90
REMARK H PARENT 81 23 55 34 16 84
REMARK Flexibility Score: inf
ROOT
ATOM      1  C   UNL A   1      38.084  21.458  25.334  1.00  0.00     0.274 C 
ENDROOT
BRANCH   1   2
ATOM      2  C   UNL A   1      38.509  19.988  25.201  1.00  0.00     0.275 C 
BRANCH   2   3
ATOM      3  O   UNL A   1      39.572  19.578  26.072  1.00  0.00    -0.458 OA
BRANCH   3   4
ATOM      4  C   UNL A   1      40.904  19.781  25.977  1.00  0.00     0.338 C 
ATOM      5  O   UNL A   1      41.611  18.849  25.594  1.00  0.00    -0.246 OA
BRANCH   4   6
ATOM      6  C   UNL A   1      41.601  21.026  26.452  1.00  0.00     0.060 A 
ATOM      7  C   UNL A   1      42.288  21.967  25.678  1.00  0.00     0.016 A 
ATOM      8  C   UNL A   1      41.425  21.324  27.809  1.00  0.00     0.016 A 
ATOM      9  C   UNL A   1      42.621  23.230  26.181  1.00  0.00     0.010 A 
ATOM     10  C   UNL A   1      41.723  22.593  28.305  1.00  0.00     0.010 A 
ATOM     11  C   UNL A   1      42.305  23.570  27.490  1.00  0.00    -0.014 A 
BRANCH  11  12
ATOM     12  C   UNL A   1      42.759  24.852  28.078  1.00  0.00     0.031 A 
ATOM     13  C   UNL A   1      41.722  25.927  28.234  1.00  0.00     0.074 A 
ATOM     14  C   UNL A   1      44.035  25.060  28.468  1.00  0.00     0.049 A 
ATOM     15  N   UNL A   1      41.855  27.154  28.654  1.00  0.00    -0.248 NA
ATOM     16  C   UNL A   1      40.341  25.575  27.843  1.00  0.00     0.031 C 
ATOM     17  C   UNL A   1      45.129  24.089  28.391  1.00  0.00     0.029 A 
ATOM     18  N   UNL A   1      44.637  26.177  28.996  1.00  0.00    -0.354 N 
ATOM     19  C   UNL A   1      40.582  27.701  28.578  1.00  0.00     0.074 A 
ATOM     20  C   UNL A   1      39.722  26.735  27.946  1.00  0.00     0.031 C 
ATOM     21  C   UNL A   1      46.269  24.662  28.817  1.00  0.00     0.029 A 
ATOM     22  C   UNL A   1      45.988  26.036  29.219  1.00  0.00     0.049 A 
ATOM     23  H   UNL A   1      44.144  27.006  29.197  1.00  0.00     0.167 HD
ATOM     24  C   UNL A   1      40.138  28.871  29.082  1.00  0.00     0.037 A 
ATOM     25  C   UNL A   1      46.887  26.916  29.708  1.00  0.00     0.037 A 
ATOM     26  C   UNL A   1      40.979  29.797  29.774  1.00  0.00     0.049 A 
ATOM     27  C   UNL A   1      46.388  28.258  30.183  1.00  0.00     0.074 A 
ATOM     28  C   UNL A   1      40.630  30.992  30.368  1.00  0.00     0.029 A 
ATOM     29  N   UNL A   1      42.340  29.618  29.972  1.00  0.00    -0.354 N 
ATOM     30  N   UNL A   1      45.163  28.729  30.178  1.00  0.00    -0.248 NA
ATOM     31  C   UNL A   1      47.379  29.176  30.765  1.00  0.00     0.031 C 
ATOM     32  C   UNL A   1      41.792  31.565  30.885  1.00  0.00     0.029 A 
ATOM     33  C   UNL A   1      42.853  30.697  30.663  1.00  0.00     0.049 A 
ATOM     34  H   UNL A   1      42.860  28.840  29.666  1.00  0.00     0.167 HD
ATOM     35  C   UNL A   1      45.227  29.970  30.798  1.00  0.00     0.074 A 
ATOM     36  C   UNL A   1      46.612  30.180  31.168  1.00  0.00     0.031 C 
ATOM     37  C   UNL A   1      44.233  30.856  31.045  1.00  0.00     0.037 A 
BRANCH  24  38
ATOM     38  C   UNL A   1      38.679  29.164  28.944  1.00  0.00     0.057 A 
ATOM     39  C   UNL A   1      38.149  29.607  27.729  1.00  0.00     0.134 A 
ATOM     40  C   UNL A   1      37.796  29.008  30.024  1.00  0.00     0.134 A 
ATOM     41  F   UNL A   1      38.940  29.764  26.658  1.00  0.00    -0.206 F 
ATOM     42  C   UNL A   1      36.791  29.895  27.593  1.00  0.00     0.040 A 
ATOM     43  C   UNL A   1      36.431  29.263  29.890  1.00  0.00     0.040 A 
ATOM     44  F   UNL A   1      38.238  28.552  31.206  1.00  0.00    -0.206 F 
ATOM     45  C   UNL A   1      35.928  29.719  28.674  1.00  0.00     0.006 A 
ENDBRANCH  24  38
BRANCH  25  46
ATOM     46  C   UNL A   1      48.328  26.557  29.824  1.00  0.00     0.057 A 
ATOM     47  C   UNL A   1      48.818  25.839  30.923  1.00  0.00     0.134 A 
ATOM     48  C   UNL A   1      49.246  26.883  28.817  1.00  0.00     0.134 A 
ATOM     49  F   UNL A   1      47.998  25.502  31.930  1.00  0.00    -0.206 F 
ATOM     50  C   UNL A   1      50.159  25.454  31.011  1.00  0.00     0.040 A 
ATOM     51  C   UNL A   1      50.585  26.487  28.882  1.00  0.00     0.040 A 
ATOM     52  F   UNL A   1      48.842  27.556  27.730  1.00  0.00    -0.206 F 
ATOM     53  C   UNL A   1      51.045  25.770  29.984  1.00  0.00     0.006 A 
ENDBRANCH  25  46
BRANCH  37  54
ATOM     54  C   UNL A   1      44.577  32.115  31.780  1.00  0.00     0.057 A 
ATOM     55  C   UNL A   1      44.450  32.174  33.175  1.00  0.00     0.134 A 
ATOM     56  C   UNL A   1      44.892  33.297  31.103  1.00  0.00     0.134 A 
ATOM     57  F   UNL A   1      44.133  31.077  33.879  1.00  0.00    -0.206 F 
ATOM     58  C   UNL A   1      44.591  33.377  33.867  1.00  0.00     0.040 A 
ATOM     59  C   UNL A   1      45.067  34.499  31.788  1.00  0.00     0.040 A 
ATOM     60  F   UNL A   1      45.033  33.299  29.769  1.00  0.00    -0.206 F 
ATOM     61  C   UNL A   1      44.899  34.544  33.172  1.00  0.00     0.006 A 
ENDBRANCH  37  54
ENDBRANCH  11  12
ENDBRANCH   4   6
ENDBRANCH   3   4
ENDBRANCH   2   3
ENDBRANCH   1   2
BRANCH   1  62
ATOM     62  O   UNL A   1      36.767  21.773  24.835  1.00  0.00    -0.462 OA
BRANCH  62  63
ATOM     63  C   UNL A   1      35.818  22.042  25.782  1.00  0.00     0.311 C 
ATOM     64  O   UNL A   1      35.843  23.034  26.495  1.00  0.00    -0.252 OA
BRANCH  63  65
ATOM     65  C   UNL A   1      34.816  20.893  25.913  1.00  0.00     0.128 C 
ATOM     66  C   UNL A   1      33.522  21.558  26.322  1.00  0.00     0.135 C 
ATOM     67  C   UNL A   1      34.404  20.194  24.596  1.00  0.00     0.055 C 
ATOM     68  N   UNL A   1      32.941  21.986  25.057  1.00  0.00    -0.341 N 
ATOM     69  C   UNL A   1      33.387  21.148  23.966  1.00  0.00     0.128 C 
BRANCH  67  70
ATOM     70  C   UNL A   1      33.840  18.771  24.704  1.00  0.00    -0.042 A 
ATOM     71  C   UNL A   1      34.384  17.772  23.871  1.00  0.00     0.007 A 
ATOM     72  C   UNL A   1      32.841  18.384  25.614  1.00  0.00     0.007 A 
ATOM     73  C   UNL A   1      33.981  16.437  23.979  1.00  0.00     0.039 A 
ATOM     74  C   UNL A   1      32.438  17.047  25.723  1.00  0.00     0.039 A 
ATOM     75  C   UNL A   1      33.017  16.085  24.912  1.00  0.00     0.123 A 
ATOM     76  F   UNL A   1      32.641  14.805  25.027  1.00  0.00    -0.207 F 
ENDBRANCH  67  70
BRANCH  68  77
ATOM     77  C   UNL A   1      32.303  23.174  24.786  1.00  0.00     0.225 C 
ATOM     78  O   UNL A   1      31.423  23.280  23.935  1.00  0.00    -0.275 OA
BRANCH  77  79
ATOM     79  C   UNL A   1      32.712  24.347  25.635  1.00  0.00     0.130 C 
BRANCH  79  80
ATOM     80  C   UNL A   1      33.794  25.097  24.868  1.00  0.00     0.123 C 
ATOM     81  N   UNL A   1      33.723  24.895  23.428  1.00  0.00    -0.345 N 
ATOM     82  C   UNL A   1      33.653  26.580  24.977  1.00  0.00    -0.012 A 
ATOM     83  C   UNL A   1      33.638  26.069  22.716  1.00  0.00     0.252 C 
ATOM     84  H   UNL A   1      33.736  24.006  23.006  1.00  0.00     0.164 HD
ATOM     85  C   UNL A   1      33.574  27.148  23.707  1.00  0.00     0.045 A 
ATOM     86  C   UNL A   1      33.623  27.370  26.112  1.00  0.00     0.007 A 
ATOM     87  O   UNL A   1      33.636  26.177  21.512  1.00  0.00    -0.269 OA
ATOM     88  C   UNL A   1      33.461  28.504  23.507  1.00  0.00     0.014 A 
ATOM     89  C   UNL A   1      33.498  28.748  25.937  1.00  0.00     0.000 A 
ATOM     90  C   UNL A   1      33.420  29.310  24.647  1.00  0.00     0.001 A 
ENDBRANCH  79  80
ENDBRANCH  77  79
ENDBRANCH  68  77
ENDBRANCH  63  65
ENDBRANCH  62  63
ENDBRANCH   1  62
TORSDOF 15
ENDMDL
