MODEL 1
REMARK VINA RESULT:     -12.0      0.000      0.000
REMARK SMILES Nc1cc(C(=O)OCCOC(=O)c2ccc(-c3c4nc(c(-c5c(F)cccc5F)c5ccc([nH]5)c(-c5c(F)cccc5F)c5nc(c(-c6c(F)cccc6F)c6ccc3[nH]6)C=C5)C=C4)cc2)ccc1N1CC2(CCOCC2)C1
REMARK SMILES IDX 9 1 8 2 7 3 5 4 6 5 4 6 2 7 3 8 69 9 68 10 67 11 1 12 70 15
REMARK SMILES IDX 71 16 78 17 72 18 73 19 77 20 74 21 76 22 75 23 10 24 11 25
REMARK SMILES IDX 12 26 13 27 14 28 66 29 15 30 65 31 16 32 17 33 18 34 59 35
REMARK SMILES IDX 19 36 64 37 58 38 60 39 20 40 63 41 57 42 56 43 21 45 47 46
REMARK SMILES IDX 30 47 46 48 31 49 34 50 45 51 61 52 32 53 33 54 44 56 62 57
REMARK SMILES IDX 35 58 22 59 23 60 28 61 24 62 25 63 27 64 29 65 26 66 48 67
REMARK SMILES IDX 49 68 54 69 50 70 51 71 53 72 55 73 52 74 36 75 37 76 42 77
REMARK SMILES IDX 38 78 39 79 41 80 43 81 40 82
REMARK H PARENT 1 13 1 14 60 44 34 55
REMARK Flexibility Score: inf
ROOT
ATOM      1  C   UNL A   1      44.126  21.414  25.023  1.00  0.00     0.275 C 
ENDROOT
BRANCH   1   2
ATOM      2  C   UNL A   1      43.720  20.084  25.659  1.00  0.00     0.275 C 
BRANCH   2   3
ATOM      3  O   UNL A   1      42.336  19.782  25.379  1.00  0.00    -0.458 OA
BRANCH   3   4
ATOM      4  C   UNL A   1      41.516  19.771  26.458  1.00  0.00     0.338 C 
ATOM      5  O   UNL A   1      41.813  19.444  27.596  1.00  0.00    -0.246 OA
BRANCH   4   6
ATOM      6  C   UNL A   1      40.197  20.347  26.114  1.00  0.00     0.062 A 
ATOM      7  C   UNL A   1      38.722  22.299  26.257  1.00  0.00     0.056 A 
ATOM      8  C   UNL A   1      39.917  21.640  26.568  1.00  0.00     0.043 A 
ATOM      9  C   UNL A   1      37.707  21.569  25.609  1.00  0.00     0.060 A 
ATOM     10  C   UNL A   1      37.982  20.247  25.189  1.00  0.00     0.029 A 
ATOM     11  C   UNL A   1      39.228  19.647  25.406  1.00  0.00     0.018 A 
BRANCH   7  12
ATOM     12  N   UNL A   1      38.554  23.575  26.787  1.00  0.00    -0.397 N 
ATOM     13  H   UNL A   1      39.048  23.841  27.596  1.00  0.00     0.156 HD
ATOM     14  H   UNL A   1      37.943  24.213  26.351  1.00  0.00     0.156 HD
ENDBRANCH   7  12
BRANCH   9  15
ATOM     15  N   UNL A   1      36.396  22.044  25.384  1.00  0.00    -0.369 N 
ATOM     16  C   UNL A   1      35.192  21.935  26.139  1.00  0.00     0.125 C 
ATOM     17  C   UNL A   1      35.733  22.019  24.109  1.00  0.00     0.125 C 
ATOM     18  C   UNL A   1      34.444  21.580  24.830  1.00  0.00     0.010 C 
ATOM     19  C   UNL A   1      33.208  22.436  24.546  1.00  0.00     0.039 C 
ATOM     20  C   UNL A   1      34.100  20.101  24.603  1.00  0.00     0.039 C 
ATOM     21  C   UNL A   1      32.059  21.940  25.419  1.00  0.00     0.161 C 
ATOM     22  C   UNL A   1      32.908  19.728  25.475  1.00  0.00     0.161 C 
ATOM     23  O   UNL A   1      31.790  20.560  25.160  1.00  0.00    -0.381 OA
ENDBRANCH   9  15
ENDBRANCH   4   6
ENDBRANCH   3   4
ENDBRANCH   2   3
ENDBRANCH   1   2
BRANCH   1  24
ATOM     24  O   UNL A   1      43.291  22.471  25.529  1.00  0.00    -0.458 OA
BRANCH  24  25
ATOM     25  C   UNL A   1      43.653  23.729  25.186  1.00  0.00     0.338 C 
ATOM     26  O   UNL A   1      44.372  24.067  24.261  1.00  0.00    -0.246 OA
BRANCH  25  27
ATOM     27  C   UNL A   1      43.036  24.700  26.109  1.00  0.00     0.060 A 
ATOM     28  C   UNL A   1      43.338  26.053  25.994  1.00  0.00     0.016 A 
ATOM     29  C   UNL A   1      42.260  24.253  27.175  1.00  0.00     0.016 A 
ATOM     30  C   UNL A   1      42.972  26.945  27.004  1.00  0.00     0.010 A 
ATOM     31  C   UNL A   1      41.791  25.169  28.126  1.00  0.00     0.010 A 
ATOM     32  C   UNL A   1      42.180  26.522  28.082  1.00  0.00    -0.014 A 
BRANCH  32  33
ATOM     33  C   UNL A   1      41.795  27.466  29.176  1.00  0.00     0.031 A 
ATOM     34  C   UNL A   1      42.593  27.514  30.458  1.00  0.00     0.074 A 
ATOM     35  C   UNL A   1      40.737  28.293  29.040  1.00  0.00     0.049 A 
ATOM     36  N   UNL A   1      42.309  28.107  31.592  1.00  0.00    -0.248 NA
ATOM     37  C   UNL A   1      43.873  26.787  30.473  1.00  0.00     0.031 C 
ATOM     38  C   UNL A   1      39.885  28.400  27.855  1.00  0.00     0.029 A 
ATOM     39  N   UNL A   1      40.199  29.210  29.913  1.00  0.00    -0.354 N 
ATOM     40  C   UNL A   1      43.332  27.765  32.470  1.00  0.00     0.074 A 
ATOM     41  C   UNL A   1      44.248  26.917  31.737  1.00  0.00     0.031 C 
ATOM     42  C   UNL A   1      38.967  29.358  28.054  1.00  0.00     0.029 A 
ATOM     43  C   UNL A   1      39.097  29.866  29.415  1.00  0.00     0.049 A 
ATOM     44  H   UNL A   1      40.567  29.380  30.810  1.00  0.00     0.167 HD
ATOM     45  C   UNL A   1      43.493  28.120  33.768  1.00  0.00     0.037 A 
ATOM     46  C   UNL A   1      38.254  30.741  29.993  1.00  0.00     0.037 A 
ATOM     47  C   UNL A   1      42.628  29.025  34.480  1.00  0.00     0.049 A 
ATOM     48  C   UNL A   1      38.446  31.112  31.435  1.00  0.00     0.074 A 
ATOM     49  C   UNL A   1      42.731  29.466  35.789  1.00  0.00     0.029 A 
ATOM     50  N   UNL A   1      41.515  29.646  33.937  1.00  0.00    -0.354 N 
ATOM     51  N   UNL A   1      39.381  30.731  32.268  1.00  0.00    -0.248 NA
ATOM     52  C   UNL A   1      37.447  32.018  32.024  1.00  0.00     0.031 C 
ATOM     53  C   UNL A   1      41.663  30.333  36.046  1.00  0.00     0.029 A 
ATOM     54  C   UNL A   1      40.918  30.461  34.886  1.00  0.00     0.049 A 
ATOM     55  H   UNL A   1      41.195  29.527  33.014  1.00  0.00     0.167 HD
ATOM     56  C   UNL A   1      39.091  31.355  33.475  1.00  0.00     0.074 A 
ATOM     57  C   UNL A   1      37.906  32.157  33.260  1.00  0.00     0.031 C 
ATOM     58  C   UNL A   1      39.744  31.261  34.659  1.00  0.00     0.037 A 
BRANCH  45  59
ATOM     59  C   UNL A   1      44.637  27.509  34.524  1.00  0.00     0.057 A 
ATOM     60  C   UNL A   1      45.884  28.134  34.626  1.00  0.00     0.134 A 
ATOM     61  C   UNL A   1      44.461  26.299  35.211  1.00  0.00     0.134 A 
ATOM     62  F   UNL A   1      46.121  29.288  33.985  1.00  0.00    -0.206 F 
ATOM     63  C   UNL A   1      46.924  27.570  35.370  1.00  0.00     0.040 A 
ATOM     64  C   UNL A   1      45.484  25.738  35.976  1.00  0.00     0.040 A 
ATOM     65  F   UNL A   1      43.287  25.652  35.161  1.00  0.00    -0.206 F 
ATOM     66  C   UNL A   1      46.722  26.373  36.054  1.00  0.00     0.006 A 
ENDBRANCH  45  59
BRANCH  46  67
ATOM     67  C   UNL A   1      37.113  31.296  29.219  1.00  0.00     0.057 A 
ATOM     68  C   UNL A   1      35.970  30.529  28.966  1.00  0.00     0.134 A 
ATOM     69  C   UNL A   1      37.142  32.600  28.709  1.00  0.00     0.134 A 
ATOM     70  F   UNL A   1      35.896  29.264  29.404  1.00  0.00    -0.206 F 
ATOM     71  C   UNL A   1      34.899  31.036  28.227  1.00  0.00     0.040 A 
ATOM     72  C   UNL A   1      36.068  33.130  27.993  1.00  0.00     0.040 A 
ATOM     73  F   UNL A   1      38.210  33.385  28.915  1.00  0.00    -0.206 F 
ATOM     74  C   UNL A   1      34.944  32.344  27.745  1.00  0.00     0.006 A 
ENDBRANCH  46  67
BRANCH  58  75
ATOM     75  C   UNL A   1      39.210  32.072  35.799  1.00  0.00     0.057 A 
ATOM     76  C   UNL A   1      38.300  31.539  36.720  1.00  0.00     0.134 A 
ATOM     77  C   UNL A   1      39.628  33.395  35.991  1.00  0.00     0.134 A 
ATOM     78  F   UNL A   1      37.850  30.283  36.581  1.00  0.00    -0.206 F 
ATOM     79  C   UNL A   1      37.809  32.301  37.782  1.00  0.00     0.040 A 
ATOM     80  C   UNL A   1      39.162  34.159  37.061  1.00  0.00     0.040 A 
ATOM     81  F   UNL A   1      40.503  33.962  35.147  1.00  0.00    -0.206 F 
ATOM     82  C   UNL A   1      38.244  33.613  37.957  1.00  0.00     0.006 A 
ENDBRANCH  58  75
ENDBRANCH  32  33
ENDBRANCH  25  27
ENDBRANCH  24  25
ENDBRANCH   1  24
TORSDOF 13
ENDMDL
MODEL 2
REMARK VINA RESULT:     -11.7      5.674     10.822
REMARK SMILES Nc1cc(C(=O)OCCOC(=O)c2ccc(-c3c4nc(c(-c5c(F)cccc5F)c5ccc([nH]5)c(-c5c(F)cccc5F)c5nc(c(-c6c(F)cccc6F)c6ccc3[nH]6)C=C5)C=C4)cc2)ccc1N1CC2(CCOCC2)C1
REMARK SMILES IDX 9 1 8 2 7 3 5 4 6 5 4 6 2 7 3 8 69 9 68 10 67 11 1 12 70 15
REMARK SMILES IDX 71 16 78 17 72 18 73 19 77 20 74 21 76 22 75 23 10 24 11 25
REMARK SMILES IDX 12 26 13 27 14 28 66 29 15 30 65 31 16 32 17 33 18 34 59 35
REMARK SMILES IDX 19 36 64 37 58 38 60 39 20 40 63 41 57 42 56 43 21 45 47 46
REMARK SMILES IDX 30 47 46 48 31 49 34 50 45 51 61 52 32 53 33 54 44 56 62 57
REMARK SMILES IDX 35 58 22 59 23 60 28 61 24 62 25 63 27 64 29 65 26 66 48 67
REMARK SMILES IDX 49 68 54 69 50 70 51 71 53 72 55 73 52 74 36 75 37 76 42 77
REMARK SMILES IDX 38 78 39 79 41 80 43 81 40 82
REMARK H PARENT 1 13 1 14 60 44 34 55
REMARK Flexibility Score: inf
ROOT
ATOM      1  C   UNL A   1      34.191  34.181  31.872  1.00  0.00     0.275 C 
ENDROOT
BRANCH   1   2
ATOM      2  C   UNL A   1      33.831  35.170  30.764  1.00  0.00     0.275 C 
BRANCH   2   3
ATOM      3  O   UNL A   1      33.059  34.524  29.729  1.00  0.00    -0.458 OA
BRANCH   3   4
ATOM      4  C   UNL A   1      33.664  34.445  28.519  1.00  0.00     0.338 C 
ATOM      5  O   UNL A   1      34.438  35.257  28.036  1.00  0.00    -0.246 OA
BRANCH   4   6
ATOM      6  C   UNL A   1      33.369  33.146  27.874  1.00  0.00     0.062 A 
ATOM      7  C   UNL A   1      34.215  30.925  27.277  1.00  0.00     0.056 A 
ATOM      8  C   UNL A   1      34.400  32.203  27.818  1.00  0.00     0.043 A 
ATOM      9  C   UNL A   1      33.000  30.647  26.621  1.00  0.00     0.060 A 
ATOM     10  C   UNL A   1      31.977  31.622  26.645  1.00  0.00     0.029 A 
ATOM     11  C   UNL A   1      32.141  32.852  27.295  1.00  0.00     0.018 A 
BRANCH   7  12
ATOM     12  N   UNL A   1      35.326  30.085  27.261  1.00  0.00    -0.397 N 
ATOM     13  H   UNL A   1      35.600  29.616  28.082  1.00  0.00     0.156 HD
ATOM     14  H   UNL A   1      35.835  29.959  26.428  1.00  0.00     0.156 HD
ENDBRANCH   7  12
BRANCH   9  15
ATOM     15  N   UNL A   1      32.737  29.471  25.885  1.00  0.00    -0.369 N 
ATOM     16  C   UNL A   1      32.914  29.139  24.510  1.00  0.00     0.125 C 
ATOM     17  C   UNL A   1      31.562  28.660  26.048  1.00  0.00     0.125 C 
ATOM     18  C   UNL A   1      31.497  28.512  24.516  1.00  0.00     0.010 C 
ATOM     19  C   UNL A   1      31.430  27.074  23.997  1.00  0.00     0.039 C 
ATOM     20  C   UNL A   1      30.368  29.335  23.878  1.00  0.00     0.039 C 
ATOM     21  C   UNL A   1      31.488  27.102  22.472  1.00  0.00     0.161 C 
ATOM     22  C   UNL A   1      30.485  29.247  22.361  1.00  0.00     0.161 C 
ATOM     23  O   UNL A   1      30.413  27.882  21.942  1.00  0.00    -0.381 OA
ENDBRANCH   9  15
ENDBRANCH   4   6
ENDBRANCH   3   4
ENDBRANCH   2   3
ENDBRANCH   1   2
BRANCH   1  24
ATOM     24  O   UNL A   1      35.056  33.156  31.350  1.00  0.00    -0.458 OA
BRANCH  24  25
ATOM     25  C   UNL A   1      35.714  32.411  32.268  1.00  0.00     0.338 C 
ATOM     26  O   UNL A   1      35.485  32.333  33.462  1.00  0.00    -0.246 OA
BRANCH  25  27
ATOM     27  C   UNL A   1      36.801  31.655  31.617  1.00  0.00     0.060 A 
ATOM     28  C   UNL A   1      37.655  30.869  32.383  1.00  0.00     0.016 A 
ATOM     29  C   UNL A   1      37.055  31.829  30.258  1.00  0.00     0.016 A 
ATOM     30  C   UNL A   1      38.829  30.357  31.829  1.00  0.00     0.010 A 
ATOM     31  C   UNL A   1      38.171  31.214  29.676  1.00  0.00     0.010 A 
ATOM     32  C   UNL A   1      39.102  30.509  30.462  1.00  0.00    -0.014 A 
BRANCH  32  33
ATOM     33  C   UNL A   1      40.364  29.976  29.862  1.00  0.00     0.031 A 
ATOM     34  C   UNL A   1      41.582  30.863  29.734  1.00  0.00     0.074 A 
ATOM     35  C   UNL A   1      40.444  28.701  29.429  1.00  0.00     0.049 A 
ATOM     36  N   UNL A   1      42.693  30.659  29.068  1.00  0.00    -0.248 NA
ATOM     37  C   UNL A   1      41.539  32.156  30.435  1.00  0.00     0.031 C 
ATOM     38  C   UNL A   1      39.376  27.703  29.513  1.00  0.00     0.029 A 
ATOM     39  N   UNL A   1      41.480  28.020  28.833  1.00  0.00    -0.354 N 
ATOM     40  C   UNL A   1      43.443  31.821  29.210  1.00  0.00     0.074 A 
ATOM     41  C   UNL A   1      42.666  32.725  30.030  1.00  0.00     0.031 C 
ATOM     42  C   UNL A   1      39.824  26.532  29.035  1.00  0.00     0.029 A 
ATOM     43  C   UNL A   1      41.175  26.715  28.519  1.00  0.00     0.049 A 
ATOM     44  H   UNL A   1      42.357  28.427  28.648  1.00  0.00     0.167 HD
ATOM     45  C   UNL A   1      44.665  32.111  28.701  1.00  0.00     0.037 A 
ATOM     46  C   UNL A   1      41.877  25.781  27.851  1.00  0.00     0.037 A 
ATOM     47  C   UNL A   1      45.477  31.189  27.950  1.00  0.00     0.049 A 
ATOM     48  C   UNL A   1      43.225  26.128  27.288  1.00  0.00     0.074 A 
ATOM     49  C   UNL A   1      46.742  31.386  27.421  1.00  0.00     0.029 A 
ATOM     50  N   UNL A   1      45.115  29.887  27.642  1.00  0.00    -0.354 N 
ATOM     51  N   UNL A   1      43.893  27.251  27.377  1.00  0.00    -0.248 NA
ATOM     52  C   UNL A   1      43.907  25.083  26.509  1.00  0.00     0.031 C 
ATOM     53  C   UNL A   1      47.133  30.212  26.768  1.00  0.00     0.029 A 
ATOM     54  C   UNL A   1      46.128  29.272  26.924  1.00  0.00     0.049 A 
ATOM     55  H   UNL A   1      44.264  29.461  27.896  1.00  0.00     0.167 HD
ATOM     56  C   UNL A   1      45.074  27.047  26.676  1.00  0.00     0.074 A 
ATOM     57  C   UNL A   1      45.042  25.685  26.186  1.00  0.00     0.031 C 
ATOM     58  C   UNL A   1      46.089  27.915  26.449  1.00  0.00     0.037 A 
BRANCH  45  59
ATOM     59  C   UNL A   1      45.200  33.498  28.913  1.00  0.00     0.057 A 
ATOM     60  C   UNL A   1      44.887  34.559  28.057  1.00  0.00     0.134 A 
ATOM     61  C   UNL A   1      45.996  33.782  30.032  1.00  0.00     0.134 A 
ATOM     62  F   UNL A   1      44.139  34.352  26.963  1.00  0.00    -0.206 F 
ATOM     63  C   UNL A   1      45.361  35.852  28.296  1.00  0.00     0.040 A 
ATOM     64  C   UNL A   1      46.455  35.074  30.294  1.00  0.00     0.040 A 
ATOM     65  F   UNL A   1      46.326  32.811  30.897  1.00  0.00    -0.206 F 
ATOM     66  C   UNL A   1      46.140  36.113  29.421  1.00  0.00     0.006 A 
ENDBRANCH  45  59
BRANCH  46  67
ATOM     67  C   UNL A   1      41.296  24.430  27.633  1.00  0.00     0.057 A 
ATOM     68  C   UNL A   1      40.296  24.220  26.678  1.00  0.00     0.134 A 
ATOM     69  C   UNL A   1      41.722  23.323  28.378  1.00  0.00     0.134 A 
ATOM     70  F   UNL A   1      39.827  25.247  25.954  1.00  0.00    -0.206 F 
ATOM     71  C   UNL A   1      39.733  22.958  26.476  1.00  0.00     0.040 A 
ATOM     72  C   UNL A   1      41.188  22.051  28.168  1.00  0.00     0.040 A 
ATOM     73  F   UNL A   1      42.676  23.460  29.310  1.00  0.00    -0.206 F 
ATOM     74  C   UNL A   1      40.185  21.868  27.217  1.00  0.00     0.006 A 
ENDBRANCH  46  67
BRANCH  58  75
ATOM     75  C   UNL A   1      47.261  27.406  25.666  1.00  0.00     0.057 A 
ATOM     76  C   UNL A   1      47.357  27.589  24.282  1.00  0.00     0.134 A 
ATOM     77  C   UNL A   1      48.315  26.745  26.308  1.00  0.00     0.134 A 
ATOM     78  F   UNL A   1      46.373  28.201  23.607  1.00  0.00    -0.206 F 
ATOM     79  C   UNL A   1      48.454  27.115  23.559  1.00  0.00     0.040 A 
ATOM     80  C   UNL A   1      49.426  26.286  25.602  1.00  0.00     0.040 A 
ATOM     81  F   UNL A   1      48.285  26.544  27.635  1.00  0.00    -0.206 F 
ATOM     82  C   UNL A   1      49.494  26.465  24.221  1.00  0.00     0.006 A 
ENDBRANCH  58  75
ENDBRANCH  32  33
ENDBRANCH  25  27
ENDBRANCH  24  25
ENDBRANCH   1  24
TORSDOF 13
ENDMDL
MODEL 3
REMARK VINA RESULT:     -11.7      5.659     10.797
REMARK SMILES Nc1cc(C(=O)OCCOC(=O)c2ccc(-c3c4nc(c(-c5c(F)cccc5F)c5ccc([nH]5)c(-c5c(F)cccc5F)c5nc(c(-c6c(F)cccc6F)c6ccc3[nH]6)C=C5)C=C4)cc2)ccc1N1CC2(CCOCC2)C1
REMARK SMILES IDX 9 1 8 2 7 3 5 4 6 5 4 6 2 7 3 8 69 9 68 10 67 11 1 12 70 15
REMARK SMILES IDX 71 16 78 17 72 18 73 19 77 20 74 21 76 22 75 23 10 24 11 25
REMARK SMILES IDX 12 26 13 27 14 28 66 29 15 30 65 31 16 32 17 33 18 34 59 35
REMARK SMILES IDX 19 36 64 37 58 38 60 39 20 40 63 41 57 42 56 43 21 45 47 46
REMARK SMILES IDX 30 47 46 48 31 49 34 50 45 51 61 52 32 53 33 54 44 56 62 57
REMARK SMILES IDX 35 58 22 59 23 60 28 61 24 62 25 63 27 64 29 65 26 66 48 67
REMARK SMILES IDX 49 68 54 69 50 70 51 71 53 72 55 73 52 74 36 75 37 76 42 77
REMARK SMILES IDX 38 78 39 79 41 80 43 81 40 82
REMARK H PARENT 1 13 1 14 60 44 34 55
REMARK Flexibility Score: inf
ROOT
ATOM      1  C   UNL A   1      34.207  34.149  31.906  1.00  0.00     0.275 C 
ENDROOT
BRANCH   1   2
ATOM      2  C   UNL A   1      33.912  35.128  30.770  1.00  0.00     0.275 C 
BRANCH   2   3
ATOM      3  O   UNL A   1      33.096  34.506  29.755  1.00  0.00    -0.458 OA
BRANCH   3   4
ATOM      4  C   UNL A   1      33.654  34.443  28.521  1.00  0.00     0.338 C 
ATOM      5  O   UNL A   1      34.386  35.275  28.009  1.00  0.00    -0.246 OA
BRANCH   4   6
ATOM      6  C   UNL A   1      33.366  33.138  27.886  1.00  0.00     0.062 A 
ATOM      7  C   UNL A   1      34.227  30.919  27.301  1.00  0.00     0.056 A 
ATOM      8  C   UNL A   1      34.404  32.202  27.833  1.00  0.00     0.043 A 
ATOM      9  C   UNL A   1      33.012  30.628  26.651  1.00  0.00     0.060 A 
ATOM     10  C   UNL A   1      31.981  31.595  26.673  1.00  0.00     0.029 A 
ATOM     11  C   UNL A   1      32.138  32.830  27.314  1.00  0.00     0.018 A 
BRANCH   7  12
ATOM     12  N   UNL A   1      35.344  30.088  27.286  1.00  0.00    -0.397 N 
ATOM     13  H   UNL A   1      35.640  29.676  26.444  1.00  0.00     0.156 HD
ATOM     14  H   UNL A   1      35.838  29.914  28.120  1.00  0.00     0.156 HD
ENDBRANCH   7  12
BRANCH   9  15
ATOM     15  N   UNL A   1      32.755  29.445  25.924  1.00  0.00    -0.369 N 
ATOM     16  C   UNL A   1      32.927  29.105  24.550  1.00  0.00     0.125 C 
ATOM     17  C   UNL A   1      31.588  28.625  26.099  1.00  0.00     0.125 C 
ATOM     18  C   UNL A   1      31.517  28.466  24.568  1.00  0.00     0.010 C 
ATOM     19  C   UNL A   1      31.459  27.024  24.059  1.00  0.00     0.039 C 
ATOM     20  C   UNL A   1      30.377  29.276  23.930  1.00  0.00     0.039 C 
ATOM     21  C   UNL A   1      31.509  27.043  22.533  1.00  0.00     0.161 C 
ATOM     22  C   UNL A   1      30.486  29.178  22.414  1.00  0.00     0.161 C 
ATOM     23  O   UNL A   1      30.425  27.810  22.004  1.00  0.00    -0.381 OA
ENDBRANCH   9  15
ENDBRANCH   4   6
ENDBRANCH   3   4
ENDBRANCH   2   3
ENDBRANCH   1   2
BRANCH   1  24
ATOM     24  O   UNL A   1      34.977  33.041  31.408  1.00  0.00    -0.458 OA
BRANCH  24  25
ATOM     25  C   UNL A   1      35.710  32.367  32.326  1.00  0.00     0.338 C 
ATOM     26  O   UNL A   1      35.543  32.340  33.532  1.00  0.00    -0.246 OA
BRANCH  25  27
ATOM     27  C   UNL A   1      36.793  31.622  31.656  1.00  0.00     0.060 A 
ATOM     28  C   UNL A   1      37.612  30.775  32.395  1.00  0.00     0.016 A 
ATOM     29  C   UNL A   1      37.081  31.865  30.315  1.00  0.00     0.016 A 
ATOM     30  C   UNL A   1      38.786  30.266  31.839  1.00  0.00     0.010 A 
ATOM     31  C   UNL A   1      38.196  31.256  29.722  1.00  0.00     0.010 A 
ATOM     32  C   UNL A   1      39.093  30.487  30.488  1.00  0.00    -0.014 A 
BRANCH  32  33
ATOM     33  C   UNL A   1      40.356  29.958  29.886  1.00  0.00     0.031 A 
ATOM     34  C   UNL A   1      41.570  30.847  29.756  1.00  0.00     0.074 A 
ATOM     35  C   UNL A   1      40.438  28.683  29.452  1.00  0.00     0.049 A 
ATOM     36  N   UNL A   1      42.681  30.647  29.089  1.00  0.00    -0.248 NA
ATOM     37  C   UNL A   1      41.525  32.140  30.458  1.00  0.00     0.031 C 
ATOM     38  C   UNL A   1      39.373  27.682  29.537  1.00  0.00     0.029 A 
ATOM     39  N   UNL A   1      41.475  28.005  28.854  1.00  0.00    -0.354 N 
ATOM     40  C   UNL A   1      43.428  31.811  29.229  1.00  0.00     0.074 A 
ATOM     41  C   UNL A   1      42.650  32.713  30.051  1.00  0.00     0.031 C 
ATOM     42  C   UNL A   1      39.823  26.513  29.059  1.00  0.00     0.029 A 
ATOM     43  C   UNL A   1      41.173  26.700  28.540  1.00  0.00     0.049 A 
ATOM     44  H   UNL A   1      42.351  28.415  28.668  1.00  0.00     0.167 HD
ATOM     45  C   UNL A   1      44.648  32.105  28.719  1.00  0.00     0.037 A 
ATOM     46  C   UNL A   1      41.877  25.767  27.871  1.00  0.00     0.037 A 
ATOM     47  C   UNL A   1      45.462  31.185  27.966  1.00  0.00     0.049 A 
ATOM     48  C   UNL A   1      43.223  26.118  27.306  1.00  0.00     0.074 A 
ATOM     49  C   UNL A   1      46.725  31.386  27.435  1.00  0.00     0.029 A 
ATOM     50  N   UNL A   1      45.102  29.882  27.659  1.00  0.00    -0.354 N 
ATOM     51  N   UNL A   1      43.887  27.243  27.394  1.00  0.00    -0.248 NA
ATOM     52  C   UNL A   1      43.906  25.075  26.526  1.00  0.00     0.031 C 
ATOM     53  C   UNL A   1      47.119  30.213  26.781  1.00  0.00     0.029 A 
ATOM     54  C   UNL A   1      46.117  29.270  26.938  1.00  0.00     0.049 A 
ATOM     55  H   UNL A   1      44.254  29.454  27.913  1.00  0.00     0.167 HD
ATOM     56  C   UNL A   1      45.068  27.042  26.691  1.00  0.00     0.074 A 
ATOM     57  C   UNL A   1      45.039  25.680  26.201  1.00  0.00     0.031 C 
ATOM     58  C   UNL A   1      46.081  27.913  26.463  1.00  0.00     0.037 A 
BRANCH  45  59
ATOM     59  C   UNL A   1      45.180  33.493  28.930  1.00  0.00     0.057 A 
ATOM     60  C   UNL A   1      44.889  34.546  28.057  1.00  0.00     0.134 A 
ATOM     61  C   UNL A   1      45.949  33.787  30.065  1.00  0.00     0.134 A 
ATOM     62  F   UNL A   1      44.167  34.330  26.947  1.00  0.00    -0.206 F 
ATOM     63  C   UNL A   1      45.359  35.841  28.294  1.00  0.00     0.040 A 
ATOM     64  C   UNL A   1      46.404  35.080  30.325  1.00  0.00     0.040 A 
ATOM     65  F   UNL A   1      46.257  32.824  30.947  1.00  0.00    -0.206 F 
ATOM     66  C   UNL A   1      46.111  36.111  29.435  1.00  0.00     0.006 A 
ENDBRANCH  45  59
BRANCH  46  67
ATOM     67  C   UNL A   1      41.299  24.415  27.654  1.00  0.00     0.057 A 
ATOM     68  C   UNL A   1      41.747  23.311  28.387  1.00  0.00     0.134 A 
ATOM     69  C   UNL A   1      40.293  24.195  26.704  1.00  0.00     0.134 A 
ATOM     70  F   UNL A   1      42.729  23.454  29.291  1.00  0.00    -0.206 F 
ATOM     71  C   UNL A   1      41.222  22.034  28.180  1.00  0.00     0.040 A 
ATOM     72  C   UNL A   1      39.739  22.930  26.506  1.00  0.00     0.040 A 
ATOM     73  F   UNL A   1      39.822  25.212  25.968  1.00  0.00    -0.206 F 
ATOM     74  C   UNL A   1      40.208  21.843  27.242  1.00  0.00     0.006 A 
ENDBRANCH  46  67
BRANCH  58  75
ATOM     75  C   UNL A   1      47.252  27.407  25.678  1.00  0.00     0.057 A 
ATOM     76  C   UNL A   1      48.306  26.718  26.290  1.00  0.00     0.134 A 
ATOM     77  C   UNL A   1      47.316  27.592  24.292  1.00  0.00     0.134 A 
ATOM     78  F   UNL A   1      48.311  26.522  27.617  1.00  0.00    -0.206 F 
ATOM     79  C   UNL A   1      49.393  26.246  25.552  1.00  0.00     0.040 A 
ATOM     80  C   UNL A   1      48.386  27.107  23.540  1.00  0.00     0.040 A 
ATOM     81  F   UNL A   1      46.335  28.240  23.646  1.00  0.00    -0.206 F 
ATOM     82  C   UNL A   1      49.432  26.437  24.172  1.00  0.00     0.006 A 
ENDBRANCH  58  75
ENDBRANCH  32  33
ENDBRANCH  25  27
ENDBRANCH  24  25
ENDBRANCH   1  24
TORSDOF 13
ENDMDL
