MODEL 1
REMARK VINA RESULT:     -11.2      0.000      0.000
REMARK SMILES Cc1cc(C)c2c(OCCCC(=O)OCCOC(=O)c3ccc(-c4c5nc(c(-c6c(F)cccc6F)c6ccc([nH]6)c(-c6c(F)cccc6F)c6nc(c(-c7c(F)cccc7F)c7ccc4[nH]7)C=C6)C=C5)cc3)nsc2n1
REMARK SMILES IDX 15 1 14 2 12 3 13 4 11 5 10 6 9 7 8 8 7 9 1 10 2 11 3 12
REMARK SMILES IDX 77 13 4 14 76 15 5 16 6 17 75 18 74 19 16 20 17 21 18 22
REMARK SMILES IDX 19 23 20 24 21 25 73 26 22 27 72 28 23 29 24 30 25 31 66 32
REMARK SMILES IDX 26 33 71 34 65 35 67 36 27 37 70 38 64 39 63 40 28 42 54 43
REMARK SMILES IDX 37 44 53 45 38 46 41 47 52 48 68 49 39 50 40 51 51 53 69 54
REMARK SMILES IDX 42 55 29 56 30 57 35 58 31 59 32 60 34 61 36 62 33 63 55 64
REMARK SMILES IDX 56 65 61 66 57 67 58 68 60 69 62 70 59 71 43 72 44 73 49 74
REMARK SMILES IDX 45 75 46 76 48 77 50 78 47 79
REMARK H PARENT 67 41 41 52
REMARK Flexibility Score: inf
ROOT
ATOM      1  C   UNL A   1      42.304  19.556  26.870  1.00  0.00     0.274 C 
ENDROOT
BRANCH   1   2
ATOM      2  O   UNL A   1      40.899  19.783  26.566  1.00  0.00    -0.462 OA
BRANCH   2   3
ATOM      3  C   UNL A   1      40.331  20.968  26.885  1.00  0.00     0.306 C 
ATOM      4  O   UNL A   1      40.413  21.470  28.003  1.00  0.00    -0.252 OA
BRANCH   3   5
ATOM      5  C   UNL A   1      39.464  21.573  25.780  1.00  0.00     0.126 C 
BRANCH   5   6
ATOM      6  C   UNL A   1      38.382  22.621  26.068  1.00  0.00     0.053 C 
BRANCH   6   7
ATOM      7  C   UNL A   1      36.903  22.436  25.669  1.00  0.00     0.232 C 
BRANCH   7   8
ATOM      8  O   UNL A   1      36.512  22.281  24.310  1.00  0.00    -0.477 OA
BRANCH   8   9
ATOM      9  C   UNL A   1      35.279  22.671  23.919  1.00  0.00     0.235 A 
ATOM     10  C   UNL A   1      30.347  22.609  26.287  1.00  0.00     0.067 C 
ATOM     11  C   UNL A   1      31.459  22.349  25.309  1.00  0.00     0.039 A 
ATOM     12  C   UNL A   1      32.120  21.125  25.324  1.00  0.00     0.027 A 
ATOM     13  N   UNL A   1      31.858  23.383  24.557  1.00  0.00    -0.240 NA
ATOM     14  C   UNL A   1      33.401  20.974  24.751  1.00  0.00    -0.034 A 
ATOM     15  C   UNL A   1      33.088  23.228  24.034  1.00  0.00     0.147 A 
ATOM     16  C   UNL A   1      34.087  19.634  24.793  1.00  0.00     0.045 C 
ATOM     17  C   UNL A   1      33.967  22.160  24.221  1.00  0.00     0.078 A 
ATOM     18  S   UNL A   1      33.818  24.400  23.041  1.00  0.00    -0.012 S 
ATOM     19  N   UNL A   1      35.340  23.754  23.143  1.00  0.00    -0.153 NA
ENDBRANCH   8   9
ENDBRANCH   7   8
ENDBRANCH   6   7
ENDBRANCH   5   6
ENDBRANCH   3   5
ENDBRANCH   2   3
ENDBRANCH   1   2
BRANCH   1  20
ATOM     20  C   UNL A   1      42.982  18.822  25.709  1.00  0.00     0.275 C 
BRANCH  20  21
ATOM     21  O   UNL A   1      43.393  19.758  24.730  1.00  0.00    -0.458 OA
BRANCH  21  22
ATOM     22  C   UNL A   1      44.744  19.850  24.640  1.00  0.00     0.338 C 
ATOM     23  O   UNL A   1      45.534  18.945  24.652  1.00  0.00    -0.246 OA
BRANCH  22  24
ATOM     24  C   UNL A   1      45.059  21.284  24.553  1.00  0.00     0.060 A 
ATOM     25  C   UNL A   1      46.079  21.715  25.388  1.00  0.00     0.016 A 
ATOM     26  C   UNL A   1      44.137  22.159  23.955  1.00  0.00     0.016 A 
ATOM     27  C   UNL A   1      45.919  22.952  25.949  1.00  0.00     0.010 A 
ATOM     28  C   UNL A   1      43.965  23.383  24.528  1.00  0.00     0.010 A 
ATOM     29  C   UNL A   1      44.779  23.690  25.608  1.00  0.00    -0.014 A 
BRANCH  29  30
ATOM     30  C   UNL A   1      44.496  24.865  26.382  1.00  0.00     0.031 A 
ATOM     31  C   UNL A   1      45.613  25.812  26.313  1.00  0.00     0.074 A 
ATOM     32  C   UNL A   1      43.342  25.038  27.047  1.00  0.00     0.049 A 
ATOM     33  N   UNL A   1      46.552  25.954  27.184  1.00  0.00    -0.248 NA
ATOM     34  C   UNL A   1      45.873  26.456  25.018  1.00  0.00     0.031 C 
ATOM     35  C   UNL A   1      42.095  24.277  26.952  1.00  0.00     0.029 A 
ATOM     36  N   UNL A   1      43.039  26.021  27.930  1.00  0.00    -0.354 N 
ATOM     37  C   UNL A   1      47.388  26.916  26.641  1.00  0.00     0.074 A 
ATOM     38  C   UNL A   1      47.084  26.967  25.237  1.00  0.00     0.031 C 
ATOM     39  C   UNL A   1      41.110  24.962  27.582  1.00  0.00     0.029 A 
ATOM     40  C   UNL A   1      41.688  26.122  28.238  1.00  0.00     0.049 A 
ATOM     41  H   UNL A   1      43.720  26.613  28.322  1.00  0.00     0.167 HD
ATOM     42  C   UNL A   1      47.986  27.824  27.453  1.00  0.00     0.037 A 
ATOM     43  C   UNL A   1      41.128  27.155  28.917  1.00  0.00     0.037 A 
ATOM     44  C   UNL A   1      48.008  27.351  28.821  1.00  0.00     0.049 A 
ATOM     45  C   UNL A   1      42.226  27.825  29.669  1.00  0.00     0.074 A 
ATOM     46  C   UNL A   1      48.521  26.233  29.452  1.00  0.00     0.029 A 
ATOM     47  N   UNL A   1      47.079  27.878  29.686  1.00  0.00    -0.354 N 
ATOM     48  N   UNL A   1      42.858  27.276  30.670  1.00  0.00    -0.248 NA
ATOM     49  C   UNL A   1      42.935  28.910  29.006  1.00  0.00     0.031 C 
ATOM     50  C   UNL A   1      47.565  25.895  30.454  1.00  0.00     0.029 A 
ATOM     51  C   UNL A   1      46.552  26.855  30.429  1.00  0.00     0.049 A 
ATOM     52  H   UNL A   1      46.835  28.830  29.760  1.00  0.00     0.167 HD
ATOM     53  C   UNL A   1      44.186  27.642  30.497  1.00  0.00     0.074 A 
ATOM     54  C   UNL A   1      44.159  28.716  29.505  1.00  0.00     0.031 C 
ATOM     55  C   UNL A   1      45.199  26.842  30.943  1.00  0.00     0.037 A 
BRANCH  42  56
ATOM     56  C   UNL A   1      48.120  29.283  27.091  1.00  0.00     0.057 A 
ATOM     57  C   UNL A   1      49.374  29.895  27.241  1.00  0.00     0.134 A 
ATOM     58  C   UNL A   1      47.045  30.177  26.881  1.00  0.00     0.134 A 
ATOM     59  F   UNL A   1      50.476  29.160  27.456  1.00  0.00    -0.206 F 
ATOM     60  C   UNL A   1      49.532  31.285  27.270  1.00  0.00     0.040 A 
ATOM     61  C   UNL A   1      47.199  31.563  26.855  1.00  0.00     0.040 A 
ATOM     62  F   UNL A   1      45.769  29.786  26.788  1.00  0.00    -0.206 F 
ATOM     63  C   UNL A   1      48.440  32.124  27.085  1.00  0.00     0.006 A 
ENDBRANCH  42  56
BRANCH  43  64
ATOM     64  C   UNL A   1      39.826  27.823  28.672  1.00  0.00     0.057 A 
ATOM     65  C   UNL A   1      38.867  27.912  29.693  1.00  0.00     0.134 A 
ATOM     66  C   UNL A   1      39.609  28.645  27.551  1.00  0.00     0.134 A 
ATOM     67  F   UNL A   1      39.002  27.195  30.818  1.00  0.00    -0.206 F 
ATOM     68  C   UNL A   1      37.783  28.797  29.625  1.00  0.00     0.040 A 
ATOM     69  C   UNL A   1      38.526  29.527  27.469  1.00  0.00     0.040 A 
ATOM     70  F   UNL A   1      40.487  28.691  26.541  1.00  0.00    -0.206 F 
ATOM     71  C   UNL A   1      37.619  29.621  28.517  1.00  0.00     0.006 A 
ENDBRANCH  43  64
BRANCH  55  72
ATOM     72  C   UNL A   1      44.847  25.705  31.865  1.00  0.00     0.057 A 
ATOM     73  C   UNL A   1      44.478  24.422  31.430  1.00  0.00     0.134 A 
ATOM     74  C   UNL A   1      45.064  25.869  33.238  1.00  0.00     0.134 A 
ATOM     75  F   UNL A   1      44.333  24.146  30.128  1.00  0.00    -0.206 F 
ATOM     76  C   UNL A   1      44.313  23.359  32.326  1.00  0.00     0.040 A 
ATOM     77  C   UNL A   1      44.936  24.809  34.138  1.00  0.00     0.040 A 
ATOM     78  F   UNL A   1      45.464  27.056  33.720  1.00  0.00    -0.206 F 
ATOM     79  C   UNL A   1      44.554  23.549  33.683  1.00  0.00     0.006 A 
ENDBRANCH  55  72
ENDBRANCH  29  30
ENDBRANCH  22  24
ENDBRANCH  21  22
ENDBRANCH  20  21
ENDBRANCH   1  20
TORSDOF 15
ENDMDL
MODEL 2
REMARK VINA RESULT:     -10.9      6.207     11.053
REMARK SMILES Cc1cc(C)c2c(OCCCC(=O)OCCOC(=O)c3ccc(-c4c5nc(c(-c6c(F)cccc6F)c6ccc([nH]6)c(-c6c(F)cccc6F)c6nc(c(-c7c(F)cccc7F)c7ccc4[nH]7)C=C6)C=C5)cc3)nsc2n1
REMARK SMILES IDX 15 1 14 2 12 3 13 4 11 5 10 6 9 7 8 8 7 9 1 10 2 11 3 12
REMARK SMILES IDX 77 13 4 14 76 15 5 16 6 17 75 18 74 19 16 20 17 21 18 22
REMARK SMILES IDX 19 23 20 24 21 25 73 26 22 27 72 28 23 29 24 30 25 31 66 32
REMARK SMILES IDX 26 33 71 34 65 35 67 36 27 37 70 38 64 39 63 40 28 42 54 43
REMARK SMILES IDX 37 44 53 45 38 46 41 47 52 48 68 49 39 50 40 51 51 53 69 54
REMARK SMILES IDX 42 55 29 56 30 57 35 58 31 59 32 60 34 61 36 62 33 63 55 64
REMARK SMILES IDX 56 65 61 66 57 67 58 68 60 69 62 70 59 71 43 72 44 73 49 74
REMARK SMILES IDX 45 75 46 76 48 77 50 78 47 79
REMARK H PARENT 67 41 41 52
REMARK Flexibility Score: inf
ROOT
ATOM      1  C   UNL A   1      33.302  35.368  28.826  1.00  0.00     0.274 C 
ENDROOT
BRANCH   1   2
ATOM      2  O   UNL A   1      34.248  34.307  29.141  1.00  0.00    -0.462 OA
BRANCH   2   3
ATOM      3  C   UNL A   1      34.567  33.395  28.194  1.00  0.00     0.306 C 
ATOM      4  O   UNL A   1      35.594  33.456  27.526  1.00  0.00    -0.252 OA
BRANCH   3   5
ATOM      5  C   UNL A   1      33.481  32.352  27.929  1.00  0.00     0.126 C 
BRANCH   5   6
ATOM      6  C   UNL A   1      33.811  30.899  27.564  1.00  0.00     0.053 C 
BRANCH   6   7
ATOM      7  C   UNL A   1      33.115  30.141  26.415  1.00  0.00     0.232 C 
BRANCH   7   8
ATOM      8  O   UNL A   1      31.808  29.599  26.564  1.00  0.00    -0.477 OA
BRANCH   8   9
ATOM      9  C   UNL A   1      31.544  28.353  26.114  1.00  0.00     0.235 A 
ATOM     10  C   UNL A   1      32.214  25.828  21.307  1.00  0.00     0.067 C 
ATOM     11  C   UNL A   1      31.562  26.398  22.536  1.00  0.00     0.039 A 
ATOM     12  C   UNL A   1      30.885  27.610  22.459  1.00  0.00     0.027 A 
ATOM     13  N   UNL A   1      31.796  25.766  23.694  1.00  0.00    -0.240 NA
ATOM     14  C   UNL A   1      30.628  28.384  23.613  1.00  0.00    -0.034 A 
ATOM     15  C   UNL A   1      31.563  26.524  24.780  1.00  0.00     0.147 A 
ATOM     16  C   UNL A   1      29.898  29.694  23.488  1.00  0.00     0.045 C 
ATOM     17  C   UNL A   1      31.156  27.859  24.818  1.00  0.00     0.078 A 
ATOM     18  S   UNL A   1      31.783  25.950  26.366  1.00  0.00    -0.012 S 
ATOM     19  N   UNL A   1      31.726  27.446  27.075  1.00  0.00    -0.153 NA
ENDBRANCH   8   9
ENDBRANCH   7   8
ENDBRANCH   6   7
ENDBRANCH   5   6
ENDBRANCH   3   5
ENDBRANCH   2   3
ENDBRANCH   1   2
BRANCH   1  20
ATOM     20  C   UNL A   1      32.913  36.123  30.100  1.00  0.00     0.275 C 
BRANCH  20  21
ATOM     21  O   UNL A   1      33.843  35.832  31.127  1.00  0.00    -0.458 OA
BRANCH  21  22
ATOM     22  C   UNL A   1      33.270  35.181  32.172  1.00  0.00     0.338 C 
ATOM     23  O   UNL A   1      32.102  35.141  32.448  1.00  0.00    -0.246 OA
BRANCH  22  24
ATOM     24  C   UNL A   1      34.367  34.554  32.923  1.00  0.00     0.060 A 
ATOM     25  C   UNL A   1      35.550  35.278  32.955  1.00  0.00     0.016 A 
ATOM     26  C   UNL A   1      34.299  33.186  33.233  1.00  0.00     0.016 A 
ATOM     27  C   UNL A   1      36.706  34.552  32.887  1.00  0.00     0.010 A 
ATOM     28  C   UNL A   1      35.450  32.460  33.144  1.00  0.00     0.010 A 
ATOM     29  C   UNL A   1      36.608  33.156  32.835  1.00  0.00    -0.014 A 
BRANCH  29  30
ATOM     30  C   UNL A   1      37.798  32.421  32.516  1.00  0.00     0.031 A 
ATOM     31  C   UNL A   1      38.689  32.347  33.677  1.00  0.00     0.074 A 
ATOM     32  C   UNL A   1      38.015  31.875  31.308  1.00  0.00     0.049 A 
ATOM     33  N   UNL A   1      39.704  33.105  33.915  1.00  0.00    -0.248 NA
ATOM     34  C   UNL A   1      38.236  31.549  34.825  1.00  0.00     0.031 C 
ATOM     35  C   UNL A   1      37.080  31.678  30.199  1.00  0.00     0.029 A 
ATOM     36  N   UNL A   1      39.159  31.309  30.852  1.00  0.00    -0.354 N 
ATOM     37  C   UNL A   1      40.172  32.683  35.148  1.00  0.00     0.074 A 
ATOM     38  C   UNL A   1      39.095  31.954  35.760  1.00  0.00     0.031 C 
ATOM     39  C   UNL A   1      37.640  30.844  29.290  1.00  0.00     0.029 A 
ATOM     40  C   UNL A   1      39.011  30.572  29.684  1.00  0.00     0.049 A 
ATOM     41  H   UNL A   1      40.024  31.413  31.310  1.00  0.00     0.167 HD
ATOM     42  C   UNL A   1      41.508  32.665  35.391  1.00  0.00     0.037 A 
ATOM     43  C   UNL A   1      39.957  29.745  29.169  1.00  0.00     0.037 A 
ATOM     44  C   UNL A   1      42.208  33.526  34.463  1.00  0.00     0.049 A 
ATOM     45  C   UNL A   1      41.262  30.165  29.753  1.00  0.00     0.074 A 
ATOM     46  C   UNL A   1      42.139  34.871  34.147  1.00  0.00     0.029 A 
ATOM     47  N   UNL A   1      42.859  32.926  33.412  1.00  0.00    -0.354 N 
ATOM     48  N   UNL A   1      41.848  31.299  29.478  1.00  0.00    -0.248 NA
ATOM     49  C   UNL A   1      41.680  29.537  30.998  1.00  0.00     0.031 C 
ATOM     50  C   UNL A   1      42.347  34.936  32.738  1.00  0.00     0.029 A 
ATOM     51  C   UNL A   1      42.595  33.643  32.275  1.00  0.00     0.049 A 
ATOM     52  H   UNL A   1      43.420  32.118  33.467  1.00  0.00     0.167 HD
ATOM     53  C   UNL A   1      42.373  31.733  30.687  1.00  0.00     0.074 A 
ATOM     54  C   UNL A   1      42.311  30.567  31.568  1.00  0.00     0.031 C 
ATOM     55  C   UNL A   1      42.526  33.064  30.951  1.00  0.00     0.037 A 
BRANCH  42  56
ATOM     56  C   UNL A   1      42.188  31.542  36.137  1.00  0.00     0.057 A 
ATOM     57  C   UNL A   1      43.087  31.873  37.162  1.00  0.00     0.134 A 
ATOM     58  C   UNL A   1      42.229  30.191  35.724  1.00  0.00     0.134 A 
ATOM     59  F   UNL A   1      43.157  33.126  37.639  1.00  0.00    -0.206 F 
ATOM     60  C   UNL A   1      44.014  30.957  37.672  1.00  0.00     0.040 A 
ATOM     61  C   UNL A   1      43.112  29.255  36.264  1.00  0.00     0.040 A 
ATOM     62  F   UNL A   1      41.499  29.707  34.714  1.00  0.00    -0.206 F 
ATOM     63  C   UNL A   1      44.033  29.645  37.216  1.00  0.00     0.006 A 
ENDBRANCH  42  56
BRANCH  43  64
ATOM     64  C   UNL A   1      39.776  28.418  28.532  1.00  0.00     0.057 A 
ATOM     65  C   UNL A   1      40.324  28.154  27.268  1.00  0.00     0.134 A 
ATOM     66  C   UNL A   1      39.334  27.297  29.257  1.00  0.00     0.134 A 
ATOM     67  F   UNL A   1      40.805  29.152  26.512  1.00  0.00    -0.206 F 
ATOM     68  C   UNL A   1      40.467  26.851  26.772  1.00  0.00     0.040 A 
ATOM     69  C   UNL A   1      39.465  25.992  28.769  1.00  0.00     0.040 A 
ATOM     70  F   UNL A   1      38.848  27.418  30.499  1.00  0.00    -0.206 F 
ATOM     71  C   UNL A   1      40.051  25.763  27.531  1.00  0.00     0.006 A 
ENDBRANCH  43  64
BRANCH  55  72
ATOM     72  C   UNL A   1      42.376  34.031  29.806  1.00  0.00     0.057 A 
ATOM     73  C   UNL A   1      41.180  34.688  29.479  1.00  0.00     0.134 A 
ATOM     74  C   UNL A   1      43.529  34.442  29.128  1.00  0.00     0.134 A 
ATOM     75  F   UNL A   1      40.042  34.425  30.135  1.00  0.00    -0.206 F 
ATOM     76  C   UNL A   1      41.133  35.694  28.506  1.00  0.00     0.040 A 
ATOM     77  C   UNL A   1      43.502  35.467  28.179  1.00  0.00     0.040 A 
ATOM     78  F   UNL A   1      44.717  33.891  29.421  1.00  0.00    -0.206 F 
ATOM     79  C   UNL A   1      42.300  36.094  27.862  1.00  0.00     0.006 A 
ENDBRANCH  55  72
ENDBRANCH  29  30
ENDBRANCH  22  24
ENDBRANCH  21  22
ENDBRANCH  20  21
ENDBRANCH   1  20
TORSDOF 15
ENDMDL
MODEL 3
REMARK VINA RESULT:     -10.9      1.548      2.149
REMARK SMILES Cc1cc(C)c2c(OCCCC(=O)OCCOC(=O)c3ccc(-c4c5nc(c(-c6c(F)cccc6F)c6ccc([nH]6)c(-c6c(F)cccc6F)c6nc(c(-c7c(F)cccc7F)c7ccc4[nH]7)C=C6)C=C5)cc3)nsc2n1
REMARK SMILES IDX 15 1 14 2 12 3 13 4 11 5 10 6 9 7 8 8 7 9 1 10 2 11 3 12
REMARK SMILES IDX 77 13 4 14 76 15 5 16 6 17 75 18 74 19 16 20 17 21 18 22
REMARK SMILES IDX 19 23 20 24 21 25 73 26 22 27 72 28 23 29 24 30 25 31 66 32
REMARK SMILES IDX 26 33 71 34 65 35 67 36 27 37 70 38 64 39 63 40 28 42 54 43
REMARK SMILES IDX 37 44 53 45 38 46 41 47 52 48 68 49 39 50 40 51 51 53 69 54
REMARK SMILES IDX 42 55 29 56 30 57 35 58 31 59 32 60 34 61 36 62 33 63 55 64
REMARK SMILES IDX 56 65 61 66 57 67 58 68 60 69 62 70 59 71 43 72 44 73 49 74
REMARK SMILES IDX 45 75 46 76 48 77 50 78 47 79
REMARK H PARENT 67 41 41 52
REMARK Flexibility Score: inf
ROOT
ATOM      1  C   UNL A   1      41.384  20.693  26.978  1.00  0.00     0.274 C 
ENDROOT
BRANCH   1   2
ATOM      2  O   UNL A   1      40.700  21.387  25.896  1.00  0.00    -0.462 OA
BRANCH   2   3
ATOM      3  C   UNL A   1      39.348  21.446  25.891  1.00  0.00     0.306 C 
ATOM      4  O   UNL A   1      38.645  20.618  25.319  1.00  0.00    -0.252 OA
BRANCH   3   5
ATOM      5  C   UNL A   1      38.766  22.700  26.543  1.00  0.00     0.126 C 
BRANCH   5   6
ATOM      6  C   UNL A   1      37.881  23.689  25.774  1.00  0.00     0.053 C 
BRANCH   6   7
ATOM      7  C   UNL A   1      36.375  23.458  25.531  1.00  0.00     0.232 C 
BRANCH   7   8
ATOM      8  O   UNL A   1      35.453  24.540  25.491  1.00  0.00    -0.477 OA
BRANCH   8   9
ATOM      9  C   UNL A   1      34.197  24.369  25.959  1.00  0.00     0.235 A 
ATOM     10  C   UNL A   1      29.307  26.362  24.525  1.00  0.00     0.067 C 
ATOM     11  C   UNL A   1      30.525  26.031  25.343  1.00  0.00     0.039 A 
ATOM     12  C   UNL A   1      31.502  26.998  25.549  1.00  0.00     0.027 A 
ATOM     13  N   UNL A   1      30.674  24.753  25.717  1.00  0.00    -0.240 NA
ATOM     14  C   UNL A   1      32.817  26.647  25.926  1.00  0.00    -0.034 A 
ATOM     15  C   UNL A   1      31.936  24.433  26.056  1.00  0.00     0.147 A 
ATOM     16  C   UNL A   1      33.849  27.724  26.133  1.00  0.00     0.045 C 
ATOM     17  C   UNL A   1      33.064  25.256  26.020  1.00  0.00     0.078 A 
ATOM     18  S   UNL A   1      32.384  22.874  26.567  1.00  0.00    -0.012 S 
ATOM     19  N   UNL A   1      34.012  23.122  26.397  1.00  0.00    -0.153 NA
ENDBRANCH   8   9
ENDBRANCH   7   8
ENDBRANCH   6   7
ENDBRANCH   5   6
ENDBRANCH   3   5
ENDBRANCH   2   3
ENDBRANCH   1   2
BRANCH   1  20
ATOM     20  C   UNL A   1      42.338  19.640  26.407  1.00  0.00     0.275 C 
BRANCH  20  21
ATOM     21  O   UNL A   1      42.811  20.063  25.142  1.00  0.00    -0.458 OA
BRANCH  21  22
ATOM     22  C   UNL A   1      44.165  20.032  25.061  1.00  0.00     0.338 C 
ATOM     23  O   UNL A   1      44.868  19.058  25.047  1.00  0.00    -0.246 OA
BRANCH  22  24
ATOM     24  C   UNL A   1      44.612  21.433  25.022  1.00  0.00     0.060 A 
ATOM     25  C   UNL A   1      45.545  21.781  25.987  1.00  0.00     0.016 A 
ATOM     26  C   UNL A   1      43.858  22.379  24.309  1.00  0.00     0.016 A 
ATOM     27  C   UNL A   1      45.419  23.032  26.526  1.00  0.00     0.010 A 
ATOM     28  C   UNL A   1      43.717  23.618  24.859  1.00  0.00     0.010 A 
ATOM     29  C   UNL A   1      44.403  23.863  26.038  1.00  0.00    -0.014 A 
BRANCH  29  30
ATOM     30  C   UNL A   1      44.122  25.063  26.772  1.00  0.00     0.031 A 
ATOM     31  C   UNL A   1      45.192  26.047  26.585  1.00  0.00     0.074 A 
ATOM     32  C   UNL A   1      43.006  25.227  27.501  1.00  0.00     0.049 A 
ATOM     33  N   UNL A   1      46.178  26.269  27.385  1.00  0.00    -0.248 NA
ATOM     34  C   UNL A   1      45.343  26.635  25.246  1.00  0.00     0.031 C 
ATOM     35  C   UNL A   1      41.788  24.415  27.525  1.00  0.00     0.029 A 
ATOM     36  N   UNL A   1      42.719  26.240  28.354  1.00  0.00    -0.354 N 
ATOM     37  C   UNL A   1      46.938  27.232  26.743  1.00  0.00     0.074 A 
ATOM     38  C   UNL A   1      46.544  27.201  25.361  1.00  0.00     0.031 C 
ATOM     39  C   UNL A   1      40.817  25.093  28.184  1.00  0.00     0.029 A 
ATOM     40  C   UNL A   1      41.388  26.306  28.744  1.00  0.00     0.049 A 
ATOM     41  H   UNL A   1      43.399  26.877  28.672  1.00  0.00     0.167 HD
ATOM     42  C   UNL A   1      47.549  28.202  27.470  1.00  0.00     0.037 A 
ATOM     43  C   UNL A   1      40.829  27.351  29.408  1.00  0.00     0.037 A 
ATOM     44  C   UNL A   1      47.676  27.800  28.855  1.00  0.00     0.049 A 
ATOM     45  C   UNL A   1      41.945  28.099  30.054  1.00  0.00     0.074 A 
ATOM     46  C   UNL A   1      48.274  26.735  29.504  1.00  0.00     0.029 A 
ATOM     47  N   UNL A   1      46.784  28.335  29.752  1.00  0.00    -0.354 N 
ATOM     48  N   UNL A   1      42.661  27.625  31.037  1.00  0.00    -0.248 NA
ATOM     49  C   UNL A   1      42.566  29.175  29.295  1.00  0.00     0.031 C 
ATOM     50  C   UNL A   1      47.397  26.413  30.581  1.00  0.00     0.029 A 
ATOM     51  C   UNL A   1      46.346  27.331  30.576  1.00  0.00     0.049 A 
ATOM     52  H   UNL A   1      46.506  29.279  29.796  1.00  0.00     0.167 HD
ATOM     53  C   UNL A   1      43.960  28.031  30.760  1.00  0.00     0.074 A 
ATOM     54  C   UNL A   1      43.825  29.052  29.722  1.00  0.00     0.031 C 
ATOM     55  C   UNL A   1      45.031  27.294  31.177  1.00  0.00     0.037 A 
BRANCH  42  56
ATOM     56  C   UNL A   1      47.600  29.645  27.030  1.00  0.00     0.057 A 
ATOM     57  C   UNL A   1      48.819  30.331  27.135  1.00  0.00     0.134 A 
ATOM     58  C   UNL A   1      46.476  30.467  26.785  1.00  0.00     0.134 A 
ATOM     59  F   UNL A   1      49.962  29.670  27.377  1.00  0.00    -0.206 F 
ATOM     60  C   UNL A   1      48.901  31.727  27.090  1.00  0.00     0.040 A 
ATOM     61  C   UNL A   1      46.554  31.856  26.684  1.00  0.00     0.040 A 
ATOM     62  F   UNL A   1      45.223  30.003  26.726  1.00  0.00    -0.206 F 
ATOM     63  C   UNL A   1      47.764  32.494  26.872  1.00  0.00     0.006 A 
ENDBRANCH  42  56
BRANCH  43  64
ATOM     64  C   UNL A   1      39.489  27.956  29.216  1.00  0.00     0.057 A 
ATOM     65  C   UNL A   1      38.599  28.074  30.295  1.00  0.00     0.134 A 
ATOM     66  C   UNL A   1      39.163  28.699  28.068  1.00  0.00     0.134 A 
ATOM     67  F   UNL A   1      38.839  27.432  31.448  1.00  0.00    -0.206 F 
ATOM     68  C   UNL A   1      37.479  28.914  30.253  1.00  0.00     0.040 A 
ATOM     69  C   UNL A   1      38.044  29.536  28.010  1.00  0.00     0.040 A 
ATOM     70  F   UNL A   1      39.968  28.714  26.997  1.00  0.00    -0.206 F 
ATOM     71  C   UNL A   1      37.207  29.661  29.112  1.00  0.00     0.006 A 
ENDBRANCH  43  64
BRANCH  55  72
ATOM     72  C   UNL A   1      44.784  26.192  32.173  1.00  0.00     0.057 A 
ATOM     73  C   UNL A   1      44.615  26.397  33.552  1.00  0.00     0.134 A 
ATOM     74  C   UNL A   1      44.531  24.903  31.690  1.00  0.00     0.134 A 
ATOM     75  F   UNL A   1      44.750  27.614  34.093  1.00  0.00    -0.206 F 
ATOM     76  C   UNL A   1      44.233  25.359  34.410  1.00  0.00     0.040 A 
ATOM     77  C   UNL A   1      44.116  23.867  32.531  1.00  0.00     0.040 A 
ATOM     78  F   UNL A   1      44.625  24.644  30.377  1.00  0.00    -0.206 F 
ATOM     79  C   UNL A   1      43.970  24.092  33.897  1.00  0.00     0.006 A 
ENDBRANCH  55  72
ENDBRANCH  29  30
ENDBRANCH  22  24
ENDBRANCH  21  22
ENDBRANCH  20  21
ENDBRANCH   1  20
TORSDOF 15
ENDMDL
