MODEL 1
REMARK VINA RESULT:     -12.6      0.000      0.000
REMARK SMILES C[C@@H]1Cc2ccccc2N1S(=O)(=O)c1c[nH]c(C(=O)OCCOC(=O)c2ccc(-c3c4nc(c(-c5c(F)cccc5F)c5ccc([nH]5)c(-c5c(F)cccc5F)c5nc(c(-c6c(F)cccc6F)c6ccc3[nH]6)C=C5)C=C4)cc2)c1
REMARK SMILES IDX 21 1 20 2 18 3 19 4 17 5 14 6 15 7 80 8 16 9 11 11 12 12
REMARK SMILES IDX 13 13 10 14 1 15 2 16 3 17 4 18 9 19 5 20 8 21 6 22 7 23
REMARK SMILES IDX 22 24 23 25 24 26 25 27 26 28 27 29 79 30 28 31 78 32 29 33
REMARK SMILES IDX 30 34 31 35 72 36 32 37 77 38 71 39 73 40 33 41 76 42 70 43
REMARK SMILES IDX 69 44 34 46 60 47 43 48 59 49 44 50 47 51 58 52 74 53 45 54
REMARK SMILES IDX 46 55 57 57 75 58 48 59 35 60 36 61 41 62 37 63 38 64 40 65
REMARK SMILES IDX 42 66 39 67 61 68 62 69 67 70 63 71 64 72 66 73 68 74 65 75
REMARK SMILES IDX 49 76 50 77 55 78 51 79 52 80 54 81 56 82 53 83
REMARK H PARENT 16 10 73 45 47 56
REMARK Flexibility Score: inf
ROOT
ATOM      1  C   UNL A   1      39.096  21.951  26.078  1.00  0.00     0.275 C 
ENDROOT
BRANCH   1   2
ATOM      2  O   UNL A   1      37.751  22.493  26.077  1.00  0.00    -0.457 OA
BRANCH   2   3
ATOM      3  C   UNL A   1      36.798  21.646  25.608  1.00  0.00     0.354 C 
ATOM      4  O   UNL A   1      37.036  20.632  24.967  1.00  0.00    -0.244 OA
BRANCH   3   5
ATOM      5  C   UNL A   1      35.459  22.035  25.986  1.00  0.00     0.126 A 
ATOM      6  C   UNL A   1      33.371  22.882  26.303  1.00  0.00     0.106 A 
ATOM      7  C   UNL A   1      33.660  22.028  27.350  1.00  0.00     0.105 A 
ATOM      8  C   UNL A   1      34.513  22.898  25.446  1.00  0.00     0.057 A 
ATOM      9  N   UNL A   1      34.855  21.438  27.077  1.00  0.00    -0.354 N 
ATOM     10  H   UNL A   1      35.238  20.688  27.588  1.00  0.00     0.166 HD
BRANCH   6  11
ATOM     11  S   UNL A   1      31.839  23.655  26.074  1.00  0.00     0.266 S 
ATOM     12  O   UNL A   1      31.495  24.096  27.415  1.00  0.00    -0.201 OA
ATOM     13  O   UNL A   1      31.048  22.632  25.420  1.00  0.00    -0.201 OA
BRANCH  11  14
ATOM     14  N   UNL A   1      31.854  25.027  25.063  1.00  0.00    -0.263 N 
ATOM     15  C   UNL A   1      30.316  24.473  23.140  1.00  0.00     0.032 C 
ATOM     16  C   UNL A   1      30.490  25.271  24.421  1.00  0.00     0.101 C 
ATOM     17  C   UNL A   1      30.385  26.792  24.187  1.00  0.00     0.063 C 
ATOM     18  C   UNL A   1      31.488  27.326  25.039  1.00  0.00    -0.021 A 
ATOM     19  C   UNL A   1      32.291  26.304  25.548  1.00  0.00     0.055 A 
ATOM     20  C   UNL A   1      31.792  28.666  25.246  1.00  0.00     0.006 A 
ATOM     21  C   UNL A   1      33.463  26.618  26.216  1.00  0.00     0.027 A 
ATOM     22  C   UNL A   1      32.944  28.982  25.964  1.00  0.00     0.000 A 
ATOM     23  C   UNL A   1      33.779  27.964  26.439  1.00  0.00     0.002 A 
ENDBRANCH  11  14
ENDBRANCH   6  11
ENDBRANCH   3   5
ENDBRANCH   2   3
ENDBRANCH   1   2
BRANCH   1  24
ATOM     24  C   UNL A   1      40.000  22.655  27.098  1.00  0.00     0.275 C 
BRANCH  24  25
ATOM     25  O   UNL A   1      39.532  23.997  27.294  1.00  0.00    -0.458 OA
BRANCH  25  26
ATOM     26  C   UNL A   1      40.416  24.995  27.032  1.00  0.00     0.338 C 
ATOM     27  O   UNL A   1      41.298  25.008  26.204  1.00  0.00    -0.246 OA
BRANCH  26  28
ATOM     28  C   UNL A   1      39.826  26.194  27.661  1.00  0.00     0.060 A 
ATOM     29  C   UNL A   1      40.067  27.481  27.177  1.00  0.00     0.016 A 
ATOM     30  C   UNL A   1      39.295  25.998  28.931  1.00  0.00     0.016 A 
ATOM     31  C   UNL A   1      39.917  28.571  28.034  1.00  0.00     0.010 A 
ATOM     32  C   UNL A   1      39.196  27.087  29.788  1.00  0.00     0.010 A 
ATOM     33  C   UNL A   1      39.575  28.374  29.382  1.00  0.00    -0.014 A 
BRANCH  33  34
ATOM     34  C   UNL A   1      39.579  29.546  30.317  1.00  0.00     0.031 A 
ATOM     35  C   UNL A   1      38.372  30.435  30.132  1.00  0.00     0.074 A 
ATOM     36  C   UNL A   1      40.686  29.794  31.084  1.00  0.00     0.049 A 
ATOM     37  N   UNL A   1      38.343  31.634  29.642  1.00  0.00    -0.248 NA
ATOM     38  C   UNL A   1      37.012  29.882  30.320  1.00  0.00     0.031 C 
ATOM     39  C   UNL A   1      41.769  28.823  31.295  1.00  0.00     0.029 A 
ATOM     40  N   UNL A   1      41.149  30.874  31.825  1.00  0.00    -0.354 N 
ATOM     41  C   UNL A   1      36.991  32.006  29.572  1.00  0.00     0.074 A 
ATOM     42  C   UNL A   1      36.233  30.805  29.756  1.00  0.00     0.031 C 
ATOM     43  C   UNL A   1      42.771  29.349  32.024  1.00  0.00     0.029 A 
ATOM     44  C   UNL A   1      42.468  30.728  32.342  1.00  0.00     0.049 A 
ATOM     45  H   UNL A   1      40.606  31.681  31.980  1.00  0.00     0.167 HD
ATOM     46  C   UNL A   1      36.567  33.302  29.619  1.00  0.00     0.037 A 
ATOM     47  C   UNL A   1      43.311  31.647  32.913  1.00  0.00     0.037 A 
ATOM     48  C   UNL A   1      37.672  34.149  29.940  1.00  0.00     0.049 A 
ATOM     49  C   UNL A   1      42.590  32.929  32.910  1.00  0.00     0.074 A 
ATOM     50  C   UNL A   1      38.786  34.562  29.260  1.00  0.00     0.029 A 
ATOM     51  N   UNL A   1      37.850  34.400  31.282  1.00  0.00    -0.354 N 
ATOM     52  N   UNL A   1      41.633  33.253  33.725  1.00  0.00    -0.248 NA
ATOM     53  C   UNL A   1      42.896  33.904  31.853  1.00  0.00     0.031 C 
ATOM     54  C   UNL A   1      39.771  34.708  30.263  1.00  0.00     0.029 A 
ATOM     55  C   UNL A   1      39.194  34.511  31.523  1.00  0.00     0.049 A 
ATOM     56  H   UNL A   1      37.135  34.486  31.953  1.00  0.00     0.167 HD
ATOM     57  C   UNL A   1      41.016  34.285  33.055  1.00  0.00     0.074 A 
ATOM     58  C   UNL A   1      41.989  34.834  32.142  1.00  0.00     0.031 C 
ATOM     59  C   UNL A   1      39.673  34.227  32.860  1.00  0.00     0.037 A 
BRANCH  46  60
ATOM     60  C   UNL A   1      35.196  33.904  29.754  1.00  0.00     0.057 A 
ATOM     61  C   UNL A   1      34.524  34.142  30.957  1.00  0.00     0.134 A 
ATOM     62  C   UNL A   1      34.649  34.537  28.613  1.00  0.00     0.134 A 
ATOM     63  F   UNL A   1      34.957  33.650  32.122  1.00  0.00    -0.206 F 
ATOM     64  C   UNL A   1      33.416  34.995  31.032  1.00  0.00     0.040 A 
ATOM     65  C   UNL A   1      33.582  35.435  28.687  1.00  0.00     0.040 A 
ATOM     66  F   UNL A   1      35.188  34.354  27.396  1.00  0.00    -0.206 F 
ATOM     67  C   UNL A   1      32.968  35.675  29.905  1.00  0.00     0.006 A 
ENDBRANCH  46  60
BRANCH  47  68
ATOM     68  C   UNL A   1      44.756  31.682  33.378  1.00  0.00     0.057 A 
ATOM     69  C   UNL A   1      45.078  31.632  34.764  1.00  0.00     0.134 A 
ATOM     70  C   UNL A   1      45.883  31.751  32.552  1.00  0.00     0.134 A 
ATOM     71  F   UNL A   1      44.148  31.416  35.704  1.00  0.00    -0.206 F 
ATOM     72  C   UNL A   1      46.369  31.786  35.282  1.00  0.00     0.040 A 
ATOM     73  C   UNL A   1      47.193  31.892  33.059  1.00  0.00     0.040 A 
ATOM     74  F   UNL A   1      45.785  31.635  31.224  1.00  0.00    -0.206 F 
ATOM     75  C   UNL A   1      47.438  31.939  34.425  1.00  0.00     0.006 A 
ENDBRANCH  47  68
BRANCH  59  76
ATOM     76  C   UNL A   1      38.957  33.426  33.930  1.00  0.00     0.057 A 
ATOM     77  C   UNL A   1      38.518  32.109  33.746  1.00  0.00     0.134 A 
ATOM     78  C   UNL A   1      38.869  33.919  35.241  1.00  0.00     0.134 A 
ATOM     79  F   UNL A   1      38.571  31.542  32.540  1.00  0.00    -0.206 F 
ATOM     80  C   UNL A   1      38.039  31.313  34.794  1.00  0.00     0.040 A 
ATOM     81  C   UNL A   1      38.405  33.134  36.305  1.00  0.00     0.040 A 
ATOM     82  F   UNL A   1      39.264  35.171  35.516  1.00  0.00    -0.206 F 
ATOM     83  C   UNL A   1      37.995  31.822  36.085  1.00  0.00     0.006 A 
ENDBRANCH  59  76
ENDBRANCH  33  34
ENDBRANCH  26  28
ENDBRANCH  25  26
ENDBRANCH  24  25
ENDBRANCH   1  24
TORSDOF 13
ENDMDL
MODEL 2
REMARK VINA RESULT:     -12.6      4.518      9.451
REMARK SMILES C[C@@H]1Cc2ccccc2N1S(=O)(=O)c1c[nH]c(C(=O)OCCOC(=O)c2ccc(-c3c4nc(c(-c5c(F)cccc5F)c5ccc([nH]5)c(-c5c(F)cccc5F)c5nc(c(-c6c(F)cccc6F)c6ccc3[nH]6)C=C5)C=C4)cc2)c1
REMARK SMILES IDX 21 1 20 2 18 3 19 4 17 5 14 6 15 7 80 8 16 9 11 11 12 12
REMARK SMILES IDX 13 13 10 14 1 15 2 16 3 17 4 18 9 19 5 20 8 21 6 22 7 23
REMARK SMILES IDX 22 24 23 25 24 26 25 27 26 28 27 29 79 30 28 31 78 32 29 33
REMARK SMILES IDX 30 34 31 35 72 36 32 37 77 38 71 39 73 40 33 41 76 42 70 43
REMARK SMILES IDX 69 44 34 46 60 47 43 48 59 49 44 50 47 51 58 52 74 53 45 54
REMARK SMILES IDX 46 55 57 57 75 58 48 59 35 60 36 61 41 62 37 63 38 64 40 65
REMARK SMILES IDX 42 66 39 67 61 68 62 69 67 70 63 71 64 72 66 73 68 74 65 75
REMARK SMILES IDX 49 76 50 77 55 78 51 79 52 80 54 81 56 82 53 83
REMARK H PARENT 16 10 73 45 47 56
REMARK Flexibility Score: inf
ROOT
ATOM      1  C   UNL A   1      34.008  31.834  27.918  1.00  0.00     0.275 C 
ENDROOT
BRANCH   1   2
ATOM      2  O   UNL A   1      33.584  30.885  26.907  1.00  0.00    -0.457 OA
BRANCH   2   3
ATOM      3  C   UNL A   1      32.260  30.928  26.608  1.00  0.00     0.354 C 
ATOM      4  O   UNL A   1      31.539  31.892  26.819  1.00  0.00    -0.244 OA
BRANCH   3   5
ATOM      5  C   UNL A   1      31.786  29.725  25.961  1.00  0.00     0.126 A 
ATOM      6  C   UNL A   1      31.174  27.658  25.234  1.00  0.00     0.106 A 
ATOM      7  C   UNL A   1      30.923  28.568  24.226  1.00  0.00     0.105 A 
ATOM      8  C   UNL A   1      31.734  28.386  26.328  1.00  0.00     0.057 A 
ATOM      9  N   UNL A   1      31.175  29.809  24.724  1.00  0.00    -0.354 N 
ATOM     10  H   UNL A   1      30.953  30.651  24.265  1.00  0.00     0.166 HD
BRANCH   6  11
ATOM     11  S   UNL A   1      30.748  25.982  25.158  1.00  0.00     0.266 S 
ATOM     12  O   UNL A   1      29.832  25.931  24.033  1.00  0.00    -0.201 OA
ATOM     13  O   UNL A   1      30.271  25.703  26.497  1.00  0.00    -0.201 OA
BRANCH  11  14
ATOM     14  N   UNL A   1      32.034  24.913  24.832  1.00  0.00    -0.263 N 
ATOM     15  C   UNL A   1      32.948  25.611  22.585  1.00  0.00     0.032 C 
ATOM     16  C   UNL A   1      33.173  25.607  24.087  1.00  0.00     0.101 C 
ATOM     17  C   UNL A   1      34.468  24.871  24.487  1.00  0.00     0.063 C 
ATOM     18  C   UNL A   1      34.038  24.094  25.687  1.00  0.00    -0.021 A 
ATOM     19  C   UNL A   1      32.657  24.156  25.878  1.00  0.00     0.055 A 
ATOM     20  C   UNL A   1      34.852  23.300  26.487  1.00  0.00     0.006 A 
ATOM     21  C   UNL A   1      32.059  23.355  26.838  1.00  0.00     0.027 A 
ATOM     22  C   UNL A   1      34.256  22.535  27.488  1.00  0.00     0.000 A 
ATOM     23  C   UNL A   1      32.866  22.557  27.657  1.00  0.00     0.002 A 
ENDBRANCH  11  14
ENDBRANCH   6  11
ENDBRANCH   3   5
ENDBRANCH   2   3
ENDBRANCH   1   2
BRANCH   1  24
ATOM     24  C   UNL A   1      35.536  31.916  28.028  1.00  0.00     0.275 C 
BRANCH  24  25
ATOM     25  O   UNL A   1      36.076  30.587  28.067  1.00  0.00    -0.458 OA
BRANCH  25  26
ATOM     26  C   UNL A   1      36.673  30.205  29.226  1.00  0.00     0.338 C 
ATOM     27  O   UNL A   1      36.269  30.360  30.355  1.00  0.00    -0.246 OA
BRANCH  26  28
ATOM     28  C   UNL A   1      37.686  29.211  28.816  1.00  0.00     0.060 A 
ATOM     29  C   UNL A   1      38.154  28.225  29.687  1.00  0.00     0.016 A 
ATOM     30  C   UNL A   1      38.373  29.511  27.645  1.00  0.00     0.016 A 
ATOM     31  C   UNL A   1      39.401  27.646  29.455  1.00  0.00     0.010 A 
ATOM     32  C   UNL A   1      39.633  28.962  27.451  1.00  0.00     0.010 A 
ATOM     33  C   UNL A   1      40.200  28.083  28.385  1.00  0.00    -0.014 A 
BRANCH  33  34
ATOM     34  C   UNL A   1      41.598  27.559  28.255  1.00  0.00     0.031 A 
ATOM     35  C   UNL A   1      41.636  26.134  27.756  1.00  0.00     0.074 A 
ATOM     36  C   UNL A   1      42.645  28.302  28.733  1.00  0.00     0.049 A 
ATOM     37  N   UNL A   1      41.979  25.075  28.420  1.00  0.00    -0.248 NA
ATOM     38  C   UNL A   1      41.046  25.796  26.442  1.00  0.00     0.031 C 
ATOM     39  C   UNL A   1      42.541  29.722  29.096  1.00  0.00     0.029 A 
ATOM     40  N   UNL A   1      43.979  28.050  29.027  1.00  0.00    -0.354 N 
ATOM     41  C   UNL A   1      41.751  23.979  27.572  1.00  0.00     0.074 A 
ATOM     42  C   UNL A   1      40.947  24.467  26.492  1.00  0.00     0.031 C 
ATOM     43  C   UNL A   1      43.694  30.188  29.612  1.00  0.00     0.029 A 
ATOM     44  C   UNL A   1      44.666  29.117  29.672  1.00  0.00     0.049 A 
ATOM     45  H   UNL A   1      44.417  27.195  28.805  1.00  0.00     0.167 HD
ATOM     46  C   UNL A   1      42.435  22.803  27.667  1.00  0.00     0.037 A 
ATOM     47  C   UNL A   1      45.889  29.147  30.292  1.00  0.00     0.037 A 
ATOM     48  C   UNL A   1      43.506  22.954  28.601  1.00  0.00     0.049 A 
ATOM     49  C   UNL A   1      46.441  27.789  30.188  1.00  0.00     0.074 A 
ATOM     50  C   UNL A   1      43.574  23.078  29.963  1.00  0.00     0.029 A 
ATOM     51  N   UNL A   1      44.709  23.344  28.058  1.00  0.00    -0.354 N 
ATOM     52  N   UNL A   1      46.960  27.270  29.117  1.00  0.00    -0.248 NA
ATOM     53  C   UNL A   1      46.326  26.893  31.348  1.00  0.00     0.031 C 
ATOM     54  C   UNL A   1      44.699  23.904  30.181  1.00  0.00     0.029 A 
ATOM     55  C   UNL A   1      45.351  24.144  28.966  1.00  0.00     0.049 A 
ATOM     56  H   UNL A   1      45.050  23.092  27.169  1.00  0.00     0.167 HD
ATOM     57  C   UNL A   1      46.896  25.921  29.385  1.00  0.00     0.074 A 
ATOM     58  C   UNL A   1      46.829  25.781  30.820  1.00  0.00     0.031 C 
ATOM     59  C   UNL A   1      46.320  25.099  28.469  1.00  0.00     0.037 A 
BRANCH  46  60
ATOM     60  C   UNL A   1      42.492  21.600  26.767  1.00  0.00     0.057 A 
ATOM     61  C   UNL A   1      43.424  21.388  25.747  1.00  0.00     0.134 A 
ATOM     62  C   UNL A   1      41.733  20.468  27.146  1.00  0.00     0.134 A 
ATOM     63  F   UNL A   1      44.245  22.354  25.322  1.00  0.00    -0.206 F 
ATOM     64  C   UNL A   1      43.628  20.124  25.178  1.00  0.00     0.040 A 
ATOM     65  C   UNL A   1      41.969  19.194  26.628  1.00  0.00     0.040 A 
ATOM     66  F   UNL A   1      40.782  20.559  28.091  1.00  0.00    -0.206 F 
ATOM     67  C   UNL A   1      42.930  19.017  25.646  1.00  0.00     0.006 A 
ENDBRANCH  46  60
BRANCH  47  68
ATOM     68  C   UNL A   1      46.682  30.140  31.123  1.00  0.00     0.057 A 
ATOM     69  C   UNL A   1      46.162  30.646  32.348  1.00  0.00     0.134 A 
ATOM     70  C   UNL A   1      47.951  30.641  30.814  1.00  0.00     0.134 A 
ATOM     71  F   UNL A   1      45.031  30.177  32.890  1.00  0.00    -0.206 F 
ATOM     72  C   UNL A   1      46.768  31.653  33.109  1.00  0.00     0.040 A 
ATOM     73  C   UNL A   1      48.582  31.646  31.578  1.00  0.00     0.040 A 
ATOM     74  F   UNL A   1      48.666  30.154  29.796  1.00  0.00    -0.206 F 
ATOM     75  C   UNL A   1      47.980  32.177  32.712  1.00  0.00     0.006 A 
ENDBRANCH  47  68
BRANCH  59  76
ATOM     76  C   UNL A   1      46.429  25.630  27.053  1.00  0.00     0.057 A 
ATOM     77  C   UNL A   1      45.375  26.265  26.382  1.00  0.00     0.134 A 
ATOM     78  C   UNL A   1      47.675  25.673  26.409  1.00  0.00     0.134 A 
ATOM     79  F   UNL A   1      44.154  26.291  26.916  1.00  0.00    -0.206 F 
ATOM     80  C   UNL A   1      45.541  26.924  25.158  1.00  0.00     0.040 A 
ATOM     81  C   UNL A   1      47.863  26.339  25.191  1.00  0.00     0.040 A 
ATOM     82  F   UNL A   1      48.744  25.091  26.973  1.00  0.00    -0.206 F 
ATOM     83  C   UNL A   1      46.794  26.975  24.563  1.00  0.00     0.006 A 
ENDBRANCH  59  76
ENDBRANCH  33  34
ENDBRANCH  26  28
ENDBRANCH  25  26
ENDBRANCH  24  25
ENDBRANCH   1  24
TORSDOF 13
ENDMDL
MODEL 3
REMARK VINA RESULT:     -12.5      4.639      9.479
REMARK SMILES C[C@@H]1Cc2ccccc2N1S(=O)(=O)c1c[nH]c(C(=O)OCCOC(=O)c2ccc(-c3c4nc(c(-c5c(F)cccc5F)c5ccc([nH]5)c(-c5c(F)cccc5F)c5nc(c(-c6c(F)cccc6F)c6ccc3[nH]6)C=C5)C=C4)cc2)c1
REMARK SMILES IDX 21 1 20 2 18 3 19 4 17 5 14 6 15 7 80 8 16 9 11 11 12 12
REMARK SMILES IDX 13 13 10 14 1 15 2 16 3 17 4 18 9 19 5 20 8 21 6 22 7 23
REMARK SMILES IDX 22 24 23 25 24 26 25 27 26 28 27 29 79 30 28 31 78 32 29 33
REMARK SMILES IDX 30 34 31 35 72 36 32 37 77 38 71 39 73 40 33 41 76 42 70 43
REMARK SMILES IDX 69 44 34 46 60 47 43 48 59 49 44 50 47 51 58 52 74 53 45 54
REMARK SMILES IDX 46 55 57 57 75 58 48 59 35 60 36 61 41 62 37 63 38 64 40 65
REMARK SMILES IDX 42 66 39 67 61 68 62 69 67 70 63 71 64 72 66 73 68 74 65 75
REMARK SMILES IDX 49 76 50 77 55 78 51 79 52 80 54 81 56 82 53 83
REMARK H PARENT 16 10 73 45 47 56
REMARK Flexibility Score: inf
ROOT
ATOM      1  C   UNL A   1      33.514  29.989  27.487  1.00  0.00     0.275 C 
ENDROOT
BRANCH   1   2
ATOM      2  O   UNL A   1      32.580  29.402  26.547  1.00  0.00    -0.457 OA
BRANCH   2   3
ATOM      3  C   UNL A   1      32.114  28.176  26.901  1.00  0.00     0.354 C 
ATOM      4  O   UNL A   1      31.616  27.918  27.987  1.00  0.00    -0.244 OA
BRANCH   3   5
ATOM      5  C   UNL A   1      32.219  27.202  25.838  1.00  0.00     0.126 A 
ATOM      6  C   UNL A   1      32.646  25.518  24.369  1.00  0.00     0.106 A 
ATOM      7  C   UNL A   1      31.753  26.393  23.783  1.00  0.00     0.105 A 
ATOM      8  C   UNL A   1      32.953  26.035  25.664  1.00  0.00     0.057 A 
ATOM      9  N   UNL A   1      31.414  27.320  24.721  1.00  0.00    -0.354 N 
ATOM     10  H   UNL A   1      30.694  27.983  24.616  1.00  0.00     0.166 HD
BRANCH   6  11
ATOM     11  S   UNL A   1      33.157  24.027  23.654  1.00  0.00     0.266 S 
ATOM     12  O   UNL A   1      34.168  24.453  22.703  1.00  0.00    -0.201 OA
ATOM     13  O   UNL A   1      31.916  23.445  23.184  1.00  0.00    -0.201 OA
BRANCH  11  14
ATOM     14  N   UNL A   1      33.882  22.913  24.720  1.00  0.00    -0.263 N 
ATOM     15  C   UNL A   1      32.189  21.067  25.035  1.00  0.00     0.032 C 
ATOM     16  C   UNL A   1      33.499  21.473  24.382  1.00  0.00     0.101 C 
ATOM     17  C   UNL A   1      34.680  20.590  24.833  1.00  0.00     0.063 C 
ATOM     18  C   UNL A   1      35.773  21.589  25.027  1.00  0.00    -0.021 A 
ATOM     19  C   UNL A   1      35.301  22.898  24.930  1.00  0.00     0.055 A 
ATOM     20  C   UNL A   1      37.090  21.310  25.371  1.00  0.00     0.006 A 
ATOM     21  C   UNL A   1      36.135  23.956  25.255  1.00  0.00     0.027 A 
ATOM     22  C   UNL A   1      37.945  22.376  25.647  1.00  0.00     0.000 A 
ATOM     23  C   UNL A   1      37.467  23.691  25.596  1.00  0.00     0.002 A 
ENDBRANCH  11  14
ENDBRANCH   6  11
ENDBRANCH   3   5
ENDBRANCH   2   3
ENDBRANCH   1   2
BRANCH   1  24
ATOM     24  C   UNL A   1      34.921  29.392  27.352  1.00  0.00     0.275 C 
BRANCH  24  25
ATOM     25  O   UNL A   1      35.650  29.626  28.566  1.00  0.00    -0.458 OA
BRANCH  25  26
ATOM     26  C   UNL A   1      36.819  30.307  28.452  1.00  0.00     0.338 C 
ATOM     27  O   UNL A   1      37.064  31.430  28.829  1.00  0.00    -0.246 OA
BRANCH  26  28
ATOM     28  C   UNL A   1      37.830  29.270  28.162  1.00  0.00     0.060 A 
ATOM     29  C   UNL A   1      38.205  28.312  29.106  1.00  0.00     0.016 A 
ATOM     30  C   UNL A   1      38.609  29.499  27.033  1.00  0.00     0.016 A 
ATOM     31  C   UNL A   1      39.448  27.691  28.992  1.00  0.00     0.010 A 
ATOM     32  C   UNL A   1      39.864  28.910  26.957  1.00  0.00     0.010 A 
ATOM     33  C   UNL A   1      40.335  28.059  27.967  1.00  0.00    -0.014 A 
BRANCH  33  34
ATOM     34  C   UNL A   1      41.723  27.494  27.963  1.00  0.00     0.031 A 
ATOM     35  C   UNL A   1      41.757  26.050  27.521  1.00  0.00     0.074 A 
ATOM     36  C   UNL A   1      42.752  28.227  28.494  1.00  0.00     0.049 A 
ATOM     37  N   UNL A   1      42.017  25.009  28.247  1.00  0.00    -0.248 NA
ATOM     38  C   UNL A   1      41.258  25.678  26.179  1.00  0.00     0.031 C 
ATOM     39  C   UNL A   1      42.663  29.662  28.795  1.00  0.00     0.029 A 
ATOM     40  N   UNL A   1      44.052  27.951  28.897  1.00  0.00    -0.354 N 
ATOM     41  C   UNL A   1      41.822  23.888  27.425  1.00  0.00     0.074 A 
ATOM     42  C   UNL A   1      41.117  24.354  26.269  1.00  0.00     0.031 C 
ATOM     43  C   UNL A   1      43.786  30.116  29.381  1.00  0.00     0.029 A 
ATOM     44  C   UNL A   1      44.719  29.024  29.554  1.00  0.00     0.049 A 
ATOM     45  H   UNL A   1      44.480  27.077  28.741  1.00  0.00     0.167 HD
ATOM     46  C   UNL A   1      42.463  22.699  27.614  1.00  0.00     0.037 A 
ATOM     47  C   UNL A   1      45.892  29.045  30.264  1.00  0.00     0.037 A 
ATOM     48  C   UNL A   1      43.464  22.857  28.621  1.00  0.00     0.049 A 
ATOM     49  C   UNL A   1      46.411  27.670  30.252  1.00  0.00     0.074 A 
ATOM     50  C   UNL A   1      43.433  23.031  29.979  1.00  0.00     0.029 A 
ATOM     51  N   UNL A   1      44.716  23.194  28.158  1.00  0.00    -0.354 N 
ATOM     52  N   UNL A   1      46.994  27.097  29.244  1.00  0.00    -0.248 NA
ATOM     53  C   UNL A   1      46.182  26.822  31.432  1.00  0.00     0.031 C 
ATOM     54  C   UNL A   1      44.561  23.835  30.252  1.00  0.00     0.029 A 
ATOM     55  C   UNL A   1      45.311  24.011  29.083  1.00  0.00     0.049 A 
ATOM     56  H   UNL A   1      45.116  22.899  27.307  1.00  0.00     0.167 HD
ATOM     57  C   UNL A   1      46.870  25.761  29.555  1.00  0.00     0.074 A 
ATOM     58  C   UNL A   1      46.692  25.678  30.984  1.00  0.00     0.031 C 
ATOM     59  C   UNL A   1      46.342  24.921  28.628  1.00  0.00     0.037 A 
BRANCH  46  60
ATOM     60  C   UNL A   1      42.552  21.461  26.765  1.00  0.00     0.057 A 
ATOM     61  C   UNL A   1      43.476  21.241  25.739  1.00  0.00     0.134 A 
ATOM     62  C   UNL A   1      41.844  20.318  27.205  1.00  0.00     0.134 A 
ATOM     63  F   UNL A   1      44.252  22.218  25.259  1.00  0.00    -0.206 F 
ATOM     64  C   UNL A   1      43.720  19.962  25.221  1.00  0.00     0.040 A 
ATOM     65  C   UNL A   1      42.121  19.032  26.738  1.00  0.00     0.040 A 
ATOM     66  F   UNL A   1      40.905  20.413  28.162  1.00  0.00    -0.206 F 
ATOM     67  C   UNL A   1      43.073  18.850  25.747  1.00  0.00     0.006 A 
ENDBRANCH  46  60
BRANCH  47  68
ATOM     68  C   UNL A   1      46.649  30.048  31.117  1.00  0.00     0.057 A 
ATOM     69  C   UNL A   1      47.819  30.691  30.622  1.00  0.00     0.134 A 
ATOM     70  C   UNL A   1      46.306  30.449  32.412  1.00  0.00     0.134 A 
ATOM     71  F   UNL A   1      48.226  30.553  29.354  1.00  0.00    -0.206 F 
ATOM     72  C   UNL A   1      48.644  31.528  31.383  1.00  0.00     0.040 A 
ATOM     73  C   UNL A   1      47.119  31.303  33.188  1.00  0.00     0.040 A 
ATOM     74  F   UNL A   1      45.150  30.083  32.975  1.00  0.00    -0.206 F 
ATOM     75  C   UNL A   1      48.306  31.823  32.687  1.00  0.00     0.006 A 
ENDBRANCH  47  68
BRANCH  59  76
ATOM     76  C   UNL A   1      46.572  25.393  27.206  1.00  0.00     0.057 A 
ATOM     77  C   UNL A   1      45.591  26.028  26.433  1.00  0.00     0.134 A 
ATOM     78  C   UNL A   1      47.864  25.381  26.658  1.00  0.00     0.134 A 
ATOM     79  F   UNL A   1      44.334  26.105  26.869  1.00  0.00    -0.206 F 
ATOM     80  C   UNL A   1      45.868  26.636  25.202  1.00  0.00     0.040 A 
ATOM     81  C   UNL A   1      48.163  25.995  25.435  1.00  0.00     0.040 A 
ATOM     82  F   UNL A   1      48.871  24.795  27.324  1.00  0.00    -0.206 F 
ATOM     83  C   UNL A   1      47.163  26.632  24.704  1.00  0.00     0.006 A 
ENDBRANCH  59  76
ENDBRANCH  33  34
ENDBRANCH  26  28
ENDBRANCH  25  26
ENDBRANCH  24  25
ENDBRANCH   1  24
TORSDOF 13
ENDMDL
