MODEL 1
REMARK VINA RESULT:     -12.2      0.000      0.000
REMARK SMILES C/C=C/C=C/C=C/C(=O)O[C@H]1C=C(C=O)[C@@](O)(C(=O)OCCOC(=O)c2ccc(-c3c4nc(c(-c5c(F)cccc5F)c5ccc([nH]5)c(-c5c(F)cccc5F)c5nc(c(-c6c(F)cccc6F)c6ccc3[nH]6)C=C5)C=C4)cc2)[C@]2(C)CCCC(C)(C)[C@@H]12
REMARK SMILES IDX 20 1 18 2 19 3 16 4 11 5 12 6 88 7 13 8 80 9 85 10 82 11
REMARK SMILES IDX 81 12 84 13 86 14 87 15 83 16 10 17 8 18 9 19 7 20 6 21 5 22
REMARK SMILES IDX 4 23 3 24 1 25 2 26 14 27 15 28 17 29 21 31 22 32 23 33
REMARK SMILES IDX 24 34 25 35 26 36 27 37 79 38 28 39 78 40 29 41 30 42 31 43
REMARK SMILES IDX 72 44 32 45 77 46 71 47 73 48 33 49 76 50 70 51 69 52 34 54
REMARK SMILES IDX 60 55 43 56 59 57 44 58 47 59 58 60 74 61 45 62 46 63 57 65
REMARK SMILES IDX 75 66 48 67 35 68 36 69 41 70 37 71 38 72 40 73 42 74 39 75
REMARK SMILES IDX 61 76 62 77 67 78 63 79 64 80 66 81 68 82 65 83 49 84 50 85
REMARK SMILES IDX 55 86 51 87 52 88 54 89 56 90 53 91
REMARK H PARENT 17 30 73 53 47 64
REMARK Flexibility Score: inf
ROOT
ATOM      1  O   UNL A   1      34.371  21.701  24.154  1.00  0.00    -0.460 OA
ENDROOT
BRANCH   1   2
ATOM      2  C   UNL A   1      33.080  22.139  24.248  1.00  0.00     0.343 C 
ATOM      3  O   UNL A   1      32.135  21.499  23.802  1.00  0.00    -0.248 OA
BRANCH   2   4
ATOM      4  C   UNL A   1      32.990  23.631  24.709  1.00  0.00     0.196 C 
ATOM      5  C   UNL A   1      32.886  26.407  25.655  1.00  0.00     0.204 C 
ATOM      6  C   UNL A   1      32.427  25.245  26.493  1.00  0.00     0.028 C 
ATOM      7  C   UNL A   1      32.973  26.123  24.098  1.00  0.00     0.050 C 
ATOM      8  C   UNL A   1      32.353  23.983  26.031  1.00  0.00     0.035 C 
ATOM      9  C   UNL A   1      32.440  24.687  23.647  1.00  0.00     0.019 C 
ATOM     10  C   UNL A   1      32.682  27.310  23.103  1.00  0.00    -0.028 C 
ATOM     11  C   UNL A   1      32.985  24.431  22.212  1.00  0.00     0.011 C 
ATOM     12  C   UNL A   1      30.892  24.584  23.610  1.00  0.00     0.016 C 
ATOM     13  C   UNL A   1      33.219  26.904  21.702  1.00  0.00     0.007 C 
ATOM     14  C   UNL A   1      31.203  27.726  22.968  1.00  0.00     0.011 C 
ATOM     15  C   UNL A   1      33.475  28.571  23.530  1.00  0.00     0.011 C 
ATOM     16  C   UNL A   1      32.715  25.554  21.211  1.00  0.00     0.001 C 
BRANCH   5  17
ATOM     17  O   UNL A   1      31.987  27.509  25.911  1.00  0.00    -0.455 OA
BRANCH  17  18
ATOM     18  C   UNL A   1      31.891  28.266  27.029  1.00  0.00     0.331 C 
ATOM     19  O   UNL A   1      31.297  27.848  28.018  1.00  0.00    -0.247 OA
BRANCH  18  20
ATOM     20  C   UNL A   1      32.568  29.574  27.120  1.00  0.00     0.093 C 
ATOM     21  C   UNL A   1      33.860  29.760  27.416  1.00  0.00     0.007 C 
BRANCH  21  22
ATOM     22  C   UNL A   1      34.488  31.064  27.479  1.00  0.00     0.000 C 
ATOM     23  C   UNL A   1      33.958  32.062  28.202  1.00  0.00    -0.000 C 
BRANCH  23  24
ATOM     24  C   UNL A   1      34.574  33.361  28.352  1.00  0.00    -0.005 C 
ATOM     25  C   UNL A   1      34.467  35.865  28.372  1.00  0.00     0.035 C 
ATOM     26  C   UNL A   1      33.895  34.502  28.158  1.00  0.00    -0.030 C 
ENDBRANCH  23  24
ENDBRANCH  21  22
ENDBRANCH  18  20
ENDBRANCH  17  18
ENDBRANCH   5  17
BRANCH   8  27
ATOM     27  C   UNL A   1      31.313  23.163  26.710  1.00  0.00     0.259 C 
ATOM     28  O   UNL A   1      30.334  23.660  27.260  1.00  0.00    -0.298 OA
ENDBRANCH   8  27
BRANCH   4  29
ATOM     29  O   UNL A   1      34.420  23.902  24.886  1.00  0.00    -0.373 OA
ATOM     30  H   UNL A   1      34.712  23.554  25.743  1.00  0.00     0.212 HD
ENDBRANCH   4  29
ENDBRANCH   2   4
ENDBRANCH   1   2
BRANCH   1  31
ATOM     31  C   UNL A   1      34.717  20.596  25.019  1.00  0.00     0.274 C 
BRANCH  31  32
ATOM     32  C   UNL A   1      36.203  20.237  24.971  1.00  0.00     0.275 C 
BRANCH  32  33
ATOM     33  O   UNL A   1      36.998  21.362  25.378  1.00  0.00    -0.458 OA
BRANCH  33  34
ATOM     34  C   UNL A   1      38.293  21.102  25.676  1.00  0.00     0.338 C 
ATOM     35  O   UNL A   1      38.906  20.082  25.410  1.00  0.00    -0.246 OA
BRANCH  34  36
ATOM     36  C   UNL A   1      38.919  22.275  26.336  1.00  0.00     0.060 A 
ATOM     37  C   UNL A   1      38.431  23.562  26.118  1.00  0.00     0.016 A 
ATOM     38  C   UNL A   1      40.089  22.112  27.076  1.00  0.00     0.016 A 
ATOM     39  C   UNL A   1      39.157  24.679  26.527  1.00  0.00     0.010 A 
ATOM     40  C   UNL A   1      40.760  23.235  27.584  1.00  0.00     0.010 A 
ATOM     41  C   UNL A   1      40.331  24.540  27.275  1.00  0.00    -0.014 A 
BRANCH  41  42
ATOM     42  C   UNL A   1      41.150  25.735  27.653  1.00  0.00     0.031 A 
ATOM     43  C   UNL A   1      40.565  26.786  28.565  1.00  0.00     0.074 A 
ATOM     44  C   UNL A   1      42.425  25.891  27.240  1.00  0.00     0.049 A 
ATOM     45  N   UNL A   1      40.970  28.012  28.789  1.00  0.00    -0.248 NA
ATOM     46  C   UNL A   1      39.353  26.413  29.310  1.00  0.00     0.031 C 
ATOM     47  C   UNL A   1      43.190  24.940  26.431  1.00  0.00     0.029 A 
ATOM     48  N   UNL A   1      43.317  26.916  27.465  1.00  0.00    -0.354 N 
ATOM     49  C   UNL A   1      40.013  28.581  29.622  1.00  0.00     0.074 A 
ATOM     50  C   UNL A   1      39.018  27.562  29.880  1.00  0.00     0.031 C 
ATOM     51  C   UNL A   1      44.445  25.391  26.286  1.00  0.00     0.029 A 
ATOM     52  C   UNL A   1      44.544  26.721  26.877  1.00  0.00     0.049 A 
ATOM     53  H   UNL A   1      43.096  27.714  27.998  1.00  0.00     0.167 HD
ATOM     54  C   UNL A   1      39.965  29.841  30.119  1.00  0.00     0.037 A 
ATOM     55  C   UNL A   1      45.610  27.536  26.764  1.00  0.00     0.037 A 
ATOM     56  C   UNL A   1      41.003  30.823  29.948  1.00  0.00     0.049 A 
ATOM     57  C   UNL A   1      45.530  28.939  27.294  1.00  0.00     0.074 A 
ATOM     58  C   UNL A   1      41.042  32.128  30.409  1.00  0.00     0.029 A 
ATOM     59  N   UNL A   1      42.204  30.595  29.297  1.00  0.00    -0.354 N 
ATOM     60  N   UNL A   1      44.555  29.520  27.949  1.00  0.00    -0.248 NA
ATOM     61  C   UNL A   1      46.681  29.814  27.027  1.00  0.00     0.031 C 
ATOM     62  C   UNL A   1      42.261  32.697  30.019  1.00  0.00     0.029 A 
ATOM     63  C   UNL A   1      42.992  31.734  29.344  1.00  0.00     0.049 A 
ATOM     64  H   UNL A   1      42.461  29.748  28.864  1.00  0.00     0.167 HD
ATOM     65  C   UNL A   1      44.974  30.826  28.171  1.00  0.00     0.074 A 
ATOM     66  C   UNL A   1      46.301  30.944  27.604  1.00  0.00     0.031 C 
ATOM     67  C   UNL A   1      44.311  31.839  28.778  1.00  0.00     0.037 A 
BRANCH  54  68
ATOM     68  C   UNL A   1      38.724  30.247  30.858  1.00  0.00     0.057 A 
ATOM     69  C   UNL A   1      38.598  30.115  32.245  1.00  0.00     0.134 A 
ATOM     70  C   UNL A   1      37.649  30.814  30.161  1.00  0.00     0.134 A 
ATOM     71  F   UNL A   1      39.585  29.565  32.967  1.00  0.00    -0.206 F 
ATOM     72  C   UNL A   1      37.437  30.513  32.911  1.00  0.00     0.040 A 
ATOM     73  C   UNL A   1      36.493  31.240  30.818  1.00  0.00     0.040 A 
ATOM     74  F   UNL A   1      37.707  30.975  28.830  1.00  0.00    -0.206 F 
ATOM     75  C   UNL A   1      36.383  31.084  32.198  1.00  0.00     0.006 A 
ENDBRANCH  54  68
BRANCH  55  76
ATOM     76  C   UNL A   1      46.825  27.073  26.043  1.00  0.00     0.057 A 
ATOM     77  C   UNL A   1      47.015  27.361  24.688  1.00  0.00     0.134 A 
ATOM     78  C   UNL A   1      47.818  26.327  26.691  1.00  0.00     0.134 A 
ATOM     79  F   UNL A   1      46.085  28.044  24.005  1.00  0.00    -0.206 F 
ATOM     80  C   UNL A   1      48.151  26.926  24.002  1.00  0.00     0.040 A 
ATOM     81  C   UNL A   1      48.971  25.911  26.026  1.00  0.00     0.040 A 
ATOM     82  F   UNL A   1      47.690  26.011  27.988  1.00  0.00    -0.206 F 
ATOM     83  C   UNL A   1      49.137  26.206  24.676  1.00  0.00     0.006 A 
ENDBRANCH  55  76
BRANCH  67  84
ATOM     84  C   UNL A   1      45.022  33.154  28.881  1.00  0.00     0.057 A 
ATOM     85  C   UNL A   1      45.831  33.467  29.979  1.00  0.00     0.134 A 
ATOM     86  C   UNL A   1      44.914  34.107  27.861  1.00  0.00     0.134 A 
ATOM     87  F   UNL A   1      45.963  32.601  30.995  1.00  0.00    -0.206 F 
ATOM     88  C   UNL A   1      46.494  34.692  30.069  1.00  0.00     0.040 A 
ATOM     89  C   UNL A   1      45.587  35.328  27.931  1.00  0.00     0.040 A 
ATOM     90  F   UNL A   1      44.157  33.865  26.780  1.00  0.00    -0.206 F 
ATOM     91  C   UNL A   1      46.377  35.624  29.040  1.00  0.00     0.006 A 
ENDBRANCH  67  84
ENDBRANCH  41  42
ENDBRANCH  34  36
ENDBRANCH  33  34
ENDBRANCH  32  33
ENDBRANCH  31  32
ENDBRANCH   1  31
TORSDOF 18
ENDMDL
MODEL 2
REMARK VINA RESULT:     -11.2      3.384      9.051
REMARK SMILES C/C=C/C=C/C=C/C(=O)O[C@H]1C=C(C=O)[C@@](O)(C(=O)OCCOC(=O)c2ccc(-c3c4nc(c(-c5c(F)cccc5F)c5ccc([nH]5)c(-c5c(F)cccc5F)c5nc(c(-c6c(F)cccc6F)c6ccc3[nH]6)C=C5)C=C4)cc2)[C@]2(C)CCCC(C)(C)[C@@H]12
REMARK SMILES IDX 20 1 18 2 19 3 16 4 11 5 12 6 88 7 13 8 80 9 85 10 82 11
REMARK SMILES IDX 81 12 84 13 86 14 87 15 83 16 10 17 8 18 9 19 7 20 6 21 5 22
REMARK SMILES IDX 4 23 3 24 1 25 2 26 14 27 15 28 17 29 21 31 22 32 23 33
REMARK SMILES IDX 24 34 25 35 26 36 27 37 79 38 28 39 78 40 29 41 30 42 31 43
REMARK SMILES IDX 72 44 32 45 77 46 71 47 73 48 33 49 76 50 70 51 69 52 34 54
REMARK SMILES IDX 60 55 43 56 59 57 44 58 47 59 58 60 74 61 45 62 46 63 57 65
REMARK SMILES IDX 75 66 48 67 35 68 36 69 41 70 37 71 38 72 40 73 42 74 39 75
REMARK SMILES IDX 61 76 62 77 67 78 63 79 64 80 66 81 68 82 65 83 49 84 50 85
REMARK SMILES IDX 55 86 51 87 52 88 54 89 56 90 53 91
REMARK H PARENT 17 30 73 53 47 64
REMARK Flexibility Score: inf
ROOT
ATOM      1  O   UNL A   1      32.080  27.830  24.345  1.00  0.00    -0.460 OA
ENDROOT
BRANCH   1   2
ATOM      2  C   UNL A   1      31.699  26.695  23.685  1.00  0.00     0.343 C 
ATOM      3  O   UNL A   1      30.615  26.595  23.122  1.00  0.00    -0.248 OA
BRANCH   2   4
ATOM      4  C   UNL A   1      32.651  25.489  23.977  1.00  0.00     0.196 C 
ATOM      5  C   UNL A   1      34.521  23.290  24.505  1.00  0.00     0.204 C 
ATOM      6  C   UNL A   1      34.439  23.985  23.173  1.00  0.00     0.028 C 
ATOM      7  C   UNL A   1      33.252  23.467  25.437  1.00  0.00     0.050 C 
ATOM      8  C   UNL A   1      33.506  24.909  22.877  1.00  0.00     0.035 C 
ATOM      9  C   UNL A   1      32.031  24.251  24.769  1.00  0.00     0.019 C 
ATOM     10  C   UNL A   1      32.865  22.286  26.407  1.00  0.00    -0.028 C 
ATOM     11  C   UNL A   1      31.088  24.691  25.926  1.00  0.00     0.011 C 
ATOM     12  C   UNL A   1      31.215  23.389  23.770  1.00  0.00     0.016 C 
ATOM     13  C   UNL A   1      31.879  22.843  27.472  1.00  0.00     0.007 C 
ATOM     14  C   UNL A   1      32.231  21.049  25.739  1.00  0.00     0.011 C 
ATOM     15  C   UNL A   1      34.117  21.798  27.180  1.00  0.00     0.011 C 
ATOM     16  C   UNL A   1      30.679  23.574  26.885  1.00  0.00     0.001 C 
BRANCH   5  17
ATOM     17  O   UNL A   1      34.760  21.887  24.248  1.00  0.00    -0.455 OA
BRANCH  17  18
ATOM     18  C   UNL A   1      35.821  21.137  24.628  1.00  0.00     0.331 C 
ATOM     19  O   UNL A   1      35.718  19.920  24.739  1.00  0.00    -0.247 OA
BRANCH  18  20
ATOM     20  C   UNL A   1      37.147  21.750  24.835  1.00  0.00     0.093 C 
ATOM     21  C   UNL A   1      37.853  21.708  25.971  1.00  0.00     0.007 C 
BRANCH  21  22
ATOM     22  C   UNL A   1      39.160  22.313  26.125  1.00  0.00     0.000 C 
ATOM     23  C   UNL A   1      40.059  21.827  26.995  1.00  0.00    -0.000 C 
BRANCH  23  24
ATOM     24  C   UNL A   1      41.399  22.350  27.143  1.00  0.00    -0.005 C 
ATOM     25  C   UNL A   1      43.369  23.003  28.548  1.00  0.00     0.035 C 
ATOM     26  C   UNL A   1      41.964  22.536  28.345  1.00  0.00    -0.030 C 
ENDBRANCH  23  24
ENDBRANCH  21  22
ENDBRANCH  18  20
ENDBRANCH  17  18
ENDBRANCH   5  17
BRANCH   8  27
ATOM     27  C   UNL A   1      33.170  24.970  21.428  1.00  0.00     0.259 C 
ATOM     28  O   UNL A   1      33.286  25.997  20.766  1.00  0.00    -0.298 OA
ENDBRANCH   8  27
BRANCH   4  29
ATOM     29  O   UNL A   1      33.591  26.155  24.884  1.00  0.00    -0.373 OA
ATOM     30  H   UNL A   1      34.232  26.667  24.368  1.00  0.00     0.212 HD
ENDBRANCH   4  29
ENDBRANCH   2   4
ENDBRANCH   1   2
BRANCH   1  31
ATOM     31  C   UNL A   1      31.277  29.003  24.078  1.00  0.00     0.274 C 
BRANCH  31  32
ATOM     32  C   UNL A   1      31.169  29.943  25.280  1.00  0.00     0.275 C 
BRANCH  32  33
ATOM     33  O   UNL A   1      32.478  30.350  25.710  1.00  0.00    -0.458 OA
BRANCH  33  34
ATOM     34  C   UNL A   1      32.522  31.346  26.625  1.00  0.00     0.338 C 
ATOM     35  O   UNL A   1      31.763  32.298  26.697  1.00  0.00    -0.246 OA
BRANCH  34  36
ATOM     36  C   UNL A   1      33.607  31.100  27.608  1.00  0.00     0.060 A 
ATOM     37  C   UNL A   1      34.192  32.154  28.306  1.00  0.00     0.016 A 
ATOM     38  C   UNL A   1      34.142  29.820  27.743  1.00  0.00     0.016 A 
ATOM     39  C   UNL A   1      35.365  31.964  29.034  1.00  0.00     0.010 A 
ATOM     40  C   UNL A   1      35.259  29.610  28.567  1.00  0.00     0.010 A 
ATOM     41  C   UNL A   1      35.919  30.688  29.187  1.00  0.00    -0.014 A 
BRANCH  41  42
ATOM     42  C   UNL A   1      37.217  30.492  29.907  1.00  0.00     0.031 A 
ATOM     43  C   UNL A   1      38.370  29.818  29.202  1.00  0.00     0.074 A 
ATOM     44  C   UNL A   1      37.415  30.939  31.165  1.00  0.00     0.049 A 
ATOM     45  N   UNL A   1      39.461  29.296  29.705  1.00  0.00    -0.248 NA
ATOM     46  C   UNL A   1      38.272  29.702  27.739  1.00  0.00     0.031 C 
ATOM     47  C   UNL A   1      36.452  31.690  31.972  1.00  0.00     0.029 A 
ATOM     48  N   UNL A   1      38.515  30.836  31.985  1.00  0.00    -0.354 N 
ATOM     49  C   UNL A   1      40.128  28.710  28.635  1.00  0.00     0.074 A 
ATOM     50  C   UNL A   1      39.331  28.958  27.453  1.00  0.00     0.031 C 
ATOM     51  C   UNL A   1      37.024  32.035  33.135  1.00  0.00     0.029 A 
ATOM     52  C   UNL A   1      38.345  31.423  33.216  1.00  0.00     0.049 A 
ATOM     53  H   UNL A   1      39.348  30.384  31.715  1.00  0.00     0.167 HD
ATOM     54  C   UNL A   1      41.295  28.021  28.640  1.00  0.00     0.037 A 
ATOM     55  C   UNL A   1      39.127  31.420  34.313  1.00  0.00     0.037 A 
ATOM     56  C   UNL A   1      42.140  27.861  29.795  1.00  0.00     0.049 A 
ATOM     57  C   UNL A   1      40.403  30.628  34.312  1.00  0.00     0.074 A 
ATOM     58  C   UNL A   1      43.339  27.175  29.899  1.00  0.00     0.029 A 
ATOM     59  N   UNL A   1      41.896  28.429  31.034  1.00  0.00    -0.354 N 
ATOM     60  N   UNL A   1      40.951  29.946  33.337  1.00  0.00    -0.248 NA
ATOM     61  C   UNL A   1      41.143  30.566  35.581  1.00  0.00     0.031 C 
ATOM     62  C   UNL A   1      43.811  27.312  31.210  1.00  0.00     0.029 A 
ATOM     63  C   UNL A   1      42.922  28.110  31.910  1.00  0.00     0.049 A 
ATOM     64  H   UNL A   1      41.111  28.978  31.260  1.00  0.00     0.167 HD
ATOM     65  C   UNL A   1      42.098  29.375  33.873  1.00  0.00     0.074 A 
ATOM     66  C   UNL A   1      42.181  29.811  35.251  1.00  0.00     0.031 C 
ATOM     67  C   UNL A   1      42.994  28.551  33.278  1.00  0.00     0.037 A 
BRANCH  54  68
ATOM     68  C   UNL A   1      41.706  27.344  27.366  1.00  0.00     0.057 A 
ATOM     69  C   UNL A   1      42.624  27.911  26.476  1.00  0.00     0.134 A 
ATOM     70  C   UNL A   1      41.192  26.080  27.048  1.00  0.00     0.134 A 
ATOM     71  F   UNL A   1      43.139  29.126  26.715  1.00  0.00    -0.206 F 
ATOM     72  C   UNL A   1      42.999  27.255  25.301  1.00  0.00     0.040 A 
ATOM     73  C   UNL A   1      41.579  25.402  25.891  1.00  0.00     0.040 A 
ATOM     74  F   UNL A   1      40.312  25.476  27.862  1.00  0.00    -0.206 F 
ATOM     75  C   UNL A   1      42.482  25.993  25.011  1.00  0.00     0.006 A 
ENDBRANCH  54  68
BRANCH  55  76
ATOM     76  C   UNL A   1      38.683  32.129  35.541  1.00  0.00     0.057 A 
ATOM     77  C   UNL A   1      38.864  33.509  35.685  1.00  0.00     0.134 A 
ATOM     78  C   UNL A   1      38.075  31.444  36.601  1.00  0.00     0.134 A 
ATOM     79  F   UNL A   1      39.468  34.216  34.719  1.00  0.00    -0.206 F 
ATOM     80  C   UNL A   1      38.455  34.182  36.837  1.00  0.00     0.040 A 
ATOM     81  C   UNL A   1      37.635  32.108  37.745  1.00  0.00     0.040 A 
ATOM     82  F   UNL A   1      37.881  30.119  36.528  1.00  0.00    -0.206 F 
ATOM     83  C   UNL A   1      37.829  33.481  37.868  1.00  0.00     0.006 A 
ENDBRANCH  55  76
BRANCH  67  84
ATOM     84  C   UNL A   1      44.153  28.090  34.110  1.00  0.00     0.057 A 
ATOM     85  C   UNL A   1      44.110  26.887  34.824  1.00  0.00     0.134 A 
ATOM     86  C   UNL A   1      45.330  28.845  34.178  1.00  0.00     0.134 A 
ATOM     87  F   UNL A   1      43.005  26.126  34.811  1.00  0.00    -0.206 F 
ATOM     88  C   UNL A   1      45.192  26.460  35.596  1.00  0.00     0.040 A 
ATOM     89  C   UNL A   1      46.425  28.418  34.930  1.00  0.00     0.040 A 
ATOM     90  F   UNL A   1      45.435  30.005  33.512  1.00  0.00    -0.206 F 
ATOM     91  C   UNL A   1      46.356  27.224  35.645  1.00  0.00     0.006 A 
ENDBRANCH  67  84
ENDBRANCH  41  42
ENDBRANCH  34  36
ENDBRANCH  33  34
ENDBRANCH  32  33
ENDBRANCH  31  32
ENDBRANCH   1  31
TORSDOF 18
ENDMDL
MODEL 3
REMARK VINA RESULT:     -11.2      2.318      7.964
REMARK SMILES C/C=C/C=C/C=C/C(=O)O[C@H]1C=C(C=O)[C@@](O)(C(=O)OCCOC(=O)c2ccc(-c3c4nc(c(-c5c(F)cccc5F)c5ccc([nH]5)c(-c5c(F)cccc5F)c5nc(c(-c6c(F)cccc6F)c6ccc3[nH]6)C=C5)C=C4)cc2)[C@]2(C)CCCC(C)(C)[C@@H]12
REMARK SMILES IDX 20 1 18 2 19 3 16 4 11 5 12 6 88 7 13 8 80 9 85 10 82 11
REMARK SMILES IDX 81 12 84 13 86 14 87 15 83 16 10 17 8 18 9 19 7 20 6 21 5 22
REMARK SMILES IDX 4 23 3 24 1 25 2 26 14 27 15 28 17 29 21 31 22 32 23 33
REMARK SMILES IDX 24 34 25 35 26 36 27 37 79 38 28 39 78 40 29 41 30 42 31 43
REMARK SMILES IDX 72 44 32 45 77 46 71 47 73 48 33 49 76 50 70 51 69 52 34 54
REMARK SMILES IDX 60 55 43 56 59 57 44 58 47 59 58 60 74 61 45 62 46 63 57 65
REMARK SMILES IDX 75 66 48 67 35 68 36 69 41 70 37 71 38 72 40 73 42 74 39 75
REMARK SMILES IDX 61 76 62 77 67 78 63 79 64 80 66 81 68 82 65 83 49 84 50 85
REMARK SMILES IDX 55 86 51 87 52 88 54 89 56 90 53 91
REMARK H PARENT 17 30 73 53 47 64
REMARK Flexibility Score: inf
ROOT
ATOM      1  O   UNL A   1      32.923  29.658  25.601  1.00  0.00    -0.460 OA
ENDROOT
BRANCH   1   2
ATOM      2  C   UNL A   1      32.124  28.766  24.941  1.00  0.00     0.343 C 
ATOM      3  O   UNL A   1      30.992  29.051  24.566  1.00  0.00    -0.248 OA
BRANCH   2   4
ATOM      4  C   UNL A   1      32.694  27.310  24.984  1.00  0.00     0.196 C 
ATOM      5  C   UNL A   1      33.859  24.620  25.092  1.00  0.00     0.204 C 
ATOM      6  C   UNL A   1      34.360  25.685  24.155  1.00  0.00     0.028 C 
ATOM      7  C   UNL A   1      32.399  24.854  25.660  1.00  0.00     0.050 C 
ATOM      8  C   UNL A   1      33.760  26.880  24.006  1.00  0.00     0.035 C 
ATOM      9  C   UNL A   1      31.636  26.119  25.053  1.00  0.00     0.019 C 
ATOM     10  C   UNL A   1      31.504  23.593  25.969  1.00  0.00    -0.028 C 
ATOM     11  C   UNL A   1      30.445  26.430  26.005  1.00  0.00     0.011 C 
ATOM     12  C   UNL A   1      31.076  25.878  23.626  1.00  0.00     0.016 C 
ATOM     13  C   UNL A   1      30.325  24.050  26.873  1.00  0.00     0.007 C 
ATOM     14  C   UNL A   1      30.933  22.857  24.740  1.00  0.00     0.011 C 
ATOM     15  C   UNL A   1      32.310  22.554  26.790  1.00  0.00     0.011 C 
ATOM     16  C   UNL A   1      29.545  25.237  26.322  1.00  0.00     0.001 C 
BRANCH   5  17
ATOM     17  O   UNL A   1      33.925  23.358  24.389  1.00  0.00    -0.455 OA
BRANCH  17  18
ATOM     18  C   UNL A   1      34.881  22.404  24.473  1.00  0.00     0.331 C 
ATOM     19  O   UNL A   1      36.069  22.698  24.386  1.00  0.00    -0.247 OA
BRANCH  18  20
ATOM     20  C   UNL A   1      34.527  21.000  24.758  1.00  0.00     0.093 C 
ATOM     21  C   UNL A   1      33.482  20.342  24.241  1.00  0.00     0.007 C 
BRANCH  21  22
ATOM     22  C   UNL A   1      33.180  18.957  24.538  1.00  0.00     0.000 C 
ATOM     23  C   UNL A   1      33.501  17.972  23.686  1.00  0.00    -0.000 C 
BRANCH  23  24
ATOM     24  C   UNL A   1      33.282  16.569  23.960  1.00  0.00    -0.005 C 
ATOM     25  C   UNL A   1      32.675  14.692  25.506  1.00  0.00     0.035 C 
ATOM     26  C   UNL A   1      32.982  16.119  25.187  1.00  0.00    -0.030 C 
ENDBRANCH  23  24
ENDBRANCH  21  22
ENDBRANCH  18  20
ENDBRANCH  17  18
ENDBRANCH   5  17
BRANCH   8  27
ATOM     27  C   UNL A   1      33.957  27.479  22.657  1.00  0.00     0.259 C 
ATOM     28  O   UNL A   1      34.002  26.802  21.634  1.00  0.00    -0.298 OA
ENDBRANCH   8  27
BRANCH   4  29
ATOM     29  O   UNL A   1      33.366  27.367  26.286  1.00  0.00    -0.373 OA
ATOM     30  H   UNL A   1      32.812  27.855  26.915  1.00  0.00     0.212 HD
ENDBRANCH   4  29
ENDBRANCH   2   4
ENDBRANCH   1   2
BRANCH   1  31
ATOM     31  C   UNL A   1      32.238  30.564  26.494  1.00  0.00     0.274 C 
BRANCH  31  32
ATOM     32  C   UNL A   1      33.165  31.204  27.529  1.00  0.00     0.275 C 
BRANCH  32  33
ATOM     33  O   UNL A   1      34.409  30.489  27.588  1.00  0.00    -0.458 OA
BRANCH  33  34
ATOM     34  C   UNL A   1      35.241  30.823  28.603  1.00  0.00     0.338 C 
ATOM     35  O   UNL A   1      35.003  31.605  29.507  1.00  0.00    -0.246 OA
BRANCH  34  36
ATOM     36  C   UNL A   1      36.502  30.044  28.517  1.00  0.00     0.060 A 
ATOM     37  C   UNL A   1      37.006  29.374  29.629  1.00  0.00     0.016 A 
ATOM     38  C   UNL A   1      37.265  30.088  27.351  1.00  0.00     0.016 A 
ATOM     39  C   UNL A   1      38.299  28.856  29.625  1.00  0.00     0.010 A 
ATOM     40  C   UNL A   1      38.524  29.468  27.313  1.00  0.00     0.010 A 
ATOM     41  C   UNL A   1      39.083  28.884  28.467  1.00  0.00    -0.014 A 
BRANCH  41  42
ATOM     42  C   UNL A   1      40.497  28.394  28.480  1.00  0.00     0.031 A 
ATOM     43  C   UNL A   1      41.612  29.334  28.872  1.00  0.00     0.074 A 
ATOM     44  C   UNL A   1      40.817  27.115  28.193  1.00  0.00     0.049 A 
ATOM     45  N   UNL A   1      42.903  29.218  28.682  1.00  0.00    -0.248 NA
ATOM     46  C   UNL A   1      41.218  30.578  29.552  1.00  0.00     0.031 C 
ATOM     47  C   UNL A   1      39.871  26.042  27.881  1.00  0.00     0.029 A 
ATOM     48  N   UNL A   1      42.044  26.494  28.135  1.00  0.00    -0.354 N 
ATOM     49  C   UNL A   1      43.461  30.410  29.131  1.00  0.00     0.074 A 
ATOM     50  C   UNL A   1      42.372  31.227  29.622  1.00  0.00     0.031 C 
ATOM     51  C   UNL A   1      40.542  24.890  27.733  1.00  0.00     0.029 A 
ATOM     52  C   UNL A   1      41.974  25.160  27.808  1.00  0.00     0.049 A 
ATOM     53  H   UNL A   1      42.893  26.960  28.311  1.00  0.00     0.167 HD
ATOM     54  C   UNL A   1      44.761  30.791  29.128  1.00  0.00     0.037 A 
ATOM     55  C   UNL A   1      42.942  24.265  27.534  1.00  0.00     0.037 A 
ATOM     56  C   UNL A   1      45.856  29.941  28.736  1.00  0.00     0.049 A 
ATOM     57  C   UNL A   1      44.376  24.709  27.505  1.00  0.00     0.074 A 
ATOM     58  C   UNL A   1      47.208  30.240  28.693  1.00  0.00     0.029 A 
ATOM     59  N   UNL A   1      45.728  28.615  28.360  1.00  0.00    -0.354 N 
ATOM     60  N   UNL A   1      44.883  25.885  27.784  1.00  0.00    -0.248 NA
ATOM     61  C   UNL A   1      45.369  23.713  27.077  1.00  0.00     0.031 C 
ATOM     62  C   UNL A   1      47.897  29.097  28.271  1.00  0.00     0.029 A 
ATOM     63  C   UNL A   1      46.976  28.080  28.083  1.00  0.00     0.049 A 
ATOM     64  H   UNL A   1      44.877  28.124  28.298  1.00  0.00     0.167 HD
ATOM     65  C   UNL A   1      46.249  25.771  27.564  1.00  0.00     0.074 A 
ATOM     66  C   UNL A   1      46.497  24.404  27.155  1.00  0.00     0.031 C 
ATOM     67  C   UNL A   1      47.210  26.719  27.679  1.00  0.00     0.037 A 
BRANCH  54  68
ATOM     68  C   UNL A   1      45.070  32.206  29.516  1.00  0.00     0.057 A 
ATOM     69  C   UNL A   1      45.012  33.266  28.603  1.00  0.00     0.134 A 
ATOM     70  C   UNL A   1      45.400  32.512  30.843  1.00  0.00     0.134 A 
ATOM     71  F   UNL A   1      44.718  33.037  27.315  1.00  0.00    -0.206 F 
ATOM     72  C   UNL A   1      45.292  34.578  28.993  1.00  0.00     0.040 A 
ATOM     73  C   UNL A   1      45.657  33.822  31.250  1.00  0.00     0.040 A 
ATOM     74  F   UNL A   1      45.467  31.544  31.769  1.00  0.00    -0.206 F 
ATOM     75  C   UNL A   1      45.608  34.859  30.321  1.00  0.00     0.006 A 
ENDBRANCH  54  68
BRANCH  55  76
ATOM     76  C   UNL A   1      42.581  22.867  27.180  1.00  0.00     0.057 A 
ATOM     77  C   UNL A   1      42.246  21.935  28.168  1.00  0.00     0.134 A 
ATOM     78  C   UNL A   1      42.568  22.431  25.849  1.00  0.00     0.134 A 
ATOM     79  F   UNL A   1      42.271  22.283  29.462  1.00  0.00    -0.206 F 
ATOM     80  C   UNL A   1      41.911  20.619  27.845  1.00  0.00     0.040 A 
ATOM     81  C   UNL A   1      42.207  21.127  25.510  1.00  0.00     0.040 A 
ATOM     82  F   UNL A   1      42.887  23.274  24.857  1.00  0.00    -0.206 F 
ATOM     83  C   UNL A   1      41.881  20.215  26.510  1.00  0.00     0.006 A 
ENDBRANCH  55  76
BRANCH  67  84
ATOM     84  C   UNL A   1      48.618  26.301  27.381  1.00  0.00     0.057 A 
ATOM     85  C   UNL A   1      49.437  25.728  28.361  1.00  0.00     0.134 A 
ATOM     86  C   UNL A   1      49.152  26.452  26.095  1.00  0.00     0.134 A 
ATOM     87  F   UNL A   1      48.988  25.570  29.615  1.00  0.00    -0.206 F 
ATOM     88  C   UNL A   1      50.747  25.338  28.078  1.00  0.00     0.040 A 
ATOM     89  C   UNL A   1      50.454  26.048  25.796  1.00  0.00     0.040 A 
ATOM     90  F   UNL A   1      48.416  26.990  25.111  1.00  0.00    -0.206 F 
ATOM     91  C   UNL A   1      51.256  25.493  26.790  1.00  0.00     0.006 A 
ENDBRANCH  67  84
ENDBRANCH  41  42
ENDBRANCH  34  36
ENDBRANCH  33  34
ENDBRANCH  32  33
ENDBRANCH  31  32
ENDBRANCH   1  31
TORSDOF 18
ENDMDL
