MODEL 1
REMARK VINA RESULT:     -11.4      0.000      0.000
REMARK SMILES C/C(=N/OCc1ccccc1Nc1c(Cl)cccc1Cl)C(=O)OCCOC(=O)c1ccc(-c2c3nc(c(-c4c(F)cccc4F)c4ccc([nH]4)c(-c4c(F)cccc4F)c4nc(c(-c5c(F)cccc5F)c5ccc2[nH]5)C=C4)C=C3)cc1
REMARK SMILES IDX 23 1 21 2 22 3 2 4 1 5 3 6 4 7 5 8 6 9 7 10 11 11 8 12 10 13
REMARK SMILES IDX 9 14 12 15 13 17 14 18 19 19 15 20 16 21 18 22 20 23 17 24
REMARK SMILES IDX 24 25 25 26 26 27 27 28 28 29 29 30 30 31 82 32 31 33 81 34
REMARK SMILES IDX 32 35 33 36 34 37 75 38 35 39 80 40 74 41 76 42 36 43 79 44
REMARK SMILES IDX 73 45 72 46 37 48 63 49 46 50 62 51 47 52 50 53 61 54 77 55
REMARK SMILES IDX 48 56 49 57 60 59 78 60 51 61 38 62 39 63 44 64 40 65 41 66
REMARK SMILES IDX 43 67 45 68 42 69 64 70 65 71 70 72 66 73 67 74 69 75 71 76
REMARK SMILES IDX 68 77 52 78 53 79 58 80 54 81 55 82 57 83 59 84 56 85
REMARK H PARENT 12 16 76 47 50 58
REMARK Flexibility Score: inf
ROOT
ATOM      1  O   UNL A   1      32.521  27.364  25.915  1.00  0.00    -0.458 OA
ENDROOT
BRANCH   1   2
ATOM      2  C   UNL A   1      31.673  26.326  26.029  1.00  0.00     0.355 C 
ATOM      3  O   UNL A   1      30.729  26.222  26.795  1.00  0.00    -0.245 OA
BRANCH   2   4
ATOM      4  C   UNL A   1      31.941  25.272  24.953  1.00  0.00     0.161 C 
ATOM      5  C   UNL A   1      31.079  25.293  23.723  1.00  0.00     0.079 C 
ATOM      6  N   UNL A   1      32.811  24.314  25.051  1.00  0.00    -0.084 NA
BRANCH   6   7
ATOM      7  O   UNL A   1      33.330  24.246  26.345  1.00  0.00    -0.390 OA
BRANCH   7   8
ATOM      8  C   UNL A   1      33.785  22.914  26.584  1.00  0.00     0.302 C 
BRANCH   8   9
ATOM      9  C   UNL A   1      35.146  22.608  25.974  1.00  0.00     0.016 A 
ATOM     10  C   UNL A   1      36.167  23.581  25.929  1.00  0.00     0.009 A 
ATOM     11  C   UNL A   1      35.440  21.306  25.521  1.00  0.00     0.045 A 
ATOM     12  C   UNL A   1      37.442  23.292  25.451  1.00  0.00     0.001 A 
ATOM     13  C   UNL A   1      36.733  21.035  25.036  1.00  0.00     0.026 A 
ATOM     14  C   UNL A   1      37.726  22.015  25.000  1.00  0.00     0.002 A 
BRANCH  11  15
ATOM     15  N   UNL A   1      34.461  20.292  25.607  1.00  0.00    -0.353 N 
ATOM     16  H   UNL A   1      34.123  20.115  26.514  1.00  0.00     0.167 HD
BRANCH  15  17
ATOM     17  C   UNL A   1      33.892  19.494  24.588  1.00  0.00     0.076 A 
ATOM     18  C   UNL A   1      34.458  18.227  24.330  1.00  0.00     0.066 A 
ATOM     19  C   UNL A   1      32.739  19.855  23.868  1.00  0.00     0.066 A 
ATOM     20  Cl  UNL A   1      35.903  17.724  25.145  1.00  0.00    -0.082 Cl
ATOM     21  C   UNL A   1      33.875  17.340  23.425  1.00  0.00     0.023 A 
ATOM     22  C   UNL A   1      32.153  18.962  22.963  1.00  0.00     0.023 A 
ATOM     23  Cl  UNL A   1      32.034  21.434  23.978  1.00  0.00    -0.082 Cl
ATOM     24  C   UNL A   1      32.713  17.703  22.751  1.00  0.00     0.003 A 
ENDBRANCH  15  17
ENDBRANCH  11  15
ENDBRANCH   8   9
ENDBRANCH   7   8
ENDBRANCH   6   7
ENDBRANCH   2   4
ENDBRANCH   1   2
BRANCH   1  25
ATOM     25  C   UNL A   1      32.285  28.321  24.866  1.00  0.00     0.275 C 
BRANCH  25  26
ATOM     26  C   UNL A   1      31.767  29.623  25.479  1.00  0.00     0.275 C 
BRANCH  26  27
ATOM     27  O   UNL A   1      32.321  29.807  26.797  1.00  0.00    -0.458 OA
BRANCH  27  28
ATOM     28  C   UNL A   1      32.882  31.017  27.007  1.00  0.00     0.338 C 
ATOM     29  O   UNL A   1      32.348  32.111  26.958  1.00  0.00    -0.246 OA
BRANCH  28  30
ATOM     30  C   UNL A   1      34.253  30.848  27.488  1.00  0.00     0.060 A 
ATOM     31  C   UNL A   1      34.684  29.551  27.747  1.00  0.00     0.016 A 
ATOM     32  C   UNL A   1      35.035  31.937  27.855  1.00  0.00     0.016 A 
ATOM     33  C   UNL A   1      35.829  29.328  28.494  1.00  0.00     0.010 A 
ATOM     34  C   UNL A   1      36.255  31.707  28.501  1.00  0.00     0.010 A 
ATOM     35  C   UNL A   1      36.643  30.402  28.863  1.00  0.00    -0.014 A 
BRANCH  35  36
ATOM     36  C   UNL A   1      37.888  30.151  29.635  1.00  0.00     0.031 A 
ATOM     37  C   UNL A   1      38.977  29.289  29.057  1.00  0.00     0.074 A 
ATOM     38  C   UNL A   1      38.047  30.713  30.850  1.00  0.00     0.049 A 
ATOM     39  N   UNL A   1      40.056  28.824  29.633  1.00  0.00    -0.248 NA
ATOM     40  C   UNL A   1      38.825  28.885  27.651  1.00  0.00     0.031 C 
ATOM     41  C   UNL A   1      37.093  31.613  31.501  1.00  0.00     0.029 A 
ATOM     42  N   UNL A   1      39.073  30.612  31.756  1.00  0.00    -0.354 N 
ATOM     43  C   UNL A   1      40.686  28.035  28.678  1.00  0.00     0.074 A 
ATOM     44  C   UNL A   1      39.860  28.072  27.490  1.00  0.00     0.031 C 
ATOM     45  C   UNL A   1      37.589  32.006  32.683  1.00  0.00     0.029 A 
ATOM     46  C   UNL A   1      38.849  31.311  32.916  1.00  0.00     0.049 A 
ATOM     47  H   UNL A   1      39.890  30.088  31.590  1.00  0.00     0.167 HD
ATOM     48  C   UNL A   1      41.847  27.346  28.785  1.00  0.00     0.037 A 
ATOM     49  C   UNL A   1      39.551  31.353  34.064  1.00  0.00     0.037 A 
ATOM     50  C   UNL A   1      42.678  27.346  29.962  1.00  0.00     0.049 A 
ATOM     51  C   UNL A   1      40.801  30.530  34.180  1.00  0.00     0.074 A 
ATOM     52  C   UNL A   1      43.881  26.692  30.169  1.00  0.00     0.029 A 
ATOM     53  N   UNL A   1      42.395  28.041  31.130  1.00  0.00    -0.354 N 
ATOM     54  N   UNL A   1      41.368  29.760  33.284  1.00  0.00    -0.248 NA
ATOM     55  C   UNL A   1      41.498  30.571  35.470  1.00  0.00     0.031 C 
ATOM     56  C   UNL A   1      44.299  26.950  31.479  1.00  0.00     0.029 A 
ATOM     57  C   UNL A   1      43.389  27.811  32.069  1.00  0.00     0.049 A 
ATOM     58  H   UNL A   1      41.606  28.611  31.270  1.00  0.00     0.167 HD
ATOM     59  C   UNL A   1      42.503  29.243  33.894  1.00  0.00     0.074 A 
ATOM     60  C   UNL A   1      42.551  29.802  35.230  1.00  0.00     0.031 C 
ATOM     61  C   UNL A   1      43.422  28.381  33.392  1.00  0.00     0.037 A 
BRANCH  48  62
ATOM     62  C   UNL A   1      42.267  26.503  27.614  1.00  0.00     0.057 A 
ATOM     63  C   UNL A   1      41.906  25.155  27.492  1.00  0.00     0.134 A 
ATOM     64  C   UNL A   1      43.029  27.060  26.577  1.00  0.00     0.134 A 
ATOM     65  F   UNL A   1      41.189  24.554  28.453  1.00  0.00    -0.206 F 
ATOM     66  C   UNL A   1      42.309  24.386  26.397  1.00  0.00     0.040 A 
ATOM     67  C   UNL A   1      43.412  26.311  25.464  1.00  0.00     0.040 A 
ATOM     68  F   UNL A   1      43.404  28.348  26.625  1.00  0.00    -0.206 F 
ATOM     69  C   UNL A   1      43.058  24.966  25.376  1.00  0.00     0.006 A 
ENDBRANCH  48  62
BRANCH  49  70
ATOM     70  C   UNL A   1      39.062  32.171  35.203  1.00  0.00     0.057 A 
ATOM     71  C   UNL A   1      38.251  31.616  36.198  1.00  0.00     0.134 A 
ATOM     72  C   UNL A   1      39.395  33.527  35.326  1.00  0.00     0.134 A 
ATOM     73  F   UNL A   1      37.881  30.329  36.127  1.00  0.00    -0.206 F 
ATOM     74  C   UNL A   1      37.777  32.380  37.266  1.00  0.00     0.040 A 
ATOM     75  C   UNL A   1      38.955  34.296  36.403  1.00  0.00     0.040 A 
ATOM     76  F   UNL A   1      40.174  34.120  34.409  1.00  0.00    -0.206 F 
ATOM     77  C   UNL A   1      38.136  33.724  37.374  1.00  0.00     0.006 A 
ENDBRANCH  49  70
BRANCH  61  78
ATOM     78  C   UNL A   1      44.580  28.030  34.280  1.00  0.00     0.057 A 
ATOM     79  C   UNL A   1      45.748  28.801  34.319  1.00  0.00     0.134 A 
ATOM     80  C   UNL A   1      44.511  26.916  35.128  1.00  0.00     0.134 A 
ATOM     81  F   UNL A   1      45.883  29.871  33.520  1.00  0.00    -0.206 F 
ATOM     82  C   UNL A   1      46.816  28.463  35.150  1.00  0.00     0.040 A 
ATOM     83  C   UNL A   1      45.561  26.586  35.985  1.00  0.00     0.040 A 
ATOM     84  F   UNL A   1      43.418  26.139  35.144  1.00  0.00    -0.206 F 
ATOM     85  C   UNL A   1      46.721  27.357  35.991  1.00  0.00     0.006 A 
ENDBRANCH  61  78
ENDBRANCH  35  36
ENDBRANCH  28  30
ENDBRANCH  27  28
ENDBRANCH  26  27
ENDBRANCH  25  26
ENDBRANCH   1  25
TORSDOF 16
ENDMDL
MODEL 2
REMARK VINA RESULT:     -11.3      3.379      7.004
REMARK SMILES C/C(=N/OCc1ccccc1Nc1c(Cl)cccc1Cl)C(=O)OCCOC(=O)c1ccc(-c2c3nc(c(-c4c(F)cccc4F)c4ccc([nH]4)c(-c4c(F)cccc4F)c4nc(c(-c5c(F)cccc5F)c5ccc2[nH]5)C=C4)C=C3)cc1
REMARK SMILES IDX 23 1 21 2 22 3 2 4 1 5 3 6 4 7 5 8 6 9 7 10 11 11 8 12 10 13
REMARK SMILES IDX 9 14 12 15 13 17 14 18 19 19 15 20 16 21 18 22 20 23 17 24
REMARK SMILES IDX 24 25 25 26 26 27 27 28 28 29 29 30 30 31 82 32 31 33 81 34
REMARK SMILES IDX 32 35 33 36 34 37 75 38 35 39 80 40 74 41 76 42 36 43 79 44
REMARK SMILES IDX 73 45 72 46 37 48 63 49 46 50 62 51 47 52 50 53 61 54 77 55
REMARK SMILES IDX 48 56 49 57 60 59 78 60 51 61 38 62 39 63 44 64 40 65 41 66
REMARK SMILES IDX 43 67 45 68 42 69 64 70 65 71 70 72 66 73 67 74 69 75 71 76
REMARK SMILES IDX 68 77 52 78 53 79 58 80 54 81 55 82 57 83 59 84 56 85
REMARK H PARENT 12 16 76 47 50 58
REMARK Flexibility Score: inf
ROOT
ATOM      1  O   UNL A   1      32.662  27.085  24.727  1.00  0.00    -0.458 OA
ENDROOT
BRANCH   1   2
ATOM      2  C   UNL A   1      32.442  25.774  24.516  1.00  0.00     0.355 C 
ATOM      3  O   UNL A   1      32.816  25.105  23.567  1.00  0.00    -0.245 OA
BRANCH   2   4
ATOM      4  C   UNL A   1      31.743  25.130  25.715  1.00  0.00     0.161 C 
ATOM      5  C   UNL A   1      30.364  25.613  26.061  1.00  0.00     0.079 C 
ATOM      6  N   UNL A   1      32.278  24.246  26.501  1.00  0.00    -0.084 NA
BRANCH   6   7
ATOM      7  O   UNL A   1      33.640  24.106  26.235  1.00  0.00    -0.390 OA
BRANCH   7   8
ATOM      8  C   UNL A   1      34.056  22.807  26.655  1.00  0.00     0.302 C 
BRANCH   8   9
ATOM      9  C   UNL A   1      35.351  22.335  26.010  1.00  0.00     0.016 A 
ATOM     10  C   UNL A   1      36.494  23.160  25.965  1.00  0.00     0.009 A 
ATOM     11  C   UNL A   1      35.457  21.016  25.523  1.00  0.00     0.045 A 
ATOM     12  C   UNL A   1      37.710  22.712  25.453  1.00  0.00     0.001 A 
ATOM     13  C   UNL A   1      36.693  20.584  25.005  1.00  0.00     0.026 A 
ATOM     14  C   UNL A   1      37.808  21.421  24.969  1.00  0.00     0.002 A 
BRANCH  11  15
ATOM     15  N   UNL A   1      34.351  20.142  25.607  1.00  0.00    -0.353 N 
ATOM     16  H   UNL A   1      33.964  20.045  26.507  1.00  0.00     0.167 HD
BRANCH  15  17
ATOM     17  C   UNL A   1      33.715  19.387  24.596  1.00  0.00     0.076 A 
ATOM     18  C   UNL A   1      32.703  20.004  23.830  1.00  0.00     0.066 A 
ATOM     19  C   UNL A   1      34.090  18.076  24.250  1.00  0.00     0.066 A 
ATOM     20  Cl  UNL A   1      32.154  21.603  24.217  1.00  0.00    -0.082 Cl
ATOM     21  C   UNL A   1      32.120  19.359  22.738  1.00  0.00     0.023 A 
ATOM     22  C   UNL A   1      33.507  17.432  23.153  1.00  0.00     0.023 A 
ATOM     23  Cl  UNL A   1      35.208  17.152  25.197  1.00  0.00    -0.082 Cl
ATOM     24  C   UNL A   1      32.532  18.076  22.392  1.00  0.00     0.003 A 
ENDBRANCH  15  17
ENDBRANCH  11  15
ENDBRANCH   8   9
ENDBRANCH   7   8
ENDBRANCH   6   7
ENDBRANCH   2   4
ENDBRANCH   1   2
BRANCH   1  25
ATOM     25  C   UNL A   1      33.742  27.458  25.602  1.00  0.00     0.275 C 
BRANCH  25  26
ATOM     26  C   UNL A   1      33.340  28.702  26.396  1.00  0.00     0.275 C 
BRANCH  26  27
ATOM     27  O   UNL A   1      34.092  28.774  27.623  1.00  0.00    -0.458 OA
BRANCH  27  28
ATOM     28  C   UNL A   1      34.616  29.990  27.891  1.00  0.00     0.338 C 
ATOM     29  O   UNL A   1      34.034  31.057  27.972  1.00  0.00    -0.246 OA
BRANCH  28  30
ATOM     30  C   UNL A   1      36.026  29.850  28.256  1.00  0.00     0.060 A 
ATOM     31  C   UNL A   1      36.969  30.078  27.259  1.00  0.00     0.016 A 
ATOM     32  C   UNL A   1      36.412  29.329  29.485  1.00  0.00     0.016 A 
ATOM     33  C   UNL A   1      38.280  29.663  27.425  1.00  0.00     0.010 A 
ATOM     34  C   UNL A   1      37.760  29.025  29.697  1.00  0.00     0.010 A 
ATOM     35  C   UNL A   1      38.700  29.150  28.655  1.00  0.00    -0.014 A 
BRANCH  35  36
ATOM     36  C   UNL A   1      40.116  28.738  28.837  1.00  0.00     0.031 A 
ATOM     37  C   UNL A   1      41.119  29.705  29.405  1.00  0.00     0.074 A 
ATOM     38  C   UNL A   1      40.499  27.489  28.505  1.00  0.00     0.049 A 
ATOM     39  N   UNL A   1      42.420  29.592  29.490  1.00  0.00    -0.248 NA
ATOM     40  C   UNL A   1      40.591  30.971  29.936  1.00  0.00     0.031 C 
ATOM     41  C   UNL A   1      39.615  26.438  27.995  1.00  0.00     0.029 A 
ATOM     42  N   UNL A   1      41.732  26.889  28.549  1.00  0.00    -0.354 N 
ATOM     43  C   UNL A   1      42.870  30.788  30.038  1.00  0.00     0.074 A 
ATOM     44  C   UNL A   1      41.704  31.619  30.251  1.00  0.00     0.031 C 
ATOM     45  C   UNL A   1      40.325  25.317  27.804  1.00  0.00     0.029 A 
ATOM     46  C   UNL A   1      41.727  25.596  28.085  1.00  0.00     0.049 A 
ATOM     47  H   UNL A   1      42.541  27.340  28.882  1.00  0.00     0.167 HD
ATOM     48  C   UNL A   1      44.139  31.155  30.335  1.00  0.00     0.037 A 
ATOM     49  C   UNL A   1      42.744  24.743  27.859  1.00  0.00     0.037 A 
ATOM     50  C   UNL A   1      45.288  30.304  30.151  1.00  0.00     0.049 A 
ATOM     51  C   UNL A   1      44.147  25.196  28.137  1.00  0.00     0.074 A 
ATOM     52  C   UNL A   1      46.616  30.576  30.432  1.00  0.00     0.029 A 
ATOM     53  N   UNL A   1      45.243  29.014  29.643  1.00  0.00    -0.354 N 
ATOM     54  N   UNL A   1      44.564  26.341  28.620  1.00  0.00    -0.248 NA
ATOM     55  C   UNL A   1      45.220  24.245  27.824  1.00  0.00     0.031 C 
ATOM     56  C   UNL A   1      47.379  29.468  30.047  1.00  0.00     0.029 A 
ATOM     57  C   UNL A   1      46.523  28.485  29.581  1.00  0.00     0.049 A 
ATOM     58  H   UNL A   1      44.424  28.544  29.367  1.00  0.00     0.167 HD
ATOM     59  C   UNL A   1      45.947  26.240  28.692  1.00  0.00     0.074 A 
ATOM     60  C   UNL A   1      46.294  24.915  28.219  1.00  0.00     0.031 C 
ATOM     61  C   UNL A   1      46.848  27.162  29.112  1.00  0.00     0.037 A 
BRANCH  48  62
ATOM     62  C   UNL A   1      44.358  32.549  30.853  1.00  0.00     0.057 A 
ATOM     63  C   UNL A   1      44.560  33.642  30.001  1.00  0.00     0.134 A 
ATOM     64  C   UNL A   1      44.343  32.802  32.232  1.00  0.00     0.134 A 
ATOM     65  F   UNL A   1      44.599  33.470  28.672  1.00  0.00    -0.206 F 
ATOM     66  C   UNL A   1      44.765  34.930  30.502  1.00  0.00     0.040 A 
ATOM     67  C   UNL A   1      44.517  34.089  32.743  1.00  0.00     0.040 A 
ATOM     68  F   UNL A   1      44.148  31.803  33.105  1.00  0.00    -0.206 F 
ATOM     69  C   UNL A   1      44.736  35.157  31.876  1.00  0.00     0.006 A 
ENDBRANCH  48  62
BRANCH  49  70
ATOM     70  C   UNL A   1      42.469  23.392  27.305  1.00  0.00     0.057 A 
ATOM     71  C   UNL A   1      42.535  23.146  25.930  1.00  0.00     0.134 A 
ATOM     72  C   UNL A   1      42.135  22.314  28.137  1.00  0.00     0.134 A 
ATOM     73  F   UNL A   1      42.829  24.141  25.080  1.00  0.00    -0.206 F 
ATOM     74  C   UNL A   1      42.266  21.884  25.399  1.00  0.00     0.040 A 
ATOM     75  C   UNL A   1      41.895  21.039  27.624  1.00  0.00     0.040 A 
ATOM     76  F   UNL A   1      42.061  22.481  29.466  1.00  0.00    -0.206 F 
ATOM     77  C   UNL A   1      41.952  20.823  26.249  1.00  0.00     0.006 A 
ENDBRANCH  49  70
BRANCH  61  78
ATOM     78  C   UNL A   1      48.291  26.748  29.119  1.00  0.00     0.057 A 
ATOM     79  C   UNL A   1      48.868  26.083  30.208  1.00  0.00     0.134 A 
ATOM     80  C   UNL A   1      49.106  26.997  28.007  1.00  0.00     0.134 A 
ATOM     81  F   UNL A   1      48.146  25.829  31.310  1.00  0.00    -0.206 F 
ATOM     82  C   UNL A   1      50.211  25.704  30.200  1.00  0.00     0.040 A 
ATOM     83  C   UNL A   1      50.441  26.596  27.976  1.00  0.00     0.040 A 
ATOM     84  F   UNL A   1      48.613  27.624  26.928  1.00  0.00    -0.206 F 
ATOM     85  C   UNL A   1      50.999  25.953  29.079  1.00  0.00     0.006 A 
ENDBRANCH  61  78
ENDBRANCH  35  36
ENDBRANCH  28  30
ENDBRANCH  27  28
ENDBRANCH  26  27
ENDBRANCH  25  26
ENDBRANCH   1  25
TORSDOF 16
ENDMDL
MODEL 3
REMARK VINA RESULT:     -11.2      3.079      7.844
REMARK SMILES C/C(=N/OCc1ccccc1Nc1c(Cl)cccc1Cl)C(=O)OCCOC(=O)c1ccc(-c2c3nc(c(-c4c(F)cccc4F)c4ccc([nH]4)c(-c4c(F)cccc4F)c4nc(c(-c5c(F)cccc5F)c5ccc2[nH]5)C=C4)C=C3)cc1
REMARK SMILES IDX 23 1 21 2 22 3 2 4 1 5 3 6 4 7 5 8 6 9 7 10 11 11 8 12 10 13
REMARK SMILES IDX 9 14 12 15 13 17 14 18 19 19 15 20 16 21 18 22 20 23 17 24
REMARK SMILES IDX 24 25 25 26 26 27 27 28 28 29 29 30 30 31 82 32 31 33 81 34
REMARK SMILES IDX 32 35 33 36 34 37 75 38 35 39 80 40 74 41 76 42 36 43 79 44
REMARK SMILES IDX 73 45 72 46 37 48 63 49 46 50 62 51 47 52 50 53 61 54 77 55
REMARK SMILES IDX 48 56 49 57 60 59 78 60 51 61 38 62 39 63 44 64 40 65 41 66
REMARK SMILES IDX 43 67 45 68 42 69 64 70 65 71 70 72 66 73 67 74 69 75 71 76
REMARK SMILES IDX 68 77 52 78 53 79 58 80 54 81 55 82 57 83 59 84 56 85
REMARK H PARENT 12 16 76 47 50 58
REMARK Flexibility Score: inf
ROOT
ATOM      1  O   UNL A   1      42.168  20.743  25.250  1.00  0.00    -0.458 OA
ENDROOT
BRANCH   1   2
ATOM      2  C   UNL A   1      41.104  20.190  25.861  1.00  0.00     0.355 C 
ATOM      3  O   UNL A   1      40.729  19.032  25.789  1.00  0.00    -0.245 OA
BRANCH   2   4
ATOM      4  C   UNL A   1      40.439  21.182  26.817  1.00  0.00     0.161 C 
ATOM      5  C   UNL A   1      41.013  21.313  28.199  1.00  0.00     0.079 C 
ATOM      6  N   UNL A   1      39.370  21.869  26.551  1.00  0.00    -0.084 NA
BRANCH   6   7
ATOM      7  O   UNL A   1      38.790  21.439  25.357  1.00  0.00    -0.390 OA
BRANCH   7   8
ATOM      8  C   UNL A   1      37.433  21.881  25.325  1.00  0.00     0.302 C 
BRANCH   8   9
ATOM      9  C   UNL A   1      36.431  20.776  25.021  1.00  0.00     0.016 A 
ATOM     10  C   UNL A   1      36.824  19.422  24.965  1.00  0.00     0.009 A 
ATOM     11  C   UNL A   1      35.062  21.083  24.879  1.00  0.00     0.045 A 
ATOM     12  C   UNL A   1      35.906  18.393  24.772  1.00  0.00     0.001 A 
ATOM     13  C   UNL A   1      34.151  20.029  24.679  1.00  0.00     0.026 A 
ATOM     14  C   UNL A   1      34.565  18.698  24.625  1.00  0.00     0.002 A 
BRANCH  11  15
ATOM     15  N   UNL A   1      34.625  22.421  24.990  1.00  0.00    -0.353 N 
ATOM     16  H   UNL A   1      35.316  23.101  24.821  1.00  0.00     0.167 HD
BRANCH  15  17
ATOM     17  C   UNL A   1      33.345  22.931  25.305  1.00  0.00     0.076 A 
ATOM     18  C   UNL A   1      32.525  23.392  24.254  1.00  0.00     0.066 A 
ATOM     19  C   UNL A   1      32.804  22.931  26.604  1.00  0.00     0.066 A 
ATOM     20  Cl  UNL A   1      33.130  23.463  22.630  1.00  0.00    -0.082 Cl
ATOM     21  C   UNL A   1      31.208  23.794  24.478  1.00  0.00     0.023 A 
ATOM     22  C   UNL A   1      31.482  23.331  26.828  1.00  0.00     0.023 A 
ATOM     23  Cl  UNL A   1      33.750  22.535  28.001  1.00  0.00    -0.082 Cl
ATOM     24  C   UNL A   1      30.682  23.750  25.766  1.00  0.00     0.003 A 
ENDBRANCH  15  17
ENDBRANCH  11  15
ENDBRANCH   8   9
ENDBRANCH   7   8
ENDBRANCH   6   7
ENDBRANCH   2   4
ENDBRANCH   1   2
BRANCH   1  25
ATOM     25  C   UNL A   1      43.482  20.346  25.684  1.00  0.00     0.275 C 
BRANCH  25  26
ATOM     26  C   UNL A   1      44.432  21.539  25.568  1.00  0.00     0.275 C 
BRANCH  26  27
ATOM     27  O   UNL A   1      43.950  22.639  26.365  1.00  0.00    -0.458 OA
BRANCH  27  28
ATOM     28  C   UNL A   1      43.738  23.781  25.677  1.00  0.00     0.338 C 
ATOM     29  O   UNL A   1      43.912  23.986  24.488  1.00  0.00    -0.246 OA
BRANCH  28  30
ATOM     30  C   UNL A   1      43.081  24.762  26.541  1.00  0.00     0.060 A 
ATOM     31  C   UNL A   1      43.674  26.016  26.649  1.00  0.00     0.016 A 
ATOM     32  C   UNL A   1      42.022  24.410  27.369  1.00  0.00     0.016 A 
ATOM     33  C   UNL A   1      43.310  26.879  27.671  1.00  0.00     0.010 A 
ATOM     34  C   UNL A   1      41.572  25.331  28.320  1.00  0.00     0.010 A 
ATOM     35  C   UNL A   1      42.238  26.557  28.508  1.00  0.00    -0.014 A 
BRANCH  35  36
ATOM     36  C   UNL A   1      41.832  27.503  29.580  1.00  0.00     0.031 A 
ATOM     37  C   UNL A   1      42.578  27.532  30.887  1.00  0.00     0.074 A 
ATOM     38  C   UNL A   1      40.803  28.348  29.374  1.00  0.00     0.049 A 
ATOM     39  N   UNL A   1      42.281  28.164  31.993  1.00  0.00    -0.248 NA
ATOM     40  C   UNL A   1      43.812  26.735  30.962  1.00  0.00     0.031 C 
ATOM     41  C   UNL A   1      40.032  28.460  28.133  1.00  0.00     0.029 A 
ATOM     42  N   UNL A   1      40.228  29.278  30.202  1.00  0.00    -0.354 N 
ATOM     43  C   UNL A   1      43.262  27.804  32.910  1.00  0.00     0.074 A 
ATOM     44  C   UNL A   1      44.154  26.886  32.234  1.00  0.00     0.031 C 
ATOM     45  C   UNL A   1      39.109  29.423  28.271  1.00  0.00     0.029 A 
ATOM     46  C   UNL A   1      39.158  29.928  29.637  1.00  0.00     0.049 A 
ATOM     47  H   UNL A   1      40.550  29.462  31.114  1.00  0.00     0.167 HD
ATOM     48  C   UNL A   1      43.403  28.204  34.196  1.00  0.00     0.037 A 
ATOM     49  C   UNL A   1      38.279  30.797  30.169  1.00  0.00     0.037 A 
ATOM     50  C   UNL A   1      42.528  29.147  34.847  1.00  0.00     0.049 A 
ATOM     51  C   UNL A   1      38.419  31.177  31.614  1.00  0.00     0.074 A 
ATOM     52  C   UNL A   1      42.591  29.630  36.143  1.00  0.00     0.029 A 
ATOM     53  N   UNL A   1      41.434  29.754  34.247  1.00  0.00    -0.354 N 
ATOM     54  N   UNL A   1      39.328  30.803  32.481  1.00  0.00    -0.248 NA
ATOM     55  C   UNL A   1      37.403  32.086  32.158  1.00  0.00     0.031 C 
ATOM     56  C   UNL A   1      41.506  30.490  36.342  1.00  0.00     0.029 A 
ATOM     57  C   UNL A   1      40.800  30.589  35.154  1.00  0.00     0.049 A 
ATOM     58  H   UNL A   1      41.150  29.612  33.316  1.00  0.00     0.167 HD
ATOM     59  C   UNL A   1      39.008  31.450  33.667  1.00  0.00     0.074 A 
ATOM     60  C   UNL A   1      37.832  32.253  33.401  1.00  0.00     0.031 C 
ATOM     61  C   UNL A   1      39.633  31.385  34.869  1.00  0.00     0.037 A 
BRANCH  48  62
ATOM     62  C   UNL A   1      44.521  27.597  34.997  1.00  0.00     0.057 A 
ATOM     63  C   UNL A   1      45.762  28.228  35.150  1.00  0.00     0.134 A 
ATOM     64  C   UNL A   1      44.339  26.368  35.647  1.00  0.00     0.134 A 
ATOM     65  F   UNL A   1      46.008  29.399  34.546  1.00  0.00    -0.206 F 
ATOM     66  C   UNL A   1      46.790  27.646  35.897  1.00  0.00     0.040 A 
ATOM     67  C   UNL A   1      45.348  25.791  36.420  1.00  0.00     0.040 A 
ATOM     68  F   UNL A   1      43.173  25.712  35.549  1.00  0.00    -0.206 F 
ATOM     69  C   UNL A   1      46.581  26.428  36.540  1.00  0.00     0.006 A 
ENDBRANCH  48  62
BRANCH  49  70
ATOM     70  C   UNL A   1      37.169  31.331  29.339  1.00  0.00     0.057 A 
ATOM     71  C   UNL A   1      36.022  30.571  29.088  1.00  0.00     0.134 A 
ATOM     72  C   UNL A   1      37.226  32.615  28.779  1.00  0.00     0.134 A 
ATOM     73  F   UNL A   1      35.915  29.328  29.579  1.00  0.00    -0.206 F 
ATOM     74  C   UNL A   1      34.980  31.060  28.299  1.00  0.00     0.040 A 
ATOM     75  C   UNL A   1      36.179  33.129  28.015  1.00  0.00     0.040 A 
ATOM     76  F   UNL A   1      38.296  33.398  28.986  1.00  0.00    -0.206 F 
ATOM     77  C   UNL A   1      35.054  32.347  27.766  1.00  0.00     0.006 A 
ENDBRANCH  49  70
BRANCH  61  78
ATOM     78  C   UNL A   1      39.079  32.240  35.971  1.00  0.00     0.057 A 
ATOM     79  C   UNL A   1      39.429  33.588  36.112  1.00  0.00     0.134 A 
ATOM     80  C   UNL A   1      38.160  31.710  36.886  1.00  0.00     0.134 A 
ATOM     81  F   UNL A   1      40.316  34.152  35.278  1.00  0.00    -0.206 F 
ATOM     82  C   UNL A   1      38.905  34.372  37.141  1.00  0.00     0.040 A 
ATOM     83  C   UNL A   1      37.607  32.492  37.901  1.00  0.00     0.040 A 
ATOM     84  F   UNL A   1      37.777  30.427  36.802  1.00  0.00    -0.206 F 
ATOM     85  C   UNL A   1      37.986  33.826  38.034  1.00  0.00     0.006 A 
ENDBRANCH  61  78
ENDBRANCH  35  36
ENDBRANCH  28  30
ENDBRANCH  27  28
ENDBRANCH  26  27
ENDBRANCH  25  26
ENDBRANCH   1  25
TORSDOF 16
ENDMDL
