MODEL 1
REMARK VINA RESULT:     -12.2      0.000      0.000
REMARK SMILES Cc1cc2c(c(C)c1Cl)C=C(C(=O)OCCOC(=O)c1ccc(-c3c4nc(c(-c5c(F)cccc5F)c5ccc([nH]5)c(-c5c(F)cccc5F)c5nc(c(-c6c(F)cccc6F)c6ccc3[nH]6)C=C5)C=C4)cc1)[C@@H](C(F)(F)F)O2
REMARK SMILES IDX 16 1 15 2 14 3 12 4 13 5 11 6 1 7 2 8 3 9 8 10 4 11 6 12
REMARK SMILES IDX 9 13 5 14 79 15 7 16 10 17 74 18 75 19 76 20 77 21 78 22
REMARK SMILES IDX 17 23 18 24 19 25 20 26 21 27 73 28 22 29 72 30 23 31 24 32
REMARK SMILES IDX 25 33 66 34 26 35 71 36 65 37 67 38 27 39 70 40 64 41 63 42
REMARK SMILES IDX 28 44 54 45 37 46 53 47 38 48 41 49 52 50 68 51 39 52 40 53
REMARK SMILES IDX 51 55 69 56 42 57 29 58 30 59 35 60 31 61 32 62 34 63 36 64
REMARK SMILES IDX 33 65 55 66 56 67 61 68 57 69 58 70 60 71 62 72 59 73 43 74
REMARK SMILES IDX 44 75 49 76 45 77 46 78 48 79 50 80 47 81
REMARK H PARENT 67 43 41 54
REMARK Flexibility Score: inf
ROOT
ATOM      1  C   UNL A   1      36.000  20.758  25.123  1.00  0.00     0.275 C 
ENDROOT
BRANCH   1   2
ATOM      2  C   UNL A   1      34.747  21.474  24.621  1.00  0.00     0.275 C 
BRANCH   2   3
ATOM      3  O   UNL A   1      34.891  22.908  24.717  1.00  0.00    -0.459 OA
BRANCH   3   4
ATOM      4  C   UNL A   1      34.121  23.512  25.652  1.00  0.00     0.338 C 
ATOM      5  O   UNL A   1      34.018  23.198  26.827  1.00  0.00    -0.246 OA
BRANCH   4   6
ATOM      6  C   UNL A   1      33.402  24.658  25.066  1.00  0.00     0.087 C 
ATOM      7  C   UNL A   1      30.074  30.079  23.765  1.00  0.00     0.046 C 
ATOM      8  C   UNL A   1      31.015  29.023  24.278  1.00  0.00    -0.028 A 
ATOM      9  C   UNL A   1      31.057  27.779  23.634  1.00  0.00     0.052 A 
ATOM     10  C   UNL A   1      31.841  29.242  25.397  1.00  0.00     0.047 A 
ATOM     11  C   UNL A   1      31.883  26.759  24.100  1.00  0.00     0.128 A 
ATOM     12  C   UNL A   1      32.695  28.224  25.879  1.00  0.00    -0.021 A 
ATOM     13  Cl  UNL A   1      31.780  30.793  26.180  1.00  0.00    -0.084 Cl
ATOM     14  C   UNL A   1      32.694  26.965  25.221  1.00  0.00     0.022 A 
ATOM     15  O   UNL A   1      31.842  25.598  23.377  1.00  0.00    -0.475 OA
ATOM     16  C   UNL A   1      33.603  28.454  27.066  1.00  0.00     0.047 C 
ATOM     17  C   UNL A   1      33.499  25.840  25.685  1.00  0.00     0.027 C 
ATOM     18  C   UNL A   1      32.497  24.413  23.898  1.00  0.00     0.316 C 
BRANCH  18  19
ATOM     19  C   UNL A   1      31.433  23.354  24.228  1.00  0.00     0.430 C 
ATOM     20  F   UNL A   1      30.278  23.588  23.560  1.00  0.00    -0.167 F 
ATOM     21  F   UNL A   1      31.840  22.112  23.870  1.00  0.00    -0.167 F 
ATOM     22  F   UNL A   1      31.140  23.318  25.548  1.00  0.00    -0.167 F 
ENDBRANCH  18  19
ENDBRANCH   4   6
ENDBRANCH   3   4
ENDBRANCH   2   3
ENDBRANCH   1   2
BRANCH   1  23
ATOM     23  O   UNL A   1      37.165  21.558  24.855  1.00  0.00    -0.458 OA
BRANCH  23  24
ATOM     24  C   UNL A   1      38.304  21.154  25.460  1.00  0.00     0.338 C 
ATOM     25  O   UNL A   1      38.844  20.064  25.376  1.00  0.00    -0.246 OA
BRANCH  24  26
ATOM     26  C   UNL A   1      38.896  22.266  26.222  1.00  0.00     0.060 A 
ATOM     27  C   UNL A   1      38.336  23.532  26.107  1.00  0.00     0.016 A 
ATOM     28  C   UNL A   1      40.110  22.103  26.885  1.00  0.00     0.016 A 
ATOM     29  C   UNL A   1      39.063  24.651  26.502  1.00  0.00     0.010 A 
ATOM     30  C   UNL A   1      40.771  23.223  27.408  1.00  0.00     0.010 A 
ATOM     31  C   UNL A   1      40.291  24.524  27.167  1.00  0.00    -0.014 A 
BRANCH  31  32
ATOM     32  C   UNL A   1      41.084  25.737  27.544  1.00  0.00     0.031 A 
ATOM     33  C   UNL A   1      40.482  26.800  28.436  1.00  0.00     0.074 A 
ATOM     34  C   UNL A   1      42.364  25.887  27.138  1.00  0.00     0.049 A 
ATOM     35  N   UNL A   1      40.919  28.009  28.697  1.00  0.00    -0.248 NA
ATOM     36  C   UNL A   1      39.217  26.469  29.113  1.00  0.00     0.031 C 
ATOM     37  C   UNL A   1      43.120  24.929  26.331  1.00  0.00     0.029 A 
ATOM     38  N   UNL A   1      43.268  26.898  27.370  1.00  0.00    -0.354 N 
ATOM     39  C   UNL A   1      39.951  28.601  29.501  1.00  0.00     0.074 A 
ATOM     40  C   UNL A   1      38.903  27.622  29.688  1.00  0.00     0.031 C 
ATOM     41  C   UNL A   1      44.385  25.354  26.203  1.00  0.00     0.029 A 
ATOM     42  C   UNL A   1      44.500  26.678  26.798  1.00  0.00     0.049 A 
ATOM     43  H   UNL A   1      43.054  27.703  27.895  1.00  0.00     0.167 HD
ATOM     44  C   UNL A   1      39.937  29.847  30.034  1.00  0.00     0.037 A 
ATOM     45  C   UNL A   1      45.587  27.467  26.702  1.00  0.00     0.037 A 
ATOM     46  C   UNL A   1      41.020  30.791  29.918  1.00  0.00     0.049 A 
ATOM     47  C   UNL A   1      45.534  28.860  27.258  1.00  0.00     0.074 A 
ATOM     48  C   UNL A   1      41.101  32.075  30.430  1.00  0.00     0.029 A 
ATOM     49  N   UNL A   1      42.222  30.543  29.274  1.00  0.00    -0.354 N 
ATOM     50  N   UNL A   1      44.569  29.447  27.922  1.00  0.00    -0.248 NA
ATOM     51  C   UNL A   1      46.706  29.715  27.018  1.00  0.00     0.031 C 
ATOM     52  C   UNL A   1      42.335  32.618  30.064  1.00  0.00     0.029 A 
ATOM     53  C   UNL A   1      43.043  31.655  29.364  1.00  0.00     0.049 A 
ATOM     54  H   UNL A   1      42.457  29.702  28.820  1.00  0.00     0.167 HD
ATOM     55  C   UNL A   1      45.015  30.735  28.181  1.00  0.00     0.074 A 
ATOM     56  C   UNL A   1      46.349  30.838  27.628  1.00  0.00     0.031 C 
ATOM     57  C   UNL A   1      44.370  31.745  28.812  1.00  0.00     0.037 A 
BRANCH  44  58
ATOM     58  C   UNL A   1      38.708  30.289  30.776  1.00  0.00     0.057 A 
ATOM     59  C   UNL A   1      38.561  30.107  32.155  1.00  0.00     0.134 A 
ATOM     60  C   UNL A   1      37.694  30.988  30.105  1.00  0.00     0.134 A 
ATOM     61  F   UNL A   1      39.488  29.439  32.856  1.00  0.00    -0.206 F 
ATOM     62  C   UNL A   1      37.445  30.596  32.840  1.00  0.00     0.040 A 
ATOM     63  C   UNL A   1      36.587  31.503  30.782  1.00  0.00     0.040 A 
ATOM     64  F   UNL A   1      37.776  31.207  28.783  1.00  0.00    -0.206 F 
ATOM     65  C   UNL A   1      36.460  31.306  32.156  1.00  0.00     0.006 A 
ENDBRANCH  44  58
BRANCH  45  66
ATOM     66  C   UNL A   1      46.799  26.975  25.993  1.00  0.00     0.057 A 
ATOM     67  C   UNL A   1      46.977  27.203  24.625  1.00  0.00     0.134 A 
ATOM     68  C   UNL A   1      47.815  26.287  26.669  1.00  0.00     0.134 A 
ATOM     69  F   UNL A   1      46.028  27.828  23.914  1.00  0.00    -0.206 F 
ATOM     70  C   UNL A   1      48.124  26.769  23.955  1.00  0.00     0.040 A 
ATOM     71  C   UNL A   1      48.980  25.878  26.021  1.00  0.00     0.040 A 
ATOM     72  F   UNL A   1      47.705  26.035  27.982  1.00  0.00    -0.206 F 
ATOM     73  C   UNL A   1      49.135  26.116  24.658  1.00  0.00     0.006 A 
ENDBRANCH  45  66
BRANCH  57  74
ATOM     74  C   UNL A   1      45.100  33.046  28.957  1.00  0.00     0.057 A 
ATOM     75  C   UNL A   1      45.967  33.286  30.030  1.00  0.00     0.134 A 
ATOM     76  C   UNL A   1      44.982  34.045  27.982  1.00  0.00     0.134 A 
ATOM     77  F   UNL A   1      46.115  32.373  31.002  1.00  0.00    -0.206 F 
ATOM     78  C   UNL A   1      46.681  34.480  30.136  1.00  0.00     0.040 A 
ATOM     79  C   UNL A   1      45.708  35.234  28.065  1.00  0.00     0.040 A 
ATOM     80  F   UNL A   1      44.175  33.874  26.925  1.00  0.00    -0.206 F 
ATOM     81  C   UNL A   1      46.560  35.455  29.147  1.00  0.00     0.006 A 
ENDBRANCH  57  74
ENDBRANCH  31  32
ENDBRANCH  24  26
ENDBRANCH  23  24
ENDBRANCH   1  23
TORSDOF 12
ENDMDL
MODEL 2
REMARK VINA RESULT:     -12.2      3.962      8.800
REMARK SMILES Cc1cc2c(c(C)c1Cl)C=C(C(=O)OCCOC(=O)c1ccc(-c3c4nc(c(-c5c(F)cccc5F)c5ccc([nH]5)c(-c5c(F)cccc5F)c5nc(c(-c6c(F)cccc6F)c6ccc3[nH]6)C=C5)C=C4)cc1)[C@@H](C(F)(F)F)O2
REMARK SMILES IDX 16 1 15 2 14 3 12 4 13 5 11 6 1 7 2 8 3 9 8 10 4 11 6 12
REMARK SMILES IDX 9 13 5 14 79 15 7 16 10 17 74 18 75 19 76 20 77 21 78 22
REMARK SMILES IDX 17 23 18 24 19 25 20 26 21 27 73 28 22 29 72 30 23 31 24 32
REMARK SMILES IDX 25 33 66 34 26 35 71 36 65 37 67 38 27 39 70 40 64 41 63 42
REMARK SMILES IDX 28 44 54 45 37 46 53 47 38 48 41 49 52 50 68 51 39 52 40 53
REMARK SMILES IDX 51 55 69 56 42 57 29 58 30 59 35 60 31 61 32 62 34 63 36 64
REMARK SMILES IDX 33 65 55 66 56 67 61 68 57 69 58 70 60 71 62 72 59 73 43 74
REMARK SMILES IDX 44 75 49 76 45 77 46 78 48 79 50 80 47 81
REMARK H PARENT 67 43 41 54
REMARK Flexibility Score: inf
ROOT
ATOM      1  C   UNL A   1      31.822  30.094  25.556  1.00  0.00     0.275 C 
ENDROOT
BRANCH   1   2
ATOM      2  C   UNL A   1      31.456  28.642  25.253  1.00  0.00     0.275 C 
BRANCH   2   3
ATOM      3  O   UNL A   1      32.538  27.748  25.598  1.00  0.00    -0.459 OA
BRANCH   3   4
ATOM      4  C   UNL A   1      33.182  27.179  24.554  1.00  0.00     0.338 C 
ATOM      5  O   UNL A   1      33.712  27.759  23.618  1.00  0.00    -0.246 OA
BRANCH   4   6
ATOM      6  C   UNL A   1      33.189  25.710  24.689  1.00  0.00     0.087 C 
ATOM      7  C   UNL A   1      34.384  19.329  24.626  1.00  0.00     0.046 C 
ATOM      8  C   UNL A   1      34.430  20.829  24.733  1.00  0.00    -0.028 A 
ATOM      9  C   UNL A   1      33.232  21.552  24.669  1.00  0.00     0.052 A 
ATOM     10  C   UNL A   1      35.644  21.528  24.877  1.00  0.00     0.047 A 
ATOM     11  C   UNL A   1      33.232  22.944  24.723  1.00  0.00     0.128 A 
ATOM     12  C   UNL A   1      35.665  22.940  24.945  1.00  0.00    -0.021 A 
ATOM     13  Cl  UNL A   1      37.121  20.614  24.961  1.00  0.00    -0.084 Cl
ATOM     14  C   UNL A   1      34.436  23.645  24.850  1.00  0.00     0.022 A 
ATOM     15  O   UNL A   1      31.998  23.531  24.664  1.00  0.00    -0.475 OA
ATOM     16  C   UNL A   1      36.960  23.700  25.123  1.00  0.00     0.047 C 
ATOM     17  C   UNL A   1      34.370  25.103  24.852  1.00  0.00     0.027 C 
ATOM     18  C   UNL A   1      31.901  24.970  24.499  1.00  0.00     0.316 C 
BRANCH  18  19
ATOM     19  C   UNL A   1      31.275  25.278  23.129  1.00  0.00     0.430 C 
ATOM     20  F   UNL A   1      30.410  24.307  22.751  1.00  0.00    -0.167 F 
ATOM     21  F   UNL A   1      30.570  26.435  23.154  1.00  0.00    -0.167 F 
ATOM     22  F   UNL A   1      32.208  25.395  22.156  1.00  0.00    -0.167 F 
ENDBRANCH  18  19
ENDBRANCH   4   6
ENDBRANCH   3   4
ENDBRANCH   2   3
ENDBRANCH   1   2
BRANCH   1  23
ATOM     23  O   UNL A   1      32.270  30.215  26.918  1.00  0.00    -0.458 OA
BRANCH  23  24
ATOM     24  C   UNL A   1      32.908  31.366  27.223  1.00  0.00     0.338 C 
ATOM     25  O   UNL A   1      32.440  32.493  27.242  1.00  0.00    -0.246 OA
BRANCH  24  26
ATOM     26  C   UNL A   1      34.296  31.087  27.626  1.00  0.00     0.060 A 
ATOM     27  C   UNL A   1      34.690  29.767  27.806  1.00  0.00     0.016 A 
ATOM     28  C   UNL A   1      35.143  32.122  28.016  1.00  0.00     0.016 A 
ATOM     29  C   UNL A   1      35.847  29.480  28.524  1.00  0.00     0.010 A 
ATOM     30  C   UNL A   1      36.376  31.822  28.611  1.00  0.00     0.010 A 
ATOM     31  C   UNL A   1      36.719  30.497  28.936  1.00  0.00    -0.014 A 
BRANCH  31  32
ATOM     32  C   UNL A   1      37.936  30.177  29.748  1.00  0.00     0.031 A 
ATOM     33  C   UNL A   1      39.056  29.348  29.158  1.00  0.00     0.074 A 
ATOM     34  C   UNL A   1      38.083  30.656  31.002  1.00  0.00     0.049 A 
ATOM     35  N   UNL A   1      40.078  28.788  29.758  1.00  0.00    -0.248 NA
ATOM     36  C   UNL A   1      39.016  29.105  27.706  1.00  0.00     0.031 C 
ATOM     37  C   UNL A   1      37.133  31.524  31.700  1.00  0.00     0.029 A 
ATOM     38  N   UNL A   1      39.105  30.500  31.911  1.00  0.00    -0.354 N 
ATOM     39  C   UNL A   1      40.754  28.071  28.776  1.00  0.00     0.074 A 
ATOM     40  C   UNL A   1      40.030  28.266  27.539  1.00  0.00     0.031 C 
ATOM     41  C   UNL A   1      37.647  31.886  32.884  1.00  0.00     0.029 A 
ATOM     42  C   UNL A   1      38.897  31.170  33.094  1.00  0.00     0.049 A 
ATOM     43  H   UNL A   1      39.908  29.959  31.731  1.00  0.00     0.167 HD
ATOM     44  C   UNL A   1      41.875  27.319  28.895  1.00  0.00     0.037 A 
ATOM     45  C   UNL A   1      39.594  31.171  34.247  1.00  0.00     0.037 A 
ATOM     46  C   UNL A   1      42.644  27.195  30.107  1.00  0.00     0.049 A 
ATOM     47  C   UNL A   1      40.806  30.294  34.373  1.00  0.00     0.074 A 
ATOM     48  C   UNL A   1      43.798  26.461  30.323  1.00  0.00     0.029 A 
ATOM     49  N   UNL A   1      42.357  27.844  31.298  1.00  0.00    -0.354 N 
ATOM     50  N   UNL A   1      41.372  29.535  33.467  1.00  0.00    -0.248 NA
ATOM     51  C   UNL A   1      41.455  30.245  35.691  1.00  0.00     0.031 C 
ATOM     52  C   UNL A   1      44.189  26.636  31.653  1.00  0.00     0.029 A 
ATOM     53  C   UNL A   1      43.304  27.515  32.254  1.00  0.00     0.049 A 
ATOM     54  H   UNL A   1      41.593  28.448  31.442  1.00  0.00     0.167 HD
ATOM     55  C   UNL A   1      42.441  28.920  34.103  1.00  0.00     0.074 A 
ATOM     56  C   UNL A   1      42.464  29.415  35.462  1.00  0.00     0.031 C 
ATOM     57  C   UNL A   1      43.319  28.016  33.603  1.00  0.00     0.037 A 
BRANCH  44  58
ATOM     58  C   UNL A   1      42.340  26.543  27.696  1.00  0.00     0.057 A 
ATOM     59  C   UNL A   1      41.913  25.236  27.438  1.00  0.00     0.134 A 
ATOM     60  C   UNL A   1      43.165  27.153  26.738  1.00  0.00     0.134 A 
ATOM     61  F   UNL A   1      41.132  24.590  28.317  1.00  0.00    -0.206 F 
ATOM     62  C   UNL A   1      42.296  24.559  26.277  1.00  0.00     0.040 A 
ATOM     63  C   UNL A   1      43.533  26.496  25.563  1.00  0.00     0.040 A 
ATOM     64  F   UNL A   1      43.603  28.409  26.917  1.00  0.00    -0.206 F 
ATOM     65  C   UNL A   1      43.098  25.193  25.330  1.00  0.00     0.006 A 
ENDBRANCH  44  58
BRANCH  45  66
ATOM     66  C   UNL A   1      39.119  31.985  35.398  1.00  0.00     0.057 A 
ATOM     67  C   UNL A   1      39.480  33.330  35.528  1.00  0.00     0.134 A 
ATOM     68  C   UNL A   1      38.277  31.446  36.379  1.00  0.00     0.134 A 
ATOM     69  F   UNL A   1      40.308  33.897  34.640  1.00  0.00    -0.206 F 
ATOM     70  C   UNL A   1      39.018  34.111  36.590  1.00  0.00     0.040 A 
ATOM     71  C   UNL A   1      37.780  32.223  37.426  1.00  0.00     0.040 A 
ATOM     72  F   UNL A   1      37.894  30.162  36.314  1.00  0.00    -0.206 F 
ATOM     73  C   UNL A   1      38.154  33.560  37.535  1.00  0.00     0.006 A 
ENDBRANCH  45  66
BRANCH  57  74
ATOM     74  C   UNL A   1      44.390  27.515  34.524  1.00  0.00     0.057 A 
ATOM     75  C   UNL A   1      45.601  28.201  34.683  1.00  0.00     0.134 A 
ATOM     76  C   UNL A   1      44.186  26.368  35.302  1.00  0.00     0.134 A 
ATOM     77  F   UNL A   1      45.861  29.299  33.958  1.00  0.00    -0.206 F 
ATOM     78  C   UNL A   1      46.577  27.755  35.576  1.00  0.00     0.040 A 
ATOM     79  C   UNL A   1      45.145  25.927  36.214  1.00  0.00     0.040 A 
ATOM     80  F   UNL A   1      43.045  25.671  35.201  1.00  0.00    -0.206 F 
ATOM     81  C   UNL A   1      46.346  26.620  36.351  1.00  0.00     0.006 A 
ENDBRANCH  57  74
ENDBRANCH  31  32
ENDBRANCH  24  26
ENDBRANCH  23  24
ENDBRANCH   1  23
TORSDOF 12
ENDMDL
MODEL 3
REMARK VINA RESULT:     -12.0      1.366      2.179
REMARK SMILES Cc1cc2c(c(C)c1Cl)C=C(C(=O)OCCOC(=O)c1ccc(-c3c4nc(c(-c5c(F)cccc5F)c5ccc([nH]5)c(-c5c(F)cccc5F)c5nc(c(-c6c(F)cccc6F)c6ccc3[nH]6)C=C5)C=C4)cc1)[C@@H](C(F)(F)F)O2
REMARK SMILES IDX 16 1 15 2 14 3 12 4 13 5 11 6 1 7 2 8 3 9 8 10 4 11 6 12
REMARK SMILES IDX 9 13 5 14 79 15 7 16 10 17 74 18 75 19 76 20 77 21 78 22
REMARK SMILES IDX 17 23 18 24 19 25 20 26 21 27 73 28 22 29 72 30 23 31 24 32
REMARK SMILES IDX 25 33 66 34 26 35 71 36 65 37 67 38 27 39 70 40 64 41 63 42
REMARK SMILES IDX 28 44 54 45 37 46 53 47 38 48 41 49 52 50 68 51 39 52 40 53
REMARK SMILES IDX 51 55 69 56 42 57 29 58 30 59 35 60 31 61 32 62 34 63 36 64
REMARK SMILES IDX 33 65 55 66 56 67 61 68 57 69 58 70 60 71 62 72 59 73 43 74
REMARK SMILES IDX 44 75 49 76 45 77 46 78 48 79 50 80 47 81
REMARK H PARENT 67 43 41 54
REMARK Flexibility Score: inf
ROOT
ATOM      1  C   UNL A   1      37.005  20.328  24.662  1.00  0.00     0.275 C 
ENDROOT
BRANCH   1   2
ATOM      2  C   UNL A   1      35.521  20.347  25.029  1.00  0.00     0.275 C 
BRANCH   2   3
ATOM      3  O   UNL A   1      34.844  21.460  24.404  1.00  0.00    -0.459 OA
BRANCH   3   4
ATOM      4  C   UNL A   1      33.493  21.438  24.478  1.00  0.00     0.338 C 
ATOM      5  O   UNL A   1      32.760  20.506  24.186  1.00  0.00    -0.246 OA
BRANCH   4   6
ATOM      6  C   UNL A   1      32.984  22.723  24.993  1.00  0.00     0.087 C 
ATOM      7  C   UNL A   1      31.831  28.888  26.672  1.00  0.00     0.046 C 
ATOM      8  C   UNL A   1      32.164  27.593  25.981  1.00  0.00    -0.028 A 
ATOM      9  C   UNL A   1      31.897  26.385  26.637  1.00  0.00     0.052 A 
ATOM     10  C   UNL A   1      32.752  27.562  24.701  1.00  0.00     0.047 A 
ATOM     11  C   UNL A   1      32.226  25.164  26.052  1.00  0.00     0.128 A 
ATOM     12  C   UNL A   1      33.084  26.334  24.085  1.00  0.00    -0.021 A 
ATOM     13  Cl  UNL A   1      33.071  29.071  23.899  1.00  0.00    -0.084 Cl
ATOM     14  C   UNL A   1      32.825  25.127  24.788  1.00  0.00     0.022 A 
ATOM     15  O   UNL A   1      31.903  24.057  26.787  1.00  0.00    -0.475 OA
ATOM     16  C   UNL A   1      33.695  26.286  22.703  1.00  0.00     0.047 C 
ATOM     17  C   UNL A   1      33.188  23.819  24.253  1.00  0.00     0.027 C 
ATOM     18  C   UNL A   1      32.391  22.757  26.368  1.00  0.00     0.316 C 
BRANCH  18  19
ATOM     19  C   UNL A   1      33.384  22.231  27.418  1.00  0.00     0.430 C 
ATOM     20  F   UNL A   1      33.515  20.884  27.343  1.00  0.00    -0.167 F 
ATOM     21  F   UNL A   1      34.622  22.749  27.234  1.00  0.00    -0.167 F 
ATOM     22  F   UNL A   1      33.002  22.534  28.679  1.00  0.00    -0.167 F 
ENDBRANCH  18  19
ENDBRANCH   4   6
ENDBRANCH   3   4
ENDBRANCH   2   3
ENDBRANCH   1   2
BRANCH   1  23
ATOM     23  O   UNL A   1      37.673  21.457  25.251  1.00  0.00    -0.458 OA
BRANCH  23  24
ATOM     24  C   UNL A   1      38.830  21.183  25.893  1.00  0.00     0.338 C 
ATOM     25  O   UNL A   1      39.454  20.135  25.885  1.00  0.00    -0.246 OA
BRANCH  24  26
ATOM     26  C   UNL A   1      39.323  22.384  26.586  1.00  0.00     0.060 A 
ATOM     27  C   UNL A   1      38.811  23.625  26.227  1.00  0.00     0.016 A 
ATOM     28  C   UNL A   1      40.421  22.309  27.440  1.00  0.00     0.016 A 
ATOM     29  C   UNL A   1      39.492  24.785  26.580  1.00  0.00     0.010 A 
ATOM     30  C   UNL A   1      41.018  23.488  27.909  1.00  0.00     0.010 A 
ATOM     31  C   UNL A   1      40.604  24.746  27.433  1.00  0.00    -0.014 A 
BRANCH  31  32
ATOM     32  C   UNL A   1      41.355  25.997  27.767  1.00  0.00     0.031 A 
ATOM     33  C   UNL A   1      40.730  27.055  28.651  1.00  0.00     0.074 A 
ATOM     34  C   UNL A   1      42.618  26.190  27.329  1.00  0.00     0.049 A 
ATOM     35  N   UNL A   1      41.123  28.285  28.877  1.00  0.00    -0.248 NA
ATOM     36  C   UNL A   1      39.495  26.688  29.363  1.00  0.00     0.031 C 
ATOM     37  C   UNL A   1      43.395  25.246  26.525  1.00  0.00     0.029 A 
ATOM     38  N   UNL A   1      43.486  27.241  27.519  1.00  0.00    -0.354 N 
ATOM     39  C   UNL A   1      40.150  28.855  29.690  1.00  0.00     0.074 A 
ATOM     40  C   UNL A   1      39.147  27.839  29.922  1.00  0.00     0.031 C 
ATOM     41  C   UNL A   1      44.638  25.719  26.359  1.00  0.00     0.029 A 
ATOM     42  C   UNL A   1      44.712  27.060  26.923  1.00  0.00     0.049 A 
ATOM     43  H   UNL A   1      43.250  28.049  28.033  1.00  0.00     0.167 HD
ATOM     44  C   UNL A   1      40.097  30.110  30.198  1.00  0.00     0.037 A 
ATOM     45  C   UNL A   1      45.764  27.890  26.787  1.00  0.00     0.037 A 
ATOM     46  C   UNL A   1      41.138  31.094  30.038  1.00  0.00     0.049 A 
ATOM     47  C   UNL A   1      45.666  29.291  27.315  1.00  0.00     0.074 A 
ATOM     48  C   UNL A   1      41.177  32.392  30.522  1.00  0.00     0.029 A 
ATOM     49  N   UNL A   1      42.334  30.882  29.372  1.00  0.00    -0.354 N 
ATOM     50  N   UNL A   1      44.693  29.853  27.989  1.00  0.00    -0.248 NA
ATOM     51  C   UNL A   1      46.797  30.187  27.031  1.00  0.00     0.031 C 
ATOM     52  C   UNL A   1      42.380  32.976  30.116  1.00  0.00     0.029 A 
ATOM     53  C   UNL A   1      43.110  32.028  29.420  1.00  0.00     0.049 A 
ATOM     54  H   UNL A   1      42.593  30.041  28.929  1.00  0.00     0.167 HD
ATOM     55  C   UNL A   1      45.092  31.163  28.211  1.00  0.00     0.074 A 
ATOM     56  C   UNL A   1      46.408  31.307  27.626  1.00  0.00     0.031 C 
ATOM     57  C   UNL A   1      44.420  32.160  28.836  1.00  0.00     0.037 A 
BRANCH  44  58
ATOM     58  C   UNL A   1      38.867  30.519  30.959  1.00  0.00     0.057 A 
ATOM     59  C   UNL A   1      37.750  31.079  30.330  1.00  0.00     0.134 A 
ATOM     60  C   UNL A   1      38.773  30.264  32.335  1.00  0.00     0.134 A 
ATOM     61  F   UNL A   1      37.776  31.357  29.018  1.00  0.00    -0.206 F 
ATOM     62  C   UNL A   1      36.587  31.379  31.043  1.00  0.00     0.040 A 
ATOM     63  C   UNL A   1      37.608  30.536  33.053  1.00  0.00     0.040 A 
ATOM     64  F   UNL A   1      39.805  29.719  32.999  1.00  0.00    -0.206 F 
ATOM     65  C   UNL A   1      36.509  31.097  32.405  1.00  0.00     0.006 A 
ENDBRANCH  44  58
BRANCH  45  66
ATOM     66  C   UNL A   1      46.979  27.432  26.060  1.00  0.00     0.057 A 
ATOM     67  C   UNL A   1      48.057  26.861  26.744  1.00  0.00     0.134 A 
ATOM     68  C   UNL A   1      47.080  27.531  24.666  1.00  0.00     0.134 A 
ATOM     69  F   UNL A   1      48.035  26.765  28.081  1.00  0.00    -0.206 F 
ATOM     70  C   UNL A   1      49.190  26.402  26.069  1.00  0.00     0.040 A 
ATOM     71  C   UNL A   1      48.191  27.046  23.976  1.00  0.00     0.040 A 
ATOM     72  F   UNL A   1      46.081  28.070  23.950  1.00  0.00    -0.206 F 
ATOM     73  C   UNL A   1      49.253  26.483  24.678  1.00  0.00     0.006 A 
ENDBRANCH  45  66
BRANCH  57  74
ATOM     74  C   UNL A   1      45.100  33.492  28.937  1.00  0.00     0.057 A 
ATOM     75  C   UNL A   1      45.979  33.789  29.985  1.00  0.00     0.134 A 
ATOM     76  C   UNL A   1      44.919  34.464  27.945  1.00  0.00     0.134 A 
ATOM     77  F   UNL A   1      46.185  32.904  30.972  1.00  0.00    -0.206 F 
ATOM     78  C   UNL A   1      46.646  35.013  30.050  1.00  0.00     0.040 A 
ATOM     79  C   UNL A   1      45.598  35.682  27.987  1.00  0.00     0.040 A 
ATOM     80  F   UNL A   1      44.097  34.237  26.911  1.00  0.00    -0.206 F 
ATOM     81  C   UNL A   1      46.463  35.961  29.044  1.00  0.00     0.006 A 
ENDBRANCH  57  74
ENDBRANCH  31  32
ENDBRANCH  24  26
ENDBRANCH  23  24
ENDBRANCH   1  23
TORSDOF 12
ENDMDL
