MODEL 1
REMARK VINA RESULT:     -11.5      0.000      0.000
REMARK SMILES Cc1cc2nc(SCC(=O)OCCOC(=O)c3ccc(-c4c5nc(c(-c6c(F)cccc6F)c6ccc([nH]6)c(-c6c(F)cccc6F)c6nc(c(-c7c(F)cccc7F)c7ccc4[nH]7)C=C6)C=C5)cc3)n(CC(C)C)c(=O)c2[nH]1
REMARK SMILES IDX 12 1 11 2 9 3 10 4 8 5 7 6 6 7 1 8 2 9 3 10 79 11 4 12 78 13
REMARK SMILES IDX 5 15 76 16 71 17 77 18 72 19 73 20 74 21 75 22 13 23 14 24
REMARK SMILES IDX 15 25 16 26 17 27 18 28 70 29 19 30 69 31 20 32 21 33 22 34
REMARK SMILES IDX 63 35 23 36 68 37 62 38 64 39 24 40 67 41 61 42 60 43 25 45
REMARK SMILES IDX 51 46 34 47 50 48 35 49 38 50 49 51 65 52 36 53 37 54 48 56
REMARK SMILES IDX 66 57 39 58 26 59 27 60 32 61 28 62 29 63 31 64 33 65 30 66
REMARK SMILES IDX 52 67 53 68 58 69 54 70 55 71 57 72 59 73 56 74 40 75 41 76
REMARK SMILES IDX 46 77 42 78 43 79 45 80 47 81 44 82
REMARK H PARENT 79 14 64 44 38 55
REMARK Flexibility Score: inf
ROOT
ATOM      1  C   UNL A   1      34.043  22.516  26.360  1.00  0.00     0.274 C 
ENDROOT
BRANCH   1   2
ATOM      2  O   UNL A   1      32.686  22.336  26.774  1.00  0.00    -0.461 OA
BRANCH   2   3
ATOM      3  C   UNL A   1      31.954  23.476  26.814  1.00  0.00     0.316 C 
ATOM      4  O   UNL A   1      30.805  23.489  27.234  1.00  0.00    -0.251 OA
BRANCH   3   5
ATOM      5  C   UNL A   1      32.738  24.695  26.303  1.00  0.00     0.200 C 
BRANCH   5   6
ATOM      6  S   UNL A   1      32.456  24.955  24.511  1.00  0.00    -0.076 SA
BRANCH   6   7
ATOM      7  C   UNL A   1      31.740  26.541  24.329  1.00  0.00     0.172 A 
ATOM      8  C   UNL A   1      28.825  30.499  21.398  1.00  0.00     0.064 C 
ATOM      9  C   UNL A   1      29.176  29.597  22.520  1.00  0.00     0.014 A 
ATOM     10  C   UNL A   1      28.927  28.259  22.845  1.00  0.00     0.052 A 
ATOM     11  N   UNL A   1      30.125  30.035  23.415  1.00  0.00    -0.353 N 
ATOM     12  C   UNL A   1      29.993  27.858  23.701  1.00  0.00     0.097 A 
ATOM     13  C   UNL A   1      30.842  28.915  23.682  1.00  0.00     0.131 A 
ATOM     14  H   UNL A   1      30.253  30.942  23.775  1.00  0.00     0.166 HD
ATOM     15  N   UNL A   1      30.464  26.577  24.027  1.00  0.00    -0.222 NA
ATOM     16  C   UNL A   1      32.230  28.715  23.574  1.00  0.00     0.278 A 
ATOM     17  N   UNL A   1      32.656  27.612  24.258  1.00  0.00    -0.286 N 
ATOM     18  O   UNL A   1      32.936  29.363  22.822  1.00  0.00    -0.267 OA
BRANCH  17  19
ATOM     19  C   UNL A   1      33.788  27.906  25.143  1.00  0.00     0.131 C 
BRANCH  19  20
ATOM     20  C   UNL A   1      33.700  28.193  26.686  1.00  0.00     0.003 C 
ATOM     21  C   UNL A   1      34.914  28.922  27.284  1.00  0.00     0.009 C 
ATOM     22  C   UNL A   1      32.555  29.157  27.113  1.00  0.00     0.009 C 
ENDBRANCH  19  20
ENDBRANCH  17  19
ENDBRANCH   6   7
ENDBRANCH   5   6
ENDBRANCH   3   5
ENDBRANCH   2   3
ENDBRANCH   1   2
BRANCH   1  23
ATOM     23  C   UNL A   1      34.630  21.233  25.758  1.00  0.00     0.275 C 
BRANCH  23  24
ATOM     24  O   UNL A   1      35.765  21.190  24.803  1.00  0.00    -0.458 OA
BRANCH  24  25
ATOM     25  C   UNL A   1      37.040  20.756  25.080  1.00  0.00     0.338 C 
ATOM     26  O   UNL A   1      37.358  19.578  24.998  1.00  0.00    -0.246 OA
BRANCH  25  27
ATOM     27  C   UNL A   1      38.098  21.765  25.548  1.00  0.00     0.060 A 
ATOM     28  C   UNL A   1      39.325  21.276  26.055  1.00  0.00     0.016 A 
ATOM     29  C   UNL A   1      37.887  23.136  25.683  1.00  0.00     0.016 A 
ATOM     30  C   UNL A   1      40.192  22.080  26.855  1.00  0.00     0.010 A 
ATOM     31  C   UNL A   1      38.729  23.923  26.523  1.00  0.00     0.010 A 
ATOM     32  C   UNL A   1      39.855  23.399  27.198  1.00  0.00    -0.014 A 
BRANCH  32  33
ATOM     33  C   UNL A   1      40.804  24.286  27.971  1.00  0.00     0.031 A 
ATOM     34  C   UNL A   1      40.193  25.618  28.143  1.00  0.00     0.074 A 
ATOM     35  C   UNL A   1      41.975  24.115  28.656  1.00  0.00     0.049 A 
ATOM     36  N   UNL A   1      40.404  26.673  27.432  1.00  0.00    -0.248 NA
ATOM     37  C   UNL A   1      39.075  25.721  29.089  1.00  0.00     0.031 C 
ATOM     38  C   UNL A   1      42.636  22.868  28.986  1.00  0.00     0.029 A 
ATOM     39  N   UNL A   1      42.821  25.031  29.277  1.00  0.00    -0.354 N 
ATOM     40  C   UNL A   1      39.573  27.632  27.990  1.00  0.00     0.074 A 
ATOM     41  C   UNL A   1      38.595  26.921  28.768  1.00  0.00     0.031 C 
ATOM     42  C   UNL A   1      43.687  23.057  29.814  1.00  0.00     0.029 A 
ATOM     43  C   UNL A   1      43.829  24.470  30.088  1.00  0.00     0.049 A 
ATOM     44  H   UNL A   1      42.721  26.003  29.158  1.00  0.00     0.167 HD
ATOM     45  C   UNL A   1      39.945  28.936  28.067  1.00  0.00     0.037 A 
ATOM     46  C   UNL A   1      44.716  25.069  30.944  1.00  0.00     0.037 A 
ATOM     47  C   UNL A   1      41.066  29.226  27.208  1.00  0.00     0.049 A 
ATOM     48  C   UNL A   1      44.787  26.499  30.581  1.00  0.00     0.074 A 
ATOM     49  C   UNL A   1      41.346  29.045  25.867  1.00  0.00     0.029 A 
ATOM     50  N   UNL A   1      42.277  29.482  27.804  1.00  0.00    -0.354 N 
ATOM     51  N   UNL A   1      45.368  26.948  29.506  1.00  0.00    -0.248 NA
ATOM     52  C   UNL A   1      43.834  27.399  31.206  1.00  0.00     0.031 C 
ATOM     53  C   UNL A   1      42.733  28.721  25.814  1.00  0.00     0.029 A 
ATOM     54  C   UNL A   1      43.234  28.786  27.113  1.00  0.00     0.049 A 
ATOM     55  H   UNL A   1      42.429  30.060  28.585  1.00  0.00     0.167 HD
ATOM     56  C   UNL A   1      44.516  27.942  29.056  1.00  0.00     0.074 A 
ATOM     57  C   UNL A   1      43.642  28.240  30.187  1.00  0.00     0.031 C 
ATOM     58  C   UNL A   1      44.408  28.215  27.725  1.00  0.00     0.037 A 
BRANCH  45  59
ATOM     59  C   UNL A   1      39.551  29.830  29.216  1.00  0.00     0.057 A 
ATOM     60  C   UNL A   1      38.546  30.822  29.160  1.00  0.00     0.134 A 
ATOM     61  C   UNL A   1      40.001  29.508  30.504  1.00  0.00     0.134 A 
ATOM     62  F   UNL A   1      37.926  31.167  28.027  1.00  0.00    -0.206 F 
ATOM     63  C   UNL A   1      38.033  31.448  30.296  1.00  0.00     0.040 A 
ATOM     64  C   UNL A   1      39.446  30.080  31.653  1.00  0.00     0.040 A 
ATOM     65  F   UNL A   1      40.932  28.559  30.686  1.00  0.00    -0.206 F 
ATOM     66  C   UNL A   1      38.459  31.053  31.552  1.00  0.00     0.006 A 
ENDBRANCH  45  59
BRANCH  46  67
ATOM     67  C   UNL A   1      45.431  24.553  32.159  1.00  0.00     0.057 A 
ATOM     68  C   UNL A   1      44.778  23.772  33.128  1.00  0.00     0.134 A 
ATOM     69  C   UNL A   1      46.711  25.011  32.537  1.00  0.00     0.134 A 
ATOM     70  F   UNL A   1      43.523  23.345  32.940  1.00  0.00    -0.206 F 
ATOM     71  C   UNL A   1      45.343  23.466  34.376  1.00  0.00     0.040 A 
ATOM     72  C   UNL A   1      47.285  24.724  33.792  1.00  0.00     0.040 A 
ATOM     73  F   UNL A   1      47.425  25.804  31.725  1.00  0.00    -0.206 F 
ATOM     74  C   UNL A   1      46.595  23.952  34.720  1.00  0.00     0.006 A 
ENDBRANCH  46  67
BRANCH  58  75
ATOM     75  C   UNL A   1      45.464  27.675  26.801  1.00  0.00     0.057 A 
ATOM     76  C   UNL A   1      46.456  28.556  26.349  1.00  0.00     0.134 A 
ATOM     77  C   UNL A   1      45.460  26.386  26.246  1.00  0.00     0.134 A 
ATOM     78  F   UNL A   1      46.492  29.820  26.802  1.00  0.00    -0.206 F 
ATOM     79  C   UNL A   1      47.400  28.182  25.393  1.00  0.00     0.040 A 
ATOM     80  C   UNL A   1      46.423  25.991  25.312  1.00  0.00     0.040 A 
ATOM     81  F   UNL A   1      44.499  25.498  26.543  1.00  0.00    -0.206 F 
ATOM     82  C   UNL A   1      47.392  26.890  24.877  1.00  0.00     0.006 A 
ENDBRANCH  58  75
ENDBRANCH  32  33
ENDBRANCH  25  27
ENDBRANCH  24  25
ENDBRANCH  23  24
ENDBRANCH   1  23
TORSDOF 15
ENDMDL
MODEL 2
REMARK VINA RESULT:     -11.1      2.494      6.455
REMARK SMILES Cc1cc2nc(SCC(=O)OCCOC(=O)c3ccc(-c4c5nc(c(-c6c(F)cccc6F)c6ccc([nH]6)c(-c6c(F)cccc6F)c6nc(c(-c7c(F)cccc7F)c7ccc4[nH]7)C=C6)C=C5)cc3)n(CC(C)C)c(=O)c2[nH]1
REMARK SMILES IDX 12 1 11 2 9 3 10 4 8 5 7 6 6 7 1 8 2 9 3 10 79 11 4 12 78 13
REMARK SMILES IDX 5 15 76 16 71 17 77 18 72 19 73 20 74 21 75 22 13 23 14 24
REMARK SMILES IDX 15 25 16 26 17 27 18 28 70 29 19 30 69 31 20 32 21 33 22 34
REMARK SMILES IDX 63 35 23 36 68 37 62 38 64 39 24 40 67 41 61 42 60 43 25 45
REMARK SMILES IDX 51 46 34 47 50 48 35 49 38 50 49 51 65 52 36 53 37 54 48 56
REMARK SMILES IDX 66 57 39 58 26 59 27 60 32 61 28 62 29 63 31 64 33 65 30 66
REMARK SMILES IDX 52 67 53 68 58 69 54 70 55 71 57 72 59 73 56 74 40 75 41 76
REMARK SMILES IDX 46 77 42 78 43 79 45 80 47 81 44 82
REMARK H PARENT 79 14 64 44 38 55
REMARK Flexibility Score: inf
ROOT
ATOM      1  C   UNL A   1      36.722  22.669  23.946  1.00  0.00     0.274 C 
ENDROOT
BRANCH   1   2
ATOM      2  O   UNL A   1      35.338  22.769  24.288  1.00  0.00    -0.461 OA
BRANCH   2   3
ATOM      3  C   UNL A   1      34.627  23.628  23.515  1.00  0.00     0.316 C 
ATOM      4  O   UNL A   1      34.217  23.307  22.408  1.00  0.00    -0.251 OA
BRANCH   3   5
ATOM      5  C   UNL A   1      34.401  24.985  24.201  1.00  0.00     0.200 C 
BRANCH   5   6
ATOM      6  S   UNL A   1      32.829  24.993  25.142  1.00  0.00    -0.076 SA
BRANCH   6   7
ATOM      7  C   UNL A   1      32.069  26.543  24.857  1.00  0.00     0.172 A 
ATOM      8  C   UNL A   1      29.153  30.260  21.625  1.00  0.00     0.064 C 
ATOM      9  C   UNL A   1      29.486  29.423  22.802  1.00  0.00     0.014 A 
ATOM     10  C   UNL A   1      29.267  28.093  23.180  1.00  0.00     0.052 A 
ATOM     11  N   UNL A   1      30.381  29.934  23.713  1.00  0.00    -0.353 N 
ATOM     12  C   UNL A   1      30.309  27.769  24.096  1.00  0.00     0.097 A 
ATOM     13  C   UNL A   1      31.123  28.852  24.062  1.00  0.00     0.131 A 
ATOM     14  H   UNL A   1      30.465  30.860  24.034  1.00  0.00     0.166 HD
ATOM     15  N   UNL A   1      30.807  26.521  24.502  1.00  0.00    -0.222 NA
ATOM     16  C   UNL A   1      32.519  28.696  24.019  1.00  0.00     0.278 A 
ATOM     17  N   UNL A   1      32.952  27.641  24.771  1.00  0.00    -0.286 N 
ATOM     18  O   UNL A   1      33.235  29.333  23.266  1.00  0.00    -0.267 OA
BRANCH  17  19
ATOM     19  C   UNL A   1      34.037  28.014  25.686  1.00  0.00     0.131 C 
BRANCH  19  20
ATOM     20  C   UNL A   1      33.861  28.692  27.094  1.00  0.00     0.003 C 
ATOM     21  C   UNL A   1      35.134  29.326  27.675  1.00  0.00     0.009 C 
ATOM     22  C   UNL A   1      32.900  29.916  27.121  1.00  0.00     0.009 C 
ENDBRANCH  19  20
ENDBRANCH  17  19
ENDBRANCH   6   7
ENDBRANCH   5   6
ENDBRANCH   3   5
ENDBRANCH   2   3
ENDBRANCH   1   2
BRANCH   1  23
ATOM     23  C   UNL A   1      37.398  21.483  24.645  1.00  0.00     0.275 C 
BRANCH  23  24
ATOM     24  O   UNL A   1      37.974  21.524  26.013  1.00  0.00    -0.458 OA
BRANCH  24  25
ATOM     25  C   UNL A   1      39.277  21.827  26.333  1.00  0.00     0.338 C 
ATOM     26  O   UNL A   1      40.152  20.975  26.370  1.00  0.00    -0.246 OA
BRANCH  25  27
ATOM     27  C   UNL A   1      39.650  23.271  26.696  1.00  0.00     0.060 A 
ATOM     28  C   UNL A   1      40.829  23.499  27.444  1.00  0.00     0.016 A 
ATOM     29  C   UNL A   1      38.827  24.379  26.504  1.00  0.00     0.016 A 
ATOM     30  C   UNL A   1      41.058  24.718  28.150  1.00  0.00     0.010 A 
ATOM     31  C   UNL A   1      39.034  25.577  27.250  1.00  0.00     0.010 A 
ATOM     32  C   UNL A   1      40.105  25.750  28.155  1.00  0.00    -0.014 A 
BRANCH  32  33
ATOM     33  C   UNL A   1      40.375  27.077  28.827  1.00  0.00     0.031 A 
ATOM     34  C   UNL A   1      41.625  27.648  28.291  1.00  0.00     0.074 A 
ATOM     35  C   UNL A   1      39.690  27.916  29.661  1.00  0.00     0.049 A 
ATOM     36  N   UNL A   1      42.802  27.585  28.816  1.00  0.00    -0.248 NA
ATOM     37  C   UNL A   1      41.585  28.170  26.919  1.00  0.00     0.031 C 
ATOM     38  C   UNL A   1      38.302  27.821  30.071  1.00  0.00     0.029 A 
ATOM     39  N   UNL A   1      40.069  29.098  30.293  1.00  0.00    -0.354 N 
ATOM     40  C   UNL A   1      43.614  28.250  27.911  1.00  0.00     0.074 A 
ATOM     41  C   UNL A   1      42.886  28.303  26.672  1.00  0.00     0.031 C 
ATOM     42  C   UNL A   1      37.906  28.909  30.769  1.00  0.00     0.029 A 
ATOM     43  C   UNL A   1      39.022  29.820  30.904  1.00  0.00     0.049 A 
ATOM     44  H   UNL A   1      41.003  29.408  30.312  1.00  0.00     0.167 HD
ATOM     45  C   UNL A   1      44.661  29.012  28.322  1.00  0.00     0.037 A 
ATOM     46  C   UNL A   1      39.015  31.069  31.468  1.00  0.00     0.037 A 
ATOM     47  C   UNL A   1      45.015  28.742  29.693  1.00  0.00     0.049 A 
ATOM     48  C   UNL A   1      40.417  31.429  31.765  1.00  0.00     0.074 A 
ATOM     49  C   UNL A   1      45.329  27.608  30.419  1.00  0.00     0.029 A 
ATOM     50  N   UNL A   1      44.736  29.709  30.628  1.00  0.00    -0.354 N 
ATOM     51  N   UNL A   1      41.119  30.893  32.721  1.00  0.00    -0.248 NA
ATOM     52  C   UNL A   1      41.178  32.088  30.717  1.00  0.00     0.031 C 
ATOM     53  C   UNL A   1      44.757  27.817  31.708  1.00  0.00     0.029 A 
ATOM     54  C   UNL A   1      44.183  29.088  31.716  1.00  0.00     0.049 A 
ATOM     55  H   UNL A   1      44.904  30.674  30.532  1.00  0.00     0.167 HD
ATOM     56  C   UNL A   1      42.371  30.716  32.158  1.00  0.00     0.074 A 
ATOM     57  C   UNL A   1      42.376  31.554  30.961  1.00  0.00     0.031 C 
ATOM     58  C   UNL A   1      43.171  29.685  32.551  1.00  0.00     0.037 A 
BRANCH  45  59
ATOM     59  C   UNL A   1      45.083  30.272  27.609  1.00  0.00     0.057 A 
ATOM     60  C   UNL A   1      44.297  31.441  27.502  1.00  0.00     0.134 A 
ATOM     61  C   UNL A   1      46.430  30.424  27.251  1.00  0.00     0.134 A 
ATOM     62  F   UNL A   1      43.024  31.502  27.910  1.00  0.00    -0.206 F 
ATOM     63  C   UNL A   1      44.808  32.663  27.067  1.00  0.00     0.040 A 
ATOM     64  C   UNL A   1      46.968  31.659  26.878  1.00  0.00     0.040 A 
ATOM     65  F   UNL A   1      47.282  29.392  27.339  1.00  0.00    -0.206 F 
ATOM     66  C   UNL A   1      46.157  32.784  26.785  1.00  0.00     0.006 A 
ENDBRANCH  45  59
BRANCH  46  67
ATOM     67  C   UNL A   1      37.912  32.068  31.664  1.00  0.00     0.057 A 
ATOM     68  C   UNL A   1      37.266  32.226  32.903  1.00  0.00     0.134 A 
ATOM     69  C   UNL A   1      37.284  32.726  30.586  1.00  0.00     0.134 A 
ATOM     70  F   UNL A   1      37.701  31.584  33.995  1.00  0.00    -0.206 F 
ATOM     71  C   UNL A   1      36.092  32.977  33.066  1.00  0.00     0.040 A 
ATOM     72  C   UNL A   1      36.097  33.470  30.732  1.00  0.00     0.040 A 
ATOM     73  F   UNL A   1      37.769  32.620  29.339  1.00  0.00    -0.206 F 
ATOM     74  C   UNL A   1      35.493  33.592  31.977  1.00  0.00     0.006 A 
ENDBRANCH  46  67
BRANCH  58  75
ATOM     75  C   UNL A   1      42.827  28.966  33.826  1.00  0.00     0.057 A 
ATOM     76  C   UNL A   1      43.626  29.206  34.952  1.00  0.00     0.134 A 
ATOM     77  C   UNL A   1      41.849  27.966  33.943  1.00  0.00     0.134 A 
ATOM     78  F   UNL A   1      44.613  30.115  34.897  1.00  0.00    -0.206 F 
ATOM     79  C   UNL A   1      43.465  28.493  36.140  1.00  0.00     0.040 A 
ATOM     80  C   UNL A   1      41.658  27.269  35.141  1.00  0.00     0.040 A 
ATOM     81  F   UNL A   1      41.094  27.597  32.897  1.00  0.00    -0.206 F 
ATOM     82  C   UNL A   1      42.470  27.526  36.241  1.00  0.00     0.006 A 
ENDBRANCH  58  75
ENDBRANCH  32  33
ENDBRANCH  25  27
ENDBRANCH  24  25
ENDBRANCH  23  24
ENDBRANCH   1  23
TORSDOF 15
ENDMDL
MODEL 3
REMARK VINA RESULT:     -11.1      3.073      6.587
REMARK SMILES Cc1cc2nc(SCC(=O)OCCOC(=O)c3ccc(-c4c5nc(c(-c6c(F)cccc6F)c6ccc([nH]6)c(-c6c(F)cccc6F)c6nc(c(-c7c(F)cccc7F)c7ccc4[nH]7)C=C6)C=C5)cc3)n(CC(C)C)c(=O)c2[nH]1
REMARK SMILES IDX 12 1 11 2 9 3 10 4 8 5 7 6 6 7 1 8 2 9 3 10 79 11 4 12 78 13
REMARK SMILES IDX 5 15 76 16 71 17 77 18 72 19 73 20 74 21 75 22 13 23 14 24
REMARK SMILES IDX 15 25 16 26 17 27 18 28 70 29 19 30 69 31 20 32 21 33 22 34
REMARK SMILES IDX 63 35 23 36 68 37 62 38 64 39 24 40 67 41 61 42 60 43 25 45
REMARK SMILES IDX 51 46 34 47 50 48 35 49 38 50 49 51 65 52 36 53 37 54 48 56
REMARK SMILES IDX 66 57 39 58 26 59 27 60 32 61 28 62 29 63 31 64 33 65 30 66
REMARK SMILES IDX 52 67 53 68 58 69 54 70 55 71 57 72 59 73 56 74 40 75 41 76
REMARK SMILES IDX 46 77 42 78 43 79 45 80 47 81 44 82
REMARK H PARENT 79 14 64 44 38 55
REMARK Flexibility Score: inf
ROOT
ATOM      1  C   UNL A   1      35.021  31.534  27.624  1.00  0.00     0.274 C 
ENDROOT
BRANCH   1   2
ATOM      2  O   UNL A   1      33.781  30.845  27.805  1.00  0.00    -0.461 OA
BRANCH   2   3
ATOM      3  C   UNL A   1      33.767  29.576  27.328  1.00  0.00     0.316 C 
ATOM      4  O   UNL A   1      34.724  29.102  26.731  1.00  0.00    -0.251 OA
BRANCH   3   5
ATOM      5  C   UNL A   1      32.453  28.845  27.646  1.00  0.00     0.200 C 
BRANCH   5   6
ATOM      6  S   UNL A   1      32.115  27.532  26.412  1.00  0.00    -0.076 SA
BRANCH   6   7
ATOM      7  C   UNL A   1      31.730  28.333  24.905  1.00  0.00     0.172 A 
ATOM      8  C   UNL A   1      28.066  30.655  21.172  1.00  0.00     0.064 C 
ATOM      9  C   UNL A   1      29.239  30.559  22.073  1.00  0.00     0.014 A 
ATOM     10  C   UNL A   1      29.470  30.744  23.441  1.00  0.00     0.052 A 
ATOM     11  N   UNL A   1      30.380  29.978  21.570  1.00  0.00    -0.353 N 
ATOM     12  C   UNL A   1      30.607  29.946  23.757  1.00  0.00     0.097 A 
ATOM     13  C   UNL A   1      30.848  29.254  22.617  1.00  0.00     0.131 A 
ATOM     14  H   UNL A   1      30.764  30.065  20.668  1.00  0.00     0.166 HD
ATOM     15  N   UNL A   1      31.057  29.455  24.993  1.00  0.00    -0.222 NA
ATOM     16  C   UNL A   1      31.164  27.884  22.666  1.00  0.00     0.278 A 
ATOM     17  N   UNL A   1      31.942  27.563  23.741  1.00  0.00    -0.286 N 
ATOM     18  O   UNL A   1      30.662  27.062  21.920  1.00  0.00    -0.267 OA
BRANCH  17  19
ATOM     19  C   UNL A   1      33.128  26.788  23.363  1.00  0.00     0.131 C 
BRANCH  19  20
ATOM     20  C   UNL A   1      33.307  25.235  23.537  1.00  0.00     0.003 C 
ATOM     21  C   UNL A   1      33.396  24.438  22.227  1.00  0.00     0.009 C 
ATOM     22  C   UNL A   1      34.634  24.797  24.223  1.00  0.00     0.009 C 
ENDBRANCH  19  20
ENDBRANCH  17  19
ENDBRANCH   6   7
ENDBRANCH   5   6
ENDBRANCH   3   5
ENDBRANCH   2   3
ENDBRANCH   1   2
BRANCH   1  23
ATOM     23  C   UNL A   1      35.160  32.720  28.587  1.00  0.00     0.275 C 
BRANCH  23  24
ATOM     24  O   UNL A   1      34.440  32.849  29.878  1.00  0.00    -0.458 OA
BRANCH  24  25
ATOM     25  C   UNL A   1      34.839  32.322  31.083  1.00  0.00     0.338 C 
ATOM     26  O   UNL A   1      34.264  32.582  32.130  1.00  0.00    -0.246 OA
BRANCH  25  27
ATOM     27  C   UNL A   1      36.071  31.408  31.137  1.00  0.00     0.060 A 
ATOM     28  C   UNL A   1      37.344  31.995  31.334  1.00  0.00     0.016 A 
ATOM     29  C   UNL A   1      36.070  30.049  30.830  1.00  0.00     0.016 A 
ATOM     30  C   UNL A   1      38.555  31.309  31.019  1.00  0.00     0.010 A 
ATOM     31  C   UNL A   1      37.278  29.382  30.469  1.00  0.00     0.010 A 
ATOM     32  C   UNL A   1      38.541  30.015  30.472  1.00  0.00    -0.014 A 
BRANCH  32  33
ATOM     33  C   UNL A   1      39.818  29.247  30.216  1.00  0.00     0.031 A 
ATOM     34  C   UNL A   1      40.563  29.107  31.482  1.00  0.00     0.074 A 
ATOM     35  C   UNL A   1      40.352  28.544  29.173  1.00  0.00     0.049 A 
ATOM     36  N   UNL A   1      41.543  29.836  31.897  1.00  0.00    -0.248 NA
ATOM     37  C   UNL A   1      40.016  28.178  32.479  1.00  0.00     0.031 C 
ATOM     38  C   UNL A   1      39.709  28.182  27.925  1.00  0.00     0.029 A 
ATOM     39  N   UNL A   1      41.592  27.929  29.015  1.00  0.00    -0.354 N 
ATOM     40  C   UNL A   1      41.860  29.306  33.138  1.00  0.00     0.074 A 
ATOM     41  C   UNL A   1      40.723  28.527  33.551  1.00  0.00     0.031 C 
ATOM     42  C   UNL A   1      40.471  27.345  27.188  1.00  0.00     0.029 A 
ATOM     43  C   UNL A   1      41.715  27.095  27.884  1.00  0.00     0.049 A 
ATOM     44  H   UNL A   1      42.332  28.068  29.650  1.00  0.00     0.167 HD
ATOM     45  C   UNL A   1      43.143  29.248  33.580  1.00  0.00     0.037 A 
ATOM     46  C   UNL A   1      42.720  26.240  27.516  1.00  0.00     0.037 A 
ATOM     47  C   UNL A   1      44.015  30.098  32.808  1.00  0.00     0.049 A 
ATOM     48  C   UNL A   1      43.931  26.629  28.267  1.00  0.00     0.074 A 
ATOM     49  C   UNL A   1      44.015  31.432  32.446  1.00  0.00     0.029 A 
ATOM     50  N   UNL A   1      44.922  29.492  31.972  1.00  0.00    -0.354 N 
ATOM     51  N   UNL A   1      44.623  27.704  28.025  1.00  0.00    -0.248 NA
ATOM     52  C   UNL A   1      44.129  26.033  29.578  1.00  0.00     0.031 C 
ATOM     53  C   UNL A   1      44.542  31.462  31.122  1.00  0.00     0.029 A 
ATOM     54  C   UNL A   1      44.892  30.158  30.776  1.00  0.00     0.049 A 
ATOM     55  H   UNL A   1      45.489  28.720  32.195  1.00  0.00     0.167 HD
ATOM     56  C   UNL A   1      44.947  28.183  29.282  1.00  0.00     0.074 A 
ATOM     57  C   UNL A   1      44.702  27.069  30.194  1.00  0.00     0.031 C 
ATOM     58  C   UNL A   1      45.099  29.521  29.499  1.00  0.00     0.037 A 
BRANCH  45  59
ATOM     59  C   UNL A   1      43.661  28.122  34.438  1.00  0.00     0.057 A 
ATOM     60  C   UNL A   1      43.785  26.778  34.018  1.00  0.00     0.134 A 
ATOM     61  C   UNL A   1      44.316  28.435  35.637  1.00  0.00     0.134 A 
ATOM     62  F   UNL A   1      43.321  26.336  32.844  1.00  0.00    -0.206 F 
ATOM     63  C   UNL A   1      44.499  25.820  34.738  1.00  0.00     0.040 A 
ATOM     64  C   UNL A   1      45.091  27.500  36.331  1.00  0.00     0.040 A 
ATOM     65  F   UNL A   1      44.295  29.685  36.122  1.00  0.00    -0.206 F 
ATOM     66  C   UNL A   1      45.185  26.188  35.882  1.00  0.00     0.006 A 
ENDBRANCH  45  59
BRANCH  46  67
ATOM     67  C   UNL A   1      42.714  25.006  26.660  1.00  0.00     0.057 A 
ATOM     68  C   UNL A   1      42.182  23.788  27.118  1.00  0.00     0.134 A 
ATOM     69  C   UNL A   1      43.451  24.913  25.460  1.00  0.00     0.134 A 
ATOM     70  F   UNL A   1      41.537  23.713  28.289  1.00  0.00    -0.206 F 
ATOM     71  C   UNL A   1      42.362  22.571  26.443  1.00  0.00     0.040 A 
ATOM     72  C   UNL A   1      43.653  23.695  24.781  1.00  0.00     0.040 A 
ATOM     73  F   UNL A   1      44.052  25.992  24.937  1.00  0.00    -0.206 F 
ATOM     74  C   UNL A   1      43.111  22.516  25.277  1.00  0.00     0.006 A 
ENDBRANCH  46  67
BRANCH  58  75
ATOM     75  C   UNL A   1      45.252  30.420  28.304  1.00  0.00     0.057 A 
ATOM     76  C   UNL A   1      46.541  30.862  27.975  1.00  0.00     0.134 A 
ATOM     77  C   UNL A   1      44.187  30.965  27.570  1.00  0.00     0.134 A 
ATOM     78  F   UNL A   1      47.603  30.419  28.667  1.00  0.00    -0.206 F 
ATOM     79  C   UNL A   1      46.768  31.798  26.965  1.00  0.00     0.040 A 
ATOM     80  C   UNL A   1      44.407  31.878  26.534  1.00  0.00     0.040 A 
ATOM     81  F   UNL A   1      42.911  30.677  27.867  1.00  0.00    -0.206 F 
ATOM     82  C   UNL A   1      45.698  32.303  26.233  1.00  0.00     0.006 A 
ENDBRANCH  58  75
ENDBRANCH  32  33
ENDBRANCH  25  27
ENDBRANCH  24  25
ENDBRANCH  23  24
ENDBRANCH   1  23
TORSDOF 15
ENDMDL
