MODEL 1
REMARK VINA RESULT:     -10.9      0.000      0.000
REMARK SMILES Cc1nc(Nc2ccc(F)cc2)nc(OCC(=O)OCCOC(=O)c2ccc(-c3c4nc(c(-c5c(F)cccc5F)c5ccc([nH]5)c(-c5c(F)cccc5F)c5nc(c(-c6c(F)cccc6F)c6ccc3[nH]6)C=C5)C=C4)cc2)c1CCO
REMARK SMILES IDX 19 1 17 2 18 3 16 4 15 5 14 6 1 7 2 8 3 9 79 10 4 11 13 12
REMARK SMILES IDX 80 13 81 14 82 15 5 17 6 19 7 20 12 21 8 22 11 23 9 24 10 25
REMARK SMILES IDX 20 26 21 27 22 28 23 29 24 30 25 31 26 32 78 33 27 34 77 35
REMARK SMILES IDX 28 36 29 37 30 38 71 39 31 40 76 41 70 42 72 43 32 44 75 45
REMARK SMILES IDX 69 46 68 47 33 49 59 50 42 51 58 52 43 53 46 54 57 55 73 56
REMARK SMILES IDX 44 57 45 58 56 60 74 61 47 62 34 63 35 64 40 65 36 66 37 67
REMARK SMILES IDX 39 68 41 69 38 70 60 71 61 72 66 73 62 74 63 75 65 76 67 77
REMARK SMILES IDX 64 78 48 79 49 80 54 81 50 82 51 83 53 84 55 85 52 86
REMARK H PARENT 82 16 5 18 72 48 46 59
REMARK Flexibility Score: inf
ROOT
ATOM      1  O   UNL A   1      34.089  22.196  25.488  1.00  0.00    -0.460 OA
ENDROOT
BRANCH   1   2
ATOM      2  C   UNL A   1      32.854  21.669  25.695  1.00  0.00     0.344 C 
ATOM      3  O   UNL A   1      32.491  20.566  25.293  1.00  0.00    -0.248 OA
BRANCH   2   4
ATOM      4  C   UNL A   1      31.879  22.651  26.358  1.00  0.00     0.353 C 
BRANCH   4   5
ATOM      5  O   UNL A   1      30.738  23.277  25.820  1.00  0.00    -0.465 OA
BRANCH   5   6
ATOM      6  C   UNL A   1      30.755  24.575  25.428  1.00  0.00     0.222 A 
ATOM      7  C   UNL A   1      30.678  27.199  22.738  1.00  0.00     0.067 C 
ATOM      8  C   UNL A   1      30.724  26.431  24.020  1.00  0.00     0.050 A 
ATOM      9  N   UNL A   1      30.793  27.235  25.091  1.00  0.00    -0.218 NA
ATOM     10  C   UNL A   1      30.814  25.046  24.126  1.00  0.00     0.038 A 
ATOM     11  C   UNL A   1      30.981  26.693  26.292  1.00  0.00     0.230 A 
ATOM     12  N   UNL A   1      30.912  25.379  26.501  1.00  0.00    -0.177 NA
BRANCH  10  13
ATOM     13  C   UNL A   1      31.116  24.190  22.926  1.00  0.00     0.071 C 
BRANCH  13  14
ATOM     14  C   UNL A   1      32.602  23.886  22.726  1.00  0.00     0.161 C 
BRANCH  14  15
ATOM     15  O   UNL A   1      32.803  22.712  21.954  1.00  0.00    -0.396 OA
ATOM     16  H   UNL A   1      33.276  22.052  22.486  1.00  0.00     0.210 HD
ENDBRANCH  14  15
ENDBRANCH  13  14
ENDBRANCH  10  13
BRANCH  11  17
ATOM     17  N   UNL A   1      31.438  27.509  27.330  1.00  0.00    -0.324 N 
ATOM     18  H   UNL A   1      31.078  27.338  28.230  1.00  0.00     0.170 HD
BRANCH  17  19
ATOM     19  C   UNL A   1      32.367  28.550  27.193  1.00  0.00     0.041 A 
ATOM     20  C   UNL A   1      33.744  28.278  27.216  1.00  0.00     0.029 A 
ATOM     21  C   UNL A   1      31.945  29.887  27.198  1.00  0.00     0.029 A 
ATOM     22  C   UNL A   1      34.681  29.311  27.223  1.00  0.00     0.041 A 
ATOM     23  C   UNL A   1      32.884  30.925  27.228  1.00  0.00     0.041 A 
ATOM     24  C   UNL A   1      34.241  30.627  27.237  1.00  0.00     0.123 A 
ATOM     25  F   UNL A   1      35.138  31.622  27.282  1.00  0.00    -0.207 F 
ENDBRANCH  17  19
ENDBRANCH  11  17
ENDBRANCH   5   6
ENDBRANCH   4   5
ENDBRANCH   2   4
ENDBRANCH   1   2
BRANCH   1  26
ATOM     26  C   UNL A   1      35.177  21.454  26.084  1.00  0.00     0.274 C 
BRANCH  26  27
ATOM     27  C   UNL A   1      36.012  20.714  25.043  1.00  0.00     0.275 C 
BRANCH  27  28
ATOM     28  O   UNL A   1      37.208  21.458  24.744  1.00  0.00    -0.458 OA
BRANCH  28  29
ATOM     29  C   UNL A   1      38.293  21.124  25.480  1.00  0.00     0.338 C 
ATOM     30  O   UNL A   1      38.807  20.021  25.550  1.00  0.00    -0.246 OA
BRANCH  29  31
ATOM     31  C   UNL A   1      38.850  22.302  26.193  1.00  0.00     0.060 A 
ATOM     32  C   UNL A   1      38.311  23.581  26.051  1.00  0.00     0.016 A 
ATOM     33  C   UNL A   1      40.044  22.137  26.904  1.00  0.00     0.016 A 
ATOM     34  C   UNL A   1      39.029  24.694  26.507  1.00  0.00     0.010 A 
ATOM     35  C   UNL A   1      40.717  23.245  27.430  1.00  0.00     0.010 A 
ATOM     36  C   UNL A   1      40.244  24.545  27.201  1.00  0.00    -0.014 A 
BRANCH  36  37
ATOM     37  C   UNL A   1      41.021  25.722  27.691  1.00  0.00     0.031 A 
ATOM     38  C   UNL A   1      40.377  26.788  28.545  1.00  0.00     0.074 A 
ATOM     39  C   UNL A   1      42.320  25.863  27.357  1.00  0.00     0.049 A 
ATOM     40  N   UNL A   1      40.818  27.982  28.856  1.00  0.00    -0.248 NA
ATOM     41  C   UNL A   1      39.065  26.472  29.130  1.00  0.00     0.031 C 
ATOM     42  C   UNL A   1      43.107  24.901  26.587  1.00  0.00     0.029 A 
ATOM     43  N   UNL A   1      43.204  26.880  27.621  1.00  0.00    -0.354 N 
ATOM     44  C   UNL A   1      39.824  28.572  29.631  1.00  0.00     0.074 A 
ATOM     45  C   UNL A   1      38.758  27.601  29.755  1.00  0.00     0.031 C 
ATOM     46  C   UNL A   1      44.362  25.354  26.469  1.00  0.00     0.029 A 
ATOM     47  C   UNL A   1      44.441  26.686  27.060  1.00  0.00     0.049 A 
ATOM     48  H   UNL A   1      42.973  27.672  28.159  1.00  0.00     0.167 HD
ATOM     49  C   UNL A   1      39.802  29.810  30.182  1.00  0.00     0.037 A 
ATOM     50  C   UNL A   1      45.508  27.501  26.963  1.00  0.00     0.037 A 
ATOM     51  C   UNL A   1      40.876  30.766  30.095  1.00  0.00     0.049 A 
ATOM     52  C   UNL A   1      45.433  28.896  27.503  1.00  0.00     0.074 A 
ATOM     53  C   UNL A   1      40.939  32.043  30.629  1.00  0.00     0.029 A 
ATOM     54  N   UNL A   1      42.080  30.546  29.447  1.00  0.00    -0.354 N 
ATOM     55  N   UNL A   1      44.448  29.478  28.140  1.00  0.00    -0.248 NA
ATOM     56  C   UNL A   1      46.602  29.757  27.276  1.00  0.00     0.031 C 
ATOM     57  C   UNL A   1      42.169  32.607  30.277  1.00  0.00     0.029 A 
ATOM     58  C   UNL A   1      42.885  31.669  29.555  1.00  0.00     0.049 A 
ATOM     59  H   UNL A   1      42.326  29.716  28.978  1.00  0.00     0.167 HD
ATOM     60  C   UNL A   1      44.873  30.777  28.383  1.00  0.00     0.074 A 
ATOM     61  C   UNL A   1      46.212  30.891  27.843  1.00  0.00     0.031 C 
ATOM     62  C   UNL A   1      44.205  31.783  28.995  1.00  0.00     0.037 A 
BRANCH  49  63
ATOM     63  C   UNL A   1      38.567  30.236  30.921  1.00  0.00     0.057 A 
ATOM     64  C   UNL A   1      37.528  30.889  30.245  1.00  0.00     0.134 A 
ATOM     65  C   UNL A   1      38.459  30.111  32.310  1.00  0.00     0.134 A 
ATOM     66  F   UNL A   1      37.579  31.049  28.914  1.00  0.00    -0.206 F 
ATOM     67  C   UNL A   1      36.433  31.420  30.927  1.00  0.00     0.040 A 
ATOM     68  C   UNL A   1      37.359  30.624  33.003  1.00  0.00     0.040 A 
ATOM     69  F   UNL A   1      39.417  29.489  33.014  1.00  0.00    -0.206 F 
ATOM     70  C   UNL A   1      36.349  31.292  32.311  1.00  0.00     0.006 A 
ENDBRANCH  49  63
BRANCH  50  71
ATOM     71  C   UNL A   1      46.715  27.016  26.255  1.00  0.00     0.057 A 
ATOM     72  C   UNL A   1      46.854  27.167  24.870  1.00  0.00     0.134 A 
ATOM     73  C   UNL A   1      47.720  26.325  26.938  1.00  0.00     0.134 A 
ATOM     74  F   UNL A   1      45.917  27.818  24.164  1.00  0.00    -0.206 F 
ATOM     75  C   UNL A   1      47.930  26.611  24.180  1.00  0.00     0.040 A 
ATOM     76  C   UNL A   1      48.814  25.782  26.264  1.00  0.00     0.040 A 
ATOM     77  F   UNL A   1      47.647  26.169  28.268  1.00  0.00    -0.206 F 
ATOM     78  C   UNL A   1      48.913  25.913  24.879  1.00  0.00     0.006 A 
ENDBRANCH  50  71
BRANCH  62  79
ATOM     79  C   UNL A   1      44.908  33.100  29.112  1.00  0.00     0.057 A 
ATOM     80  C   UNL A   1      45.745  33.373  30.201  1.00  0.00     0.134 A 
ATOM     81  C   UNL A   1      44.727  34.110  28.160  1.00  0.00     0.134 A 
ATOM     82  F   UNL A   1      45.953  32.447  31.148  1.00  0.00    -0.206 F 
ATOM     83  C   UNL A   1      46.374  34.610  30.342  1.00  0.00     0.040 A 
ATOM     84  C   UNL A   1      45.363  35.346  28.281  1.00  0.00     0.040 A 
ATOM     85  F   UNL A   1      43.946  33.901  27.089  1.00  0.00    -0.206 F 
ATOM     86  C   UNL A   1      46.186  35.600  29.378  1.00  0.00     0.006 A 
ENDBRANCH  62  79
ENDBRANCH  36  37
ENDBRANCH  29  31
ENDBRANCH  28  29
ENDBRANCH  27  28
ENDBRANCH  26  27
ENDBRANCH   1  26
TORSDOF 18
ENDMDL
MODEL 2
REMARK VINA RESULT:     -10.9      3.075      7.141
REMARK SMILES Cc1nc(Nc2ccc(F)cc2)nc(OCC(=O)OCCOC(=O)c2ccc(-c3c4nc(c(-c5c(F)cccc5F)c5ccc([nH]5)c(-c5c(F)cccc5F)c5nc(c(-c6c(F)cccc6F)c6ccc3[nH]6)C=C5)C=C4)cc2)c1CCO
REMARK SMILES IDX 19 1 17 2 18 3 16 4 15 5 14 6 1 7 2 8 3 9 79 10 4 11 13 12
REMARK SMILES IDX 80 13 81 14 82 15 5 17 6 19 7 20 12 21 8 22 11 23 9 24 10 25
REMARK SMILES IDX 20 26 21 27 22 28 23 29 24 30 25 31 26 32 78 33 27 34 77 35
REMARK SMILES IDX 28 36 29 37 30 38 71 39 31 40 76 41 70 42 72 43 32 44 75 45
REMARK SMILES IDX 69 46 68 47 33 49 59 50 42 51 58 52 43 53 46 54 57 55 73 56
REMARK SMILES IDX 44 57 45 58 56 60 74 61 47 62 34 63 35 64 40 65 36 66 37 67
REMARK SMILES IDX 39 68 41 69 38 70 60 71 61 72 66 73 62 74 63 75 65 76 67 77
REMARK SMILES IDX 64 78 48 79 49 80 54 81 50 82 51 83 53 84 55 85 52 86
REMARK H PARENT 82 16 5 18 72 48 46 59
REMARK Flexibility Score: inf
ROOT
ATOM      1  O   UNL A   1      32.112  29.119  27.698  1.00  0.00    -0.460 OA
ENDROOT
BRANCH   1   2
ATOM      2  C   UNL A   1      31.973  27.985  26.964  1.00  0.00     0.344 C 
ATOM      3  O   UNL A   1      31.015  27.219  27.038  1.00  0.00    -0.248 OA
BRANCH   2   4
ATOM      4  C   UNL A   1      33.213  27.652  26.123  1.00  0.00     0.353 C 
BRANCH   4   5
ATOM      5  O   UNL A   1      33.466  27.914  24.763  1.00  0.00    -0.465 OA
BRANCH   5   6
ATOM      6  C   UNL A   1      33.478  26.925  23.836  1.00  0.00     0.222 A 
ATOM      7  C   UNL A   1      32.546  25.580  20.452  1.00  0.00     0.067 C 
ATOM      8  C   UNL A   1      33.072  25.805  21.834  1.00  0.00     0.050 A 
ATOM      9  N   UNL A   1      33.752  24.746  22.297  1.00  0.00    -0.218 NA
ATOM     10  C   UNL A   1      32.801  26.916  22.626  1.00  0.00     0.038 A 
ATOM     11  C   UNL A   1      34.158  24.747  23.564  1.00  0.00     0.230 A 
ATOM     12  N   UNL A   1      34.087  25.829  24.337  1.00  0.00    -0.177 NA
BRANCH  10  13
ATOM     13  C   UNL A   1      31.737  27.909  22.241  1.00  0.00     0.071 C 
BRANCH  13  14
ATOM     14  C   UNL A   1      30.449  27.804  23.060  1.00  0.00     0.161 C 
BRANCH  14  15
ATOM     15  O   UNL A   1      29.324  28.287  22.343  1.00  0.00    -0.396 OA
ATOM     16  H   UNL A   1      28.538  28.251  22.910  1.00  0.00     0.210 HD
ENDBRANCH  14  15
ENDBRANCH  13  14
ENDBRANCH  10  13
BRANCH  11  17
ATOM     17  N   UNL A   1      34.506  23.530  24.155  1.00  0.00    -0.324 N 
ATOM     18  H   UNL A   1      33.802  22.846  24.230  1.00  0.00     0.170 HD
BRANCH  17  19
ATOM     19  C   UNL A   1      35.777  23.204  24.650  1.00  0.00     0.041 A 
ATOM     20  C   UNL A   1      36.374  21.978  24.316  1.00  0.00     0.029 A 
ATOM     21  C   UNL A   1      36.397  24.013  25.613  1.00  0.00     0.029 A 
ATOM     22  C   UNL A   1      37.571  21.575  24.909  1.00  0.00     0.041 A 
ATOM     23  C   UNL A   1      37.586  23.600  26.225  1.00  0.00     0.041 A 
ATOM     24  C   UNL A   1      38.161  22.388  25.866  1.00  0.00     0.123 A 
ATOM     25  F   UNL A   1      39.291  21.987  26.465  1.00  0.00    -0.207 F 
ENDBRANCH  17  19
ENDBRANCH  11  17
ENDBRANCH   5   6
ENDBRANCH   4   5
ENDBRANCH   2   4
ENDBRANCH   1   2
BRANCH   1  26
ATOM     26  C   UNL A   1      32.342  30.321  26.927  1.00  0.00     0.274 C 
BRANCH  26  27
ATOM     27  C   UNL A   1      33.605  31.056  27.364  1.00  0.00     0.275 C 
BRANCH  27  28
ATOM     28  O   UNL A   1      34.548  30.130  27.935  1.00  0.00    -0.458 OA
BRANCH  28  29
ATOM     29  C   UNL A   1      35.458  30.677  28.774  1.00  0.00     0.338 C 
ATOM     30  O   UNL A   1      35.282  31.637  29.505  1.00  0.00    -0.246 OA
BRANCH  29  31
ATOM     31  C   UNL A   1      36.741  29.928  28.747  1.00  0.00     0.060 A 
ATOM     32  C   UNL A   1      37.268  29.313  29.882  1.00  0.00     0.016 A 
ATOM     33  C   UNL A   1      37.507  29.980  27.577  1.00  0.00     0.016 A 
ATOM     34  C   UNL A   1      38.597  28.870  29.881  1.00  0.00     0.010 A 
ATOM     35  C   UNL A   1      38.807  29.462  27.556  1.00  0.00     0.010 A 
ATOM     36  C   UNL A   1      39.389  28.940  28.721  1.00  0.00    -0.014 A 
BRANCH  36  37
ATOM     37  C   UNL A   1      40.807  28.474  28.704  1.00  0.00     0.031 A 
ATOM     38  C   UNL A   1      41.949  29.422  28.984  1.00  0.00     0.074 A 
ATOM     39  C   UNL A   1      41.094  27.189  28.414  1.00  0.00     0.049 A 
ATOM     40  N   UNL A   1      43.233  29.259  28.780  1.00  0.00    -0.248 NA
ATOM     41  C   UNL A   1      41.605  30.724  29.575  1.00  0.00     0.031 C 
ATOM     42  C   UNL A   1      40.112  26.133  28.173  1.00  0.00     0.029 A 
ATOM     43  N   UNL A   1      42.305  26.556  28.267  1.00  0.00    -0.354 N 
ATOM     44  C   UNL A   1      43.841  30.447  29.173  1.00  0.00     0.074 A 
ATOM     45  C   UNL A   1      42.787  31.322  29.641  1.00  0.00     0.031 C 
ATOM     46  C   UNL A   1      40.753  24.980  27.942  1.00  0.00     0.029 A 
ATOM     47  C   UNL A   1      42.189  25.236  27.912  1.00  0.00     0.049 A 
ATOM     48  H   UNL A   1      43.170  27.006  28.402  1.00  0.00     0.167 HD
ATOM     49  C   UNL A   1      45.154  30.778  29.140  1.00  0.00     0.037 A 
ATOM     50  C   UNL A   1      43.116  24.335  27.534  1.00  0.00     0.037 A 
ATOM     51  C   UNL A   1      46.212  29.899  28.713  1.00  0.00     0.049 A 
ATOM     52  C   UNL A   1      44.552  24.745  27.422  1.00  0.00     0.074 A 
ATOM     53  C   UNL A   1      47.573  30.152  28.652  1.00  0.00     0.029 A 
ATOM     54  N   UNL A   1      46.031  28.593  28.288  1.00  0.00    -0.354 N 
ATOM     55  N   UNL A   1      45.100  25.903  27.695  1.00  0.00    -0.248 NA
ATOM     56  C   UNL A   1      45.491  23.735  26.914  1.00  0.00     0.031 C 
ATOM     57  C   UNL A   1      48.212  29.009  28.162  1.00  0.00     0.029 A 
ATOM     58  C   UNL A   1      47.253  28.034  27.951  1.00  0.00     0.049 A 
ATOM     59  H   UNL A   1      45.163  28.132  28.232  1.00  0.00     0.167 HD
ATOM     60  C   UNL A   1      46.445  25.765  27.383  1.00  0.00     0.074 A 
ATOM     61  C   UNL A   1      46.635  24.406  26.921  1.00  0.00     0.031 C 
ATOM     62  C   UNL A   1      47.431  26.690  27.469  1.00  0.00     0.037 A 
BRANCH  49  63
ATOM     63  C   UNL A   1      45.547  32.166  29.557  1.00  0.00     0.057 A 
ATOM     64  C   UNL A   1      45.621  33.195  28.610  1.00  0.00     0.134 A 
ATOM     65  C   UNL A   1      45.967  32.453  30.860  1.00  0.00     0.134 A 
ATOM     66  F   UNL A   1      45.244  32.979  27.340  1.00  0.00    -0.206 F 
ATOM     67  C   UNL A   1      46.117  34.457  28.939  1.00  0.00     0.040 A 
ATOM     68  C   UNL A   1      46.449  33.718  31.207  1.00  0.00     0.040 A 
ATOM     69  F   UNL A   1      45.913  31.512  31.815  1.00  0.00    -0.206 F 
ATOM     70  C   UNL A   1      46.537  34.720  30.241  1.00  0.00     0.006 A 
ENDBRANCH  49  63
BRANCH  50  71
ATOM     71  C   UNL A   1      42.677  22.969  27.169  1.00  0.00     0.057 A 
ATOM     72  C   UNL A   1      42.435  21.998  28.149  1.00  0.00     0.134 A 
ATOM     73  C   UNL A   1      42.564  22.584  25.830  1.00  0.00     0.134 A 
ATOM     74  F   UNL A   1      42.535  22.312  29.450  1.00  0.00    -0.206 F 
ATOM     75  C   UNL A   1      42.136  20.680  27.811  1.00  0.00     0.040 A 
ATOM     76  C   UNL A   1      42.243  21.273  25.477  1.00  0.00     0.040 A 
ATOM     77  F   UNL A   1      42.764  23.478  24.852  1.00  0.00    -0.206 F 
ATOM     78  C   UNL A   1      42.042  20.314  26.470  1.00  0.00     0.006 A 
ENDBRANCH  50  71
BRANCH  62  79
ATOM     79  C   UNL A   1      48.804  26.267  27.051  1.00  0.00     0.057 A 
ATOM     80  C   UNL A   1      49.689  25.691  27.971  1.00  0.00     0.134 A 
ATOM     81  C   UNL A   1      49.261  26.465  25.743  1.00  0.00     0.134 A 
ATOM     82  F   UNL A   1      49.311  25.481  29.240  1.00  0.00    -0.206 F 
ATOM     83  C   UNL A   1      50.985  25.328  27.604  1.00  0.00     0.040 A 
ATOM     84  C   UNL A   1      50.551  26.092  25.360  1.00  0.00     0.040 A 
ATOM     85  F   UNL A   1      48.455  27.002  24.815  1.00  0.00    -0.206 F 
ATOM     86  C   UNL A   1      51.418  25.526  26.293  1.00  0.00     0.006 A 
ENDBRANCH  62  79
ENDBRANCH  36  37
ENDBRANCH  29  31
ENDBRANCH  28  29
ENDBRANCH  27  28
ENDBRANCH  26  27
ENDBRANCH   1  26
TORSDOF 18
ENDMDL
MODEL 3
REMARK VINA RESULT:     -10.6      2.945      4.894
REMARK SMILES Cc1nc(Nc2ccc(F)cc2)nc(OCC(=O)OCCOC(=O)c2ccc(-c3c4nc(c(-c5c(F)cccc5F)c5ccc([nH]5)c(-c5c(F)cccc5F)c5nc(c(-c6c(F)cccc6F)c6ccc3[nH]6)C=C5)C=C4)cc2)c1CCO
REMARK SMILES IDX 19 1 17 2 18 3 16 4 15 5 14 6 1 7 2 8 3 9 79 10 4 11 13 12
REMARK SMILES IDX 80 13 81 14 82 15 5 17 6 19 7 20 12 21 8 22 11 23 9 24 10 25
REMARK SMILES IDX 20 26 21 27 22 28 23 29 24 30 25 31 26 32 78 33 27 34 77 35
REMARK SMILES IDX 28 36 29 37 30 38 71 39 31 40 76 41 70 42 72 43 32 44 75 45
REMARK SMILES IDX 69 46 68 47 33 49 59 50 42 51 58 52 43 53 46 54 57 55 73 56
REMARK SMILES IDX 44 57 45 58 56 60 74 61 47 62 34 63 35 64 40 65 36 66 37 67
REMARK SMILES IDX 39 68 41 69 38 70 60 71 61 72 66 73 62 74 63 75 65 76 67 77
REMARK SMILES IDX 64 78 48 79 49 80 54 81 50 82 51 83 53 84 55 85 52 86
REMARK H PARENT 82 16 5 18 72 48 46 59
REMARK Flexibility Score: inf
ROOT
ATOM      1  O   UNL A   1      37.270  21.580  24.645  1.00  0.00    -0.460 OA
ENDROOT
BRANCH   1   2
ATOM      2  C   UNL A   1      36.829  22.853  24.470  1.00  0.00     0.344 C 
ATOM      3  O   UNL A   1      36.858  23.724  25.335  1.00  0.00    -0.248 OA
BRANCH   2   4
ATOM      4  C   UNL A   1      36.136  23.073  23.119  1.00  0.00     0.353 C 
BRANCH   4   5
ATOM      5  O   UNL A   1      35.127  23.992  22.773  1.00  0.00    -0.465 OA
BRANCH   5   6
ATOM      6  C   UNL A   1      33.846  23.835  23.189  1.00  0.00     0.222 A 
ATOM      7  C   UNL A   1      30.490  25.257  24.109  1.00  0.00     0.067 C 
ATOM      8  C   UNL A   1      31.671  24.387  23.815  1.00  0.00     0.050 A 
ATOM      9  N   UNL A   1      31.403  23.087  24.005  1.00  0.00    -0.218 NA
ATOM     10  C   UNL A   1      32.948  24.843  23.503  1.00  0.00     0.038 A 
ATOM     11  C   UNL A   1      32.396  22.206  23.917  1.00  0.00     0.230 A 
ATOM     12  N   UNL A   1      33.605  22.535  23.463  1.00  0.00    -0.177 NA
BRANCH  10  13
ATOM     13  C   UNL A   1      33.321  26.292  23.666  1.00  0.00     0.071 C 
BRANCH  13  14
ATOM     14  C   UNL A   1      33.112  27.143  22.412  1.00  0.00     0.161 C 
BRANCH  14  15
ATOM     15  O   UNL A   1      33.690  26.544  21.263  1.00  0.00    -0.396 OA
ATOM     16  H   UNL A   1      34.175  27.215  20.758  1.00  0.00     0.210 HD
ENDBRANCH  14  15
ENDBRANCH  13  14
ENDBRANCH  10  13
BRANCH  11  17
ATOM     17  N   UNL A   1      32.220  20.941  24.483  1.00  0.00    -0.324 N 
ATOM     18  H   UNL A   1      31.616  20.873  25.257  1.00  0.00     0.170 HD
BRANCH  17  19
ATOM     19  C   UNL A   1      32.835  19.762  24.039  1.00  0.00     0.041 A 
ATOM     20  C   UNL A   1      32.245  18.996  23.021  1.00  0.00     0.029 A 
ATOM     21  C   UNL A   1      33.951  19.243  24.709  1.00  0.00     0.029 A 
ATOM     22  C   UNL A   1      32.764  17.752  22.663  1.00  0.00     0.041 A 
ATOM     23  C   UNL A   1      34.460  17.984  24.368  1.00  0.00     0.041 A 
ATOM     24  C   UNL A   1      33.863  17.254  23.347  1.00  0.00     0.123 A 
ATOM     25  F   UNL A   1      34.343  16.042  23.032  1.00  0.00    -0.207 F 
ENDBRANCH  17  19
ENDBRANCH  11  17
ENDBRANCH   5   6
ENDBRANCH   4   5
ENDBRANCH   2   4
ENDBRANCH   1   2
BRANCH   1  26
ATOM     26  C   UNL A   1      38.490  21.457  25.412  1.00  0.00     0.274 C 
BRANCH  26  27
ATOM     27  C   UNL A   1      39.126  20.077  25.270  1.00  0.00     0.275 C 
BRANCH  27  28
ATOM     28  O   UNL A   1      40.073  19.854  26.331  1.00  0.00    -0.458 OA
BRANCH  28  29
ATOM     29  C   UNL A   1      41.374  19.961  25.976  1.00  0.00     0.338 C 
ATOM     30  O   UNL A   1      41.982  19.216  25.227  1.00  0.00    -0.246 OA
BRANCH  29  31
ATOM     31  C   UNL A   1      42.007  21.159  26.585  1.00  0.00     0.060 A 
ATOM     32  C   UNL A   1      42.199  21.281  27.962  1.00  0.00     0.016 A 
ATOM     33  C   UNL A   1      42.274  22.255  25.756  1.00  0.00     0.016 A 
ATOM     34  C   UNL A   1      42.532  22.525  28.511  1.00  0.00     0.010 A 
ATOM     35  C   UNL A   1      42.684  23.475  26.303  1.00  0.00     0.010 A 
ATOM     36  C   UNL A   1      42.776  23.643  27.693  1.00  0.00    -0.014 A 
BRANCH  36  37
ATOM     37  C   UNL A   1      43.130  24.977  28.264  1.00  0.00     0.031 A 
ATOM     38  C   UNL A   1      42.067  26.003  28.577  1.00  0.00     0.074 A 
ATOM     39  C   UNL A   1      44.420  25.296  28.490  1.00  0.00     0.049 A 
ATOM     40  N   UNL A   1      42.199  27.280  28.843  1.00  0.00    -0.248 NA
ATOM     41  C   UNL A   1      40.673  25.535  28.598  1.00  0.00     0.031 C 
ATOM     42  C   UNL A   1      45.563  24.404  28.294  1.00  0.00     0.029 A 
ATOM     43  N   UNL A   1      44.985  26.468  28.930  1.00  0.00    -0.354 N 
ATOM     44  C   UNL A   1      40.909  27.772  29.018  1.00  0.00     0.074 A 
ATOM     45  C   UNL A   1      40.006  26.656  28.839  1.00  0.00     0.031 C 
ATOM     46  C   UNL A   1      46.685  25.045  28.643  1.00  0.00     0.029 A 
ATOM     47  C   UNL A   1      46.356  26.425  28.984  1.00  0.00     0.049 A 
ATOM     48  H   UNL A   1      44.459  27.262  29.181  1.00  0.00     0.167 HD
ATOM     49  C   UNL A   1      40.517  29.040  29.294  1.00  0.00     0.037 A 
ATOM     50  C   UNL A   1      47.264  27.392  29.212  1.00  0.00     0.037 A 
ATOM     51  C   UNL A   1      41.412  30.147  29.512  1.00  0.00     0.049 A 
ATOM     52  C   UNL A   1      46.813  28.803  29.431  1.00  0.00     0.074 A 
ATOM     53  C   UNL A   1      41.099  31.465  29.803  1.00  0.00     0.029 A 
ATOM     54  N   UNL A   1      42.794  30.065  29.478  1.00  0.00    -0.354 N 
ATOM     55  N   UNL A   1      45.593  29.277  29.488  1.00  0.00    -0.248 NA
ATOM     56  C   UNL A   1      47.865  29.819  29.579  1.00  0.00     0.031 C 
ATOM     57  C   UNL A   1      42.292  32.186  29.915  1.00  0.00     0.029 A 
ATOM     58  C   UNL A   1      43.347  31.311  29.728  1.00  0.00     0.049 A 
ATOM     59  H   UNL A   1      43.307  29.243  29.301  1.00  0.00     0.167 HD
ATOM     60  C   UNL A   1      45.729  30.646  29.669  1.00  0.00     0.074 A 
ATOM     61  C   UNL A   1      47.148  30.925  29.734  1.00  0.00     0.031 C 
ATOM     62  C   UNL A   1      44.758  31.585  29.767  1.00  0.00     0.037 A 
BRANCH  49  63
ATOM     63  C   UNL A   1      39.045  29.328  29.362  1.00  0.00     0.057 A 
ATOM     64  C   UNL A   1      38.361  29.231  30.581  1.00  0.00     0.134 A 
ATOM     65  C   UNL A   1      38.290  29.580  28.212  1.00  0.00     0.134 A 
ATOM     66  F   UNL A   1      39.028  28.980  31.717  1.00  0.00    -0.206 F 
ATOM     67  C   UNL A   1      36.973  29.355  30.651  1.00  0.00     0.040 A 
ATOM     68  C   UNL A   1      36.901  29.723  28.272  1.00  0.00     0.040 A 
ATOM     69  F   UNL A   1      38.887  29.692  27.016  1.00  0.00    -0.206 F 
ATOM     70  C   UNL A   1      36.238  29.598  29.493  1.00  0.00     0.006 A 
ENDBRANCH  49  63
BRANCH  50  71
ATOM     71  C   UNL A   1      48.703  27.044  29.170  1.00  0.00     0.057 A 
ATOM     72  C   UNL A   1      49.426  27.089  27.972  1.00  0.00     0.134 A 
ATOM     73  C   UNL A   1      49.366  26.588  30.313  1.00  0.00     0.134 A 
ATOM     74  F   UNL A   1      48.838  27.514  26.843  1.00  0.00    -0.206 F 
ATOM     75  C   UNL A   1      50.747  26.652  27.901  1.00  0.00     0.040 A 
ATOM     76  C   UNL A   1      50.695  26.169  30.262  1.00  0.00     0.040 A 
ATOM     77  F   UNL A   1      48.727  26.545  31.491  1.00  0.00    -0.206 F 
ATOM     78  C   UNL A   1      51.385  26.187  29.050  1.00  0.00     0.006 A 
ENDBRANCH  50  71
BRANCH  62  79
ATOM     79  C   UNL A   1      45.196  33.004  29.949  1.00  0.00     0.057 A 
ATOM     80  C   UNL A   1      45.381  33.847  28.846  1.00  0.00     0.134 A 
ATOM     81  C   UNL A   1      45.467  33.526  31.220  1.00  0.00     0.134 A 
ATOM     82  F   UNL A   1      45.141  33.403  27.603  1.00  0.00    -0.206 F 
ATOM     83  C   UNL A   1      45.826  35.160  29.000  1.00  0.00     0.040 A 
ATOM     84  C   UNL A   1      45.898  34.843  31.388  1.00  0.00     0.040 A 
ATOM     85  F   UNL A   1      45.298  32.770  32.315  1.00  0.00    -0.206 F 
ATOM     86  C   UNL A   1      46.083  35.662  30.275  1.00  0.00     0.006 A 
ENDBRANCH  62  79
ENDBRANCH  36  37
ENDBRANCH  29  31
ENDBRANCH  28  29
ENDBRANCH  27  28
ENDBRANCH  26  27
ENDBRANCH   1  26
TORSDOF 18
ENDMDL
