MODEL 1
REMARK VINA RESULT:     -11.4      0.000      0.000
REMARK SMILES C[C@@H](C(=O)OCCOC(=O)c1ccc(-c2c3nc(c(-c4c(F)cccc4F)c4ccc([nH]4)c(-c4c(F)cccc4F)c4nc(c(-c5c(F)cccc5F)c5ccc2[nH]5)C=C4)C=C3)cc1)N1C(=O)/C(=C/c2ccc(F)cc2)SC1=S
REMARK SMILES IDX 6 1 5 2 3 3 4 4 2 5 1 6 65 7 66 8 78 9 67 10 68 11 77 12
REMARK SMILES IDX 79 13 69 14 70 15 71 16 76 17 72 18 75 19 73 20 74 21 7 22
REMARK SMILES IDX 8 23 9 24 10 25 11 26 12 27 64 28 13 29 63 30 14 31 15 32
REMARK SMILES IDX 16 33 57 34 17 35 62 36 56 37 58 38 18 39 61 40 55 41 54 42
REMARK SMILES IDX 19 44 45 45 28 46 44 47 29 48 32 49 43 50 59 51 30 52 31 53
REMARK SMILES IDX 42 55 60 56 33 57 20 58 21 59 26 60 22 61 23 62 25 63 27 64
REMARK SMILES IDX 24 65 46 66 47 67 52 68 48 69 49 70 51 71 53 72 50 73 34 74
REMARK SMILES IDX 35 75 40 76 36 77 37 78 39 79 41 80 38 81
REMARK H PARENT 58 43 32 54
REMARK Flexibility Score: inf
ROOT
ATOM      1  C   UNL A   1      35.553  21.365  25.830  1.00  0.00     0.274 C 
ENDROOT
BRANCH   1   2
ATOM      2  O   UNL A   1      34.171  21.150  25.470  1.00  0.00    -0.461 OA
BRANCH   2   3
ATOM      3  C   UNL A   1      33.242  21.842  26.184  1.00  0.00     0.329 C 
ATOM      4  O   UNL A   1      33.130  21.762  27.404  1.00  0.00    -0.250 OA
BRANCH   3   5
ATOM      5  C   UNL A   1      32.278  22.661  25.300  1.00  0.00     0.199 C 
ATOM      6  C   UNL A   1      32.001  22.027  23.939  1.00  0.00     0.044 C 
BRANCH   5   7
ATOM      7  N   UNL A   1      32.668  24.101  25.294  1.00  0.00    -0.279 N 
ATOM      8  C   UNL A   1      32.004  24.922  26.206  1.00  0.00     0.266 C 
ATOM      9  C   UNL A   1      33.662  24.720  24.559  1.00  0.00     0.149 C 
ATOM     10  O   UNL A   1      31.071  24.590  26.927  1.00  0.00    -0.268 OA
ATOM     11  C   UNL A   1      32.578  26.294  26.208  1.00  0.00     0.081 C 
ATOM     12  S   UNL A   1      33.719  26.440  24.941  1.00  0.00    -0.054 SA
ATOM     13  S   UNL A   1      34.732  24.104  23.441  1.00  0.00    -0.052 S 
ATOM     14  C   UNL A   1      32.255  27.216  27.127  1.00  0.00     0.029 C 
BRANCH  14  15
ATOM     15  C   UNL A   1      32.795  28.583  27.194  1.00  0.00    -0.024 A 
ATOM     16  C   UNL A   1      34.143  28.790  27.513  1.00  0.00     0.011 A 
ATOM     17  C   UNL A   1      31.969  29.693  26.960  1.00  0.00     0.011 A 
ATOM     18  C   UNL A   1      34.657  30.088  27.568  1.00  0.00     0.040 A 
ATOM     19  C   UNL A   1      32.489  30.988  27.018  1.00  0.00     0.040 A 
ATOM     20  C   UNL A   1      33.829  31.175  27.321  1.00  0.00     0.123 A 
ATOM     21  F   UNL A   1      34.327  32.416  27.385  1.00  0.00    -0.207 F 
ENDBRANCH  14  15
ENDBRANCH   5   7
ENDBRANCH   3   5
ENDBRANCH   2   3
ENDBRANCH   1   2
BRANCH   1  22
ATOM     22  C   UNL A   1      36.508  20.470  25.038  1.00  0.00     0.275 C 
BRANCH  22  23
ATOM     23  O   UNL A   1      37.758  21.136  24.784  1.00  0.00    -0.458 OA
BRANCH  23  24
ATOM     24  C   UNL A   1      38.757  20.822  25.635  1.00  0.00     0.338 C 
ATOM     25  O   UNL A   1      39.197  19.707  25.880  1.00  0.00    -0.246 OA
BRANCH  24  26
ATOM     26  C   UNL A   1      39.354  22.050  26.172  1.00  0.00     0.060 A 
ATOM     27  C   UNL A   1      38.719  23.259  25.898  1.00  0.00     0.016 A 
ATOM     28  C   UNL A   1      40.584  22.033  26.827  1.00  0.00     0.016 A 
ATOM     29  C   UNL A   1      39.328  24.462  26.226  1.00  0.00     0.010 A 
ATOM     30  C   UNL A   1      41.179  23.247  27.199  1.00  0.00     0.010 A 
ATOM     31  C   UNL A   1      40.567  24.469  26.875  1.00  0.00    -0.014 A 
BRANCH  31  32
ATOM     32  C   UNL A   1      41.217  25.778  27.127  1.00  0.00     0.031 A 
ATOM     33  C   UNL A   1      40.617  26.726  28.125  1.00  0.00     0.074 A 
ATOM     34  C   UNL A   1      42.406  26.052  26.554  1.00  0.00     0.049 A 
ATOM     35  N   UNL A   1      41.033  27.910  28.491  1.00  0.00    -0.248 NA
ATOM     36  C   UNL A   1      39.385  26.287  28.801  1.00  0.00     0.031 C 
ATOM     37  C   UNL A   1      43.127  25.156  25.648  1.00  0.00     0.029 A 
ATOM     38  N   UNL A   1      43.251  27.122  26.704  1.00  0.00    -0.354 N 
ATOM     39  C   UNL A   1      40.073  28.393  29.371  1.00  0.00     0.074 A 
ATOM     40  C   UNL A   1      39.076  27.356  29.521  1.00  0.00     0.031 C 
ATOM     41  C   UNL A   1      44.349  25.661  25.415  1.00  0.00     0.029 A 
ATOM     42  C   UNL A   1      44.474  26.944  26.099  1.00  0.00     0.049 A 
ATOM     43  H   UNL A   1      43.006  27.940  27.194  1.00  0.00     0.167 HD
ATOM     44  C   UNL A   1      40.018  29.606  29.970  1.00  0.00     0.037 A 
ATOM     45  C   UNL A   1      45.580  27.712  26.137  1.00  0.00     0.037 A 
ATOM     46  C   UNL A   1      41.050  30.603  29.863  1.00  0.00     0.049 A 
ATOM     47  C   UNL A   1      45.522  29.026  26.868  1.00  0.00     0.074 A 
ATOM     48  C   UNL A   1      41.068  31.889  30.372  1.00  0.00     0.029 A 
ATOM     49  N   UNL A   1      42.265  30.406  29.224  1.00  0.00    -0.354 N 
ATOM     50  N   UNL A   1      44.565  29.513  27.621  1.00  0.00    -0.248 NA
ATOM     51  C   UNL A   1      46.689  29.907  26.729  1.00  0.00     0.031 C 
ATOM     52  C   UNL A   1      42.284  32.482  30.015  1.00  0.00     0.029 A 
ATOM     53  C   UNL A   1      43.036  31.553  29.315  1.00  0.00     0.049 A 
ATOM     54  H   UNL A   1      42.539  29.575  28.774  1.00  0.00     0.167 HD
ATOM     55  C   UNL A   1      45.012  30.758  28.041  1.00  0.00     0.074 A 
ATOM     56  C   UNL A   1      46.346  30.929  27.501  1.00  0.00     0.031 C 
ATOM     57  C   UNL A   1      44.364  31.694  28.777  1.00  0.00     0.037 A 
BRANCH  44  58
ATOM     58  C   UNL A   1      38.762  29.953  30.709  1.00  0.00     0.057 A 
ATOM     59  C   UNL A   1      37.657  30.543  30.089  1.00  0.00     0.134 A 
ATOM     60  C   UNL A   1      38.665  29.673  32.080  1.00  0.00     0.134 A 
ATOM     61  F   UNL A   1      37.694  30.856  28.786  1.00  0.00    -0.206 F 
ATOM     62  C   UNL A   1      36.501  30.857  30.810  1.00  0.00     0.040 A 
ATOM     63  C   UNL A   1      37.509  29.961  32.805  1.00  0.00     0.040 A 
ATOM     64  F   UNL A   1      39.691  29.108  32.733  1.00  0.00    -0.206 F 
ATOM     65  C   UNL A   1      36.424  30.560  32.171  1.00  0.00     0.006 A 
ENDBRANCH  44  58
BRANCH  45  66
ATOM     66  C   UNL A   1      46.860  27.229  25.558  1.00  0.00     0.057 A 
ATOM     67  C   UNL A   1      47.723  26.434  26.325  1.00  0.00     0.134 A 
ATOM     68  C   UNL A   1      47.261  27.528  24.252  1.00  0.00     0.134 A 
ATOM     69  F   UNL A   1      47.412  26.131  27.594  1.00  0.00    -0.206 F 
ATOM     70  C   UNL A   1      48.933  25.958  25.820  1.00  0.00     0.040 A 
ATOM     71  C   UNL A   1      48.459  27.038  23.724  1.00  0.00     0.040 A 
ATOM     72  F   UNL A   1      46.487  28.287  23.462  1.00  0.00    -0.206 F 
ATOM     73  C   UNL A   1      49.300  26.254  24.511  1.00  0.00     0.006 A 
ENDBRANCH  45  66
BRANCH  57  74
ATOM     74  C   UNL A   1      45.079  32.989  29.021  1.00  0.00     0.057 A 
ATOM     75  C   UNL A   1      44.937  34.073  28.145  1.00  0.00     0.134 A 
ATOM     76  C   UNL A   1      45.869  33.175  30.162  1.00  0.00     0.134 A 
ATOM     77  F   UNL A   1      44.199  33.955  27.031  1.00  0.00    -0.206 F 
ATOM     78  C   UNL A   1      45.573  35.292  28.385  1.00  0.00     0.040 A 
ATOM     79  C   UNL A   1      46.491  34.396  30.424  1.00  0.00     0.040 A 
ATOM     80  F   UNL A   1      46.035  32.180  31.046  1.00  0.00    -0.206 F 
ATOM     81  C   UNL A   1      46.347  35.458  29.531  1.00  0.00     0.006 A 
ENDBRANCH  57  74
ENDBRANCH  31  32
ENDBRANCH  24  26
ENDBRANCH  23  24
ENDBRANCH  22  23
ENDBRANCH   1  22
TORSDOF 13
ENDMDL
MODEL 2
REMARK VINA RESULT:     -11.3      3.821      9.034
REMARK SMILES C[C@@H](C(=O)OCCOC(=O)c1ccc(-c2c3nc(c(-c4c(F)cccc4F)c4ccc([nH]4)c(-c4c(F)cccc4F)c4nc(c(-c5c(F)cccc5F)c5ccc2[nH]5)C=C4)C=C3)cc1)N1C(=O)/C(=C/c2ccc(F)cc2)SC1=S
REMARK SMILES IDX 6 1 5 2 3 3 4 4 2 5 1 6 65 7 66 8 78 9 67 10 68 11 77 12
REMARK SMILES IDX 79 13 69 14 70 15 71 16 76 17 72 18 75 19 73 20 74 21 7 22
REMARK SMILES IDX 8 23 9 24 10 25 11 26 12 27 64 28 13 29 63 30 14 31 15 32
REMARK SMILES IDX 16 33 57 34 17 35 62 36 56 37 58 38 18 39 61 40 55 41 54 42
REMARK SMILES IDX 19 44 45 45 28 46 44 47 29 48 32 49 43 50 59 51 30 52 31 53
REMARK SMILES IDX 42 55 60 56 33 57 20 58 21 59 26 60 22 61 23 62 25 63 27 64
REMARK SMILES IDX 24 65 46 66 47 67 52 68 48 69 49 70 51 71 53 72 50 73 34 74
REMARK SMILES IDX 35 75 40 76 36 77 37 78 39 79 41 80 38 81
REMARK H PARENT 58 43 32 54
REMARK Flexibility Score: inf
ROOT
ATOM      1  C   UNL A   1      31.088  29.193  24.507  1.00  0.00     0.274 C 
ENDROOT
BRANCH   1   2
ATOM      2  O   UNL A   1      31.959  28.100  24.872  1.00  0.00    -0.461 OA
BRANCH   2   3
ATOM      3  C   UNL A   1      31.359  26.982  25.360  1.00  0.00     0.329 C 
ATOM      4  O   UNL A   1      30.904  26.900  26.497  1.00  0.00    -0.250 OA
BRANCH   3   5
ATOM      5  C   UNL A   1      31.395  25.792  24.378  1.00  0.00     0.199 C 
ATOM      6  C   UNL A   1      30.018  25.212  24.061  1.00  0.00     0.044 C 
BRANCH   5   7
ATOM      7  N   UNL A   1      32.449  24.815  24.776  1.00  0.00    -0.279 N 
ATOM      8  C   UNL A   1      33.689  24.959  24.152  1.00  0.00     0.266 C 
ATOM      9  C   UNL A   1      32.389  23.831  25.747  1.00  0.00     0.149 C 
ATOM     10  O   UNL A   1      33.952  25.738  23.245  1.00  0.00    -0.268 OA
ATOM     11  C   UNL A   1      34.693  24.029  24.734  1.00  0.00     0.081 C 
ATOM     12  S   UNL A   1      33.922  22.964  25.828  1.00  0.00    -0.054 SA
ATOM     13  S   UNL A   1      31.153  23.388  26.770  1.00  0.00    -0.052 S 
ATOM     14  C   UNL A   1      36.002  24.103  24.452  1.00  0.00     0.029 C 
BRANCH  14  15
ATOM     15  C   UNL A   1      37.047  23.226  25.002  1.00  0.00    -0.024 A 
ATOM     16  C   UNL A   1      37.957  23.723  25.944  1.00  0.00     0.011 A 
ATOM     17  C   UNL A   1      37.160  21.893  24.581  1.00  0.00     0.011 A 
ATOM     18  C   UNL A   1      38.944  22.888  26.472  1.00  0.00     0.040 A 
ATOM     19  C   UNL A   1      38.150  21.062  25.111  1.00  0.00     0.040 A 
ATOM     20  C   UNL A   1      39.034  21.567  26.054  1.00  0.00     0.123 A 
ATOM     21  F   UNL A   1      39.988  20.775  26.558  1.00  0.00    -0.207 F 
ENDBRANCH  14  15
ENDBRANCH   5   7
ENDBRANCH   3   5
ENDBRANCH   2   3
ENDBRANCH   1   2
BRANCH   1  22
ATOM     22  C   UNL A   1      31.354  30.452  25.335  1.00  0.00     0.275 C 
BRANCH  22  23
ATOM     23  O   UNL A   1      32.336  30.206  26.358  1.00  0.00    -0.458 OA
BRANCH  23  24
ATOM     24  C   UNL A   1      32.841  31.311  26.944  1.00  0.00     0.338 C 
ATOM     25  O   UNL A   1      32.292  32.397  27.075  1.00  0.00    -0.246 OA
BRANCH  24  26
ATOM     26  C   UNL A   1      34.150  31.005  27.533  1.00  0.00     0.060 A 
ATOM     27  C   UNL A   1      34.466  29.668  27.764  1.00  0.00     0.016 A 
ATOM     28  C   UNL A   1      35.005  32.016  27.969  1.00  0.00     0.016 A 
ATOM     29  C   UNL A   1      35.606  29.329  28.476  1.00  0.00     0.010 A 
ATOM     30  C   UNL A   1      36.180  31.673  28.650  1.00  0.00     0.010 A 
ATOM     31  C   UNL A   1      36.473  30.327  28.932  1.00  0.00    -0.014 A 
BRANCH  31  32
ATOM     32  C   UNL A   1      37.633  29.922  29.763  1.00  0.00     0.031 A 
ATOM     33  C   UNL A   1      38.809  29.247  29.118  1.00  0.00     0.074 A 
ATOM     34  C   UNL A   1      37.676  30.273  31.063  1.00  0.00     0.049 A 
ATOM     35  N   UNL A   1      39.918  28.821  29.665  1.00  0.00    -0.248 NA
ATOM     36  C   UNL A   1      38.730  29.019  27.665  1.00  0.00     0.031 C 
ATOM     37  C   UNL A   1      36.631  31.021  31.766  1.00  0.00     0.029 A 
ATOM     38  N   UNL A   1      38.662  30.118  32.005  1.00  0.00    -0.354 N 
ATOM     39  C   UNL A   1      40.628  28.200  28.646  1.00  0.00     0.074 A 
ATOM     40  C   UNL A   1      39.848  28.344  27.436  1.00  0.00     0.031 C 
ATOM     41  C   UNL A   1      37.078  31.356  32.986  1.00  0.00     0.029 A 
ATOM     42  C   UNL A   1      38.411  30.792  33.178  1.00  0.00     0.049 A 
ATOM     43  H   UNL A   1      39.470  29.574  31.857  1.00  0.00     0.167 HD
ATOM     44  C   UNL A   1      41.808  27.542  28.726  1.00  0.00     0.037 A 
ATOM     45  C   UNL A   1      39.194  30.969  34.259  1.00  0.00     0.037 A 
ATOM     46  C   UNL A   1      42.604  27.462  29.922  1.00  0.00     0.049 A 
ATOM     47  C   UNL A   1      40.533  30.287  34.301  1.00  0.00     0.074 A 
ATOM     48  C   UNL A   1      43.782  26.767  30.134  1.00  0.00     0.029 A 
ATOM     49  N   UNL A   1      42.316  28.132  31.101  1.00  0.00    -0.354 N 
ATOM     50  N   UNL A   1      41.152  29.620  33.358  1.00  0.00    -0.248 NA
ATOM     51  C   UNL A   1      41.269  30.361  35.571  1.00  0.00     0.031 C 
ATOM     52  C   UNL A   1      44.190  26.992  31.454  1.00  0.00     0.029 A 
ATOM     53  C   UNL A   1      43.285  27.856  32.050  1.00  0.00     0.049 A 
ATOM     54  H   UNL A   1      41.537  28.717  31.243  1.00  0.00     0.167 HD
ATOM     55  C   UNL A   1      42.347  29.189  33.920  1.00  0.00     0.074 A 
ATOM     56  C   UNL A   1      42.388  29.716  35.270  1.00  0.00     0.031 C 
ATOM     57  C   UNL A   1      43.308  28.400  33.383  1.00  0.00     0.037 A 
BRANCH  44  58
ATOM     58  C   UNL A   1      42.255  26.778  27.517  1.00  0.00     0.057 A 
ATOM     59  C   UNL A   1      41.882  25.451  27.279  1.00  0.00     0.134 A 
ATOM     60  C   UNL A   1      43.073  27.403  26.565  1.00  0.00     0.134 A 
ATOM     61  F   UNL A   1      41.119  24.789  28.160  1.00  0.00    -0.206 F 
ATOM     62  C   UNL A   1      42.321  24.767  26.141  1.00  0.00     0.040 A 
ATOM     63  C   UNL A   1      43.498  26.738  25.416  1.00  0.00     0.040 A 
ATOM     64  F   UNL A   1      43.466  28.675  26.737  1.00  0.00    -0.206 F 
ATOM     65  C   UNL A   1      43.126  25.413  25.203  1.00  0.00     0.006 A 
ENDBRANCH  44  58
BRANCH  45  66
ATOM     66  C   UNL A   1      38.788  31.900  35.345  1.00  0.00     0.057 A 
ATOM     67  C   UNL A   1      39.050  33.272  35.229  1.00  0.00     0.134 A 
ATOM     68  C   UNL A   1      38.138  31.471  36.507  1.00  0.00     0.134 A 
ATOM     69  F   UNL A   1      39.694  33.747  34.153  1.00  0.00    -0.206 F 
ATOM     70  C   UNL A   1      38.686  34.181  36.223  1.00  0.00     0.040 A 
ATOM     71  C   UNL A   1      37.745  32.372  37.500  1.00  0.00     0.040 A 
ATOM     72  F   UNL A   1      37.859  30.172  36.687  1.00  0.00    -0.206 F 
ATOM     73  C   UNL A   1      38.023  33.730  37.361  1.00  0.00     0.006 A 
ENDBRANCH  45  66
BRANCH  57  74
ATOM     74  C   UNL A   1      44.470  28.041  34.261  1.00  0.00     0.057 A 
ATOM     75  C   UNL A   1      45.620  28.839  34.305  1.00  0.00     0.134 A 
ATOM     76  C   UNL A   1      44.420  26.926  35.106  1.00  0.00     0.134 A 
ATOM     77  F   UNL A   1      45.731  29.917  33.513  1.00  0.00    -0.206 F 
ATOM     78  C   UNL A   1      46.690  28.530  35.145  1.00  0.00     0.040 A 
ATOM     79  C   UNL A   1      45.474  26.619  35.967  1.00  0.00     0.040 A 
ATOM     80  F   UNL A   1      43.341  26.129  35.120  1.00  0.00    -0.206 F 
ATOM     81  C   UNL A   1      46.616  27.420  35.984  1.00  0.00     0.006 A 
ENDBRANCH  57  74
ENDBRANCH  31  32
ENDBRANCH  24  26
ENDBRANCH  23  24
ENDBRANCH  22  23
ENDBRANCH   1  22
TORSDOF 13
ENDMDL
MODEL 3
REMARK VINA RESULT:     -11.3      0.551      6.344
REMARK SMILES C[C@@H](C(=O)OCCOC(=O)c1ccc(-c2c3nc(c(-c4c(F)cccc4F)c4ccc([nH]4)c(-c4c(F)cccc4F)c4nc(c(-c5c(F)cccc5F)c5ccc2[nH]5)C=C4)C=C3)cc1)N1C(=O)/C(=C/c2ccc(F)cc2)SC1=S
REMARK SMILES IDX 6 1 5 2 3 3 4 4 2 5 1 6 65 7 66 8 78 9 67 10 68 11 77 12
REMARK SMILES IDX 79 13 69 14 70 15 71 16 76 17 72 18 75 19 73 20 74 21 7 22
REMARK SMILES IDX 8 23 9 24 10 25 11 26 12 27 64 28 13 29 63 30 14 31 15 32
REMARK SMILES IDX 16 33 57 34 17 35 62 36 56 37 58 38 18 39 61 40 55 41 54 42
REMARK SMILES IDX 19 44 45 45 28 46 44 47 29 48 32 49 43 50 59 51 30 52 31 53
REMARK SMILES IDX 42 55 60 56 33 57 20 58 21 59 26 60 22 61 23 62 25 63 27 64
REMARK SMILES IDX 24 65 46 66 47 67 52 68 48 69 49 70 51 71 53 72 50 73 34 74
REMARK SMILES IDX 35 75 40 76 36 77 37 78 39 79 41 80 38 81
REMARK H PARENT 58 43 32 54
REMARK Flexibility Score: inf
ROOT
ATOM      1  C   UNL A   1      35.663  21.617  25.768  1.00  0.00     0.274 C 
ENDROOT
BRANCH   1   2
ATOM      2  O   UNL A   1      34.311  21.176  25.516  1.00  0.00    -0.461 OA
BRANCH   2   3
ATOM      3  C   UNL A   1      33.332  21.767  26.253  1.00  0.00     0.329 C 
ATOM      4  O   UNL A   1      33.233  21.642  27.470  1.00  0.00    -0.250 OA
BRANCH   3   5
ATOM      5  C   UNL A   1      32.299  22.529  25.396  1.00  0.00     0.199 C 
ATOM      6  C   UNL A   1      31.995  21.859  24.057  1.00  0.00     0.044 C 
BRANCH   5   7
ATOM      7  N   UNL A   1      32.627  23.983  25.349  1.00  0.00    -0.279 N 
ATOM      8  C   UNL A   1      32.042  24.777  26.337  1.00  0.00     0.266 C 
ATOM      9  C   UNL A   1      33.503  24.642  24.506  1.00  0.00     0.149 C 
ATOM     10  O   UNL A   1      31.214  24.409  27.160  1.00  0.00    -0.268 OA
ATOM     11  C   UNL A   1      32.556  26.172  26.277  1.00  0.00     0.081 C 
ATOM     12  S   UNL A   1      33.534  26.364  24.887  1.00  0.00    -0.054 SA
ATOM     13  S   UNL A   1      34.459  24.070  23.269  1.00  0.00    -0.052 S 
ATOM     14  C   UNL A   1      32.306  27.081  27.231  1.00  0.00     0.029 C 
BRANCH  14  15
ATOM     15  C   UNL A   1      32.794  28.468  27.240  1.00  0.00    -0.024 A 
ATOM     16  C   UNL A   1      31.910  29.524  26.982  1.00  0.00     0.011 A 
ATOM     17  C   UNL A   1      34.145  28.753  27.484  1.00  0.00     0.011 A 
ATOM     18  C   UNL A   1      32.372  30.843  26.998  1.00  0.00     0.040 A 
ATOM     19  C   UNL A   1      34.602  30.073  27.498  1.00  0.00     0.040 A 
ATOM     20  C   UNL A   1      33.710  31.108  27.255  1.00  0.00     0.123 A 
ATOM     21  F   UNL A   1      34.147  32.373  27.259  1.00  0.00    -0.207 F 
ENDBRANCH  14  15
ENDBRANCH   5   7
ENDBRANCH   3   5
ENDBRANCH   2   3
ENDBRANCH   1   2
BRANCH   1  22
ATOM     22  C   UNL A   1      36.706  20.675  25.164  1.00  0.00     0.275 C 
BRANCH  22  23
ATOM     23  O   UNL A   1      37.960  21.350  24.954  1.00  0.00    -0.458 OA
BRANCH  23  24
ATOM     24  C   UNL A   1      38.950  20.994  25.797  1.00  0.00     0.338 C 
ATOM     25  O   UNL A   1      39.433  19.879  25.943  1.00  0.00    -0.246 OA
BRANCH  24  26
ATOM     26  C   UNL A   1      39.479  22.185  26.472  1.00  0.00     0.060 A 
ATOM     27  C   UNL A   1      38.980  23.428  26.088  1.00  0.00     0.016 A 
ATOM     28  C   UNL A   1      40.536  22.099  27.377  1.00  0.00     0.016 A 
ATOM     29  C   UNL A   1      39.563  24.595  26.560  1.00  0.00     0.010 A 
ATOM     30  C   UNL A   1      41.097  23.277  27.888  1.00  0.00     0.010 A 
ATOM     31  C   UNL A   1      40.632  24.533  27.460  1.00  0.00    -0.014 A 
BRANCH  31  32
ATOM     32  C   UNL A   1      41.278  25.803  27.869  1.00  0.00     0.031 A 
ATOM     33  C   UNL A   1      42.617  26.173  27.298  1.00  0.00     0.074 A 
ATOM     34  C   UNL A   1      40.605  26.671  28.650  1.00  0.00     0.049 A 
ATOM     35  N   UNL A   1      43.344  27.236  27.523  1.00  0.00    -0.248 NA
ATOM     36  C   UNL A   1      43.221  25.222  26.350  1.00  0.00     0.031 C 
ATOM     37  C   UNL A   1      39.256  26.456  29.176  1.00  0.00     0.029 A 
ATOM     38  N   UNL A   1      40.928  27.935  29.075  1.00  0.00    -0.354 N 
ATOM     39  C   UNL A   1      44.524  27.044  26.816  1.00  0.00     0.074 A 
ATOM     40  C   UNL A   1      44.398  25.784  26.117  1.00  0.00     0.031 C 
ATOM     41  C   UNL A   1      38.825  27.589  29.752  1.00  0.00     0.029 A 
ATOM     42  C   UNL A   1      39.888  28.587  29.697  1.00  0.00     0.049 A 
ATOM     43  H   UNL A   1      41.818  28.337  28.949  1.00  0.00     0.167 HD
ATOM     44  C   UNL A   1      45.621  27.836  26.784  1.00  0.00     0.037 A 
ATOM     45  C   UNL A   1      39.797  29.861  30.127  1.00  0.00     0.037 A 
ATOM     46  C   UNL A   1      45.707  29.117  27.432  1.00  0.00     0.049 A 
ATOM     47  C   UNL A   1      41.006  30.748  30.019  1.00  0.00     0.074 A 
ATOM     48  C   UNL A   1      46.792  29.972  27.521  1.00  0.00     0.029 A 
ATOM     49  N   UNL A   1      44.650  29.741  28.076  1.00  0.00    -0.354 N 
ATOM     50  N   UNL A   1      42.153  30.516  29.428  1.00  0.00    -0.248 NA
ATOM     51  C   UNL A   1      40.915  32.065  30.664  1.00  0.00     0.031 C 
ATOM     52  C   UNL A   1      46.397  31.102  28.247  1.00  0.00     0.029 A 
ATOM     53  C   UNL A   1      45.059  30.966  28.577  1.00  0.00     0.049 A 
ATOM     54  H   UNL A   1      43.742  29.370  28.164  1.00  0.00     0.167 HD
ATOM     55  C   UNL A   1      42.922  31.653  29.634  1.00  0.00     0.074 A 
ATOM     56  C   UNL A   1      42.092  32.594  30.359  1.00  0.00     0.031 C 
ATOM     57  C   UNL A   1      44.211  31.887  29.287  1.00  0.00     0.037 A 
BRANCH  44  58
ATOM     58  C   UNL A   1      46.843  27.292  26.109  1.00  0.00     0.057 A 
ATOM     59  C   UNL A   1      47.815  26.548  26.785  1.00  0.00     0.134 A 
ATOM     60  C   UNL A   1      47.036  27.518  24.738  1.00  0.00     0.134 A 
ATOM     61  F   UNL A   1      47.701  26.315  28.100  1.00  0.00    -0.206 F 
ATOM     62  C   UNL A   1      48.946  26.059  26.124  1.00  0.00     0.040 A 
ATOM     63  C   UNL A   1      48.148  27.017  24.063  1.00  0.00     0.040 A 
ATOM     64  F   UNL A   1      46.140  28.226  24.033  1.00  0.00    -0.206 F 
ATOM     65  C   UNL A   1      49.111  26.288  24.758  1.00  0.00     0.006 A 
ENDBRANCH  44  58
BRANCH  45  66
ATOM     66  C   UNL A   1      38.501  30.409  30.605  1.00  0.00     0.057 A 
ATOM     67  C   UNL A   1      38.128  30.262  31.948  1.00  0.00     0.134 A 
ATOM     68  C   UNL A   1      37.610  31.087  29.766  1.00  0.00     0.134 A 
ATOM     69  F   UNL A   1      38.923  29.599  32.800  1.00  0.00    -0.206 F 
ATOM     70  C   UNL A   1      36.922  30.762  32.439  1.00  0.00     0.040 A 
ATOM     71  C   UNL A   1      36.409  31.615  30.248  1.00  0.00     0.040 A 
ATOM     72  F   UNL A   1      37.900  31.261  28.469  1.00  0.00    -0.206 F 
ATOM     73  C   UNL A   1      36.061  31.449  31.588  1.00  0.00     0.006 A 
ENDBRANCH  45  66
BRANCH  57  74
ATOM     74  C   UNL A   1      44.806  33.198  29.706  1.00  0.00     0.057 A 
ATOM     75  C   UNL A   1      45.464  33.338  30.934  1.00  0.00     0.134 A 
ATOM     76  C   UNL A   1      44.770  34.312  28.858  1.00  0.00     0.134 A 
ATOM     77  F   UNL A   1      45.526  32.308  31.793  1.00  0.00    -0.206 F 
ATOM     78  C   UNL A   1      46.050  34.546  31.315  1.00  0.00     0.040 A 
ATOM     79  C   UNL A   1      45.371  35.518  29.218  1.00  0.00     0.040 A 
ATOM     80  F   UNL A   1      44.166  34.240  27.663  1.00  0.00    -0.206 F 
ATOM     81  C   UNL A   1      46.010  35.639  30.452  1.00  0.00     0.006 A 
ENDBRANCH  57  74
ENDBRANCH  31  32
ENDBRANCH  24  26
ENDBRANCH  23  24
ENDBRANCH  22  23
ENDBRANCH   1  22
TORSDOF 13
ENDMDL
