MODEL 1
REMARK VINA RESULT:     -11.3      0.000      0.000
REMARK SMILES CC1(C)[C@H]2CC[C@]1(C)C(=O)N(CC(=O)OCCOC(=O)c1ccc(-c3c4nc(c(-c5c(F)cccc5F)c5ccc([nH]5)c(-c5c(F)cccc5F)c5nc(c(-c6c(F)cccc6F)c6ccc3[nH]6)C=C5)C=C4)cc1)C2=O
REMARK SMILES IDX 17 1 16 2 15 3 13 4 14 5 12 6 11 7 1 8 2 9 4 10 7 11 3 12
REMARK SMILES IDX 5 13 75 14 6 15 9 16 8 17 76 18 10 19 18 20 19 21 20 22
REMARK SMILES IDX 21 23 22 24 74 25 23 26 73 27 24 28 25 29 26 30 67 31 27 32
REMARK SMILES IDX 72 33 66 34 68 35 28 36 71 37 65 38 64 39 29 41 55 42 38 43
REMARK SMILES IDX 54 44 39 45 42 46 53 47 69 48 40 49 41 50 52 52 70 53 43 54
REMARK SMILES IDX 30 55 31 56 36 57 32 58 33 59 35 60 37 61 34 62 56 63 57 64
REMARK SMILES IDX 62 65 58 66 59 67 61 68 63 69 60 70 44 71 45 72 50 73 46 74
REMARK SMILES IDX 47 75 49 76 51 77 48 78
REMARK H PARENT 68 40 42 51
REMARK Flexibility Score: inf
ROOT
ATOM      1  C   UNL A   1      36.486  20.719  25.001  1.00  0.00     0.275 C 
ENDROOT
BRANCH   1   2
ATOM      2  C   UNL A   1      35.006  20.636  25.391  1.00  0.00     0.274 C 
BRANCH   2   3
ATOM      3  O   UNL A   1      34.245  20.202  24.251  1.00  0.00    -0.461 OA
BRANCH   3   4
ATOM      4  C   UNL A   1      32.892  20.323  24.264  1.00  0.00     0.326 C 
ATOM      5  O   UNL A   1      32.138  19.548  24.844  1.00  0.00    -0.250 OA
BRANCH   4   6
ATOM      6  C   UNL A   1      32.391  21.490  23.400  1.00  0.00     0.251 C 
BRANCH   6   7
ATOM      7  N   UNL A   1      32.789  22.829  23.848  1.00  0.00    -0.271 N 
ATOM      8  C   UNL A   1      32.074  25.882  22.979  1.00  0.00     0.013 C 
ATOM      9  C   UNL A   1      33.102  25.685  24.110  1.00  0.00    -0.010 C 
ATOM     10  C   UNL A   1      34.276  24.775  23.721  1.00  0.00     0.086 C 
ATOM     11  C   UNL A   1      32.579  24.853  25.317  1.00  0.00     0.053 C 
ATOM     12  C   UNL A   1      33.652  27.083  24.483  1.00  0.00     0.013 C 
ATOM     13  C   UNL A   1      34.965  24.453  25.062  1.00  0.00     0.015 C 
ATOM     14  C   UNL A   1      33.720  23.513  23.081  1.00  0.00     0.233 C 
ATOM     15  C   UNL A   1      33.860  24.567  26.126  1.00  0.00     0.018 C 
ATOM     16  C   UNL A   1      32.049  23.462  24.849  1.00  0.00     0.236 C 
ATOM     17  C   UNL A   1      31.535  25.578  26.166  1.00  0.00     0.022 C 
ATOM     18  O   UNL A   1      34.028  23.193  21.933  1.00  0.00    -0.274 OA
ATOM     19  O   UNL A   1      31.026  22.971  25.329  1.00  0.00    -0.274 OA
ENDBRANCH   6   7
ENDBRANCH   4   6
ENDBRANCH   3   4
ENDBRANCH   2   3
ENDBRANCH   1   2
BRANCH   1  20
ATOM     20  O   UNL A   1      37.177  21.739  25.751  1.00  0.00    -0.458 OA
BRANCH  20  21
ATOM     21  C   UNL A   1      38.488  21.495  25.965  1.00  0.00     0.338 C 
ATOM     22  O   UNL A   1      39.100  20.467  25.751  1.00  0.00    -0.246 OA
BRANCH  21  23
ATOM     23  C   UNL A   1      39.193  22.689  26.405  1.00  0.00     0.060 A 
ATOM     24  C   UNL A   1      40.293  22.512  27.252  1.00  0.00     0.016 A 
ATOM     25  C   UNL A   1      38.709  23.955  26.083  1.00  0.00     0.016 A 
ATOM     26  C   UNL A   1      40.941  23.624  27.766  1.00  0.00     0.010 A 
ATOM     27  C   UNL A   1      39.370  25.069  26.588  1.00  0.00     0.010 A 
ATOM     28  C   UNL A   1      40.494  24.905  27.416  1.00  0.00    -0.014 A 
BRANCH  28  29
ATOM     29  C   UNL A   1      41.265  26.091  27.829  1.00  0.00     0.031 A 
ATOM     30  C   UNL A   1      40.618  27.185  28.612  1.00  0.00     0.074 A 
ATOM     31  C   UNL A   1      42.542  26.178  27.421  1.00  0.00     0.049 A 
ATOM     32  N   UNL A   1      41.094  28.359  28.928  1.00  0.00    -0.248 NA
ATOM     33  C   UNL A   1      39.250  26.933  29.093  1.00  0.00     0.031 C 
ATOM     34  C   UNL A   1      43.255  25.147  26.660  1.00  0.00     0.029 A 
ATOM     35  N   UNL A   1      43.460  27.182  27.565  1.00  0.00    -0.354 N 
ATOM     36  C   UNL A   1      40.082  28.998  29.631  1.00  0.00     0.074 A 
ATOM     37  C   UNL A   1      38.960  28.085  29.683  1.00  0.00     0.031 C 
ATOM     38  C   UNL A   1      44.497  25.577  26.396  1.00  0.00     0.029 A 
ATOM     39  C   UNL A   1      44.645  26.928  26.921  1.00  0.00     0.049 A 
ATOM     40  H   UNL A   1      43.287  28.004  28.079  1.00  0.00     0.167 HD
ATOM     41  C   UNL A   1      40.101  30.237  30.175  1.00  0.00     0.037 A 
ATOM     42  C   UNL A   1      45.718  27.719  26.742  1.00  0.00     0.037 A 
ATOM     43  C   UNL A   1      41.235  31.124  30.109  1.00  0.00     0.049 A 
ATOM     44  C   UNL A   1      45.697  29.100  27.324  1.00  0.00     0.074 A 
ATOM     45  C   UNL A   1      41.374  32.392  30.646  1.00  0.00     0.029 A 
ATOM     46  N   UNL A   1      42.427  30.833  29.457  1.00  0.00    -0.354 N 
ATOM     47  N   UNL A   1      44.742  29.694  27.999  1.00  0.00    -0.248 NA
ATOM     48  C   UNL A   1      46.896  29.920  27.121  1.00  0.00     0.031 C 
ATOM     49  C   UNL A   1      42.632  32.883  30.284  1.00  0.00     0.029 A 
ATOM     50  C   UNL A   1      43.297  31.906  29.560  1.00  0.00     0.049 A 
ATOM     51  H   UNL A   1      42.623  29.989  28.991  1.00  0.00     0.167 HD
ATOM     52  C   UNL A   1      45.231  30.951  28.322  1.00  0.00     0.074 A 
ATOM     53  C   UNL A   1      46.573  31.027  27.775  1.00  0.00     0.031 C 
ATOM     54  C   UNL A   1      44.628  31.952  29.007  1.00  0.00     0.037 A 
BRANCH  41  55
ATOM     55  C   UNL A   1      38.853  30.714  30.858  1.00  0.00     0.057 A 
ATOM     56  C   UNL A   1      37.849  31.408  30.172  1.00  0.00     0.134 A 
ATOM     57  C   UNL A   1      38.643  30.451  32.218  1.00  0.00     0.134 A 
ATOM     58  F   UNL A   1      37.995  31.704  28.872  1.00  0.00    -0.206 F 
ATOM     59  C   UNL A   1      36.689  31.841  30.818  1.00  0.00     0.040 A 
ATOM     60  C   UNL A   1      37.476  30.859  32.869  1.00  0.00     0.040 A 
ATOM     61  F   UNL A   1      39.562  29.789  32.935  1.00  0.00    -0.206 F 
ATOM     62  C   UNL A   1      36.498  31.561  32.170  1.00  0.00     0.006 A 
ENDBRANCH  41  55
BRANCH  42  63
ATOM     63  C   UNL A   1      46.878  27.214  25.968  1.00  0.00     0.057 A 
ATOM     64  C   UNL A   1      46.994  27.465  24.598  1.00  0.00     0.134 A 
ATOM     65  C   UNL A   1      47.913  26.505  26.589  1.00  0.00     0.134 A 
ATOM     66  F   UNL A   1      46.028  28.128  23.948  1.00  0.00    -0.206 F 
ATOM     67  C   UNL A   1      48.097  27.019  23.867  1.00  0.00     0.040 A 
ATOM     68  C   UNL A   1      49.033  26.074  25.876  1.00  0.00     0.040 A 
ATOM     69  F   UNL A   1      47.865  26.245  27.904  1.00  0.00    -0.206 F 
ATOM     70  C   UNL A   1      49.124  26.328  24.509  1.00  0.00     0.006 A 
ENDBRANCH  42  63
BRANCH  54  71
ATOM     71  C   UNL A   1      45.432  33.198  29.228  1.00  0.00     0.057 A 
ATOM     72  C   UNL A   1      46.280  33.341  30.331  1.00  0.00     0.134 A 
ATOM     73  C   UNL A   1      45.374  34.251  28.307  1.00  0.00     0.134 A 
ATOM     74  F   UNL A   1      46.365  32.373  31.256  1.00  0.00    -0.206 F 
ATOM     75  C   UNL A   1      47.030  34.502  30.523  1.00  0.00     0.040 A 
ATOM     76  C   UNL A   1      46.138  35.406  28.476  1.00  0.00     0.040 A 
ATOM     77  F   UNL A   1      44.583  34.171  27.227  1.00  0.00    -0.206 F 
ATOM     78  C   UNL A   1      46.965  35.535  29.590  1.00  0.00     0.006 A 
ENDBRANCH  54  71
ENDBRANCH  28  29
ENDBRANCH  21  23
ENDBRANCH  20  21
ENDBRANCH   1  20
TORSDOF 12
ENDMDL
MODEL 2
REMARK VINA RESULT:     -11.2      0.971      2.118
REMARK SMILES CC1(C)[C@H]2CC[C@]1(C)C(=O)N(CC(=O)OCCOC(=O)c1ccc(-c3c4nc(c(-c5c(F)cccc5F)c5ccc([nH]5)c(-c5c(F)cccc5F)c5nc(c(-c6c(F)cccc6F)c6ccc3[nH]6)C=C5)C=C4)cc1)C2=O
REMARK SMILES IDX 17 1 16 2 15 3 13 4 14 5 12 6 11 7 1 8 2 9 4 10 7 11 3 12
REMARK SMILES IDX 5 13 75 14 6 15 9 16 8 17 76 18 10 19 18 20 19 21 20 22
REMARK SMILES IDX 21 23 22 24 74 25 23 26 73 27 24 28 25 29 26 30 67 31 27 32
REMARK SMILES IDX 72 33 66 34 68 35 28 36 71 37 65 38 64 39 29 41 55 42 38 43
REMARK SMILES IDX 54 44 39 45 42 46 53 47 69 48 40 49 41 50 52 52 70 53 43 54
REMARK SMILES IDX 30 55 31 56 36 57 32 58 33 59 35 60 37 61 34 62 56 63 57 64
REMARK SMILES IDX 62 65 58 66 59 67 61 68 63 69 60 70 44 71 45 72 50 73 46 74
REMARK SMILES IDX 47 75 49 76 51 77 48 78
REMARK H PARENT 68 40 42 51
REMARK Flexibility Score: inf
ROOT
ATOM      1  C   UNL A   1      36.856  20.329  25.000  1.00  0.00     0.275 C 
ENDROOT
BRANCH   1   2
ATOM      2  C   UNL A   1      35.331  20.479  24.963  1.00  0.00     0.274 C 
BRANCH   2   3
ATOM      3  O   UNL A   1      34.912  21.285  26.077  1.00  0.00    -0.461 OA
BRANCH   3   4
ATOM      4  C   UNL A   1      33.599  21.606  26.214  1.00  0.00     0.326 C 
ATOM      5  O   UNL A   1      32.675  20.915  25.797  1.00  0.00    -0.250 OA
BRANCH   4   6
ATOM      6  C   UNL A   1      33.388  22.977  26.874  1.00  0.00     0.251 C 
BRANCH   6   7
ATOM      7  N   UNL A   1      32.699  23.978  26.053  1.00  0.00    -0.271 N 
ATOM      8  C   UNL A   1      31.631  27.019  26.501  1.00  0.00     0.013 C 
ATOM      9  C   UNL A   1      31.366  26.365  25.132  1.00  0.00    -0.010 C 
ATOM     10  C   UNL A   1      30.638  25.016  25.225  1.00  0.00     0.086 C 
ATOM     11  C   UNL A   1      32.644  25.865  24.399  1.00  0.00     0.053 C 
ATOM     12  C   UNL A   1      30.498  27.348  24.310  1.00  0.00     0.013 C 
ATOM     13  C   UNL A   1      30.786  24.407  23.817  1.00  0.00     0.015 C 
ATOM     14  C   UNL A   1      31.340  24.157  26.264  1.00  0.00     0.233 C 
ATOM     15  C   UNL A   1      32.077  25.016  23.244  1.00  0.00     0.018 C 
ATOM     16  C   UNL A   1      33.454  24.878  25.298  1.00  0.00     0.236 C 
ATOM     17  C   UNL A   1      33.541  26.987  23.876  1.00  0.00     0.022 C 
ATOM     18  O   UNL A   1      30.740  23.735  27.252  1.00  0.00    -0.274 OA
ATOM     19  O   UNL A   1      34.684  24.914  25.343  1.00  0.00    -0.274 OA
ENDBRANCH   6   7
ENDBRANCH   4   6
ENDBRANCH   3   4
ENDBRANCH   2   3
ENDBRANCH   1   2
BRANCH   1  20
ATOM     20  O   UNL A   1      37.477  21.399  25.740  1.00  0.00    -0.458 OA
BRANCH  20  21
ATOM     21  C   UNL A   1      38.780  21.203  26.036  1.00  0.00     0.338 C 
ATOM     22  O   UNL A   1      39.429  20.184  25.904  1.00  0.00    -0.246 OA
BRANCH  21  23
ATOM     23  C   UNL A   1      39.429  22.435  26.457  1.00  0.00     0.060 A 
ATOM     24  C   UNL A   1      40.458  22.331  27.400  1.00  0.00     0.016 A 
ATOM     25  C   UNL A   1      38.954  23.669  26.019  1.00  0.00     0.016 A 
ATOM     26  C   UNL A   1      41.045  23.485  27.894  1.00  0.00     0.010 A 
ATOM     27  C   UNL A   1      39.554  24.825  26.506  1.00  0.00     0.010 A 
ATOM     28  C   UNL A   1      40.609  24.734  27.430  1.00  0.00    -0.014 A 
BRANCH  28  29
ATOM     29  C   UNL A   1      41.326  25.957  27.830  1.00  0.00     0.031 A 
ATOM     30  C   UNL A   1      40.629  27.032  28.598  1.00  0.00     0.074 A 
ATOM     31  C   UNL A   1      42.600  26.095  27.424  1.00  0.00     0.049 A 
ATOM     32  N   UNL A   1      41.052  28.230  28.900  1.00  0.00    -0.248 NA
ATOM     33  C   UNL A   1      39.272  26.726  29.079  1.00  0.00     0.031 C 
ATOM     34  C   UNL A   1      43.359  25.087  26.679  1.00  0.00     0.029 A 
ATOM     35  N   UNL A   1      43.472  27.141  27.558  1.00  0.00    -0.354 N 
ATOM     36  C   UNL A   1      40.011  28.833  29.592  1.00  0.00     0.074 A 
ATOM     37  C   UNL A   1      38.929  27.872  29.652  1.00  0.00     0.031 C 
ATOM     38  C   UNL A   1      44.582  25.569  26.413  1.00  0.00     0.029 A 
ATOM     39  C   UNL A   1      44.668  26.931  26.921  1.00  0.00     0.049 A 
ATOM     40  H   UNL A   1      43.261  27.961  28.061  1.00  0.00     0.167 HD
ATOM     41  C   UNL A   1      39.974  30.078  30.120  1.00  0.00     0.037 A 
ATOM     42  C   UNL A   1      45.706  27.766  26.734  1.00  0.00     0.037 A 
ATOM     43  C   UNL A   1      41.067  31.013  30.045  1.00  0.00     0.049 A 
ATOM     44  C   UNL A   1      45.623  29.152  27.299  1.00  0.00     0.074 A 
ATOM     45  C   UNL A   1      41.148  32.293  30.566  1.00  0.00     0.029 A 
ATOM     46  N   UNL A   1      42.273  30.767  29.400  1.00  0.00    -0.354 N 
ATOM     47  N   UNL A   1      44.641  29.712  27.963  1.00  0.00    -0.248 NA
ATOM     48  C   UNL A   1      46.785  30.022  27.088  1.00  0.00     0.031 C 
ATOM     49  C   UNL A   1      42.385  32.835  30.202  1.00  0.00     0.029 A 
ATOM     50  C   UNL A   1      43.095  31.878  29.492  1.00  0.00     0.049 A 
ATOM     51  H   UNL A   1      42.508  29.926  28.945  1.00  0.00     0.167 HD
ATOM     52  C   UNL A   1      45.073  30.993  28.271  1.00  0.00     0.074 A 
ATOM     53  C   UNL A   1      46.412  31.122  27.727  1.00  0.00     0.031 C 
ATOM     54  C   UNL A   1      44.424  31.975  28.941  1.00  0.00     0.037 A 
BRANCH  41  55
ATOM     55  C   UNL A   1      38.704  30.508  30.793  1.00  0.00     0.057 A 
ATOM     56  C   UNL A   1      37.671  31.147  30.095  1.00  0.00     0.134 A 
ATOM     57  C   UNL A   1      38.501  30.256  32.156  1.00  0.00     0.134 A 
ATOM     58  F   UNL A   1      37.806  31.429  28.791  1.00  0.00    -0.206 F 
ATOM     59  C   UNL A   1      36.491  31.536  30.732  1.00  0.00     0.040 A 
ATOM     60  C   UNL A   1      37.316  30.620  32.800  1.00  0.00     0.040 A 
ATOM     61  F   UNL A   1      39.448  29.647  32.885  1.00  0.00    -0.206 F 
ATOM     62  C   UNL A   1      36.309  31.267  32.088  1.00  0.00     0.006 A 
ENDBRANCH  41  55
BRANCH  42  63
ATOM     63  C   UNL A   1      46.890  27.303  25.970  1.00  0.00     0.057 A 
ATOM     64  C   UNL A   1      47.924  26.602  26.597  1.00  0.00     0.134 A 
ATOM     65  C   UNL A   1      46.995  27.518  24.591  1.00  0.00     0.134 A 
ATOM     66  F   UNL A   1      47.884  26.377  27.918  1.00  0.00    -0.206 F 
ATOM     67  C   UNL A   1      49.028  26.138  25.881  1.00  0.00     0.040 A 
ATOM     68  C   UNL A   1      48.081  27.039  23.857  1.00  0.00     0.040 A 
ATOM     69  F   UNL A   1      46.029  28.173  23.930  1.00  0.00    -0.206 F 
ATOM     70  C   UNL A   1      49.104  26.350  24.505  1.00  0.00     0.006 A 
ENDBRANCH  42  63
BRANCH  54  71
ATOM     71  C   UNL A   1      45.172  33.258  29.148  1.00  0.00     0.057 A 
ATOM     72  C   UNL A   1      45.070  34.324  28.247  1.00  0.00     0.134 A 
ATOM     73  C   UNL A   1      45.979  33.434  30.278  1.00  0.00     0.134 A 
ATOM     74  F   UNL A   1      44.325  34.210  27.138  1.00  0.00    -0.206 F 
ATOM     75  C   UNL A   1      45.763  35.517  28.454  1.00  0.00     0.040 A 
ATOM     76  C   UNL A   1      46.658  34.630  30.508  1.00  0.00     0.040 A 
ATOM     77  F   UNL A   1      46.113  32.450  31.180  1.00  0.00    -0.206 F 
ATOM     78  C   UNL A   1      46.554  35.675  29.591  1.00  0.00     0.006 A 
ENDBRANCH  54  71
ENDBRANCH  28  29
ENDBRANCH  21  23
ENDBRANCH  20  21
ENDBRANCH   1  20
TORSDOF 12
ENDMDL
MODEL 3
REMARK VINA RESULT:     -11.2      5.710      9.113
REMARK SMILES CC1(C)[C@H]2CC[C@]1(C)C(=O)N(CC(=O)OCCOC(=O)c1ccc(-c3c4nc(c(-c5c(F)cccc5F)c5ccc([nH]5)c(-c5c(F)cccc5F)c5nc(c(-c6c(F)cccc6F)c6ccc3[nH]6)C=C5)C=C4)cc1)C2=O
REMARK SMILES IDX 17 1 16 2 15 3 13 4 14 5 12 6 11 7 1 8 2 9 4 10 7 11 3 12
REMARK SMILES IDX 5 13 75 14 6 15 9 16 8 17 76 18 10 19 18 20 19 21 20 22
REMARK SMILES IDX 21 23 22 24 74 25 23 26 73 27 24 28 25 29 26 30 67 31 27 32
REMARK SMILES IDX 72 33 66 34 68 35 28 36 71 37 65 38 64 39 29 41 55 42 38 43
REMARK SMILES IDX 54 44 39 45 42 46 53 47 69 48 40 49 41 50 52 52 70 53 43 54
REMARK SMILES IDX 30 55 31 56 36 57 32 58 33 59 35 60 37 61 34 62 56 63 57 64
REMARK SMILES IDX 62 65 58 66 59 67 61 68 63 69 60 70 44 71 45 72 50 73 46 74
REMARK SMILES IDX 47 75 49 76 51 77 48 78
REMARK H PARENT 68 40 42 51
REMARK Flexibility Score: inf
ROOT
ATOM      1  C   UNL A   1      33.807  33.044  28.013  1.00  0.00     0.275 C 
ENDROOT
BRANCH   1   2
ATOM      2  C   UNL A   1      34.345  34.480  27.982  1.00  0.00     0.274 C 
BRANCH   2   3
ATOM      3  O   UNL A   1      34.466  34.965  29.330  1.00  0.00    -0.461 OA
BRANCH   3   4
ATOM      4  C   UNL A   1      33.354  35.374  29.995  1.00  0.00     0.326 C 
ATOM      5  O   UNL A   1      32.472  36.067  29.498  1.00  0.00    -0.250 OA
BRANCH   4   6
ATOM      6  C   UNL A   1      33.355  34.949  31.471  1.00  0.00     0.251 C 
BRANCH   6   7
ATOM      7  N   UNL A   1      34.644  34.493  32.000  1.00  0.00    -0.271 N 
ATOM      8  C   UNL A   1      35.808  33.704  34.936  1.00  0.00     0.013 C 
ATOM      9  C   UNL A   1      36.783  33.651  33.744  1.00  0.00    -0.010 C 
ATOM     10  C   UNL A   1      36.856  34.964  32.950  1.00  0.00     0.086 C 
ATOM     11  C   UNL A   1      36.328  32.724  32.580  1.00  0.00     0.053 C 
ATOM     12  C   UNL A   1      38.188  33.329  34.310  1.00  0.00     0.013 C 
ATOM     13  C   UNL A   1      37.597  34.581  31.654  1.00  0.00     0.015 C 
ATOM     14  C   UNL A   1      35.440  35.426  32.648  1.00  0.00     0.233 C 
ATOM     15  C   UNL A   1      37.303  33.087  31.442  1.00  0.00     0.018 C 
ATOM     16  C   UNL A   1      34.908  33.123  32.070  1.00  0.00     0.236 C 
ATOM     17  C   UNL A   1      36.390  31.233  32.911  1.00  0.00     0.022 C 
ATOM     18  O   UNL A   1      35.031  36.521  33.037  1.00  0.00    -0.274 OA
ATOM     19  O   UNL A   1      34.072  32.270  31.768  1.00  0.00    -0.274 OA
ENDBRANCH   6   7
ENDBRANCH   4   6
ENDBRANCH   3   4
ENDBRANCH   2   3
ENDBRANCH   1   2
BRANCH   1  20
ATOM     20  O   UNL A   1      34.660  32.174  28.786  1.00  0.00    -0.458 OA
BRANCH  20  21
ATOM     21  C   UNL A   1      35.018  31.032  28.161  1.00  0.00     0.338 C 
ATOM     22  O   UNL A   1      34.470  30.493  27.220  1.00  0.00    -0.246 OA
BRANCH  21  23
ATOM     23  C   UNL A   1      36.276  30.511  28.673  1.00  0.00     0.060 A 
ATOM     24  C   UNL A   1      36.209  29.482  29.620  1.00  0.00     0.016 A 
ATOM     25  C   UNL A   1      37.485  31.102  28.314  1.00  0.00     0.016 A 
ATOM     26  C   UNL A   1      37.378  29.015  30.200  1.00  0.00     0.010 A 
ATOM     27  C   UNL A   1      38.658  30.621  28.886  1.00  0.00     0.010 A 
ATOM     28  C   UNL A   1      38.607  29.568  29.816  1.00  0.00    -0.014 A 
BRANCH  28  29
ATOM     29  C   UNL A   1      39.864  28.979  30.307  1.00  0.00     0.031 A 
ATOM     30  C   UNL A   1      40.547  29.535  31.513  1.00  0.00     0.074 A 
ATOM     31  C   UNL A   1      40.400  27.972  29.597  1.00  0.00     0.049 A 
ATOM     32  N   UNL A   1      41.726  29.245  31.995  1.00  0.00    -0.248 NA
ATOM     33  C   UNL A   1      39.815  30.563  32.270  1.00  0.00     0.031 C 
ATOM     34  C   UNL A   1      39.792  27.361  28.411  1.00  0.00     0.029 A 
ATOM     35  N   UNL A   1      41.583  27.301  29.750  1.00  0.00    -0.354 N 
ATOM     36  C   UNL A   1      41.890  30.065  33.103  1.00  0.00     0.074 A 
ATOM     37  C   UNL A   1      40.695  30.874  33.213  1.00  0.00     0.031 C 
ATOM     38  C   UNL A   1      40.612  26.411  27.938  1.00  0.00     0.029 A 
ATOM     39  C   UNL A   1      41.819  26.387  28.754  1.00  0.00     0.049 A 
ATOM     40  H   UNL A   1      42.203  27.459  30.498  1.00  0.00     0.167 HD
ATOM     41  C   UNL A   1      42.951  30.128  33.941  1.00  0.00     0.037 A 
ATOM     42  C   UNL A   1      42.909  25.640  28.506  1.00  0.00     0.037 A 
ATOM     43  C   UNL A   1      44.128  29.307  33.807  1.00  0.00     0.049 A 
ATOM     44  C   UNL A   1      44.084  25.756  29.430  1.00  0.00     0.074 A 
ATOM     45  C   UNL A   1      45.253  29.269  34.613  1.00  0.00     0.029 A 
ATOM     46  N   UNL A   1      44.332  28.381  32.792  1.00  0.00    -0.354 N 
ATOM     47  N   UNL A   1      44.229  26.524  30.484  1.00  0.00    -0.248 NA
ATOM     48  C   UNL A   1      45.244  24.910  29.134  1.00  0.00     0.031 C 
ATOM     49  C   UNL A   1      46.153  28.352  34.062  1.00  0.00     0.029 A 
ATOM     50  C   UNL A   1      45.573  27.783  32.939  1.00  0.00     0.049 A 
ATOM     51  H   UNL A   1      43.690  28.180  32.074  1.00  0.00     0.167 HD
ATOM     52  C   UNL A   1      45.487  26.238  30.991  1.00  0.00     0.074 A 
ATOM     53  C   UNL A   1      46.059  25.218  30.133  1.00  0.00     0.031 C 
ATOM     54  C   UNL A   1      46.115  26.769  32.068  1.00  0.00     0.037 A 
BRANCH  41  55
ATOM     55  C   UNL A   1      42.898  31.135  35.052  1.00  0.00     0.057 A 
ATOM     56  C   UNL A   1      43.329  32.456  34.879  1.00  0.00     0.134 A 
ATOM     57  C   UNL A   1      42.385  30.782  36.307  1.00  0.00     0.134 A 
ATOM     58  F   UNL A   1      43.843  32.855  33.706  1.00  0.00    -0.206 F 
ATOM     59  C   UNL A   1      43.268  33.385  35.920  1.00  0.00     0.040 A 
ATOM     60  C   UNL A   1      42.298  31.709  37.348  1.00  0.00     0.040 A 
ATOM     61  F   UNL A   1      41.953  29.534  36.540  1.00  0.00    -0.206 F 
ATOM     62  C   UNL A   1      42.746  33.014  37.157  1.00  0.00     0.006 A 
ENDBRANCH  41  55
BRANCH  42  63
ATOM     63  C   UNL A   1      42.928  24.739  27.329  1.00  0.00     0.057 A 
ATOM     64  C   UNL A   1      43.482  25.151  26.114  1.00  0.00     0.134 A 
ATOM     65  C   UNL A   1      42.427  23.434  27.404  1.00  0.00     0.134 A 
ATOM     66  F   UNL A   1      43.966  26.394  25.979  1.00  0.00    -0.206 F 
ATOM     67  C   UNL A   1      43.530  24.300  25.009  1.00  0.00     0.040 A 
ATOM     68  C   UNL A   1      42.490  22.563  26.315  1.00  0.00     0.040 A 
ATOM     69  F   UNL A   1      41.894  22.976  28.547  1.00  0.00    -0.206 F 
ATOM     70  C   UNL A   1      43.040  22.999  25.111  1.00  0.00     0.006 A 
ENDBRANCH  42  63
BRANCH  54  71
ATOM     71  C   UNL A   1      47.475  26.228  32.390  1.00  0.00     0.057 A 
ATOM     72  C   UNL A   1      48.635  26.767  31.824  1.00  0.00     0.134 A 
ATOM     73  C   UNL A   1      47.622  25.174  33.300  1.00  0.00     0.134 A 
ATOM     74  F   UNL A   1      48.558  27.767  30.933  1.00  0.00    -0.206 F 
ATOM     75  C   UNL A   1      49.898  26.262  32.137  1.00  0.00     0.040 A 
ATOM     76  C   UNL A   1      48.880  24.677  33.639  1.00  0.00     0.040 A 
ATOM     77  F   UNL A   1      46.547  24.619  33.880  1.00  0.00    -0.206 F 
ATOM     78  C   UNL A   1      50.022  25.219  33.053  1.00  0.00     0.006 A 
ENDBRANCH  54  71
ENDBRANCH  28  29
ENDBRANCH  21  23
ENDBRANCH  20  21
ENDBRANCH   1  20
TORSDOF 12
ENDMDL
