MODEL 1
REMARK VINA RESULT:     -14.9      0.000      0.000
REMARK SMILES Cc1ccc(-c2nc(NC(=O)[C@H]3[C@@H](C(=O)OCCOC(=O)c4ccc(-c5c6nc(c(-c7c(F)cccc7F)c7ccc([nH]7)c(-c7c(F)cccc7F)c7nc(c(-c8c(F)cccc8F)c8ccc5[nH]8)C=C7)C=C6)cc4)[C@@H]4CC[C@H]3O4)sc2C)cc1
REMARK SMILES IDX 17 1 16 2 14 3 15 4 13 5 12 6 79 7 76 8 78 9 80 10 77 11
REMARK SMILES IDX 10 12 9 13 11 15 8 16 6 17 7 18 82 19 81 20 83 21 5 22 1 23
REMARK SMILES IDX 2 24 3 25 85 26 4 27 84 28 18 29 19 30 20 31 21 32 22 33
REMARK SMILES IDX 23 34 75 35 24 36 74 37 25 38 26 39 27 40 68 41 28 42 73 43
REMARK SMILES IDX 67 44 69 45 29 46 72 47 66 48 65 49 30 51 56 52 39 53 55 54
REMARK SMILES IDX 40 55 43 56 54 57 70 58 41 59 42 60 53 62 71 63 44 64 31 65
REMARK SMILES IDX 32 66 37 67 33 68 34 69 36 70 38 71 35 72 57 73 58 74 63 75
REMARK SMILES IDX 59 76 60 77 62 78 64 79 61 80 45 81 46 82 51 83 47 84 48 85
REMARK SMILES IDX 50 86 52 87 49 88
REMARK H PARENT 9 14 69 50 43 61
REMARK Flexibility Score: inf
ROOT
ATOM      1  C   UNL A   1      33.732  25.888  26.164  1.00  0.00     0.274 C 
ENDROOT
BRANCH   1   2
ATOM      2  O   UNL A   1      35.029  25.159  25.293  1.00  0.00    -0.462 OA
BRANCH   2   3
ATOM      3  C   UNL A   1      35.928  24.021  25.467  1.00  0.00     0.312 C 
ATOM      4  O   UNL A   1      37.140  24.095  25.373  1.00  0.00    -0.252 OA
BRANCH   3   5
ATOM      5  C   UNL A   1      35.197  22.576  25.654  1.00  0.00     0.143 C 
ATOM      6  C   UNL A   1      35.080  22.012  24.283  1.00  0.00     0.124 C 
ATOM      7  C   UNL A   1      33.827  21.163  24.241  1.00  0.00     0.132 C 
ATOM      8  C   UNL A   1      33.705  22.247  26.123  1.00  0.00     0.133 C 
ATOM      9  C   UNL A   1      33.827  20.037  25.265  1.00  0.00     0.035 C 
ATOM     10  O   UNL A   1      32.945  22.117  24.866  1.00  0.00    -0.373 OA
ATOM     11  C   UNL A   1      33.418  20.795  26.525  1.00  0.00     0.036 C 
BRANCH   6  12
ATOM     12  C   UNL A   1      34.788  23.121  23.304  1.00  0.00     0.232 C 
ATOM     13  N   UNL A   1      33.355  23.592  23.185  1.00  0.00    -0.302 N 
ATOM     14  H   UNL A   1      32.815  22.769  23.212  1.00  0.00     0.172 HD
ATOM     15  O   UNL A   1      35.794  23.421  22.665  1.00  0.00    -0.274 OA
BRANCH  13  16
ATOM     16  C   UNL A   1      32.291  24.775  23.038  1.00  0.00     0.190 A 
ATOM     17  C   UNL A   1      31.267  26.748  23.543  1.00  0.00     0.086 A 
ATOM     18  N   UNL A   1      32.421  26.108  22.942  1.00  0.00    -0.220 NA
ATOM     19  C   UNL A   1      30.599  25.874  24.392  1.00  0.00     0.031 A 
ATOM     20  S   UNL A   1      30.577  24.499  23.441  1.00  0.00    -0.101 S 
ATOM     21  C   UNL A   1      29.683  25.933  25.556  1.00  0.00     0.059 C 
BRANCH  17  22
ATOM     22  C   UNL A   1      30.687  28.095  23.372  1.00  0.00     0.001 A 
ATOM     23  C   UNL A   1      27.865  31.368  23.603  1.00  0.00     0.044 C 
ATOM     24  C   UNL A   1      28.943  30.342  23.383  1.00  0.00    -0.051 A 
ATOM     25  C   UNL A   1      28.678  29.267  22.548  1.00  0.00     0.004 A 
ATOM     26  C   UNL A   1      30.158  30.349  24.093  1.00  0.00     0.004 A 
ATOM     27  C   UNL A   1      29.564  28.193  22.508  1.00  0.00     0.010 A 
ATOM     28  C   UNL A   1      31.027  29.227  24.099  1.00  0.00     0.010 A 
ENDBRANCH  17  22
ENDBRANCH  13  16
ENDBRANCH   6  12
ENDBRANCH   3   5
ENDBRANCH   2   3
ENDBRANCH   1   2
BRANCH   1  29
ATOM     29  C   UNL A   1      33.329  27.707  26.498  1.00  0.00     0.275 C 
BRANCH  29  30
ATOM     30  O   UNL A   1      34.374  29.040  27.200  1.00  0.00    -0.458 OA
BRANCH  30  31
ATOM     31  C   UNL A   1      35.485  29.717  28.024  1.00  0.00     0.338 C 
ATOM     32  O   UNL A   1      35.146  30.725  28.646  1.00  0.00    -0.246 OA
BRANCH  31  33
ATOM     33  C   UNL A   1      37.132  29.362  28.136  1.00  0.00     0.060 A 
ATOM     34  C   UNL A   1      38.155  29.553  27.191  1.00  0.00     0.016 A 
ATOM     35  C   UNL A   1      37.725  28.806  29.241  1.00  0.00     0.016 A 
ATOM     36  C   UNL A   1      39.537  29.026  27.388  1.00  0.00     0.010 A 
ATOM     37  C   UNL A   1      38.907  28.128  29.409  1.00  0.00     0.010 A 
ATOM     38  C   UNL A   1      39.897  28.243  28.507  1.00  0.00    -0.014 A 
BRANCH  38  39
ATOM     39  C   UNL A   1      40.943  27.243  28.855  1.00  0.00     0.031 A 
ATOM     40  C   UNL A   1      40.912  25.757  28.527  1.00  0.00     0.074 A 
ATOM     41  C   UNL A   1      42.173  27.793  28.711  1.00  0.00     0.049 A 
ATOM     42  N   UNL A   1      41.822  24.914  28.908  1.00  0.00    -0.248 NA
ATOM     43  C   UNL A   1      39.958  25.119  27.613  1.00  0.00     0.031 C 
ATOM     44  C   UNL A   1      43.463  27.197  28.396  1.00  0.00     0.029 A 
ATOM     45  N   UNL A   1      42.473  29.157  28.769  1.00  0.00    -0.354 N 
ATOM     46  C   UNL A   1      41.804  23.822  28.044  1.00  0.00     0.074 A 
ATOM     47  C   UNL A   1      40.572  23.970  27.308  1.00  0.00     0.031 C 
ATOM     48  C   UNL A   1      44.422  28.103  28.657  1.00  0.00     0.029 A 
ATOM     49  C   UNL A   1      43.791  29.279  29.228  1.00  0.00     0.049 A 
ATOM     50  H   UNL A   1      41.868  29.897  28.531  1.00  0.00     0.167 HD
ATOM     51  C   UNL A   1      42.897  22.995  27.922  1.00  0.00     0.037 A 
ATOM     52  C   UNL A   1      43.954  29.747  30.498  1.00  0.00     0.037 A 
ATOM     53  C   UNL A   1      44.061  23.544  28.656  1.00  0.00     0.049 A 
ATOM     54  C   UNL A   1      44.236  28.598  31.446  1.00  0.00     0.074 A 
ATOM     55  C   UNL A   1      45.323  24.000  28.306  1.00  0.00     0.029 A 
ATOM     56  N   UNL A   1      43.894  23.950  29.972  1.00  0.00    -0.354 N 
ATOM     57  N   UNL A   1      44.585  27.411  31.022  1.00  0.00    -0.248 NA
ATOM     58  C   UNL A   1      44.131  28.629  32.900  1.00  0.00     0.031 C 
ATOM     59  C   UNL A   1      45.875  24.716  29.419  1.00  0.00     0.029 A 
ATOM     60  C   UNL A   1      44.959  24.685  30.456  1.00  0.00     0.049 A 
ATOM     61  H   UNL A   1      43.095  23.737  30.508  1.00  0.00     0.167 HD
ATOM     62  C   UNL A   1      44.641  26.521  32.039  1.00  0.00     0.074 A 
ATOM     63  C   UNL A   1      44.382  27.341  33.215  1.00  0.00     0.031 C 
ATOM     64  C   UNL A   1      44.881  25.191  31.825  1.00  0.00     0.037 A 
BRANCH  51  65
ATOM     65  C   UNL A   1      43.001  21.777  26.984  1.00  0.00     0.057 A 
ATOM     66  C   UNL A   1      42.137  20.662  27.103  1.00  0.00     0.134 A 
ATOM     67  C   UNL A   1      43.886  21.662  25.890  1.00  0.00     0.134 A 
ATOM     68  F   UNL A   1      41.129  20.641  27.983  1.00  0.00    -0.206 F 
ATOM     69  C   UNL A   1      42.223  19.511  26.296  1.00  0.00     0.040 A 
ATOM     70  C   UNL A   1      44.013  20.501  25.100  1.00  0.00     0.040 A 
ATOM     71  F   UNL A   1      44.618  22.700  25.466  1.00  0.00    -0.206 F 
ATOM     72  C   UNL A   1      43.187  19.411  25.308  1.00  0.00     0.006 A 
ENDBRANCH  51  65
BRANCH  52  73
ATOM     73  C   UNL A   1      43.216  31.037  30.678  1.00  0.00     0.057 A 
ATOM     74  C   UNL A   1      43.833  32.191  30.141  1.00  0.00     0.134 A 
ATOM     75  C   UNL A   1      41.842  31.141  30.925  1.00  0.00     0.134 A 
ATOM     76  F   UNL A   1      45.135  32.161  29.813  1.00  0.00    -0.206 F 
ATOM     77  C   UNL A   1      43.117  33.345  29.789  1.00  0.00     0.040 A 
ATOM     78  C   UNL A   1      41.111  32.295  30.570  1.00  0.00     0.040 A 
ATOM     79  F   UNL A   1      41.153  30.093  31.401  1.00  0.00    -0.206 F 
ATOM     80  C   UNL A   1      41.741  33.387  29.975  1.00  0.00     0.006 A 
ENDBRANCH  52  73
BRANCH  64  81
ATOM     81  C   UNL A   1      45.046  24.234  32.959  1.00  0.00     0.057 A 
ATOM     82  C   UNL A   1      46.166  24.284  33.795  1.00  0.00     0.134 A 
ATOM     83  C   UNL A   1      44.150  23.171  33.187  1.00  0.00     0.134 A 
ATOM     84  F   UNL A   1      47.145  25.178  33.587  1.00  0.00    -0.206 F 
ATOM     85  C   UNL A   1      46.329  23.404  34.865  1.00  0.00     0.040 A 
ATOM     86  C   UNL A   1      44.334  22.250  34.216  1.00  0.00     0.040 A 
ATOM     87  F   UNL A   1      43.051  22.987  32.444  1.00  0.00    -0.206 F 
ATOM     88  C   UNL A   1      45.408  22.384  35.080  1.00  0.00     0.006 A 
ENDBRANCH  64  81
ENDBRANCH  38  39
ENDBRANCH  31  33
ENDBRANCH  30  31
ENDBRANCH  29  30
ENDBRANCH   1  29
TORSDOF 14
ENDMDL
MODEL 2
REMARK VINA RESULT:     -14.6      3.114      9.415
REMARK SMILES Cc1ccc(-c2nc(NC(=O)[C@H]3[C@@H](C(=O)OCCOC(=O)c4ccc(-c5c6nc(c(-c7c(F)cccc7F)c7ccc([nH]7)c(-c7c(F)cccc7F)c7nc(c(-c8c(F)cccc8F)c8ccc5[nH]8)C=C7)C=C6)cc4)[C@@H]4CC[C@H]3O4)sc2C)cc1
REMARK SMILES IDX 17 1 16 2 14 3 15 4 13 5 12 6 79 7 76 8 78 9 80 10 77 11
REMARK SMILES IDX 10 12 9 13 11 15 8 16 6 17 7 18 82 19 81 20 83 21 5 22 1 23
REMARK SMILES IDX 2 24 3 25 85 26 4 27 84 28 18 29 19 30 20 31 21 32 22 33
REMARK SMILES IDX 23 34 75 35 24 36 74 37 25 38 26 39 27 40 68 41 28 42 73 43
REMARK SMILES IDX 67 44 69 45 29 46 72 47 66 48 65 49 30 51 56 52 39 53 55 54
REMARK SMILES IDX 40 55 43 56 54 57 70 58 41 59 42 60 53 62 71 63 44 64 31 65
REMARK SMILES IDX 32 66 37 67 33 68 34 69 36 70 38 71 35 72 57 73 58 74 63 75
REMARK SMILES IDX 59 76 60 77 62 78 64 79 61 80 45 81 46 82 51 83 47 84 48 85
REMARK SMILES IDX 50 86 52 87 49 88
REMARK H PARENT 9 14 69 50 43 61
REMARK Flexibility Score: inf
ROOT
ATOM      1  C   UNL A   1      34.889  24.985  24.684  1.00  0.00     0.274 C 
ENDROOT
BRANCH   1   2
ATOM      2  O   UNL A   1      33.800  26.065  25.472  1.00  0.00    -0.462 OA
BRANCH   2   3
ATOM      3  C   UNL A   1      33.698  27.504  25.701  1.00  0.00     0.312 C 
ATOM      4  O   UNL A   1      34.273  28.089  26.601  1.00  0.00    -0.252 OA
BRANCH   3   5
ATOM      5  C   UNL A   1      32.630  28.287  24.751  1.00  0.00     0.143 C 
ATOM      6  C   UNL A   1      31.332  28.215  25.473  1.00  0.00     0.124 C 
ATOM      7  C   UNL A   1      30.230  28.179  24.435  1.00  0.00     0.132 C 
ATOM      8  C   UNL A   1      32.068  27.885  23.309  1.00  0.00     0.133 C 
ATOM      9  C   UNL A   1      30.239  29.384  23.506  1.00  0.00     0.035 C 
ATOM     10  O   UNL A   1      30.814  27.165  23.593  1.00  0.00    -0.373 OA
ATOM     11  C   UNL A   1      31.340  28.985  22.527  1.00  0.00     0.036 C 
BRANCH   6  12
ATOM     12  C   UNL A   1      31.212  26.880  26.162  1.00  0.00     0.232 C 
ATOM     13  N   UNL A   1      30.940  25.667  25.299  1.00  0.00    -0.302 N 
ATOM     14  H   UNL A   1      30.277  25.971  24.638  1.00  0.00     0.172 HD
ATOM     15  O   UNL A   1      31.269  27.007  27.384  1.00  0.00    -0.274 OA
BRANCH  13  16
ATOM     16  C   UNL A   1      31.206  24.134  24.937  1.00  0.00     0.190 A 
ATOM     17  C   UNL A   1      32.439  22.258  24.539  1.00  0.00     0.086 A 
ATOM     18  N   UNL A   1      31.919  23.167  25.540  1.00  0.00    -0.220 NA
ATOM     19  C   UNL A   1      32.431  22.845  23.279  1.00  0.00     0.031 A 
ATOM     20  S   UNL A   1      30.906  23.534  23.286  1.00  0.00    -0.101 S 
ATOM     21  C   UNL A   1      33.127  22.704  21.979  1.00  0.00     0.059 C 
BRANCH  17  22
ATOM     22  C   UNL A   1      32.909  20.861  24.626  1.00  0.00     0.001 A 
ATOM     23  C   UNL A   1      34.302  16.953  23.394  1.00  0.00     0.044 C 
ATOM     24  C   UNL A   1      33.783  18.226  24.004  1.00  0.00    -0.051 A 
ATOM     25  C   UNL A   1      32.467  18.593  23.761  1.00  0.00     0.004 A 
ATOM     26  C   UNL A   1      34.609  19.132  24.695  1.00  0.00     0.004 A 
ATOM     27  C   UNL A   1      32.032  19.867  24.116  1.00  0.00     0.010 A 
ATOM     28  C   UNL A   1      34.181  20.450  24.999  1.00  0.00     0.010 A 
ENDBRANCH  17  22
ENDBRANCH  13  16
ENDBRANCH   6  12
ENDBRANCH   3   5
ENDBRANCH   2   3
ENDBRANCH   1   2
BRANCH   1  29
ATOM     29  C   UNL A   1      36.106  23.717  25.387  1.00  0.00     0.275 C 
BRANCH  29  30
ATOM     30  O   UNL A   1      37.886  23.886  25.794  1.00  0.00    -0.458 OA
BRANCH  30  31
ATOM     31  C   UNL A   1      39.155  24.292  26.566  1.00  0.00     0.338 C 
ATOM     32  O   UNL A   1      40.118  23.533  26.441  1.00  0.00    -0.246 OA
BRANCH  31  33
ATOM     33  C   UNL A   1      39.415  25.559  27.650  1.00  0.00     0.060 A 
ATOM     34  C   UNL A   1      38.984  25.703  28.980  1.00  0.00     0.016 A 
ATOM     35  C   UNL A   1      40.133  26.690  27.352  1.00  0.00     0.016 A 
ATOM     36  C   UNL A   1      39.160  26.970  29.748  1.00  0.00     0.010 A 
ATOM     37  C   UNL A   1      40.159  27.941  27.918  1.00  0.00     0.010 A 
ATOM     38  C   UNL A   1      39.713  28.135  29.171  1.00  0.00    -0.014 A 
BRANCH  38  39
ATOM     39  C   UNL A   1      39.678  29.603  29.414  1.00  0.00     0.031 A 
ATOM     40  C   UNL A   1      38.564  30.557  29.005  1.00  0.00     0.074 A 
ATOM     41  C   UNL A   1      40.192  29.880  30.637  1.00  0.00     0.049 A 
ATOM     42  N   UNL A   1      38.609  31.840  29.186  1.00  0.00    -0.248 NA
ATOM     43  C   UNL A   1      37.245  30.144  28.514  1.00  0.00     0.031 C 
ATOM     44  C   UNL A   1      39.932  30.970  31.566  1.00  0.00     0.029 A 
ATOM     45  N   UNL A   1      41.093  29.082  31.347  1.00  0.00    -0.354 N 
ATOM     46  C   UNL A   1      37.307  32.331  29.216  1.00  0.00     0.074 A 
ATOM     47  C   UNL A   1      36.504  31.242  28.713  1.00  0.00     0.031 C 
ATOM     48  C   UNL A   1      40.897  30.967  32.503  1.00  0.00     0.029 A 
ATOM     49  C   UNL A   1      41.854  29.930  32.162  1.00  0.00     0.049 A 
ATOM     50  H   UNL A   1      41.178  28.103  31.287  1.00  0.00     0.167 HD
ATOM     51  C   UNL A   1      37.015  33.539  29.805  1.00  0.00     0.037 A 
ATOM     52  C   UNL A   1      43.155  30.122  31.797  1.00  0.00     0.037 A 
ATOM     53  C   UNL A   1      38.196  34.079  30.518  1.00  0.00     0.049 A 
ATOM     54  C   UNL A   1      43.308  31.451  31.086  1.00  0.00     0.074 A 
ATOM     55  C   UNL A   1      38.503  34.373  31.838  1.00  0.00     0.029 A 
ATOM     56  N   UNL A   1      39.413  34.134  29.854  1.00  0.00    -0.354 N 
ATOM     57  N   UNL A   1      42.387  32.379  31.131  1.00  0.00    -0.248 NA
ATOM     58  C   UNL A   1      44.433  31.865  30.257  1.00  0.00     0.031 C 
ATOM     59  C   UNL A   1      39.921  34.559  31.946  1.00  0.00     0.029 A 
ATOM     60  C   UNL A   1      40.480  34.395  30.692  1.00  0.00     0.049 A 
ATOM     61  H   UNL A   1      39.506  34.001  28.883  1.00  0.00     0.167 HD
ATOM     62  C   UNL A   1      42.685  33.410  30.308  1.00  0.00     0.074 A 
ATOM     63  C   UNL A   1      44.006  33.062  29.801  1.00  0.00     0.031 C 
ATOM     64  C   UNL A   1      41.818  34.449  30.105  1.00  0.00     0.037 A 
BRANCH  51  65
ATOM     65  C   UNL A   1      35.612  34.167  29.919  1.00  0.00     0.057 A 
ATOM     66  C   UNL A   1      34.855  34.524  28.779  1.00  0.00     0.134 A 
ATOM     67  C   UNL A   1      34.911  34.386  31.125  1.00  0.00     0.134 A 
ATOM     68  F   UNL A   1      35.281  34.259  27.538  1.00  0.00    -0.206 F 
ATOM     69  C   UNL A   1      33.589  35.139  28.836  1.00  0.00     0.040 A 
ATOM     70  C   UNL A   1      33.663  35.038  31.202  1.00  0.00     0.040 A 
ATOM     71  F   UNL A   1      35.353  33.903  32.293  1.00  0.00    -0.206 F 
ATOM     72  C   UNL A   1      32.999  35.429  30.053  1.00  0.00     0.006 A 
ENDBRANCH  51  65
BRANCH  52  73
ATOM     73  C   UNL A   1      43.846  28.805  31.622  1.00  0.00     0.057 A 
ATOM     74  C   UNL A   1      44.183  28.112  32.808  1.00  0.00     0.134 A 
ATOM     75  C   UNL A   1      43.799  28.030  30.457  1.00  0.00     0.134 A 
ATOM     76  F   UNL A   1      44.189  28.763  33.983  1.00  0.00    -0.206 F 
ATOM     77  C   UNL A   1      44.376  26.724  32.852  1.00  0.00     0.040 A 
ATOM     78  C   UNL A   1      43.987  26.631  30.490  1.00  0.00     0.040 A 
ATOM     79  F   UNL A   1      43.455  28.582  29.284  1.00  0.00    -0.206 F 
ATOM     80  C   UNL A   1      44.246  25.972  31.692  1.00  0.00     0.006 A 
ENDBRANCH  52  73
BRANCH  64  81
ATOM     81  C   UNL A   1      42.197  35.633  29.279  1.00  0.00     0.057 A 
ATOM     82  C   UNL A   1      43.122  36.575  29.741  1.00  0.00     0.134 A 
ATOM     83  C   UNL A   1      41.576  35.928  28.050  1.00  0.00     0.134 A 
ATOM     84  F   UNL A   1      43.680  36.458  30.956  1.00  0.00    -0.206 F 
ATOM     85  C   UNL A   1      43.495  37.681  28.977  1.00  0.00     0.040 A 
ATOM     86  C   UNL A   1      41.896  37.060  27.305  1.00  0.00     0.040 A 
ATOM     87  F   UNL A   1      40.651  35.127  27.504  1.00  0.00    -0.206 F 
ATOM     88  C   UNL A   1      42.883  37.924  27.752  1.00  0.00     0.006 A 
ENDBRANCH  64  81
ENDBRANCH  38  39
ENDBRANCH  31  33
ENDBRANCH  30  31
ENDBRANCH  29  30
ENDBRANCH   1  29
TORSDOF 14
ENDMDL
MODEL 3
REMARK VINA RESULT:     -14.2      2.317      5.184
REMARK SMILES Cc1ccc(-c2nc(NC(=O)[C@H]3[C@@H](C(=O)OCCOC(=O)c4ccc(-c5c6nc(c(-c7c(F)cccc7F)c7ccc([nH]7)c(-c7c(F)cccc7F)c7nc(c(-c8c(F)cccc8F)c8ccc5[nH]8)C=C7)C=C6)cc4)[C@@H]4CC[C@H]3O4)sc2C)cc1
REMARK SMILES IDX 17 1 16 2 14 3 15 4 13 5 12 6 79 7 76 8 78 9 80 10 77 11
REMARK SMILES IDX 10 12 9 13 11 15 8 16 6 17 7 18 82 19 81 20 83 21 5 22 1 23
REMARK SMILES IDX 2 24 3 25 85 26 4 27 84 28 18 29 19 30 20 31 21 32 22 33
REMARK SMILES IDX 23 34 75 35 24 36 74 37 25 38 26 39 27 40 68 41 28 42 73 43
REMARK SMILES IDX 67 44 69 45 29 46 72 47 66 48 65 49 30 51 56 52 39 53 55 54
REMARK SMILES IDX 40 55 43 56 54 57 70 58 41 59 42 60 53 62 71 63 44 64 31 65
REMARK SMILES IDX 32 66 37 67 33 68 34 69 36 70 38 71 35 72 57 73 58 74 63 75
REMARK SMILES IDX 59 76 60 77 62 78 64 79 61 80 45 81 46 82 51 83 47 84 48 85
REMARK SMILES IDX 50 86 52 87 49 88
REMARK H PARENT 9 14 69 50 43 61
REMARK Flexibility Score: inf
ROOT
ATOM      1  C   UNL A   1      32.515  29.627  27.203  1.00  0.00     0.274 C 
ENDROOT
BRANCH   1   2
ATOM      2  O   UNL A   1      32.057  28.828  25.746  1.00  0.00    -0.462 OA
BRANCH   2   3
ATOM      3  C   UNL A   1      31.805  29.199  24.355  1.00  0.00     0.312 C 
ATOM      4  O   UNL A   1      32.683  29.356  23.527  1.00  0.00    -0.252 OA
BRANCH   3   5
ATOM      5  C   UNL A   1      30.253  29.543  23.996  1.00  0.00     0.143 C 
ATOM      6  C   UNL A   1      29.631  28.239  23.642  1.00  0.00     0.124 C 
ATOM      7  C   UNL A   1      28.553  28.508  22.613  1.00  0.00     0.132 C 
ATOM      8  C   UNL A   1      29.655  30.377  22.771  1.00  0.00     0.133 C 
ATOM      9  C   UNL A   1      27.484  29.476  23.100  1.00  0.00     0.035 C 
ATOM     10  O   UNL A   1      29.338  29.359  21.754  1.00  0.00    -0.373 OA
ATOM     11  C   UNL A   1      28.190  30.813  22.890  1.00  0.00     0.036 C 
BRANCH   6  12
ATOM     12  C   UNL A   1      30.629  27.391  22.895  1.00  0.00     0.232 C 
ATOM     13  N   UNL A   1      31.555  26.515  23.711  1.00  0.00    -0.302 N 
ATOM     14  H   UNL A   1      31.820  27.073  24.477  1.00  0.00     0.172 HD
ATOM     15  O   UNL A   1      30.587  27.622  21.689  1.00  0.00    -0.274 OA
BRANCH  13  16
ATOM     16  C   UNL A   1      32.312  25.126  23.934  1.00  0.00     0.190 A 
ATOM     17  C   UNL A   1      32.519  22.872  24.204  1.00  0.00     0.086 A 
ATOM     18  N   UNL A   1      32.280  23.956  23.273  1.00  0.00    -0.220 NA
ATOM     19  C   UNL A   1      32.289  23.279  25.514  1.00  0.00     0.031 A 
ATOM     20  S   UNL A   1      33.072  24.757  25.503  1.00  0.00    -0.101 S 
ATOM     21  C   UNL A   1      31.951  22.677  26.824  1.00  0.00     0.059 C 
BRANCH  17  22
ATOM     22  C   UNL A   1      32.989  21.486  24.004  1.00  0.00     0.001 A 
ATOM     23  C   UNL A   1      34.088  17.396  24.889  1.00  0.00     0.044 C 
ATOM     24  C   UNL A   1      33.804  18.790  24.405  1.00  0.00    -0.051 A 
ATOM     25  C   UNL A   1      34.605  19.829  24.857  1.00  0.00     0.004 A 
ATOM     26  C   UNL A   1      32.677  19.111  23.624  1.00  0.00     0.004 A 
ATOM     27  C   UNL A   1      34.226  21.146  24.612  1.00  0.00     0.010 A 
ATOM     28  C   UNL A   1      32.262  20.454  23.429  1.00  0.00     0.010 A 
ENDBRANCH  17  22
ENDBRANCH  13  16
ENDBRANCH   6  12
ENDBRANCH   3   5
ENDBRANCH   2   3
ENDBRANCH   1   2
BRANCH   1  29
ATOM     29  C   UNL A   1      33.434  31.257  27.489  1.00  0.00     0.275 C 
BRANCH  29  30
ATOM     30  O   UNL A   1      35.217  31.575  27.774  1.00  0.00    -0.458 OA
BRANCH  30  31
ATOM     31  C   UNL A   1      36.637  31.408  28.346  1.00  0.00     0.338 C 
ATOM     32  O   UNL A   1      37.289  32.448  28.461  1.00  0.00    -0.246 OA
BRANCH  31  33
ATOM     33  C   UNL A   1      37.495  30.012  28.749  1.00  0.00     0.060 A 
ATOM     34  C   UNL A   1      37.300  29.118  29.817  1.00  0.00     0.016 A 
ATOM     35  C   UNL A   1      38.564  29.534  28.034  1.00  0.00     0.016 A 
ATOM     36  C   UNL A   1      38.260  28.018  30.127  1.00  0.00     0.010 A 
ATOM     37  C   UNL A   1      39.585  28.678  28.367  1.00  0.00     0.010 A 
ATOM     38  C   UNL A   1      39.463  27.838  29.409  1.00  0.00    -0.014 A 
BRANCH  38  39
ATOM     39  C   UNL A   1      40.791  27.204  29.635  1.00  0.00     0.031 A 
ATOM     40  C   UNL A   1      41.411  26.091  28.801  1.00  0.00     0.074 A 
ATOM     41  C   UNL A   1      41.690  28.142  30.021  1.00  0.00     0.049 A 
ATOM     42  N   UNL A   1      42.547  25.529  29.076  1.00  0.00    -0.248 NA
ATOM     43  C   UNL A   1      40.899  25.630  27.506  1.00  0.00     0.031 C 
ATOM     44  C   UNL A   1      43.135  28.214  29.859  1.00  0.00     0.029 A 
ATOM     45  N   UNL A   1      41.390  29.359  30.639  1.00  0.00    -0.354 N 
ATOM     46  C   UNL A   1      43.066  24.982  27.906  1.00  0.00     0.074 A 
ATOM     47  C   UNL A   1      41.961  25.007  26.979  1.00  0.00     0.031 C 
ATOM     48  C   UNL A   1      43.602  29.183  30.667  1.00  0.00     0.029 A 
ATOM     49  C   UNL A   1      42.489  29.708  31.435  1.00  0.00     0.049 A 
ATOM     50  H   UNL A   1      40.560  29.877  30.534  1.00  0.00     0.167 HD
ATOM     51  C   UNL A   1      44.409  24.711  27.784  1.00  0.00     0.037 A 
ATOM     52  C   UNL A   1      42.321  29.607  32.785  1.00  0.00     0.037 A 
ATOM     53  C   UNL A   1      45.165  25.246  28.940  1.00  0.00     0.049 A 
ATOM     54  C   UNL A   1      42.960  28.332  33.297  1.00  0.00     0.074 A 
ATOM     55  C   UNL A   1      46.152  26.205  29.116  1.00  0.00     0.029 A 
ATOM     56  N   UNL A   1      44.719  24.963  30.223  1.00  0.00    -0.354 N 
ATOM     57  N   UNL A   1      43.809  27.639  32.582  1.00  0.00    -0.248 NA
ATOM     58  C   UNL A   1      42.713  27.695  34.585  1.00  0.00     0.031 C 
ATOM     59  C   UNL A   1      46.248  26.510  30.514  1.00  0.00     0.029 A 
ATOM     60  C   UNL A   1      45.332  25.728  31.196  1.00  0.00     0.049 A 
ATOM     61  H   UNL A   1      44.033  24.284  30.420  1.00  0.00     0.167 HD
ATOM     62  C   UNL A   1      44.131  26.474  33.190  1.00  0.00     0.074 A 
ATOM     63  C   UNL A   1      43.444  26.566  34.472  1.00  0.00     0.031 C 
ATOM     64  C   UNL A   1      44.920  25.535  32.585  1.00  0.00     0.037 A 
BRANCH  51  65
ATOM     65  C   UNL A   1      45.098  24.131  26.533  1.00  0.00     0.057 A 
ATOM     66  C   UNL A   1      44.831  22.822  26.069  1.00  0.00     0.134 A 
ATOM     67  C   UNL A   1      45.987  24.834  25.691  1.00  0.00     0.134 A 
ATOM     68  F   UNL A   1      43.905  22.044  26.642  1.00  0.00    -0.206 F 
ATOM     69  C   UNL A   1      45.468  22.236  24.957  1.00  0.00     0.040 A 
ATOM     70  C   UNL A   1      46.664  24.250  24.600  1.00  0.00     0.040 A 
ATOM     71  F   UNL A   1      46.186  26.152  25.822  1.00  0.00    -0.206 F 
ATOM     72  C   UNL A   1      46.415  22.940  24.234  1.00  0.00     0.006 A 
ENDBRANCH  51  65
BRANCH  52  73
ATOM     73  C   UNL A   1      41.101  30.360  33.216  1.00  0.00     0.057 A 
ATOM     74  C   UNL A   1      41.204  31.770  33.217  1.00  0.00     0.134 A 
ATOM     75  C   UNL A   1      39.799  29.845  33.199  1.00  0.00     0.134 A 
ATOM     76  F   UNL A   1      42.413  32.352  33.170  1.00  0.00    -0.206 F 
ATOM     77  C   UNL A   1      40.090  32.616  33.119  1.00  0.00     0.040 A 
ATOM     78  C   UNL A   1      38.671  30.687  33.094  1.00  0.00     0.040 A 
ATOM     79  F   UNL A   1      39.590  28.521  33.161  1.00  0.00    -0.206 F 
ATOM     80  C   UNL A   1      38.816  32.072  33.024  1.00  0.00     0.006 A 
ENDBRANCH  52  73
BRANCH  64  81
ATOM     81  C   UNL A   1      45.357  24.301  33.302  1.00  0.00     0.057 A 
ATOM     82  C   UNL A   1      44.530  23.175  33.382  1.00  0.00     0.134 A 
ATOM     83  C   UNL A   1      46.564  24.233  34.024  1.00  0.00     0.134 A 
ATOM     84  F   UNL A   1      43.303  23.179  32.837  1.00  0.00    -0.206 F 
ATOM     85  C   UNL A   1      44.927  22.011  34.039  1.00  0.00     0.040 A 
ATOM     86  C   UNL A   1      46.945  23.097  34.734  1.00  0.00     0.040 A 
ATOM     87  F   UNL A   1      47.437  25.248  34.059  1.00  0.00    -0.206 F 
ATOM     88  C   UNL A   1      46.142  21.969  34.715  1.00  0.00     0.006 A 
ENDBRANCH  64  81
ENDBRANCH  38  39
ENDBRANCH  31  33
ENDBRANCH  30  31
ENDBRANCH  29  30
ENDBRANCH   1  29
TORSDOF 14
ENDMDL
